MODEL 1
REMARK VINA RESULT:     -11.6      0.000      0.000
REMARK SMILES Cc1ccc(NC(=O)C[NH+]2CCC(C(=O)OCCOC(=O)c3ccc(-c4c5nc(c(-c6c(F)cccc6F)c6ccc([nH]6)c(-c6c(F)cccc6F)c6nc(c(-c7c(F)cccc7F)c7ccc4[nH]7)C=C6)C=C5)cc3)CC2)cc1Cl
REMARK SMILES IDX 17 1 16 2 14 3 15 4 13 5 10 6 11 7 77 8 12 10 76 11 9 12
REMARK SMILES IDX 7 13 6 14 8 16 5 17 1 18 2 19 3 20 79 21 4 22 78 23 80 24
REMARK SMILES IDX 18 25 19 26 20 27 21 28 22 29 23 30 75 31 24 32 74 33 25 34
REMARK SMILES IDX 26 35 27 36 68 37 28 38 73 39 67 40 69 41 29 42 72 43 66 44
REMARK SMILES IDX 65 45 30 47 56 48 39 49 55 50 40 51 43 52 54 53 70 54 41 55
REMARK SMILES IDX 42 56 53 58 71 59 44 60 31 61 32 62 37 63 33 64 34 65 36 66
REMARK SMILES IDX 38 67 35 68 57 69 58 70 63 71 59 72 60 73 62 74 64 75 61 76
REMARK SMILES IDX 45 77 46 78 51 79 47 80 48 81 50 82 52 83 49 84
REMARK H PARENT 10 9 6 15 69 46 43 57
REMARK Flexibility Score: inf
ROOT
ATOM      1  C   UNL A   1      42.594  20.706  26.299  1.00  0.00     0.274 C 
ENDROOT
BRANCH   1   2
ATOM      2  O   UNL A   1      41.251  20.622  25.788  1.00  0.00    -0.462 OA
BRANCH   2   3
ATOM      3  C   UNL A   1      40.326  21.290  26.517  1.00  0.00     0.309 C 
ATOM      4  O   UNL A   1      40.372  21.452  27.734  1.00  0.00    -0.252 OA
BRANCH   3   5
ATOM      5  C   UNL A   1      39.155  21.780  25.709  1.00  0.00     0.110 C 
ATOM      6  N   UNL A   1      36.543  22.691  24.853  1.00  0.00    -0.327 N 
ATOM      7  C   UNL A   1      37.110  21.450  24.309  1.00  0.00     0.263 C 
ATOM      8  C   UNL A   1      37.525  23.591  25.449  1.00  0.00     0.263 C 
ATOM      9  H   UNL A   1      35.963  22.374  25.629  1.00  0.00     0.348 HD
ATOM     10  C   UNL A   1      38.092  20.771  25.287  1.00  0.00     0.077 C 
ATOM     11  C   UNL A   1      38.472  22.927  26.432  1.00  0.00     0.077 C 
BRANCH   6  12
ATOM     12  C   UNL A   1      35.627  23.392  23.911  1.00  0.00     0.363 C 
BRANCH  12  13
ATOM     13  C   UNL A   1      34.118  23.160  24.116  1.00  0.00     0.279 C 
ATOM     14  N   UNL A   1      33.230  24.118  24.529  1.00  0.00    -0.321 N 
ATOM     15  H   UNL A   1      32.312  23.784  24.654  1.00  0.00     0.170 HD
ATOM     16  O   UNL A   1      33.630  22.054  23.843  1.00  0.00    -0.268 OA
BRANCH  14  17
ATOM     17  C   UNL A   1      33.380  25.485  24.808  1.00  0.00     0.042 A 
ATOM     18  C   UNL A   1      32.516  29.606  25.695  1.00  0.00     0.046 C 
ATOM     19  C   UNL A   1      32.992  28.207  25.411  1.00  0.00    -0.032 A 
ATOM     20  C   UNL A   1      32.870  27.232  26.410  1.00  0.00     0.007 A 
ATOM     21  C   UNL A   1      33.445  27.810  24.145  1.00  0.00     0.046 A 
ATOM     22  C   UNL A   1      33.092  25.883  26.117  1.00  0.00     0.026 A 
ATOM     23  C   UNL A   1      33.660  26.456  23.852  1.00  0.00     0.047 A 
ATOM     24  Cl  UNL A   1      33.643  28.946  22.858  1.00  0.00    -0.084 Cl
ENDBRANCH  14  17
ENDBRANCH  12  13
ENDBRANCH   6  12
ENDBRANCH   3   5
ENDBRANCH   2   3
ENDBRANCH   1   2
BRANCH   1  25
ATOM     25  C   UNL A   1      43.495  21.576  25.418  1.00  0.00     0.275 C 
BRANCH  25  26
ATOM     26  O   UNL A   1      42.834  22.773  24.967  1.00  0.00    -0.458 OA
BRANCH  26  27
ATOM     27  C   UNL A   1      43.582  23.897  25.034  1.00  0.00     0.338 C 
ATOM     28  O   UNL A   1      44.565  24.176  24.362  1.00  0.00    -0.246 OA
BRANCH  27  29
ATOM     29  C   UNL A   1      42.992  24.844  25.991  1.00  0.00     0.060 A 
ATOM     30  C   UNL A   1      43.519  26.136  26.065  1.00  0.00     0.016 A 
ATOM     31  C   UNL A   1      42.011  24.426  26.892  1.00  0.00     0.016 A 
ATOM     32  C   UNL A   1      43.078  27.018  27.049  1.00  0.00     0.010 A 
ATOM     33  C   UNL A   1      41.567  25.311  27.878  1.00  0.00     0.010 A 
ATOM     34  C   UNL A   1      42.109  26.606  27.971  1.00  0.00    -0.014 A 
BRANCH  34  35
ATOM     35  C   UNL A   1      41.709  27.506  29.079  1.00  0.00     0.031 A 
ATOM     36  C   UNL A   1      42.465  27.471  30.375  1.00  0.00     0.074 A 
ATOM     37  C   UNL A   1      40.676  28.352  28.921  1.00  0.00     0.049 A 
ATOM     38  N   UNL A   1      42.202  28.079  31.503  1.00  0.00    -0.248 NA
ATOM     39  C   UNL A   1      43.678  26.640  30.405  1.00  0.00     0.031 C 
ATOM     40  C   UNL A   1      39.897  28.517  27.694  1.00  0.00     0.029 A 
ATOM     41  N   UNL A   1      40.100  29.228  29.805  1.00  0.00    -0.354 N 
ATOM     42  C   UNL A   1      43.196  27.681  32.386  1.00  0.00     0.074 A 
ATOM     43  C   UNL A   1      44.068  26.779  31.665  1.00  0.00     0.031 C 
ATOM     44  C   UNL A   1      38.941  29.436  27.904  1.00  0.00     0.029 A 
ATOM     45  C   UNL A   1      39.011  29.887  29.292  1.00  0.00     0.049 A 
ATOM     46  H   UNL A   1      40.436  29.371  30.720  1.00  0.00     0.167 HD
ATOM     47  C   UNL A   1      43.363  28.036  33.683  1.00  0.00     0.037 A 
ATOM     48  C   UNL A   1      38.147  30.733  29.885  1.00  0.00     0.037 A 
ATOM     49  C   UNL A   1      42.511  28.953  34.391  1.00  0.00     0.049 A 
ATOM     50  C   UNL A   1      38.323  31.068  31.340  1.00  0.00     0.074 A 
ATOM     51  C   UNL A   1      42.612  29.390  35.701  1.00  0.00     0.029 A 
ATOM     52  N   UNL A   1      41.402  29.579  33.844  1.00  0.00    -0.354 N 
ATOM     53  N   UNL A   1      39.255  30.673  32.173  1.00  0.00    -0.248 NA
ATOM     54  C   UNL A   1      37.319  31.957  31.941  1.00  0.00     0.031 C 
ATOM     55  C   UNL A   1      41.543  30.258  35.955  1.00  0.00     0.029 A 
ATOM     56  C   UNL A   1      40.798  30.386  34.795  1.00  0.00     0.049 A 
ATOM     57  H   UNL A   1      41.089  29.467  32.917  1.00  0.00     0.167 HD
ATOM     58  C   UNL A   1      38.962  31.276  33.388  1.00  0.00     0.074 A 
ATOM     59  C   UNL A   1      37.770  32.075  33.182  1.00  0.00     0.031 C 
ATOM     60  C   UNL A   1      39.617  31.178  34.569  1.00  0.00     0.037 A 
BRANCH  47  61
ATOM     61  C   UNL A   1      44.496  27.400  34.430  1.00  0.00     0.057 A 
ATOM     62  C   UNL A   1      45.762  27.995  34.503  1.00  0.00     0.134 A 
ATOM     63  C   UNL A   1      44.305  26.192  35.113  1.00  0.00     0.134 A 
ATOM     64  F   UNL A   1      46.010  29.145  33.859  1.00  0.00    -0.206 F 
ATOM     65  C   UNL A   1      46.803  27.402  35.218  1.00  0.00     0.040 A 
ATOM     66  C   UNL A   1      45.334  25.600  35.846  1.00  0.00     0.040 A 
ATOM     67  F   UNL A   1      43.116  25.574  35.084  1.00  0.00    -0.206 F 
ATOM     68  C   UNL A   1      46.589  26.202  35.897  1.00  0.00     0.006 A 
ENDBRANCH  47  61
BRANCH  48  69
ATOM     69  C   UNL A   1      37.016  31.300  29.113  1.00  0.00     0.057 A 
ATOM     70  C   UNL A   1      37.019  32.639  28.706  1.00  0.00     0.134 A 
ATOM     71  C   UNL A   1      35.902  30.524  28.774  1.00  0.00     0.134 A 
ATOM     72  F   UNL A   1      38.050  33.437  29.024  1.00  0.00    -0.206 F 
ATOM     73  C   UNL A   1      35.949  33.189  28.000  1.00  0.00     0.040 A 
ATOM     74  C   UNL A   1      34.835  31.054  28.049  1.00  0.00     0.040 A 
ATOM     75  F   UNL A   1      35.840  29.233  29.137  1.00  0.00    -0.206 F 
ATOM     76  C   UNL A   1      34.855  32.393  27.664  1.00  0.00     0.006 A 
ENDBRANCH  48  69
BRANCH  60  77
ATOM     77  C   UNL A   1      39.078  31.974  35.718  1.00  0.00     0.057 A 
ATOM     78  C   UNL A   1      38.212  31.409  36.661  1.00  0.00     0.134 A 
ATOM     79  C   UNL A   1      39.455  33.309  35.899  1.00  0.00     0.134 A 
ATOM     80  F   UNL A   1      37.802  30.137  36.532  1.00  0.00    -0.206 F 
ATOM     81  C   UNL A   1      37.726  32.151  37.739  1.00  0.00     0.040 A 
ATOM     82  C   UNL A   1      38.991  34.056  36.983  1.00  0.00     0.040 A 
ATOM     83  F   UNL A   1      40.287  33.906  35.032  1.00  0.00    -0.206 F 
ATOM     84  C   UNL A   1      38.121  33.478  37.904  1.00  0.00     0.006 A 
ENDBRANCH  60  77
ENDBRANCH  34  35
ENDBRANCH  27  29
ENDBRANCH  26  27
ENDBRANCH  25  26
ENDBRANCH   1  25
TORSDOF 14
ENDMDL
MODEL 2
REMARK VINA RESULT:     -11.5      1.794      2.983
REMARK SMILES Cc1ccc(NC(=O)C[NH+]2CCC(C(=O)OCCOC(=O)c3ccc(-c4c5nc(c(-c6c(F)cccc6F)c6ccc([nH]6)c(-c6c(F)cccc6F)c6nc(c(-c7c(F)cccc7F)c7ccc4[nH]7)C=C6)C=C5)cc3)CC2)cc1Cl
REMARK SMILES IDX 17 1 16 2 14 3 15 4 13 5 10 6 11 7 77 8 12 10 76 11 9 12
REMARK SMILES IDX 7 13 6 14 8 16 5 17 1 18 2 19 3 20 79 21 4 22 78 23 80 24
REMARK SMILES IDX 18 25 19 26 20 27 21 28 22 29 23 30 75 31 24 32 74 33 25 34
REMARK SMILES IDX 26 35 27 36 68 37 28 38 73 39 67 40 69 41 29 42 72 43 66 44
REMARK SMILES IDX 65 45 30 47 56 48 39 49 55 50 40 51 43 52 54 53 70 54 41 55
REMARK SMILES IDX 42 56 53 58 71 59 44 60 31 61 32 62 37 63 33 64 34 65 36 66
REMARK SMILES IDX 38 67 35 68 57 69 58 70 63 71 59 72 60 73 62 74 64 75 61 76
REMARK SMILES IDX 45 77 46 78 51 79 47 80 48 81 50 82 52 83 49 84
REMARK H PARENT 10 9 6 15 69 46 43 57
REMARK Flexibility Score: inf
ROOT
ATOM      1  C   UNL A   1      42.579  20.631  26.324  1.00  0.00     0.274 C 
ENDROOT
BRANCH   1   2
ATOM      2  O   UNL A   1      41.273  20.659  25.719  1.00  0.00    -0.462 OA
BRANCH   2   3
ATOM      3  C   UNL A   1      40.307  21.220  26.484  1.00  0.00     0.309 C 
ATOM      4  O   UNL A   1      40.387  21.401  27.696  1.00  0.00    -0.252 OA
BRANCH   3   5
ATOM      5  C   UNL A   1      39.051  21.554  25.727  1.00  0.00     0.110 C 
ATOM      6  N   UNL A   1      36.340  22.265  24.996  1.00  0.00    -0.327 N 
ATOM      7  C   UNL A   1      36.900  20.968  24.595  1.00  0.00     0.263 C 
ATOM      8  C   UNL A   1      37.339  23.267  25.353  1.00  0.00     0.263 C 
ATOM      9  H   UNL A   1      35.845  22.058  25.863  1.00  0.00     0.348 HD
ATOM     10  C   UNL A   1      37.990  20.469  25.566  1.00  0.00     0.077 C 
ATOM     11  C   UNL A   1      38.395  22.783  26.330  1.00  0.00     0.077 C 
BRANCH   6  12
ATOM     12  C   UNL A   1      35.318  22.792  24.050  1.00  0.00     0.363 C 
BRANCH  12  13
ATOM     13  C   UNL A   1      33.950  23.166  24.652  1.00  0.00     0.279 C 
ATOM     14  N   UNL A   1      32.896  22.302  24.791  1.00  0.00    -0.321 N 
ATOM     15  H   UNL A   1      32.081  22.722  25.150  1.00  0.00     0.170 HD
ATOM     16  O   UNL A   1      33.776  24.307  25.104  1.00  0.00    -0.268 OA
BRANCH  14  17
ATOM     17  C   UNL A   1      32.756  20.933  24.517  1.00  0.00     0.042 A 
ATOM     18  C   UNL A   1      33.645  16.831  23.569  1.00  0.00     0.046 C 
ATOM     19  C   UNL A   1      33.164  18.210  23.929  1.00  0.00    -0.032 A 
ATOM     20  C   UNL A   1      33.430  18.710  25.211  1.00  0.00     0.007 A 
ATOM     21  C   UNL A   1      32.562  19.064  22.995  1.00  0.00     0.046 A 
ATOM     22  C   UNL A   1      33.200  20.056  25.511  1.00  0.00     0.026 A 
ATOM     23  C   UNL A   1      32.337  20.415  23.296  1.00  0.00     0.047 A 
ATOM     24  Cl  UNL A   1      32.180  18.529  21.396  1.00  0.00    -0.084 Cl
ENDBRANCH  14  17
ENDBRANCH  12  13
ENDBRANCH   6  12
ENDBRANCH   3   5
ENDBRANCH   2   3
ENDBRANCH   1   2
BRANCH   1  25
ATOM     25  C   UNL A   1      43.544  21.617  25.663  1.00  0.00     0.275 C 
BRANCH  25  26
ATOM     26  O   UNL A   1      42.862  22.727  25.048  1.00  0.00    -0.458 OA
BRANCH  26  27
ATOM     27  C   UNL A   1      43.557  23.887  25.033  1.00  0.00     0.338 C 
ATOM     28  O   UNL A   1      44.487  24.185  24.298  1.00  0.00    -0.246 OA
BRANCH  27  29
ATOM     29  C   UNL A   1      42.975  24.840  25.989  1.00  0.00     0.060 A 
ATOM     30  C   UNL A   1      43.503  26.133  26.048  1.00  0.00     0.016 A 
ATOM     31  C   UNL A   1      42.003  24.428  26.901  1.00  0.00     0.016 A 
ATOM     32  C   UNL A   1      43.070  27.022  27.029  1.00  0.00     0.010 A 
ATOM     33  C   UNL A   1      41.567  25.320  27.885  1.00  0.00     0.010 A 
ATOM     34  C   UNL A   1      42.109  26.616  27.963  1.00  0.00    -0.014 A 
BRANCH  34  35
ATOM     35  C   UNL A   1      41.719  27.524  29.068  1.00  0.00     0.031 A 
ATOM     36  C   UNL A   1      42.489  27.502  30.356  1.00  0.00     0.074 A 
ATOM     37  C   UNL A   1      40.682  28.367  28.913  1.00  0.00     0.049 A 
ATOM     38  N   UNL A   1      42.235  28.119  31.482  1.00  0.00    -0.248 NA
ATOM     39  C   UNL A   1      43.704  26.674  30.380  1.00  0.00     0.031 C 
ATOM     40  C   UNL A   1      39.889  28.520  27.693  1.00  0.00     0.029 A 
ATOM     41  N   UNL A   1      40.113  29.249  29.797  1.00  0.00    -0.354 N 
ATOM     42  C   UNL A   1      43.240  27.731  32.358  1.00  0.00     0.074 A 
ATOM     43  C   UNL A   1      44.107  26.825  31.634  1.00  0.00     0.031 C 
ATOM     44  C   UNL A   1      38.933  29.438  27.906  1.00  0.00     0.029 A 
ATOM     45  C   UNL A   1      39.016  29.900  29.289  1.00  0.00     0.049 A 
ATOM     46  H   UNL A   1      40.458  29.400  30.707  1.00  0.00     0.167 HD
ATOM     47  C   UNL A   1      43.420  28.097  33.649  1.00  0.00     0.037 A 
ATOM     48  C   UNL A   1      38.157  30.749  29.885  1.00  0.00     0.037 A 
ATOM     49  C   UNL A   1      42.573  29.018  34.358  1.00  0.00     0.049 A 
ATOM     50  C   UNL A   1      38.348  31.097  31.335  1.00  0.00     0.074 A 
ATOM     51  C   UNL A   1      42.686  29.466  35.664  1.00  0.00     0.029 A 
ATOM     52  N   UNL A   1      41.456  29.636  33.819  1.00  0.00    -0.354 N 
ATOM     53  N   UNL A   1      39.289  30.711  32.161  1.00  0.00    -0.248 NA
ATOM     54  C   UNL A   1      37.347  31.988  31.939  1.00  0.00     0.031 C 
ATOM     55  C   UNL A   1      41.618  30.333  35.922  1.00  0.00     0.029 A 
ATOM     56  C   UNL A   1      40.860  30.449  34.769  1.00  0.00     0.049 A 
ATOM     57  H   UNL A   1      41.134  29.515  32.896  1.00  0.00     0.167 HD
ATOM     58  C   UNL A   1      39.007  31.323  33.374  1.00  0.00     0.074 A 
ATOM     59  C   UNL A   1      37.811  32.118  33.174  1.00  0.00     0.031 C 
ATOM     60  C   UNL A   1      39.675  31.236  34.550  1.00  0.00     0.037 A 
BRANCH  47  61
ATOM     61  C   UNL A   1      44.562  27.470  34.389  1.00  0.00     0.057 A 
ATOM     62  C   UNL A   1      44.399  26.313  35.161  1.00  0.00     0.134 A 
ATOM     63  C   UNL A   1      45.849  28.016  34.300  1.00  0.00     0.134 A 
ATOM     64  F   UNL A   1      43.189  25.752  35.297  1.00  0.00    -0.206 F 
ATOM     65  C   UNL A   1      45.476  25.729  35.831  1.00  0.00     0.040 A 
ATOM     66  C   UNL A   1      46.936  27.430  34.951  1.00  0.00     0.040 A 
ATOM     67  F   UNL A   1      46.071  29.122  33.575  1.00  0.00    -0.206 F 
ATOM     68  C   UNL A   1      46.750  26.286  35.723  1.00  0.00     0.006 A 
ENDBRANCH  47  61
BRANCH  48  69
ATOM     69  C   UNL A   1      37.016  31.307  29.120  1.00  0.00     0.057 A 
ATOM     70  C   UNL A   1      37.019  32.637  28.687  1.00  0.00     0.134 A 
ATOM     71  C   UNL A   1      35.892  30.530  28.815  1.00  0.00     0.134 A 
ATOM     72  F   UNL A   1      38.059  33.436  28.971  1.00  0.00    -0.206 F 
ATOM     73  C   UNL A   1      35.941  33.179  27.987  1.00  0.00     0.040 A 
ATOM     74  C   UNL A   1      34.817  31.051  28.097  1.00  0.00     0.040 A 
ATOM     75  F   UNL A   1      35.830  29.247  29.205  1.00  0.00    -0.206 F 
ATOM     76  C   UNL A   1      34.837  32.383  27.685  1.00  0.00     0.006 A 
ENDBRANCH  48  69
BRANCH  60  77
ATOM     77  C   UNL A   1      39.146  32.040  35.697  1.00  0.00     0.057 A 
ATOM     78  C   UNL A   1      38.289  31.482  36.653  1.00  0.00     0.134 A 
ATOM     79  C   UNL A   1      39.523  33.378  35.865  1.00  0.00     0.134 A 
ATOM     80  F   UNL A   1      37.880  30.209  36.537  1.00  0.00    -0.206 F 
ATOM     81  C   UNL A   1      37.813  32.231  37.729  1.00  0.00     0.040 A 
ATOM     82  C   UNL A   1      39.069  34.132  36.947  1.00  0.00     0.040 A 
ATOM     83  F   UNL A   1      40.346  33.969  34.985  1.00  0.00    -0.206 F 
ATOM     84  C   UNL A   1      38.208  33.560  37.881  1.00  0.00     0.006 A 
ENDBRANCH  60  77
ENDBRANCH  34  35
ENDBRANCH  27  29
ENDBRANCH  26  27
ENDBRANCH  25  26
ENDBRANCH   1  25
TORSDOF 14
ENDMDL
MODEL 3
REMARK VINA RESULT:     -11.3      3.354      8.638
REMARK SMILES Cc1ccc(NC(=O)C[NH+]2CCC(C(=O)OCCOC(=O)c3ccc(-c4c5nc(c(-c6c(F)cccc6F)c6ccc([nH]6)c(-c6c(F)cccc6F)c6nc(c(-c7c(F)cccc7F)c7ccc4[nH]7)C=C6)C=C5)cc3)CC2)cc1Cl
REMARK SMILES IDX 17 1 16 2 14 3 15 4 13 5 10 6 11 7 77 8 12 10 76 11 9 12
REMARK SMILES IDX 7 13 6 14 8 16 5 17 1 18 2 19 3 20 79 21 4 22 78 23 80 24
REMARK SMILES IDX 18 25 19 26 20 27 21 28 22 29 23 30 75 31 24 32 74 33 25 34
REMARK SMILES IDX 26 35 27 36 68 37 28 38 73 39 67 40 69 41 29 42 72 43 66 44
REMARK SMILES IDX 65 45 30 47 56 48 39 49 55 50 40 51 43 52 54 53 70 54 41 55
REMARK SMILES IDX 42 56 53 58 71 59 44 60 31 61 32 62 37 63 33 64 34 65 36 66
REMARK SMILES IDX 38 67 35 68 57 69 58 70 63 71 59 72 60 73 62 74 64 75 61 76
REMARK SMILES IDX 45 77 46 78 51 79 47 80 48 81 50 82 52 83 49 84
REMARK H PARENT 10 9 6 15 69 46 43 57
REMARK Flexibility Score: inf
ROOT
ATOM      1  C   UNL A   1      31.435  31.933  26.456  1.00  0.00     0.274 C 
ENDROOT
BRANCH   1   2
ATOM      2  O   UNL A   1      31.853  30.891  27.358  1.00  0.00    -0.462 OA
BRANCH   2   3
ATOM      3  C   UNL A   1      32.934  30.187  26.948  1.00  0.00     0.309 C 
ATOM      4  O   UNL A   1      34.079  30.628  26.887  1.00  0.00    -0.252 OA
BRANCH   3   5
ATOM      5  C   UNL A   1      32.610  28.792  26.488  1.00  0.00     0.110 C 
ATOM      6  N   UNL A   1      32.093  25.945  26.364  1.00  0.00    -0.327 N 
ATOM      7  C   UNL A   1      33.216  26.528  25.618  1.00  0.00     0.263 C 
ATOM      8  C   UNL A   1      31.068  26.907  26.757  1.00  0.00     0.263 C 
ATOM      9  H   UNL A   1      32.518  25.633  27.237  1.00  0.00     0.348 HD
ATOM     10  C   UNL A   1      33.760  27.813  26.276  1.00  0.00     0.077 C 
ATOM     11  C   UNL A   1      31.603  28.158  27.430  1.00  0.00     0.077 C 
BRANCH   6  12
ATOM     12  C   UNL A   1      31.518  24.730  25.725  1.00  0.00     0.363 C 
BRANCH  12  13
ATOM     13  C   UNL A   1      31.397  23.476  26.612  1.00  0.00     0.279 C 
ATOM     14  N   UNL A   1      32.306  22.452  26.647  1.00  0.00    -0.321 N 
ATOM     15  H   UNL A   1      32.046  21.707  27.235  1.00  0.00     0.170 HD
ATOM     16  O   UNL A   1      30.449  23.382  27.406  1.00  0.00    -0.268 OA
BRANCH  14  17
ATOM     17  C   UNL A   1      33.538  22.263  26.001  1.00  0.00     0.042 A 
ATOM     18  C   UNL A   1      37.465  20.812  25.008  1.00  0.00     0.046 C 
ATOM     19  C   UNL A   1      36.098  21.410  25.198  1.00  0.00    -0.032 A 
ATOM     20  C   UNL A   1      34.969  20.621  24.937  1.00  0.00     0.007 A 
ATOM     21  C   UNL A   1      35.904  22.688  25.741  1.00  0.00     0.046 A 
ATOM     22  C   UNL A   1      33.695  21.059  25.309  1.00  0.00     0.026 A 
ATOM     23  C   UNL A   1      34.627  23.122  26.119  1.00  0.00     0.047 A 
ATOM     24  Cl  UNL A   1      37.236  23.738  26.078  1.00  0.00    -0.084 Cl
ENDBRANCH  14  17
ENDBRANCH  12  13
ENDBRANCH   6  12
ENDBRANCH   3   5
ENDBRANCH   2   3
ENDBRANCH   1   2
BRANCH   1  25
ATOM     25  C   UNL A   1      32.146  33.259  26.735  1.00  0.00     0.275 C 
BRANCH  25  26
ATOM     26  O   UNL A   1      32.099  33.627  28.126  1.00  0.00    -0.458 OA
BRANCH  26  27
ATOM     27  C   UNL A   1      33.035  34.523  28.512  1.00  0.00     0.338 C 
ATOM     28  O   UNL A   1      32.915  35.738  28.582  1.00  0.00    -0.246 OA
BRANCH  27  29
ATOM     29  C   UNL A   1      34.251  33.827  28.956  1.00  0.00     0.060 A 
ATOM     30  C   UNL A   1      34.116  32.683  29.747  1.00  0.00     0.016 A 
ATOM     31  C   UNL A   1      35.512  34.365  28.697  1.00  0.00     0.016 A 
ATOM     32  C   UNL A   1      35.241  32.074  30.296  1.00  0.00     0.010 A 
ATOM     33  C   UNL A   1      36.642  33.753  29.247  1.00  0.00     0.010 A 
ATOM     34  C   UNL A   1      36.511  32.614  30.062  1.00  0.00    -0.014 A 
BRANCH  34  35
ATOM     35  C   UNL A   1      37.700  32.028  30.725  1.00  0.00     0.031 A 
ATOM     36  C   UNL A   1      38.496  30.967  30.022  1.00  0.00     0.074 A 
ATOM     37  C   UNL A   1      38.066  32.449  31.949  1.00  0.00     0.049 A 
ATOM     38  N   UNL A   1      39.487  30.241  30.473  1.00  0.00    -0.248 NA
ATOM     39  C   UNL A   1      38.127  30.687  28.626  1.00  0.00     0.031 C 
ATOM     40  C   UNL A   1      37.406  33.508  32.712  1.00  0.00     0.029 A 
ATOM     41  N   UNL A   1      39.081  32.025  32.769  1.00  0.00    -0.354 N 
ATOM     42  C   UNL A   1      39.839  29.395  29.430  1.00  0.00     0.074 A 
ATOM     43  C   UNL A   1      38.957  29.698  28.322  1.00  0.00     0.031 C 
ATOM     44  C   UNL A   1      38.031  33.650  33.892  1.00  0.00     0.029 A 
ATOM     45  C   UNL A   1      39.102  32.661  33.986  1.00  0.00     0.049 A 
ATOM     46  H   UNL A   1      39.732  31.333  32.510  1.00  0.00     0.167 HD
ATOM     47  C   UNL A   1      40.809  28.451  29.401  1.00  0.00     0.037 A 
ATOM     48  C   UNL A   1      39.876  32.444  35.066  1.00  0.00     0.037 A 
ATOM     49  C   UNL A   1      41.703  28.171  30.493  1.00  0.00     0.049 A 
ATOM     50  C   UNL A   1      40.910  31.354  35.027  1.00  0.00     0.074 A 
ATOM     51  C   UNL A   1      42.731  27.246  30.551  1.00  0.00     0.029 A 
ATOM     52  N   UNL A   1      41.675  28.816  31.719  1.00  0.00    -0.354 N 
ATOM     53  N   UNL A   1      41.224  30.547  34.043  1.00  0.00    -0.248 NA
ATOM     54  C   UNL A   1      41.688  31.135  36.255  1.00  0.00     0.031 C 
ATOM     55  C   UNL A   1      43.306  27.312  31.826  1.00  0.00     0.029 A 
ATOM     56  C   UNL A   1      42.657  28.299  32.548  1.00  0.00     0.049 A 
ATOM     57  H   UNL A   1      41.049  29.536  31.964  1.00  0.00     0.167 HD
ATOM     58  C   UNL A   1      42.245  29.738  34.524  1.00  0.00     0.074 A 
ATOM     59  C   UNL A   1      42.507  30.160  35.886  1.00  0.00     0.031 C 
ATOM     60  C   UNL A   1      42.906  28.736  33.897  1.00  0.00     0.037 A 
BRANCH  47  61
ATOM     61  C   UNL A   1      40.933  27.628  28.155  1.00  0.00     0.057 A 
ATOM     62  C   UNL A   1      40.232  26.427  27.988  1.00  0.00     0.134 A 
ATOM     63  C   UNL A   1      41.739  28.063  27.095  1.00  0.00     0.134 A 
ATOM     64  F   UNL A   1      39.455  25.952  28.972  1.00  0.00    -0.206 F 
ATOM     65  C   UNL A   1      40.342  25.679  26.815  1.00  0.00     0.040 A 
ATOM     66  C   UNL A   1      41.842  27.332  25.911  1.00  0.00     0.040 A 
ATOM     67  F   UNL A   1      42.434  29.206  27.193  1.00  0.00    -0.206 F 
ATOM     68  C   UNL A   1      41.145  26.134  25.770  1.00  0.00     0.006 A 
ENDBRANCH  47  61
BRANCH  48  69
ATOM     69  C   UNL A   1      39.684  33.257  36.291  1.00  0.00     0.057 A 
ATOM     70  C   UNL A   1      38.807  32.845  37.300  1.00  0.00     0.134 A 
ATOM     71  C   UNL A   1      40.361  34.468  36.476  1.00  0.00     0.134 A 
ATOM     72  F   UNL A   1      38.113  31.705  37.166  1.00  0.00    -0.206 F 
ATOM     73  C   UNL A   1      38.601  33.615  38.446  1.00  0.00     0.040 A 
ATOM     74  C   UNL A   1      40.182  35.236  37.626  1.00  0.00     0.040 A 
ATOM     75  F   UNL A   1      41.214  34.916  35.542  1.00  0.00    -0.206 F 
ATOM     76  C   UNL A   1      39.295  34.812  38.613  1.00  0.00     0.006 A 
ENDBRANCH  48  69
BRANCH  60  77
ATOM     77  C   UNL A   1      43.993  28.049  34.666  1.00  0.00     0.057 A 
ATOM     78  C   UNL A   1      43.754  26.869  35.381  1.00  0.00     0.134 A 
ATOM     79  C   UNL A   1      45.298  28.555  34.664  1.00  0.00     0.134 A 
ATOM     80  F   UNL A   1      42.520  26.344  35.433  1.00  0.00    -0.206 F 
ATOM     81  C   UNL A   1      44.774  26.224  36.082  1.00  0.00     0.040 A 
ATOM     82  C   UNL A   1      46.330  27.910  35.346  1.00  0.00     0.040 A 
ATOM     83  F   UNL A   1      45.591  29.679  33.994  1.00  0.00    -0.206 F 
ATOM     84  C   UNL A   1      46.068  26.743  36.060  1.00  0.00     0.006 A 
ENDBRANCH  60  77
ENDBRANCH  34  35
ENDBRANCH  27  29
ENDBRANCH  26  27
ENDBRANCH  25  26
ENDBRANCH   1  25
TORSDOF 14
ENDMDL
