MODEL 1
REMARK VINA RESULT:     -13.5      0.000      0.000
REMARK SMILES Cc1cccc(N2C(=O)/C(=C/c3ccc(C(=O)OCCOC(=O)c4ccc(-c5c6nc(c(-c7c(F)cccc7F)c7ccc([nH]7)c(-c7c(F)cccc7F)c7nc(c(-c8c(F)cccc8F)c8ccc5[nH]8)C=C7)C=C6)cc4)cc3)c3ccccc3C2=O)c1
REMARK SMILES IDX 19 1 18 2 16 3 17 4 15 5 12 6 13 7 79 8 14 9 78 10 11 11
REMARK SMILES IDX 7 12 8 13 86 14 9 15 10 16 85 17 87 18 80 19 84 20 81 21
REMARK SMILES IDX 83 22 82 23 6 24 1 25 2 26 3 27 88 28 4 29 5 30 20 31 21 32
REMARK SMILES IDX 22 33 23 34 24 35 25 36 77 37 26 38 76 39 27 40 28 41 29 42
REMARK SMILES IDX 70 43 30 44 75 45 69 46 71 47 31 48 74 49 68 50 67 51 32 53
REMARK SMILES IDX 58 54 41 55 57 56 42 57 45 58 56 59 72 60 43 61 44 62 55 64
REMARK SMILES IDX 73 65 46 66 33 67 34 68 39 69 35 70 36 71 38 72 40 73 37 74
REMARK SMILES IDX 59 75 60 76 65 77 61 78 62 79 64 80 66 81 63 82 47 83 48 84
REMARK SMILES IDX 53 85 49 86 50 87 52 88 54 89 51 90
REMARK H PARENT 71 52 45 63
REMARK Flexibility Score: inf
ROOT
ATOM      1  C   UNL A   1      33.151  29.074  25.616  1.00  0.00     0.275 C 
ENDROOT
BRANCH   1   2
ATOM      2  O   UNL A   1      31.946  28.321  25.778  1.00  0.00    -0.458 OA
BRANCH   2   3
ATOM      3  C   UNL A   1      31.203  28.303  24.639  1.00  0.00     0.338 C 
ATOM      4  O   UNL A   1      30.780  29.298  24.067  1.00  0.00    -0.246 OA
BRANCH   3   5
ATOM      5  C   UNL A   1      30.912  26.930  24.154  1.00  0.00     0.060 A 
ATOM      6  C   UNL A   1      30.831  24.216  23.551  1.00  0.00    -0.025 A 
ATOM      7  C   UNL A   1      31.133  25.138  22.545  1.00  0.00     0.009 A 
ATOM      8  C   UNL A   1      30.352  24.662  24.787  1.00  0.00     0.009 A 
ATOM      9  C   UNL A   1      31.182  26.501  22.849  1.00  0.00     0.016 A 
ATOM     10  C   UNL A   1      30.422  26.016  25.096  1.00  0.00     0.016 A 
BRANCH   6  11
ATOM     11  C   UNL A   1      31.257  22.819  23.400  1.00  0.00     0.022 C 
ATOM     12  N   UNL A   1      33.363  20.293  24.788  1.00  0.00    -0.242 N 
ATOM     13  C   UNL A   1      32.651  20.872  23.714  1.00  0.00     0.265 C 
ATOM     14  C   UNL A   1      33.779  21.080  25.888  1.00  0.00     0.265 C 
ATOM     15  O   UNL A   1      32.116  20.293  22.768  1.00  0.00    -0.268 OA
ATOM     16  C   UNL A   1      32.461  22.353  23.813  1.00  0.00     0.049 C 
ATOM     17  C   UNL A   1      34.057  22.513  25.626  1.00  0.00     0.048 A 
ATOM     18  O   UNL A   1      33.955  20.717  27.049  1.00  0.00    -0.268 OA
ATOM     19  C   UNL A   1      33.495  23.123  24.514  1.00  0.00    -0.000 A 
ATOM     20  C   UNL A   1      34.886  23.244  26.493  1.00  0.00     0.014 A 
ATOM     21  C   UNL A   1      33.887  24.430  24.188  1.00  0.00     0.010 A 
ATOM     22  C   UNL A   1      35.186  24.578  26.217  1.00  0.00     0.001 A 
ATOM     23  C   UNL A   1      34.705  25.164  25.051  1.00  0.00     0.001 A 
BRANCH  12  24
ATOM     24  C   UNL A   1      33.558  18.843  24.812  1.00  0.00     0.053 A 
ATOM     25  C   UNL A   1      31.689  15.713  26.024  1.00  0.00     0.044 C 
ATOM     26  C   UNL A   1      32.746  16.582  25.407  1.00  0.00    -0.049 A 
ATOM     27  C   UNL A   1      33.892  16.009  24.864  1.00  0.00     0.003 A 
ATOM     28  C   UNL A   1      32.584  17.979  25.353  1.00  0.00     0.030 A 
ATOM     29  C   UNL A   1      34.859  16.824  24.293  1.00  0.00     0.002 A 
ATOM     30  C   UNL A   1      34.693  18.216  24.270  1.00  0.00     0.027 A 
ENDBRANCH  12  24
ENDBRANCH   6  11
ENDBRANCH   3   5
ENDBRANCH   2   3
ENDBRANCH   1   2
BRANCH   1  31
ATOM     31  C   UNL A   1      33.930  29.291  26.920  1.00  0.00     0.275 C 
BRANCH  31  32
ATOM     32  O   UNL A   1      34.020  30.622  27.508  1.00  0.00    -0.458 OA
BRANCH  32  33
ATOM     33  C   UNL A   1      34.845  31.110  28.460  1.00  0.00     0.338 C 
ATOM     34  O   UNL A   1      34.525  32.050  29.182  1.00  0.00    -0.246 OA
BRANCH  33  35
ATOM     35  C   UNL A   1      36.149  30.463  28.646  1.00  0.00     0.060 A 
ATOM     36  C   UNL A   1      36.372  29.682  29.794  1.00  0.00     0.016 A 
ATOM     37  C   UNL A   1      37.101  30.558  27.639  1.00  0.00     0.016 A 
ATOM     38  C   UNL A   1      37.518  28.904  29.889  1.00  0.00     0.010 A 
ATOM     39  C   UNL A   1      38.153  29.682  27.660  1.00  0.00     0.010 A 
ATOM     40  C   UNL A   1      38.388  28.902  28.804  1.00  0.00    -0.014 A 
BRANCH  40  41
ATOM     41  C   UNL A   1      39.744  28.391  28.864  1.00  0.00     0.031 A 
ATOM     42  C   UNL A   1      40.094  27.028  28.451  1.00  0.00     0.074 A 
ATOM     43  C   UNL A   1      40.618  29.383  29.139  1.00  0.00     0.049 A 
ATOM     44  N   UNL A   1      41.120  26.384  28.883  1.00  0.00    -0.248 NA
ATOM     45  C   UNL A   1      39.280  26.229  27.541  1.00  0.00     0.031 C 
ATOM     46  C   UNL A   1      42.040  29.495  28.906  1.00  0.00     0.029 A 
ATOM     47  N   UNL A   1      40.293  30.567  29.810  1.00  0.00    -0.354 N 
ATOM     48  C   UNL A   1      41.304  25.306  28.035  1.00  0.00     0.074 A 
ATOM     49  C   UNL A   1      40.042  25.142  27.360  1.00  0.00     0.031 C 
ATOM     50  C   UNL A   1      42.515  30.519  29.645  1.00  0.00     0.029 A 
ATOM     51  C   UNL A   1      41.426  30.995  30.493  1.00  0.00     0.049 A 
ATOM     52  H   UNL A   1      39.418  31.019  29.800  1.00  0.00     0.167 HD
ATOM     53  C   UNL A   1      42.574  24.851  27.821  1.00  0.00     0.037 A 
ATOM     54  C   UNL A   1      41.395  30.947  31.858  1.00  0.00     0.037 A 
ATOM     55  C   UNL A   1      43.508  25.696  28.557  1.00  0.00     0.049 A 
ATOM     56  C   UNL A   1      42.364  29.905  32.352  1.00  0.00     0.074 A 
ATOM     57  C   UNL A   1      44.234  26.803  28.147  1.00  0.00     0.029 A 
ATOM     58  N   UNL A   1      43.496  25.711  29.943  1.00  0.00    -0.354 N 
ATOM     59  N   UNL A   1      42.616  28.782  31.732  1.00  0.00    -0.248 NA
ATOM     60  C   UNL A   1      43.212  30.120  33.516  1.00  0.00     0.031 C 
ATOM     61  C   UNL A   1      44.627  27.514  29.305  1.00  0.00     0.029 A 
ATOM     62  C   UNL A   1      44.132  26.842  30.410  1.00  0.00     0.049 A 
ATOM     63  H   UNL A   1      43.093  25.014  30.512  1.00  0.00     0.167 HD
ATOM     64  C   UNL A   1      43.693  28.182  32.332  1.00  0.00     0.074 A 
ATOM     65  C   UNL A   1      44.009  29.039  33.460  1.00  0.00     0.031 C 
ATOM     66  C   UNL A   1      44.302  27.067  31.832  1.00  0.00     0.037 A 
BRANCH  53  67
ATOM     67  C   UNL A   1      43.041  23.930  26.707  1.00  0.00     0.057 A 
ATOM     68  C   UNL A   1      43.103  22.533  26.919  1.00  0.00     0.134 A 
ATOM     69  C   UNL A   1      43.446  24.331  25.424  1.00  0.00     0.134 A 
ATOM     70  F   UNL A   1      42.659  21.965  28.048  1.00  0.00    -0.206 F 
ATOM     71  C   UNL A   1      43.615  21.628  25.980  1.00  0.00     0.040 A 
ATOM     72  C   UNL A   1      43.978  23.436  24.477  1.00  0.00     0.040 A 
ATOM     73  F   UNL A   1      43.302  25.593  25.002  1.00  0.00    -0.206 F 
ATOM     74  C   UNL A   1      44.077  22.081  24.758  1.00  0.00     0.006 A 
ENDBRANCH  53  67
BRANCH  54  75
ATOM     75  C   UNL A   1      40.031  31.220  32.424  1.00  0.00     0.057 A 
ATOM     76  C   UNL A   1      39.266  30.125  32.881  1.00  0.00     0.134 A 
ATOM     77  C   UNL A   1      39.621  32.485  32.858  1.00  0.00     0.134 A 
ATOM     78  F   UNL A   1      39.594  28.876  32.510  1.00  0.00    -0.206 F 
ATOM     79  C   UNL A   1      38.235  30.265  33.817  1.00  0.00     0.040 A 
ATOM     80  C   UNL A   1      38.573  32.641  33.781  1.00  0.00     0.040 A 
ATOM     81  F   UNL A   1      40.280  33.588  32.477  1.00  0.00    -0.206 F 
ATOM     82  C   UNL A   1      37.905  31.528  34.294  1.00  0.00     0.006 A 
ENDBRANCH  54  75
BRANCH  66  83
ATOM     83  C   UNL A   1      45.232  26.151  32.588  1.00  0.00     0.057 A 
ATOM     84  C   UNL A   1      46.620  26.134  32.407  1.00  0.00     0.134 A 
ATOM     85  C   UNL A   1      44.760  25.370  33.672  1.00  0.00     0.134 A 
ATOM     86  F   UNL A   1      47.225  26.921  31.509  1.00  0.00    -0.206 F 
ATOM     87  C   UNL A   1      47.467  25.342  33.190  1.00  0.00     0.040 A 
ATOM     88  C   UNL A   1      45.605  24.635  34.504  1.00  0.00     0.040 A 
ATOM     89  F   UNL A   1      43.462  25.309  34.002  1.00  0.00    -0.206 F 
ATOM     90  C   UNL A   1      46.964  24.600  34.250  1.00  0.00     0.006 A 
ENDBRANCH  66  83
ENDBRANCH  40  41
ENDBRANCH  33  35
ENDBRANCH  32  33
ENDBRANCH  31  32
ENDBRANCH   1  31
TORSDOF 13
ENDMDL
MODEL 2
REMARK VINA RESULT:     -13.2      1.792      2.705
REMARK SMILES Cc1cccc(N2C(=O)/C(=C/c3ccc(C(=O)OCCOC(=O)c4ccc(-c5c6nc(c(-c7c(F)cccc7F)c7ccc([nH]7)c(-c7c(F)cccc7F)c7nc(c(-c8c(F)cccc8F)c8ccc5[nH]8)C=C7)C=C6)cc4)cc3)c3ccccc3C2=O)c1
REMARK SMILES IDX 19 1 18 2 16 3 17 4 15 5 12 6 13 7 79 8 14 9 78 10 11 11
REMARK SMILES IDX 7 12 8 13 86 14 9 15 10 16 85 17 87 18 80 19 84 20 81 21
REMARK SMILES IDX 83 22 82 23 6 24 1 25 2 26 3 27 88 28 4 29 5 30 20 31 21 32
REMARK SMILES IDX 22 33 23 34 24 35 25 36 77 37 26 38 76 39 27 40 28 41 29 42
REMARK SMILES IDX 70 43 30 44 75 45 69 46 71 47 31 48 74 49 68 50 67 51 32 53
REMARK SMILES IDX 58 54 41 55 57 56 42 57 45 58 56 59 72 60 43 61 44 62 55 64
REMARK SMILES IDX 73 65 46 66 33 67 34 68 39 69 35 70 36 71 38 72 40 73 37 74
REMARK SMILES IDX 59 75 60 76 65 77 61 78 62 79 64 80 66 81 63 82 47 83 48 84
REMARK SMILES IDX 53 85 49 86 50 87 52 88 54 89 51 90
REMARK H PARENT 71 52 45 63
REMARK Flexibility Score: inf
ROOT
ATOM      1  C   UNL A   1      31.710  29.476  26.405  1.00  0.00     0.275 C 
ENDROOT
BRANCH   1   2
ATOM      2  O   UNL A   1      31.996  28.312  25.625  1.00  0.00    -0.458 OA
BRANCH   2   3
ATOM      3  C   UNL A   1      31.250  28.268  24.489  1.00  0.00     0.338 C 
ATOM      4  O   UNL A   1      30.830  29.250  23.893  1.00  0.00    -0.246 OA
BRANCH   3   5
ATOM      5  C   UNL A   1      30.952  26.885  24.040  1.00  0.00     0.060 A 
ATOM      6  C   UNL A   1      30.866  24.159  23.494  1.00  0.00    -0.025 A 
ATOM      7  C   UNL A   1      31.135  25.062  22.462  1.00  0.00     0.009 A 
ATOM      8  C   UNL A   1      30.419  24.628  24.734  1.00  0.00     0.009 A 
ATOM      9  C   UNL A   1      31.186  26.431  22.737  1.00  0.00     0.016 A 
ATOM     10  C   UNL A   1      30.492  25.988  25.014  1.00  0.00     0.016 A 
BRANCH   6  11
ATOM     11  C   UNL A   1      31.293  22.761  23.359  1.00  0.00     0.022 C 
ATOM     12  N   UNL A   1      33.415  20.258  24.765  1.00  0.00    -0.242 N 
ATOM     13  C   UNL A   1      32.694  20.821  23.689  1.00  0.00     0.265 C 
ATOM     14  C   UNL A   1      33.838  21.061  25.850  1.00  0.00     0.265 C 
ATOM     15  O   UNL A   1      32.153  20.228  22.755  1.00  0.00    -0.268 OA
ATOM     16  C   UNL A   1      32.501  22.303  23.769  1.00  0.00     0.049 C 
ATOM     17  C   UNL A   1      34.111  22.491  25.567  1.00  0.00     0.048 A 
ATOM     18  O   UNL A   1      34.024  20.715  27.015  1.00  0.00    -0.268 OA
ATOM     19  C   UNL A   1      33.539  23.085  24.451  1.00  0.00    -0.000 A 
ATOM     20  C   UNL A   1      34.945  23.235  26.417  1.00  0.00     0.014 A 
ATOM     21  C   UNL A   1      33.925  24.388  24.104  1.00  0.00     0.010 A 
ATOM     22  C   UNL A   1      35.240  24.566  26.121  1.00  0.00     0.001 A 
ATOM     23  C   UNL A   1      34.749  25.135  24.951  1.00  0.00     0.001 A 
BRANCH  12  24
ATOM     24  C   UNL A   1      33.614  18.809  24.808  1.00  0.00     0.053 A 
ATOM     25  C   UNL A   1      31.777  15.696  26.108  1.00  0.00     0.044 C 
ATOM     26  C   UNL A   1      32.819  16.557  25.455  1.00  0.00    -0.049 A 
ATOM     27  C   UNL A   1      33.955  15.977  24.896  1.00  0.00     0.003 A 
ATOM     28  C   UNL A   1      32.653  17.952  25.383  1.00  0.00     0.030 A 
ATOM     29  C   UNL A   1      34.907  16.784  24.292  1.00  0.00     0.002 A 
ATOM     30  C   UNL A   1      34.738  18.175  24.251  1.00  0.00     0.027 A 
ENDBRANCH  12  24
ENDBRANCH   6  11
ENDBRANCH   3   5
ENDBRANCH   2   3
ENDBRANCH   1   2
BRANCH   1  31
ATOM     31  C   UNL A   1      32.848  30.504  26.431  1.00  0.00     0.275 C 
BRANCH  31  32
ATOM     32  O   UNL A   1      33.088  31.303  27.628  1.00  0.00    -0.458 OA
BRANCH  32  33
ATOM     33  C   UNL A   1      33.983  32.288  27.863  1.00  0.00     0.338 C 
ATOM     34  O   UNL A   1      33.688  33.476  27.760  1.00  0.00    -0.246 OA
BRANCH  33  35
ATOM     35  C   UNL A   1      35.336  31.910  28.285  1.00  0.00     0.060 A 
ATOM     36  C   UNL A   1      36.378  32.849  28.173  1.00  0.00     0.016 A 
ATOM     37  C   UNL A   1      35.541  30.670  28.874  1.00  0.00     0.016 A 
ATOM     38  C   UNL A   1      37.613  32.583  28.750  1.00  0.00     0.010 A 
ATOM     39  C   UNL A   1      36.702  30.468  29.570  1.00  0.00     0.010 A 
ATOM     40  C   UNL A   1      37.750  31.396  29.461  1.00  0.00    -0.014 A 
BRANCH  40  41
ATOM     41  C   UNL A   1      39.030  30.843  29.859  1.00  0.00     0.031 A 
ATOM     42  C   UNL A   1      39.615  29.661  29.217  1.00  0.00     0.074 A 
ATOM     43  C   UNL A   1      39.663  31.670  30.720  1.00  0.00     0.049 A 
ATOM     44  N   UNL A   1      40.466  28.880  29.783  1.00  0.00    -0.248 NA
ATOM     45  C   UNL A   1      39.252  29.211  27.878  1.00  0.00     0.031 C 
ATOM     46  C   UNL A   1      41.059  31.798  31.071  1.00  0.00     0.029 A 
ATOM     47  N   UNL A   1      39.022  32.602  31.545  1.00  0.00    -0.354 N 
ATOM     48  C   UNL A   1      41.030  28.109  28.781  1.00  0.00     0.074 A 
ATOM     49  C   UNL A   1      40.114  28.206  27.674  1.00  0.00     0.031 C 
ATOM     50  C   UNL A   1      41.151  32.527  32.202  1.00  0.00     0.029 A 
ATOM     51  C   UNL A   1      39.794  32.757  32.690  1.00  0.00     0.049 A 
ATOM     52  H   UNL A   1      38.176  33.066  31.348  1.00  0.00     0.167 HD
ATOM     53  C   UNL A   1      42.324  27.696  28.924  1.00  0.00     0.037 A 
ATOM     54  C   UNL A   1      39.277  32.293  33.867  1.00  0.00     0.037 A 
ATOM     55  C   UNL A   1      42.858  28.240  30.168  1.00  0.00     0.049 A 
ATOM     56  C   UNL A   1      40.084  31.115  34.346  1.00  0.00     0.074 A 
ATOM     57  C   UNL A   1      43.590  29.392  30.405  1.00  0.00     0.029 A 
ATOM     58  N   UNL A   1      42.346  27.827  31.389  1.00  0.00    -0.354 N 
ATOM     59  N   UNL A   1      40.633  30.230  33.558  1.00  0.00    -0.248 NA
ATOM     60  C   UNL A   1      40.436  30.932  35.749  1.00  0.00     0.031 C 
ATOM     61  C   UNL A   1      43.480  29.698  31.782  1.00  0.00     0.029 A 
ATOM     62  C   UNL A   1      42.677  28.737  32.372  1.00  0.00     0.049 A 
ATOM     63  H   UNL A   1      41.824  27.005  31.533  1.00  0.00     0.167 HD
ATOM     64  C   UNL A   1      41.467  29.436  34.303  1.00  0.00     0.074 A 
ATOM     65  C   UNL A   1      41.284  29.893  35.669  1.00  0.00     0.031 C 
ATOM     66  C   UNL A   1      42.304  28.507  33.754  1.00  0.00     0.037 A 
BRANCH  53  67
ATOM     67  C   UNL A   1      43.235  27.146  27.840  1.00  0.00     0.057 A 
ATOM     68  C   UNL A   1      43.396  25.749  27.689  1.00  0.00     0.134 A 
ATOM     69  C   UNL A   1      43.979  27.908  26.926  1.00  0.00     0.134 A 
ATOM     70  F   UNL A   1      42.686  24.870  28.407  1.00  0.00    -0.206 F 
ATOM     71  C   UNL A   1      44.291  25.166  26.782  1.00  0.00     0.040 A 
ATOM     72  C   UNL A   1      44.893  27.338  26.021  1.00  0.00     0.040 A 
ATOM     73  F   UNL A   1      43.824  29.234  26.824  1.00  0.00    -0.206 F 
ATOM     74  C   UNL A   1      45.062  25.962  25.956  1.00  0.00     0.006 A 
ENDBRANCH  53  67
BRANCH  54  75
ATOM     75  C   UNL A   1      37.783  32.428  33.944  1.00  0.00     0.057 A 
ATOM     76  C   UNL A   1      37.246  33.648  34.407  1.00  0.00     0.134 A 
ATOM     77  C   UNL A   1      36.901  31.583  33.261  1.00  0.00     0.134 A 
ATOM     78  F   UNL A   1      38.028  34.515  35.073  1.00  0.00    -0.206 F 
ATOM     79  C   UNL A   1      35.946  34.064  34.098  1.00  0.00     0.040 A 
ATOM     80  C   UNL A   1      35.587  31.980  32.963  1.00  0.00     0.040 A 
ATOM     81  F   UNL A   1      37.315  30.401  32.784  1.00  0.00    -0.206 F 
ATOM     82  C   UNL A   1      35.120  33.238  33.346  1.00  0.00     0.006 A 
ENDBRANCH  54  75
BRANCH  66  83
ATOM     83  C   UNL A   1      42.970  27.371  34.488  1.00  0.00     0.057 A 
ATOM     84  C   UNL A   1      44.316  27.378  34.872  1.00  0.00     0.134 A 
ATOM     85  C   UNL A   1      42.209  26.289  34.997  1.00  0.00     0.134 A 
ATOM     86  F   UNL A   1      45.129  28.401  34.579  1.00  0.00    -0.206 F 
ATOM     87  C   UNL A   1      44.883  26.352  35.635  1.00  0.00     0.040 A 
ATOM     88  C   UNL A   1      42.749  25.300  35.819  1.00  0.00     0.040 A 
ATOM     89  F   UNL A   1      40.898  26.156  34.752  1.00  0.00    -0.206 F 
ATOM     90  C   UNL A   1      44.098  25.316  36.123  1.00  0.00     0.006 A 
ENDBRANCH  66  83
ENDBRANCH  40  41
ENDBRANCH  33  35
ENDBRANCH  32  33
ENDBRANCH  31  32
ENDBRANCH   1  31
TORSDOF 13
ENDMDL
MODEL 3
REMARK VINA RESULT:     -13.1      3.361      8.941
REMARK SMILES Cc1cccc(N2C(=O)/C(=C/c3ccc(C(=O)OCCOC(=O)c4ccc(-c5c6nc(c(-c7c(F)cccc7F)c7ccc([nH]7)c(-c7c(F)cccc7F)c7nc(c(-c8c(F)cccc8F)c8ccc5[nH]8)C=C7)C=C6)cc4)cc3)c3ccccc3C2=O)c1
REMARK SMILES IDX 19 1 18 2 16 3 17 4 15 5 12 6 13 7 79 8 14 9 78 10 11 11
REMARK SMILES IDX 7 12 8 13 86 14 9 15 10 16 85 17 87 18 80 19 84 20 81 21
REMARK SMILES IDX 83 22 82 23 6 24 1 25 2 26 3 27 88 28 4 29 5 30 20 31 21 32
REMARK SMILES IDX 22 33 23 34 24 35 25 36 77 37 26 38 76 39 27 40 28 41 29 42
REMARK SMILES IDX 70 43 30 44 75 45 69 46 71 47 31 48 74 49 68 50 67 51 32 53
REMARK SMILES IDX 58 54 41 55 57 56 42 57 45 58 56 59 72 60 43 61 44 62 55 64
REMARK SMILES IDX 73 65 46 66 33 67 34 68 39 69 35 70 36 71 38 72 40 73 37 74
REMARK SMILES IDX 59 75 60 76 65 77 61 78 62 79 64 80 66 81 63 82 47 83 48 84
REMARK SMILES IDX 53 85 49 86 50 87 52 88 54 89 51 90
REMARK H PARENT 71 52 45 63
REMARK Flexibility Score: inf
ROOT
ATOM      1  C   UNL A   1      40.081  20.393  26.617  1.00  0.00     0.275 C 
ENDROOT
BRANCH   1   2
ATOM      2  O   UNL A   1      39.171  20.956  25.668  1.00  0.00    -0.458 OA
BRANCH   2   3
ATOM      3  C   UNL A   1      38.894  22.259  25.943  1.00  0.00     0.338 C 
ATOM      4  O   UNL A   1      39.657  23.029  26.510  1.00  0.00    -0.246 OA
BRANCH   3   5
ATOM      5  C   UNL A   1      37.533  22.669  25.515  1.00  0.00     0.060 A 
ATOM      6  C   UNL A   1      35.263  23.814  24.387  1.00  0.00    -0.025 A 
ATOM      7  C   UNL A   1      35.529  24.003  25.746  1.00  0.00     0.009 A 
ATOM      8  C   UNL A   1      35.999  22.877  23.655  1.00  0.00     0.009 A 
ATOM      9  C   UNL A   1      36.673  23.434  26.312  1.00  0.00     0.016 A 
ATOM     10  C   UNL A   1      37.150  22.329  24.211  1.00  0.00     0.016 A 
BRANCH   6  11
ATOM     11  C   UNL A   1      34.401  24.771  23.682  1.00  0.00     0.022 C 
ATOM     12  N   UNL A   1      31.226  26.398  23.794  1.00  0.00    -0.242 N 
ATOM     13  C   UNL A   1      32.351  25.907  23.097  1.00  0.00     0.265 C 
ATOM     14  C   UNL A   1      30.867  25.867  25.055  1.00  0.00     0.265 C 
ATOM     15  O   UNL A   1      32.854  26.358  22.068  1.00  0.00    -0.268 OA
ATOM     16  C   UNL A   1      33.048  24.760  23.759  1.00  0.00     0.049 C 
ATOM     17  C   UNL A   1      31.221  24.450  25.317  1.00  0.00     0.048 A 
ATOM     18  O   UNL A   1      30.279  26.436  25.972  1.00  0.00    -0.268 OA
ATOM     19  C   UNL A   1      32.234  23.854  24.579  1.00  0.00    -0.000 A 
ATOM     20  C   UNL A   1      30.533  23.718  26.297  1.00  0.00     0.014 A 
ATOM     21  C   UNL A   1      32.455  22.477  24.722  1.00  0.00     0.010 A 
ATOM     22  C   UNL A   1      30.833  22.372  26.506  1.00  0.00     0.001 A 
ATOM     23  C   UNL A   1      31.778  21.745  25.701  1.00  0.00     0.001 A 
BRANCH  12  24
ATOM     24  C   UNL A   1      30.505  27.553  23.257  1.00  0.00     0.053 A 
ATOM     25  C   UNL A   1      26.903  28.881  23.125  1.00  0.00     0.044 C 
ATOM     26  C   UNL A   1      28.388  28.791  22.925  1.00  0.00    -0.049 A 
ATOM     27  C   UNL A   1      29.064  29.797  22.242  1.00  0.00     0.003 A 
ATOM     28  C   UNL A   1      29.115  27.702  23.441  1.00  0.00     0.030 A 
ATOM     29  C   UNL A   1      30.436  29.703  22.069  1.00  0.00     0.002 A 
ATOM     30  C   UNL A   1      31.142  28.599  22.567  1.00  0.00     0.027 A 
ENDBRANCH  12  24
ENDBRANCH   6  11
ENDBRANCH   3   5
ENDBRANCH   2   3
ENDBRANCH   1   2
BRANCH   1  31
ATOM     31  C   UNL A   1      41.248  19.625  25.981  1.00  0.00     0.275 C 
BRANCH  31  32
ATOM     32  O   UNL A   1      42.621  20.059  26.208  1.00  0.00    -0.458 OA
BRANCH  32  33
ATOM     33  C   UNL A   1      43.292  21.137  25.744  1.00  0.00     0.338 C 
ATOM     34  O   UNL A   1      43.992  21.085  24.737  1.00  0.00    -0.246 OA
BRANCH  33  35
ATOM     35  C   UNL A   1      43.142  22.408  26.460  1.00  0.00     0.060 A 
ATOM     36  C   UNL A   1      43.037  22.399  27.864  1.00  0.00     0.016 A 
ATOM     37  C   UNL A   1      43.203  23.598  25.748  1.00  0.00     0.016 A 
ATOM     38  C   UNL A   1      43.099  23.593  28.569  1.00  0.00     0.010 A 
ATOM     39  C   UNL A   1      43.413  24.758  26.443  1.00  0.00     0.010 A 
ATOM     40  C   UNL A   1      43.305  24.761  27.843  1.00  0.00    -0.014 A 
BRANCH  40  41
ATOM     41  C   UNL A   1      43.099  26.090  28.386  1.00  0.00     0.031 A 
ATOM     42  C   UNL A   1      41.788  26.747  28.390  1.00  0.00     0.074 A 
ATOM     43  C   UNL A   1      44.199  26.515  29.043  1.00  0.00     0.049 A 
ATOM     44  N   UNL A   1      41.619  28.022  28.423  1.00  0.00    -0.248 NA
ATOM     45  C   UNL A   1      40.525  26.022  28.305  1.00  0.00     0.031 C 
ATOM     46  C   UNL A   1      44.371  27.522  30.067  1.00  0.00     0.029 A 
ATOM     47  N   UNL A   1      45.500  26.061  28.797  1.00  0.00    -0.354 N 
ATOM     48  C   UNL A   1      40.295  28.243  28.758  1.00  0.00     0.074 A 
ATOM     49  C   UNL A   1      39.625  27.000  28.476  1.00  0.00     0.031 C 
ATOM     50  C   UNL A   1      45.685  27.809  30.168  1.00  0.00     0.029 A 
ATOM     51  C   UNL A   1      46.377  27.097  29.096  1.00  0.00     0.049 A 
ATOM     52  H   UNL A   1      45.750  25.166  28.471  1.00  0.00     0.167 HD
ATOM     53  C   UNL A   1      39.979  29.364  29.473  1.00  0.00     0.037 A 
ATOM     54  C   UNL A   1      47.049  27.674  28.056  1.00  0.00     0.037 A 
ATOM     55  C   UNL A   1      41.207  30.093  29.772  1.00  0.00     0.049 A 
ATOM     56  C   UNL A   1      46.571  29.089  27.864  1.00  0.00     0.074 A 
ATOM     57  C   UNL A   1      42.023  30.060  30.892  1.00  0.00     0.029 A 
ATOM     58  N   UNL A   1      41.946  30.669  28.750  1.00  0.00    -0.354 N 
ATOM     59  N   UNL A   1      45.339  29.481  28.054  1.00  0.00    -0.248 NA
ATOM     60  C   UNL A   1      47.483  30.186  27.570  1.00  0.00     0.031 C 
ATOM     61  C   UNL A   1      43.283  30.585  30.523  1.00  0.00     0.029 A 
ATOM     62  C   UNL A   1      43.230  30.927  29.182  1.00  0.00     0.049 A 
ATOM     63  H   UNL A   1      41.604  30.866  27.848  1.00  0.00     0.167 HD
ATOM     64  C   UNL A   1      45.303  30.851  28.007  1.00  0.00     0.074 A 
ATOM     65  C   UNL A   1      46.659  31.242  27.670  1.00  0.00     0.031 C 
ATOM     66  C   UNL A   1      44.190  31.581  28.315  1.00  0.00     0.037 A 
BRANCH  53  67
ATOM     67  C   UNL A   1      38.687  29.637  30.222  1.00  0.00     0.057 A 
ATOM     68  C   UNL A   1      37.716  30.505  29.671  1.00  0.00     0.134 A 
ATOM     69  C   UNL A   1      38.331  29.104  31.471  1.00  0.00     0.134 A 
ATOM     70  F   UNL A   1      37.842  31.024  28.442  1.00  0.00    -0.206 F 
ATOM     71  C   UNL A   1      36.547  30.887  30.341  1.00  0.00     0.040 A 
ATOM     72  C   UNL A   1      37.169  29.490  32.164  1.00  0.00     0.040 A 
ATOM     73  F   UNL A   1      39.058  28.147  32.060  1.00  0.00    -0.206 F 
ATOM     74  C   UNL A   1      36.278  30.395  31.605  1.00  0.00     0.006 A 
ENDBRANCH  53  67
BRANCH  54  75
ATOM     75  C   UNL A   1      47.383  26.701  26.962  1.00  0.00     0.057 A 
ATOM     76  C   UNL A   1      46.557  26.673  25.818  1.00  0.00     0.134 A 
ATOM     77  C   UNL A   1      48.637  26.092  26.835  1.00  0.00     0.134 A 
ATOM     78  F   UNL A   1      45.338  27.237  25.857  1.00  0.00    -0.206 F 
ATOM     79  C   UNL A   1      46.998  26.184  24.583  1.00  0.00     0.040 A 
ATOM     80  C   UNL A   1      49.082  25.577  25.606  1.00  0.00     0.040 A 
ATOM     81  F   UNL A   1      49.493  26.063  27.866  1.00  0.00    -0.206 F 
ATOM     82  C   UNL A   1      48.280  25.660  24.468  1.00  0.00     0.006 A 
ENDBRANCH  54  75
BRANCH  66  83
ATOM     83  C   UNL A   1      43.950  33.025  27.954  1.00  0.00     0.057 A 
ATOM     84  C   UNL A   1      44.016  34.076  28.876  1.00  0.00     0.134 A 
ATOM     85  C   UNL A   1      43.818  33.424  26.601  1.00  0.00     0.134 A 
ATOM     86  F   UNL A   1      44.269  33.864  30.173  1.00  0.00    -0.206 F 
ATOM     87  C   UNL A   1      43.883  35.416  28.495  1.00  0.00     0.040 A 
ATOM     88  C   UNL A   1      43.759  34.760  26.204  1.00  0.00     0.040 A 
ATOM     89  F   UNL A   1      43.778  32.541  25.593  1.00  0.00    -0.206 F 
ATOM     90  C   UNL A   1      43.768  35.763  27.156  1.00  0.00     0.006 A 
ENDBRANCH  66  83
ENDBRANCH  40  41
ENDBRANCH  33  35
ENDBRANCH  32  33
ENDBRANCH  31  32
ENDBRANCH   1  31
TORSDOF 13
ENDMDL
