MODEL 1
REMARK VINA RESULT:     -12.4      0.000      0.000
REMARK SMILES O=C(OCCOC(=O)[C@@H]1[C@@H](C(=O)Nc2cccc([N+](=O)[O-])c2)[C@H]2C=C[C@@H]1O2)c1ccc(-c2c3nc(c(-c4c(F)cccc4F)c4ccc([nH]4)c(-c4c(F)cccc4F)c4nc(c(-c5c(F)cccc5F)c5ccc2[nH]5)C=C4)C=C3)cc1
REMARK SMILES IDX 5 1 4 2 3 3 2 4 1 5 28 6 29 7 81 8 30 9 80 10 31 11 32 12
REMARK SMILES IDX 33 13 74 14 34 15 79 16 73 17 75 18 35 19 78 20 72 21 71 22
REMARK SMILES IDX 36 24 62 25 45 26 61 27 46 28 49 29 60 30 76 31 47 32 48 33
REMARK SMILES IDX 59 35 77 36 50 37 37 38 38 39 43 40 39 41 40 42 42 43 44 44
REMARK SMILES IDX 41 45 63 46 64 47 69 48 65 49 66 50 68 51 70 52 67 53 51 54
REMARK SMILES IDX 52 55 57 56 53 57 54 58 56 59 58 60 55 61 6 62 7 63 8 64
REMARK SMILES IDX 9 65 10 66 26 67 23 68 25 69 27 70 24 71 11 72 12 73 13 74
REMARK SMILES IDX 14 76 15 77 22 78 16 79 18 80 17 81 19 82 20 83 21 84
REMARK H PARENT 75 23 49 34 13 75
REMARK Flexibility Score: inf
ROOT
ATOM      1  C   UNL A   1      38.393  21.376  25.365  1.00  0.00     0.274 C 
ENDROOT
BRANCH   1   2
ATOM      2  C   UNL A   1      38.724  19.915  25.030  1.00  0.00     0.275 C 
BRANCH   2   3
ATOM      3  O   UNL A   1      39.730  19.295  25.845  1.00  0.00    -0.458 OA
BRANCH   3   4
ATOM      4  C   UNL A   1      41.049  19.574  25.951  1.00  0.00     0.338 C 
ATOM      5  O   UNL A   1      41.867  18.675  25.773  1.00  0.00    -0.246 OA
BRANCH   4   6
ATOM      6  C   UNL A   1      41.566  20.901  26.420  1.00  0.00     0.060 A 
ATOM      7  C   UNL A   1      42.165  21.893  25.635  1.00  0.00     0.016 A 
ATOM      8  C   UNL A   1      41.402  21.170  27.784  1.00  0.00     0.016 A 
ATOM      9  C   UNL A   1      42.454  23.167  26.147  1.00  0.00     0.010 A 
ATOM     10  C   UNL A   1      41.745  22.418  28.308  1.00  0.00     0.010 A 
ATOM     11  C   UNL A   1      42.229  23.450  27.491  1.00  0.00    -0.014 A 
BRANCH  11  12
ATOM     12  C   UNL A   1      42.713  24.719  28.093  1.00  0.00     0.031 A 
ATOM     13  C   UNL A   1      41.678  25.792  28.298  1.00  0.00     0.074 A 
ATOM     14  C   UNL A   1      44.015  24.930  28.396  1.00  0.00     0.049 A 
ATOM     15  N   UNL A   1      41.830  27.040  28.645  1.00  0.00    -0.248 NA
ATOM     16  C   UNL A   1      40.274  25.407  28.042  1.00  0.00     0.031 C 
ATOM     17  C   UNL A   1      45.106  23.965  28.231  1.00  0.00     0.029 A 
ATOM     18  N   UNL A   1      44.659  26.059  28.857  1.00  0.00    -0.354 N 
ATOM     19  C   UNL A   1      40.548  27.580  28.658  1.00  0.00     0.074 A 
ATOM     20  C   UNL A   1      39.641  26.557  28.199  1.00  0.00     0.031 C 
ATOM     21  C   UNL A   1      46.282  24.559  28.520  1.00  0.00     0.029 A 
ATOM     22  C   UNL A   1      46.037  25.952  28.885  1.00  0.00     0.049 A 
ATOM     23  H   UNL A   1      44.179  26.870  29.142  1.00  0.00     0.167 HD
ATOM     24  C   UNL A   1      40.159  28.810  29.061  1.00  0.00     0.037 A 
ATOM     25  C   UNL A   1      46.978  26.893  29.128  1.00  0.00     0.037 A 
ATOM     26  C   UNL A   1      41.075  29.799  29.548  1.00  0.00     0.049 A 
ATOM     27  C   UNL A   1      46.517  28.287  29.458  1.00  0.00     0.074 A 
ATOM     28  C   UNL A   1      40.799  31.043  30.081  1.00  0.00     0.029 A 
ATOM     29  N   UNL A   1      42.453  29.651  29.548  1.00  0.00    -0.354 N 
ATOM     30  N   UNL A   1      45.297  28.765  29.507  1.00  0.00    -0.248 NA
ATOM     31  C   UNL A   1      47.565  29.265  29.782  1.00  0.00     0.031 C 
ATOM     32  C   UNL A   1      42.016  31.672  30.351  1.00  0.00     0.029 A 
ATOM     33  C   UNL A   1      43.046  30.800  30.031  1.00  0.00     0.049 A 
ATOM     34  H   UNL A   1      42.936  28.847  29.248  1.00  0.00     0.167 HD
ATOM     35  C   UNL A   1      45.427  30.089  29.905  1.00  0.00     0.074 A 
ATOM     36  C   UNL A   1      46.846  30.342  30.057  1.00  0.00     0.031 C 
ATOM     37  C   UNL A   1      44.465  31.010  30.150  1.00  0.00     0.037 A 
BRANCH  24  38
ATOM     38  C   UNL A   1      38.696  29.136  29.008  1.00  0.00     0.057 A 
ATOM     39  C   UNL A   1      37.873  29.031  30.137  1.00  0.00     0.134 A 
ATOM     40  C   UNL A   1      38.108  29.588  27.821  1.00  0.00     0.134 A 
ATOM     41  F   UNL A   1      38.370  28.585  31.302  1.00  0.00    -0.206 F 
ATOM     42  C   UNL A   1      36.514  29.344  30.083  1.00  0.00     0.040 A 
ATOM     43  C   UNL A   1      36.756  29.929  27.760  1.00  0.00     0.040 A 
ATOM     44  F   UNL A   1      38.839  29.709  26.702  1.00  0.00    -0.206 F 
ATOM     45  C   UNL A   1      35.954  29.803  28.892  1.00  0.00     0.006 A 
ENDBRANCH  24  38
BRANCH  25  46
ATOM     46  C   UNL A   1      48.443  26.614  29.058  1.00  0.00     0.057 A 
ATOM     47  C   UNL A   1      49.150  26.702  27.857  1.00  0.00     0.134 A 
ATOM     48  C   UNL A   1      49.152  26.113  30.159  1.00  0.00     0.134 A 
ATOM     49  F   UNL A   1      48.513  27.037  26.726  1.00  0.00    -0.206 F 
ATOM     50  C   UNL A   1      50.510  26.371  27.775  1.00  0.00     0.040 A 
ATOM     51  C   UNL A   1      50.522  25.845  30.114  1.00  0.00     0.040 A 
ATOM     52  F   UNL A   1      48.504  25.750  31.270  1.00  0.00    -0.206 F 
ATOM     53  C   UNL A   1      51.209  25.975  28.914  1.00  0.00     0.006 A 
ENDBRANCH  25  46
BRANCH  37  54
ATOM     54  C   UNL A   1      44.915  32.355  30.627  1.00  0.00     0.057 A 
ATOM     55  C   UNL A   1      45.105  33.423  29.745  1.00  0.00     0.134 A 
ATOM     56  C   UNL A   1      45.087  32.596  31.997  1.00  0.00     0.134 A 
ATOM     57  F   UNL A   1      44.972  33.244  28.422  1.00  0.00    -0.206 F 
ATOM     58  C   UNL A   1      45.460  34.689  30.209  1.00  0.00     0.040 A 
ATOM     59  C   UNL A   1      45.413  33.864  32.474  1.00  0.00     0.040 A 
ATOM     60  F   UNL A   1      44.911  31.610  32.890  1.00  0.00    -0.206 F 
ATOM     61  C   UNL A   1      45.601  34.913  31.577  1.00  0.00     0.006 A 
ENDBRANCH  37  54
ENDBRANCH  11  12
ENDBRANCH   4   6
ENDBRANCH   3   4
ENDBRANCH   2   3
ENDBRANCH   1   2
BRANCH   1  62
ATOM     62  O   UNL A   1      37.016  21.642  25.699  1.00  0.00    -0.462 OA
BRANCH  62  63
ATOM     63  C   UNL A   1      36.714  22.971  25.847  1.00  0.00     0.312 C 
ATOM     64  O   UNL A   1      37.561  23.840  25.929  1.00  0.00    -0.252 OA
BRANCH  63  65
ATOM     65  C   UNL A   1      35.203  23.191  25.952  1.00  0.00     0.147 C 
ATOM     66  C   UNL A   1      34.400  21.954  25.437  1.00  0.00     0.129 C 
ATOM     67  C   UNL A   1      34.925  24.215  24.852  1.00  0.00     0.157 C 
ATOM     68  C   UNL A   1      33.853  22.465  24.094  1.00  0.00     0.155 C 
ATOM     69  C   UNL A   1      33.489  24.614  24.754  1.00  0.00     0.004 C 
ATOM     70  O   UNL A   1      34.970  23.321  23.692  1.00  0.00    -0.365 OA
ATOM     71  C   UNL A   1      32.872  23.578  24.175  1.00  0.00     0.004 C 
BRANCH  66  72
ATOM     72  C   UNL A   1      33.597  21.095  26.438  1.00  0.00     0.231 C 
ATOM     73  O   UNL A   1      33.415  21.573  27.572  1.00  0.00    -0.274 OA
ATOM     74  N   UNL A   1      32.899  19.947  26.242  1.00  0.00    -0.325 N 
ATOM     75  H   UNL A   1      32.168  19.844  26.892  1.00  0.00     0.169 HD
BRANCH  74  76
ATOM     76  C   UNL A   1      32.961  18.880  25.351  1.00  0.00     0.048 A 
ATOM     77  C   UNL A   1      32.562  19.079  24.023  1.00  0.00     0.026 A 
ATOM     78  C   UNL A   1      33.278  17.604  25.763  1.00  0.00     0.111 A 
ATOM     79  C   UNL A   1      32.730  18.075  23.071  1.00  0.00     0.009 A 
ATOM     80  C   UNL A   1      33.503  16.617  24.805  1.00  0.00     0.271 A 
ATOM     81  C   UNL A   1      33.257  16.856  23.460  1.00  0.00     0.086 A 
BRANCH  80  82
ATOM     82  N   UNL A   1      34.076  15.345  25.215  1.00  0.00     0.062 N 
ATOM     83  O   UNL A   1      33.291  14.409  25.423  1.00  0.00    -0.258 OA
ATOM     84  O   UNL A   1      35.311  15.270  25.274  1.00  0.00    -0.258 OA
ENDBRANCH  80  82
ENDBRANCH  74  76
ENDBRANCH  66  72
ENDBRANCH  63  65
ENDBRANCH  62  63
ENDBRANCH   1  62
TORSDOF 14
ENDMDL
MODEL 2
REMARK VINA RESULT:     -12.3      5.954     10.103
REMARK SMILES O=C(OCCOC(=O)[C@@H]1[C@@H](C(=O)Nc2cccc([N+](=O)[O-])c2)[C@H]2C=C[C@@H]1O2)c1ccc(-c2c3nc(c(-c4c(F)cccc4F)c4ccc([nH]4)c(-c4c(F)cccc4F)c4nc(c(-c5c(F)cccc5F)c5ccc2[nH]5)C=C4)C=C3)cc1
REMARK SMILES IDX 5 1 4 2 3 3 2 4 1 5 28 6 29 7 81 8 30 9 80 10 31 11 32 12
REMARK SMILES IDX 33 13 74 14 34 15 79 16 73 17 75 18 35 19 78 20 72 21 71 22
REMARK SMILES IDX 36 24 62 25 45 26 61 27 46 28 49 29 60 30 76 31 47 32 48 33
REMARK SMILES IDX 59 35 77 36 50 37 37 38 38 39 43 40 39 41 40 42 42 43 44 44
REMARK SMILES IDX 41 45 63 46 64 47 69 48 65 49 66 50 68 51 70 52 67 53 51 54
REMARK SMILES IDX 52 55 57 56 53 57 54 58 56 59 58 60 55 61 6 62 7 63 8 64
REMARK SMILES IDX 9 65 10 66 26 67 23 68 25 69 27 70 24 71 11 72 12 73 13 74
REMARK SMILES IDX 14 76 15 77 22 78 16 79 18 80 17 81 19 82 20 83 21 84
REMARK H PARENT 75 23 49 34 13 75
REMARK Flexibility Score: inf
ROOT
ATOM      1  C   UNL A   1      31.777  31.814  27.132  1.00  0.00     0.274 C 
ENDROOT
BRANCH   1   2
ATOM      2  C   UNL A   1      32.158  33.263  26.795  1.00  0.00     0.275 C 
BRANCH   2   3
ATOM      3  O   UNL A   1      32.154  34.187  27.894  1.00  0.00    -0.458 OA
BRANCH   3   4
ATOM      4  C   UNL A   1      33.193  34.741  28.558  1.00  0.00     0.338 C 
ATOM      5  O   UNL A   1      33.242  35.963  28.680  1.00  0.00    -0.246 OA
BRANCH   4   6
ATOM      6  C   UNL A   1      34.374  33.948  29.032  1.00  0.00     0.060 A 
ATOM      7  C   UNL A   1      35.718  34.173  28.714  1.00  0.00     0.016 A 
ATOM      8  C   UNL A   1      34.087  32.891  29.903  1.00  0.00     0.016 A 
ATOM      9  C   UNL A   1      36.756  33.476  29.351  1.00  0.00     0.010 A 
ATOM     10  C   UNL A   1      35.117  32.156  30.494  1.00  0.00     0.010 A 
ATOM     11  C   UNL A   1      36.465  32.469  30.266  1.00  0.00    -0.014 A 
BRANCH  11  12
ATOM     12  C   UNL A   1      37.539  31.590  30.796  1.00  0.00     0.031 A 
ATOM     13  C   UNL A   1      38.001  31.880  32.200  1.00  0.00     0.074 A 
ATOM     14  C   UNL A   1      38.113  30.614  30.055  1.00  0.00     0.049 A 
ATOM     15  N   UNL A   1      39.016  31.395  32.859  1.00  0.00    -0.248 NA
ATOM     16  C   UNL A   1      37.222  32.886  32.951  1.00  0.00     0.031 C 
ATOM     17  C   UNL A   1      37.752  30.250  28.682  1.00  0.00     0.029 A 
ATOM     18  N   UNL A   1      39.175  29.779  30.335  1.00  0.00    -0.354 N 
ATOM     19  C   UNL A   1      38.989  32.028  34.097  1.00  0.00     0.074 A 
ATOM     20  C   UNL A   1      37.919  32.994  34.070  1.00  0.00     0.031 C 
ATOM     21  C   UNL A   1      38.614  29.319  28.220  1.00  0.00     0.029 A 
ATOM     22  C   UNL A   1      39.597  29.022  29.257  1.00  0.00     0.049 A 
ATOM     23  H   UNL A   1      39.594  29.727  31.224  1.00  0.00     0.167 HD
ATOM     24  C   UNL A   1      39.765  31.790  35.178  1.00  0.00     0.037 A 
ATOM     25  C   UNL A   1      40.683  28.226  29.126  1.00  0.00     0.037 A 
ATOM     26  C   UNL A   1      40.801  30.800  35.195  1.00  0.00     0.049 A 
ATOM     27  C   UNL A   1      41.596  28.073  30.312  1.00  0.00     0.074 A 
ATOM     28  C   UNL A   1      41.587  30.391  36.254  1.00  0.00     0.029 A 
ATOM     29  N   UNL A   1      41.197  30.069  34.085  1.00  0.00    -0.354 N 
ATOM     30  N   UNL A   1      41.528  28.647  31.489  1.00  0.00    -0.248 NA
ATOM     31  C   UNL A   1      42.728  27.148  30.153  1.00  0.00     0.031 C 
ATOM     32  C   UNL A   1      42.500  29.451  35.771  1.00  0.00     0.029 A 
ATOM     33  C   UNL A   1      42.248  29.241  34.423  1.00  0.00     0.049 A 
ATOM     34  H   UNL A   1      40.789  30.131  33.192  1.00  0.00     0.167 HD
ATOM     35  C   UNL A   1      42.584  28.126  32.225  1.00  0.00     0.074 A 
ATOM     36  C   UNL A   1      43.289  27.209  31.352  1.00  0.00     0.031 C 
ATOM     37  C   UNL A   1      42.929  28.357  33.514  1.00  0.00     0.037 A 
BRANCH  24  38
ATOM     38  C   UNL A   1      39.508  32.595  36.417  1.00  0.00     0.057 A 
ATOM     39  C   UNL A   1      40.232  33.760  36.707  1.00  0.00     0.134 A 
ATOM     40  C   UNL A   1      38.505  32.219  37.318  1.00  0.00     0.134 A 
ATOM     41  F   UNL A   1      41.220  34.166  35.894  1.00  0.00    -0.206 F 
ATOM     42  C   UNL A   1      39.981  34.510  37.857  1.00  0.00     0.040 A 
ATOM     43  C   UNL A   1      38.227  32.974  38.459  1.00  0.00     0.040 A 
ATOM     44  F   UNL A   1      37.776  31.113  37.102  1.00  0.00    -0.206 F 
ATOM     45  C   UNL A   1      38.970  34.120  38.733  1.00  0.00     0.006 A 
ENDBRANCH  24  38
BRANCH  25  46
ATOM     46  C   UNL A   1      41.022  27.518  27.856  1.00  0.00     0.057 A 
ATOM     47  C   UNL A   1      41.769  28.135  26.850  1.00  0.00     0.134 A 
ATOM     48  C   UNL A   1      40.492  26.257  27.549  1.00  0.00     0.134 A 
ATOM     49  F   UNL A   1      42.193  29.398  27.007  1.00  0.00    -0.206 F 
ATOM     50  C   UNL A   1      42.028  27.500  25.627  1.00  0.00     0.040 A 
ATOM     51  C   UNL A   1      40.797  25.580  26.367  1.00  0.00     0.040 A 
ATOM     52  F   UNL A   1      39.562  25.707  28.336  1.00  0.00    -0.206 F 
ATOM     53  C   UNL A   1      41.572  26.203  25.398  1.00  0.00     0.006 A 
ENDBRANCH  25  46
BRANCH  37  54
ATOM     54  C   UNL A   1      44.097  27.594  34.054  1.00  0.00     0.057 A 
ATOM     55  C   UNL A   1      45.386  28.135  34.069  1.00  0.00     0.134 A 
ATOM     56  C   UNL A   1      43.908  26.331  34.631  1.00  0.00     0.134 A 
ATOM     57  F   UNL A   1      45.627  29.333  33.514  1.00  0.00    -0.206 F 
ATOM     58  C   UNL A   1      46.454  27.442  34.636  1.00  0.00     0.040 A 
ATOM     59  C   UNL A   1      44.962  25.642  35.226  1.00  0.00     0.040 A 
ATOM     60  F   UNL A   1      42.691  25.766  34.651  1.00  0.00    -0.206 F 
ATOM     61  C   UNL A   1      46.240  26.198  35.228  1.00  0.00     0.006 A 
ENDBRANCH  37  54
ENDBRANCH  11  12
ENDBRANCH   4   6
ENDBRANCH   3   4
ENDBRANCH   2   3
ENDBRANCH   1   2
BRANCH   1  62
ATOM     62  O   UNL A   1      32.141  30.828  26.145  1.00  0.00    -0.462 OA
BRANCH  62  63
ATOM     63  C   UNL A   1      33.256  30.095  26.459  1.00  0.00     0.312 C 
ATOM     64  O   UNL A   1      34.020  30.398  27.355  1.00  0.00    -0.252 OA
BRANCH  63  65
ATOM     65  C   UNL A   1      33.429  28.908  25.508  1.00  0.00     0.147 C 
ATOM     66  C   UNL A   1      32.135  28.642  24.674  1.00  0.00     0.129 C 
ATOM     67  C   UNL A   1      33.436  27.706  26.452  1.00  0.00     0.157 C 
ATOM     68  C   UNL A   1      31.590  27.362  25.330  1.00  0.00     0.155 C 
ATOM     69  C   UNL A   1      33.608  26.397  25.752  1.00  0.00     0.004 C 
ATOM     70  O   UNL A   1      31.998  27.613  26.713  1.00  0.00    -0.365 OA
ATOM     71  C   UNL A   1      32.428  26.146  25.175  1.00  0.00     0.004 C 
BRANCH  66  72
ATOM     72  C   UNL A   1      32.140  28.910  23.153  1.00  0.00     0.231 C 
ATOM     73  O   UNL A   1      33.215  28.735  22.553  1.00  0.00    -0.274 OA
ATOM     74  N   UNL A   1      31.108  29.156  22.305  1.00  0.00    -0.325 N 
ATOM     75  H   UNL A   1      31.312  28.876  21.384  1.00  0.00     0.169 HD
BRANCH  74  76
ATOM     76  C   UNL A   1      29.834  29.705  22.414  1.00  0.00     0.048 A 
ATOM     77  C   UNL A   1      28.785  28.903  22.883  1.00  0.00     0.026 A 
ATOM     78  C   UNL A   1      29.545  30.972  21.955  1.00  0.00     0.111 A 
ATOM     79  C   UNL A   1      27.528  29.449  23.129  1.00  0.00     0.009 A 
ATOM     80  C   UNL A   1      28.307  31.538  22.255  1.00  0.00     0.271 A 
ATOM     81  C   UNL A   1      27.308  30.790  22.864  1.00  0.00     0.086 A 
BRANCH  80  82
ATOM     82  N   UNL A   1      28.087  32.951  21.994  1.00  0.00     0.062 N 
ATOM     83  O   UNL A   1      28.403  33.749  22.887  1.00  0.00    -0.258 OA
ATOM     84  O   UNL A   1      27.651  33.261  20.877  1.00  0.00    -0.258 OA
ENDBRANCH  80  82
ENDBRANCH  74  76
ENDBRANCH  66  72
ENDBRANCH  63  65
ENDBRANCH  62  63
ENDBRANCH   1  62
TORSDOF 14
ENDMDL
MODEL 3
REMARK VINA RESULT:     -12.3      5.784     10.395
REMARK SMILES O=C(OCCOC(=O)[C@@H]1[C@@H](C(=O)Nc2cccc([N+](=O)[O-])c2)[C@H]2C=C[C@@H]1O2)c1ccc(-c2c3nc(c(-c4c(F)cccc4F)c4ccc([nH]4)c(-c4c(F)cccc4F)c4nc(c(-c5c(F)cccc5F)c5ccc2[nH]5)C=C4)C=C3)cc1
REMARK SMILES IDX 5 1 4 2 3 3 2 4 1 5 28 6 29 7 81 8 30 9 80 10 31 11 32 12
REMARK SMILES IDX 33 13 74 14 34 15 79 16 73 17 75 18 35 19 78 20 72 21 71 22
REMARK SMILES IDX 36 24 62 25 45 26 61 27 46 28 49 29 60 30 76 31 47 32 48 33
REMARK SMILES IDX 59 35 77 36 50 37 37 38 38 39 43 40 39 41 40 42 42 43 44 44
REMARK SMILES IDX 41 45 63 46 64 47 69 48 65 49 66 50 68 51 70 52 67 53 51 54
REMARK SMILES IDX 52 55 57 56 53 57 54 58 56 59 58 60 55 61 6 62 7 63 8 64
REMARK SMILES IDX 9 65 10 66 26 67 23 68 25 69 27 70 24 71 11 72 12 73 13 74
REMARK SMILES IDX 14 76 15 77 22 78 16 79 18 80 17 81 19 82 20 83 21 84
REMARK H PARENT 75 23 49 34 13 75
REMARK Flexibility Score: inf
ROOT
ATOM      1  C   UNL A   1      32.060  30.816  27.019  1.00  0.00     0.274 C 
ENDROOT
BRANCH   1   2
ATOM      2  C   UNL A   1      31.515  32.243  26.863  1.00  0.00     0.275 C 
BRANCH   2   3
ATOM      3  O   UNL A   1      32.483  33.299  26.952  1.00  0.00    -0.458 OA
BRANCH   3   4
ATOM      4  C   UNL A   1      33.014  33.894  28.044  1.00  0.00     0.338 C 
ATOM      5  O   UNL A   1      32.489  34.913  28.485  1.00  0.00    -0.246 OA
BRANCH   4   6
ATOM      6  C   UNL A   1      34.307  33.453  28.664  1.00  0.00     0.060 A 
ATOM      7  C   UNL A   1      35.591  33.898  28.330  1.00  0.00     0.016 A 
ATOM      8  C   UNL A   1      34.198  32.518  29.699  1.00  0.00     0.016 A 
ATOM      9  C   UNL A   1      36.716  33.547  29.092  1.00  0.00     0.010 A 
ATOM     10  C   UNL A   1      35.324  32.122  30.422  1.00  0.00     0.010 A 
ATOM     11  C   UNL A   1      36.591  32.666  30.162  1.00  0.00    -0.014 A 
BRANCH  11  12
ATOM     12  C   UNL A   1      37.793  32.130  30.851  1.00  0.00     0.031 A 
ATOM     13  C   UNL A   1      38.496  30.989  30.164  1.00  0.00     0.074 A 
ATOM     14  C   UNL A   1      38.213  32.594  32.050  1.00  0.00     0.049 A 
ATOM     15  N   UNL A   1      39.458  30.223  30.597  1.00  0.00    -0.248 NA
ATOM     16  C   UNL A   1      38.021  30.647  28.807  1.00  0.00     0.031 C 
ATOM     17  C   UNL A   1      37.603  33.689  32.811  1.00  0.00     0.029 A 
ATOM     18  N   UNL A   1      39.227  32.160  32.877  1.00  0.00    -0.354 N 
ATOM     19  C   UNL A   1      39.705  29.321  29.567  1.00  0.00     0.074 A 
ATOM     20  C   UNL A   1      38.739  29.573  28.527  1.00  0.00     0.031 C 
ATOM     21  C   UNL A   1      38.209  33.796  34.012  1.00  0.00     0.029 A 
ATOM     22  C   UNL A   1      39.247  32.774  34.117  1.00  0.00     0.049 A 
ATOM     23  H   UNL A   1      39.880  31.475  32.609  1.00  0.00     0.167 HD
ATOM     24  C   UNL A   1      40.684  28.394  29.480  1.00  0.00     0.037 A 
ATOM     25  C   UNL A   1      39.989  32.496  35.213  1.00  0.00     0.037 A 
ATOM     26  C   UNL A   1      41.657  28.184  30.512  1.00  0.00     0.049 A 
ATOM     27  C   UNL A   1      40.991  31.376  35.125  1.00  0.00     0.074 A 
ATOM     28  C   UNL A   1      42.758  27.350  30.504  1.00  0.00     0.029 A 
ATOM     29  N   UNL A   1      41.632  28.818  31.745  1.00  0.00    -0.354 N 
ATOM     30  N   UNL A   1      41.239  30.564  34.126  1.00  0.00    -0.248 NA
ATOM     31  C   UNL A   1      41.824  31.148  36.314  1.00  0.00     0.031 C 
ATOM     32  C   UNL A   1      43.368  27.436  31.758  1.00  0.00     0.029 A 
ATOM     33  C   UNL A   1      42.674  28.360  32.526  1.00  0.00     0.049 A 
ATOM     34  H   UNL A   1      40.971  29.492  32.022  1.00  0.00     0.167 HD
ATOM     35  C   UNL A   1      42.283  29.753  34.550  1.00  0.00     0.074 A 
ATOM     36  C   UNL A   1      42.602  30.156  35.905  1.00  0.00     0.031 C 
ATOM     37  C   UNL A   1      42.942  28.780  33.876  1.00  0.00     0.037 A 
BRANCH  24  38
ATOM     38  C   UNL A   1      40.755  27.562  28.234  1.00  0.00     0.057 A 
ATOM     39  C   UNL A   1      40.082  26.338  28.121  1.00  0.00     0.134 A 
ATOM     40  C   UNL A   1      41.481  28.003  27.122  1.00  0.00     0.134 A 
ATOM     41  F   UNL A   1      39.383  25.849  29.158  1.00  0.00    -0.206 F 
ATOM     42  C   UNL A   1      40.145  25.573  26.955  1.00  0.00     0.040 A 
ATOM     43  C   UNL A   1      41.531  27.261  25.941  1.00  0.00     0.040 A 
ATOM     44  F   UNL A   1      42.152  29.165  27.164  1.00  0.00    -0.206 F 
ATOM     45  C   UNL A   1      40.866  26.039  25.858  1.00  0.00     0.006 A 
ENDBRANCH  24  38
BRANCH  25  46
ATOM     46  C   UNL A   1      39.839  33.232  36.503  1.00  0.00     0.057 A 
ATOM     47  C   UNL A   1      38.898  32.848  37.462  1.00  0.00     0.134 A 
ATOM     48  C   UNL A   1      40.531  34.424  36.758  1.00  0.00     0.134 A 
ATOM     49  F   UNL A   1      38.095  31.799  37.231  1.00  0.00    -0.206 F 
ATOM     50  C   UNL A   1      38.706  33.579  38.642  1.00  0.00     0.040 A 
ATOM     51  C   UNL A   1      40.403  35.127  37.958  1.00  0.00     0.040 A 
ATOM     52  F   UNL A   1      41.252  35.004  35.793  1.00  0.00    -0.206 F 
ATOM     53  C   UNL A   1      39.486  34.703  38.909  1.00  0.00     0.006 A 
ENDBRANCH  25  46
BRANCH  37  54
ATOM     54  C   UNL A   1      44.077  28.110  34.584  1.00  0.00     0.057 A 
ATOM     55  C   UNL A   1      45.363  28.659  34.595  1.00  0.00     0.134 A 
ATOM     56  C   UNL A   1      43.857  26.940  35.322  1.00  0.00     0.134 A 
ATOM     57  F   UNL A   1      45.635  29.769  33.890  1.00  0.00    -0.206 F 
ATOM     58  C   UNL A   1      46.397  28.062  35.313  1.00  0.00     0.040 A 
ATOM     59  C   UNL A   1      44.875  26.351  36.067  1.00  0.00     0.040 A 
ATOM     60  F   UNL A   1      42.641  26.373  35.353  1.00  0.00    -0.206 F 
ATOM     61  C   UNL A   1      46.150  26.912  36.062  1.00  0.00     0.006 A 
ENDBRANCH  37  54
ENDBRANCH  11  12
ENDBRANCH   4   6
ENDBRANCH   3   4
ENDBRANCH   2   3
ENDBRANCH   1   2
BRANCH   1  62
ATOM     62  O   UNL A   1      32.736  30.277  25.866  1.00  0.00    -0.462 OA
BRANCH  62  63
ATOM     63  C   UNL A   1      33.723  29.372  26.158  1.00  0.00     0.312 C 
ATOM     64  O   UNL A   1      34.487  29.501  27.096  1.00  0.00    -0.252 OA
BRANCH  63  65
ATOM     65  C   UNL A   1      33.766  28.241  25.128  1.00  0.00     0.147 C 
ATOM     66  C   UNL A   1      32.427  28.133  24.331  1.00  0.00     0.129 C 
ATOM     67  C   UNL A   1      33.708  26.982  25.993  1.00  0.00     0.157 C 
ATOM     68  C   UNL A   1      31.802  26.861  24.926  1.00  0.00     0.155 C 
ATOM     69  C   UNL A   1      33.749  25.713  25.206  1.00  0.00     0.004 C 
ATOM     70  O   UNL A   1      32.277  26.986  26.304  1.00  0.00    -0.365 OA
ATOM     71  C   UNL A   1      32.533  25.595  24.661  1.00  0.00     0.004 C 
BRANCH  66  72
ATOM     72  C   UNL A   1      32.401  28.500  22.830  1.00  0.00     0.231 C 
ATOM     73  O   UNL A   1      33.466  28.376  22.201  1.00  0.00    -0.274 OA
ATOM     74  N   UNL A   1      31.351  28.789  22.020  1.00  0.00    -0.325 N 
ATOM     75  H   UNL A   1      31.541  28.573  21.078  1.00  0.00     0.169 HD
BRANCH  74  76
ATOM     76  C   UNL A   1      30.074  29.317  22.187  1.00  0.00     0.048 A 
ATOM     77  C   UNL A   1      29.122  28.578  22.902  1.00  0.00     0.026 A 
ATOM     78  C   UNL A   1      29.679  30.481  21.565  1.00  0.00     0.111 A 
ATOM     79  C   UNL A   1      27.876  29.126  23.202  1.00  0.00     0.009 A 
ATOM     80  C   UNL A   1      28.458  31.057  21.912  1.00  0.00     0.271 A 
ATOM     81  C   UNL A   1      27.569  30.397  22.749  1.00  0.00     0.086 A 
BRANCH  80  82
ATOM     82  N   UNL A   1      28.147  32.400  21.451  1.00  0.00     0.062 N 
ATOM     83  O   UNL A   1      27.814  32.530  20.264  1.00  0.00    -0.258 OA
ATOM     84  O   UNL A   1      28.185  33.311  22.288  1.00  0.00    -0.258 OA
ENDBRANCH  80  82
ENDBRANCH  74  76
ENDBRANCH  66  72
ENDBRANCH  63  65
ENDBRANCH  62  63
ENDBRANCH   1  62
TORSDOF 14
ENDMDL
