MODEL 1
REMARK VINA RESULT:     -12.8      0.000      0.000
REMARK SMILES O=C(OCCOC(=O)[C@H]1C[C@](O)(c2ccc(Cl)cc2)[C@@H](c2ccc(Cl)cc2)O1)c1ccc(-c2c3nc(c(-c4c(F)cccc4F)c4ccc([nH]4)c(-c4c(F)cccc4F)c4nc(c(-c5c(F)cccc5F)c5ccc2[nH]5)C=C4)C=C3)cc1
REMARK SMILES IDX 4 1 3 2 2 3 1 4 29 5 30 6 82 7 31 8 81 9 32 10 33 11 34 12
REMARK SMILES IDX 75 13 35 14 80 15 74 16 76 17 36 18 79 19 73 20 72 21 37 23
REMARK SMILES IDX 63 24 46 25 62 26 47 27 50 28 61 29 77 30 48 31 49 32 60 34
REMARK SMILES IDX 78 35 51 36 38 37 39 38 44 39 40 40 41 41 43 42 45 43 42 44
REMARK SMILES IDX 64 45 65 46 70 47 66 48 67 49 69 50 71 51 68 52 52 53 53 54
REMARK SMILES IDX 58 55 54 56 55 57 57 58 59 59 56 60 5 61 6 62 7 63 8 64 9 65
REMARK SMILES IDX 10 66 28 67 11 68 20 69 13 70 14 71 19 72 15 73 18 74 16 75
REMARK SMILES IDX 17 76 12 77 21 79 22 80 27 81 23 82 26 83 24 84 25 85
REMARK H PARENT 76 22 50 33 12 78
REMARK Flexibility Score: inf
ROOT
ATOM      1  C   UNL A   1      41.298  20.453  26.666  1.00  0.00     0.275 C 
ENDROOT
BRANCH   1   2
ATOM      2  O   UNL A   1      42.344  21.450  26.571  1.00  0.00    -0.458 OA
BRANCH   2   3
ATOM      3  C   UNL A   1      42.271  22.570  25.786  1.00  0.00     0.338 C 
ATOM      4  O   UNL A   1      42.889  22.633  24.735  1.00  0.00    -0.246 OA
BRANCH   3   5
ATOM      5  C   UNL A   1      41.745  23.841  26.431  1.00  0.00     0.060 A 
ATOM      6  C   UNL A   1      40.969  23.846  27.572  1.00  0.00     0.016 A 
ATOM      7  C   UNL A   1      42.099  25.117  25.971  1.00  0.00     0.016 A 
ATOM      8  C   UNL A   1      40.707  25.036  28.316  1.00  0.00     0.010 A 
ATOM      9  C   UNL A   1      41.891  26.301  26.786  1.00  0.00     0.010 A 
ATOM     10  C   UNL A   1      41.292  26.266  28.075  1.00  0.00    -0.014 A 
BRANCH  10  11
ATOM     11  C   UNL A   1      40.984  27.473  29.036  1.00  0.00     0.031 A 
ATOM     12  C   UNL A   1      41.838  27.550  30.219  1.00  0.00     0.074 A 
ATOM     13  C   UNL A   1      40.174  28.586  28.986  1.00  0.00     0.049 A 
ATOM     14  N   UNL A   1      41.601  28.173  31.333  1.00  0.00    -0.248 NA
ATOM     15  C   UNL A   1      43.094  26.812  30.132  1.00  0.00     0.031 C 
ATOM     16  C   UNL A   1      39.353  28.898  27.880  1.00  0.00     0.029 A 
ATOM     17  N   UNL A   1      39.817  29.655  29.818  1.00  0.00    -0.354 N 
ATOM     18  C   UNL A   1      42.653  27.830  32.133  1.00  0.00     0.074 A 
ATOM     19  C   UNL A   1      43.473  26.886  31.391  1.00  0.00     0.031 C 
ATOM     20  C   UNL A   1      38.588  29.985  27.993  1.00  0.00     0.029 A 
ATOM     21  C   UNL A   1      38.752  30.438  29.341  1.00  0.00     0.049 A 
ATOM     22  H   UNL A   1      40.277  29.843  30.668  1.00  0.00     0.167 HD
ATOM     23  C   UNL A   1      42.922  28.291  33.365  1.00  0.00     0.037 A 
ATOM     24  C   UNL A   1      37.874  31.321  29.874  1.00  0.00     0.037 A 
ATOM     25  C   UNL A   1      42.185  29.298  34.070  1.00  0.00     0.049 A 
ATOM     26  C   UNL A   1      38.041  31.662  31.306  1.00  0.00     0.074 A 
ATOM     27  C   UNL A   1      42.467  29.818  35.318  1.00  0.00     0.029 A 
ATOM     28  N   UNL A   1      41.050  29.953  33.613  1.00  0.00    -0.354 N 
ATOM     29  N   UNL A   1      38.942  31.192  32.120  1.00  0.00    -0.248 NA
ATOM     30  C   UNL A   1      37.107  32.626  31.901  1.00  0.00     0.031 C 
ATOM     31  C   UNL A   1      41.490  30.763  35.635  1.00  0.00     0.029 A 
ATOM     32  C   UNL A   1      40.621  30.871  34.564  1.00  0.00     0.049 A 
ATOM     33  H   UNL A   1      40.613  29.791  32.746  1.00  0.00     0.167 HD
ATOM     34  C   UNL A   1      38.735  31.848  33.311  1.00  0.00     0.074 A 
ATOM     35  C   UNL A   1      37.591  32.719  33.132  1.00  0.00     0.031 C 
ATOM     36  C   UNL A   1      39.485  31.744  34.427  1.00  0.00     0.037 A 
BRANCH  23  37
ATOM     37  C   UNL A   1      44.051  27.589  34.017  1.00  0.00     0.057 A 
ATOM     38  C   UNL A   1      43.862  26.431  34.782  1.00  0.00     0.134 A 
ATOM     39  C   UNL A   1      45.299  28.217  34.043  1.00  0.00     0.134 A 
ATOM     40  F   UNL A   1      42.653  25.852  34.853  1.00  0.00    -0.206 F 
ATOM     41  C   UNL A   1      44.870  25.959  35.614  1.00  0.00     0.040 A 
ATOM     42  C   UNL A   1      46.327  27.725  34.835  1.00  0.00     0.040 A 
ATOM     43  F   UNL A   1      45.507  29.350  33.354  1.00  0.00    -0.206 F 
ATOM     44  C   UNL A   1      46.106  26.606  35.639  1.00  0.00     0.006 A 
ENDBRANCH  23  37
BRANCH  24  45
ATOM     45  C   UNL A   1      36.667  31.836  29.137  1.00  0.00     0.057 A 
ATOM     46  C   UNL A   1      36.568  33.157  28.679  1.00  0.00     0.134 A 
ATOM     47  C   UNL A   1      35.528  31.031  28.971  1.00  0.00     0.134 A 
ATOM     48  F   UNL A   1      37.591  34.005  28.847  1.00  0.00    -0.206 F 
ATOM     49  C   UNL A   1      35.394  33.652  28.090  1.00  0.00     0.040 A 
ATOM     50  C   UNL A   1      34.356  31.506  28.368  1.00  0.00     0.040 A 
ATOM     51  F   UNL A   1      35.528  29.766  29.411  1.00  0.00    -0.206 F 
ATOM     52  C   UNL A   1      34.284  32.825  27.930  1.00  0.00     0.006 A 
ENDBRANCH  24  45
BRANCH  36  53
ATOM     53  C   UNL A   1      39.157  32.680  35.539  1.00  0.00     0.057 A 
ATOM     54  C   UNL A   1      38.353  32.303  36.619  1.00  0.00     0.134 A 
ATOM     55  C   UNL A   1      39.688  33.975  35.532  1.00  0.00     0.134 A 
ATOM     56  F   UNL A   1      37.778  31.092  36.651  1.00  0.00    -0.206 F 
ATOM     57  C   UNL A   1      38.102  33.185  37.670  1.00  0.00     0.040 A 
ATOM     58  C   UNL A   1      39.464  34.855  36.587  1.00  0.00     0.040 A 
ATOM     59  F   UNL A   1      40.443  34.396  34.506  1.00  0.00    -0.206 F 
ATOM     60  C   UNL A   1      38.671  34.459  37.662  1.00  0.00     0.006 A 
ENDBRANCH  36  53
ENDBRANCH  10  11
ENDBRANCH   3   5
ENDBRANCH   2   3
ENDBRANCH   1   2
BRANCH   1  61
ATOM     61  C   UNL A   1      40.121  20.837  25.753  1.00  0.00     0.274 C 
BRANCH  61  62
ATOM     62  O   UNL A   1      38.969  21.270  26.494  1.00  0.00    -0.460 OA
BRANCH  62  63
ATOM     63  C   UNL A   1      38.087  22.139  25.914  1.00  0.00     0.335 C 
ATOM     64  O   UNL A   1      37.675  23.159  26.430  1.00  0.00    -0.249 OA
BRANCH  63  65
ATOM     65  C   UNL A   1      37.587  21.595  24.549  1.00  0.00     0.232 C 
ATOM     66  C   UNL A   1      36.811  20.276  24.626  1.00  0.00     0.087 C 
ATOM     67  O   UNL A   1      36.820  22.565  23.833  1.00  0.00    -0.355 OA
ATOM     68  C   UNL A   1      35.385  20.706  24.918  1.00  0.00     0.123 C 
ATOM     69  C   UNL A   1      35.421  22.229  23.926  1.00  0.00     0.186 C 
BRANCH  68  70
ATOM     70  C   UNL A   1      34.453  19.326  24.915  1.00  0.00    -0.013 A 
ATOM     71  C   UNL A   1      34.942  18.084  24.399  1.00  0.00     0.008 A 
ATOM     72  C   UNL A   1      33.133  19.183  25.394  1.00  0.00     0.008 A 
ATOM     73  C   UNL A   1      34.315  16.820  24.618  1.00  0.00     0.021 A 
ATOM     74  C   UNL A   1      32.531  17.920  25.706  1.00  0.00     0.021 A 
ATOM     75  C   UNL A   1      33.146  16.736  25.350  1.00  0.00     0.041 A 
ATOM     76  Cl  UNL A   1      32.455  15.209  25.746  1.00  0.00    -0.084 Cl
ENDBRANCH  68  70
BRANCH  68  77
ATOM     77  O   UNL A   1      35.530  21.097  26.285  1.00  0.00    -0.382 OA
ATOM     78  H   UNL A   1      35.846  20.342  26.805  1.00  0.00     0.212 HD
ENDBRANCH  68  77
BRANCH  69  79
ATOM     79  C   UNL A   1      34.651  23.673  24.062  1.00  0.00    -0.016 A 
ATOM     80  C   UNL A   1      34.034  24.346  22.987  1.00  0.00     0.008 A 
ATOM     81  C   UNL A   1      34.488  24.398  25.281  1.00  0.00     0.008 A 
ATOM     82  C   UNL A   1      33.578  25.700  23.040  1.00  0.00     0.021 A 
ATOM     83  C   UNL A   1      34.033  25.749  25.363  1.00  0.00     0.021 A 
ATOM     84  C   UNL A   1      33.620  26.414  24.225  1.00  0.00     0.041 A 
ATOM     85  Cl  UNL A   1      33.161  28.073  24.276  1.00  0.00    -0.084 Cl
ENDBRANCH  69  79
ENDBRANCH  63  65
ENDBRANCH  62  63
ENDBRANCH  61  62
ENDBRANCH   1  61
TORSDOF 14
ENDMDL
MODEL 2
REMARK VINA RESULT:     -12.4      4.609      7.606
REMARK SMILES O=C(OCCOC(=O)[C@H]1C[C@](O)(c2ccc(Cl)cc2)[C@@H](c2ccc(Cl)cc2)O1)c1ccc(-c2c3nc(c(-c4c(F)cccc4F)c4ccc([nH]4)c(-c4c(F)cccc4F)c4nc(c(-c5c(F)cccc5F)c5ccc2[nH]5)C=C4)C=C3)cc1
REMARK SMILES IDX 4 1 3 2 2 3 1 4 29 5 30 6 82 7 31 8 81 9 32 10 33 11 34 12
REMARK SMILES IDX 75 13 35 14 80 15 74 16 76 17 36 18 79 19 73 20 72 21 37 23
REMARK SMILES IDX 63 24 46 25 62 26 47 27 50 28 61 29 77 30 48 31 49 32 60 34
REMARK SMILES IDX 78 35 51 36 38 37 39 38 44 39 40 40 41 41 43 42 45 43 42 44
REMARK SMILES IDX 64 45 65 46 70 47 66 48 67 49 69 50 71 51 68 52 52 53 53 54
REMARK SMILES IDX 58 55 54 56 55 57 57 58 59 59 56 60 5 61 6 62 7 63 8 64 9 65
REMARK SMILES IDX 10 66 28 67 11 68 20 69 13 70 14 71 19 72 15 73 18 74 16 75
REMARK SMILES IDX 17 76 12 77 21 79 22 80 27 81 23 82 26 83 24 84 25 85
REMARK H PARENT 76 22 50 33 12 78
REMARK Flexibility Score: inf
ROOT
ATOM      1  C   UNL A   1      44.875  22.855  24.082  1.00  0.00     0.275 C 
ENDROOT
BRANCH   1   2
ATOM      2  O   UNL A   1      43.439  22.685  24.173  1.00  0.00    -0.458 OA
BRANCH   2   3
ATOM      3  C   UNL A   1      42.763  22.468  25.344  1.00  0.00     0.338 C 
ATOM      4  O   UNL A   1      42.373  21.350  25.639  1.00  0.00    -0.246 OA
BRANCH   3   5
ATOM      5  C   UNL A   1      42.177  23.682  26.046  1.00  0.00     0.060 A 
ATOM      6  C   UNL A   1      41.479  23.607  27.233  1.00  0.00     0.016 A 
ATOM      7  C   UNL A   1      42.395  24.990  25.589  1.00  0.00     0.016 A 
ATOM      8  C   UNL A   1      41.169  24.759  28.016  1.00  0.00     0.010 A 
ATOM      9  C   UNL A   1      42.144  26.141  26.439  1.00  0.00     0.010 A 
ATOM     10  C   UNL A   1      41.634  26.037  27.763  1.00  0.00    -0.014 A 
BRANCH  10  11
ATOM     11  C   UNL A   1      41.292  27.201  28.764  1.00  0.00     0.031 A 
ATOM     12  C   UNL A   1      42.132  27.251  29.959  1.00  0.00     0.074 A 
ATOM     13  C   UNL A   1      40.459  28.298  28.748  1.00  0.00     0.049 A 
ATOM     14  N   UNL A   1      41.870  27.826  31.093  1.00  0.00    -0.248 NA
ATOM     15  C   UNL A   1      43.404  26.542  29.858  1.00  0.00     0.031 C 
ATOM     16  C   UNL A   1      39.642  28.634  27.645  1.00  0.00     0.029 A 
ATOM     17  N   UNL A   1      40.071  29.327  29.615  1.00  0.00    -0.354 N 
ATOM     18  C   UNL A   1      42.921  27.475  31.890  1.00  0.00     0.074 A 
ATOM     19  C   UNL A   1      43.768  26.577  31.123  1.00  0.00     0.031 C 
ATOM     20  C   UNL A   1      38.854  29.700  27.791  1.00  0.00     0.029 A 
ATOM     21  C   UNL A   1      38.994  30.105  29.156  1.00  0.00     0.049 A 
ATOM     22  H   UNL A   1      40.518  29.493  30.476  1.00  0.00     0.167 HD
ATOM     23  C   UNL A   1      43.167  27.895  33.143  1.00  0.00     0.037 A 
ATOM     24  C   UNL A   1      38.093  30.949  29.713  1.00  0.00     0.037 A 
ATOM     25  C   UNL A   1      42.402  28.859  33.876  1.00  0.00     0.049 A 
ATOM     26  C   UNL A   1      38.238  31.239  31.157  1.00  0.00     0.074 A 
ATOM     27  C   UNL A   1      42.661  29.337  35.146  1.00  0.00     0.029 A 
ATOM     28  N   UNL A   1      41.258  29.507  33.431  1.00  0.00    -0.354 N 
ATOM     29  N   UNL A   1      39.140  30.758  31.963  1.00  0.00    -0.248 NA
ATOM     30  C   UNL A   1      37.277  32.161  31.779  1.00  0.00     0.031 C 
ATOM     31  C   UNL A   1      41.661  30.249  35.487  1.00  0.00     0.029 A 
ATOM     32  C   UNL A   1      40.801  30.379  34.412  1.00  0.00     0.049 A 
ATOM     33  H   UNL A   1      40.834  29.369  32.554  1.00  0.00     0.167 HD
ATOM     34  C   UNL A   1      38.907  31.364  33.176  1.00  0.00     0.074 A 
ATOM     35  C   UNL A   1      37.747  32.218  33.017  1.00  0.00     0.031 C 
ATOM     36  C   UNL A   1      39.648  31.234  34.295  1.00  0.00     0.037 A 
BRANCH  23  37
ATOM     37  C   UNL A   1      44.305  27.192  33.779  1.00  0.00     0.057 A 
ATOM     38  C   UNL A   1      44.119  26.075  34.603  1.00  0.00     0.134 A 
ATOM     39  C   UNL A   1      45.567  27.787  33.727  1.00  0.00     0.134 A 
ATOM     40  F   UNL A   1      42.899  25.532  34.749  1.00  0.00    -0.206 F 
ATOM     41  C   UNL A   1      45.148  25.614  35.415  1.00  0.00     0.040 A 
ATOM     42  C   UNL A   1      46.615  27.303  34.499  1.00  0.00     0.040 A 
ATOM     43  F   UNL A   1      45.776  28.882  32.979  1.00  0.00    -0.206 F 
ATOM     44  C   UNL A   1      46.400  26.228  35.361  1.00  0.00     0.006 A 
ENDBRANCH  23  37
BRANCH  24  45
ATOM     45  C   UNL A   1      36.882  31.467  28.982  1.00  0.00     0.057 A 
ATOM     46  C   UNL A   1      36.757  32.803  28.580  1.00  0.00     0.134 A 
ATOM     47  C   UNL A   1      35.766  30.642  28.765  1.00  0.00     0.134 A 
ATOM     48  F   UNL A   1      37.757  33.668  28.798  1.00  0.00    -0.206 F 
ATOM     49  C   UNL A   1      35.578  33.295  27.997  1.00  0.00     0.040 A 
ATOM     50  C   UNL A   1      34.590  31.115  28.168  1.00  0.00     0.040 A 
ATOM     51  F   UNL A   1      35.792  29.360  29.151  1.00  0.00    -0.206 F 
ATOM     52  C   UNL A   1      34.491  32.449  27.787  1.00  0.00     0.006 A 
ENDBRANCH  24  45
BRANCH  36  53
ATOM     53  C   UNL A   1      39.289  32.120  35.438  1.00  0.00     0.057 A 
ATOM     54  C   UNL A   1      38.404  31.720  36.443  1.00  0.00     0.134 A 
ATOM     55  C   UNL A   1      39.872  33.389  35.539  1.00  0.00     0.134 A 
ATOM     56  F   UNL A   1      37.779  30.536  36.370  1.00  0.00    -0.206 F 
ATOM     57  C   UNL A   1      38.123  32.552  37.526  1.00  0.00     0.040 A 
ATOM     58  C   UNL A   1      39.619  34.218  36.627  1.00  0.00     0.040 A 
ATOM     59  F   UNL A   1      40.707  33.832  34.586  1.00  0.00    -0.206 F 
ATOM     60  C   UNL A   1      38.744  33.798  37.627  1.00  0.00     0.006 A 
ENDBRANCH  36  53
ENDBRANCH  10  11
ENDBRANCH   3   5
ENDBRANCH   2   3
ENDBRANCH   1   2
BRANCH   1  61
ATOM     61  C   UNL A   1      45.555  22.267  25.331  1.00  0.00     0.274 C 
BRANCH  61  62
ATOM     62  O   UNL A   1      46.650  23.076  25.792  1.00  0.00    -0.460 OA
BRANCH  62  63
ATOM     63  C   UNL A   1      46.418  24.052  26.719  1.00  0.00     0.335 C 
ATOM     64  O   UNL A   1      45.356  24.243  27.278  1.00  0.00    -0.249 OA
BRANCH  63  65
ATOM     65  C   UNL A   1      47.661  24.967  26.885  1.00  0.00     0.232 C 
ATOM     66  C   UNL A   1      48.332  25.388  25.574  1.00  0.00     0.087 C 
ATOM     67  O   UNL A   1      47.375  26.124  27.674  1.00  0.00    -0.355 OA
ATOM     68  C   UNL A   1      47.553  26.615  25.141  1.00  0.00     0.123 C 
ATOM     69  C   UNL A   1      47.255  27.271  26.810  1.00  0.00     0.186 C 
BRANCH  68  70
ATOM     70  C   UNL A   1      48.291  27.198  23.767  1.00  0.00    -0.013 A 
ATOM     71  C   UNL A   1      49.702  27.082  23.560  1.00  0.00     0.008 A 
ATOM     72  C   UNL A   1      47.677  27.843  22.672  1.00  0.00     0.008 A 
ATOM     73  C   UNL A   1      50.351  27.299  22.307  1.00  0.00     0.021 A 
ATOM     74  C   UNL A   1      48.288  27.980  21.382  1.00  0.00     0.021 A 
ATOM     75  C   UNL A   1      49.620  27.669  21.195  1.00  0.00     0.041 A 
ATOM     76  Cl  UNL A   1      50.363  27.795  19.645  1.00  0.00    -0.084 Cl
ENDBRANCH  68  70
BRANCH  68  77
ATOM     77  O   UNL A   1      46.340  25.989  24.718  1.00  0.00    -0.382 OA
ATOM     78  H   UNL A   1      46.115  25.273  25.333  1.00  0.00     0.212 HD
ENDBRANCH  68  77
BRANCH  69  79
ATOM     79  C   UNL A   1      46.040  28.163  27.463  1.00  0.00    -0.016 A 
ATOM     80  C   UNL A   1      44.821  28.439  26.809  1.00  0.00     0.008 A 
ATOM     81  C   UNL A   1      46.060  28.733  28.771  1.00  0.00     0.008 A 
ATOM     82  C   UNL A   1      43.866  29.404  27.259  1.00  0.00     0.021 A 
ATOM     83  C   UNL A   1      45.119  29.696  29.248  1.00  0.00     0.021 A 
ATOM     84  C   UNL A   1      44.043  30.063  28.464  1.00  0.00     0.041 A 
ATOM     85  Cl  UNL A   1      42.948  31.293  28.968  1.00  0.00    -0.084 Cl
ENDBRANCH  69  79
ENDBRANCH  63  65
ENDBRANCH  62  63
ENDBRANCH  61  62
ENDBRANCH   1  61
TORSDOF 14
ENDMDL
MODEL 3
REMARK VINA RESULT:     -12.2      4.801      8.006
REMARK SMILES O=C(OCCOC(=O)[C@H]1C[C@](O)(c2ccc(Cl)cc2)[C@@H](c2ccc(Cl)cc2)O1)c1ccc(-c2c3nc(c(-c4c(F)cccc4F)c4ccc([nH]4)c(-c4c(F)cccc4F)c4nc(c(-c5c(F)cccc5F)c5ccc2[nH]5)C=C4)C=C3)cc1
REMARK SMILES IDX 4 1 3 2 2 3 1 4 29 5 30 6 82 7 31 8 81 9 32 10 33 11 34 12
REMARK SMILES IDX 75 13 35 14 80 15 74 16 76 17 36 18 79 19 73 20 72 21 37 23
REMARK SMILES IDX 63 24 46 25 62 26 47 27 50 28 61 29 77 30 48 31 49 32 60 34
REMARK SMILES IDX 78 35 51 36 38 37 39 38 44 39 40 40 41 41 43 42 45 43 42 44
REMARK SMILES IDX 64 45 65 46 70 47 66 48 67 49 69 50 71 51 68 52 52 53 53 54
REMARK SMILES IDX 58 55 54 56 55 57 57 58 59 59 56 60 5 61 6 62 7 63 8 64 9 65
REMARK SMILES IDX 10 66 28 67 11 68 20 69 13 70 14 71 19 72 15 73 18 74 16 75
REMARK SMILES IDX 17 76 12 77 21 79 22 80 27 81 23 82 26 83 24 84 25 85
REMARK H PARENT 76 22 50 33 12 78
REMARK Flexibility Score: inf
ROOT
ATOM      1  C   UNL A   1      42.731  20.605  26.148  1.00  0.00     0.275 C 
ENDROOT
BRANCH   1   2
ATOM      2  O   UNL A   1      41.669  21.497  25.730  1.00  0.00    -0.458 OA
BRANCH   2   3
ATOM      3  C   UNL A   1      40.560  21.777  26.482  1.00  0.00     0.338 C 
ATOM      4  O   UNL A   1      39.582  21.046  26.446  1.00  0.00    -0.246 OA
BRANCH   3   5
ATOM      5  C   UNL A   1      40.427  23.187  27.032  1.00  0.00     0.060 A 
ATOM      6  C   UNL A   1      41.180  23.664  28.085  1.00  0.00     0.016 A 
ATOM      7  C   UNL A   1      39.598  24.148  26.438  1.00  0.00     0.016 A 
ATOM      8  C   UNL A   1      41.244  25.050  28.418  1.00  0.00     0.010 A 
ATOM      9  C   UNL A   1      39.741  25.563  26.739  1.00  0.00     0.010 A 
ATOM     10  C   UNL A   1      40.690  26.071  27.667  1.00  0.00    -0.014 A 
BRANCH  10  11
ATOM     11  C   UNL A   1      40.919  27.566  28.100  1.00  0.00     0.031 A 
ATOM     12  C   UNL A   1      42.308  28.015  28.049  1.00  0.00     0.074 A 
ATOM     13  C   UNL A   1      40.106  28.635  28.406  1.00  0.00     0.049 A 
ATOM     14  N   UNL A   1      42.844  29.020  28.672  1.00  0.00    -0.248 NA
ATOM     15  C   UNL A   1      43.194  27.211  27.213  1.00  0.00     0.031 C 
ATOM     16  C   UNL A   1      38.696  28.573  28.365  1.00  0.00     0.029 A 
ATOM     17  N   UNL A   1      40.244  29.958  28.846  1.00  0.00    -0.354 N 
ATOM     18  C   UNL A   1      44.172  28.924  28.372  1.00  0.00     0.074 A 
ATOM     19  C   UNL A   1      44.353  27.719  27.580  1.00  0.00     0.031 C 
ATOM     20  C   UNL A   1      38.040  29.676  28.731  1.00  0.00     0.029 A 
ATOM     21  C   UNL A   1      39.038  30.582  29.212  1.00  0.00     0.049 A 
ATOM     22  H   UNL A   1      41.114  30.415  28.894  1.00  0.00     0.167 HD
ATOM     23  C   UNL A   1      45.146  29.788  28.705  1.00  0.00     0.037 A 
ATOM     24  C   UNL A   1      38.681  31.658  29.952  1.00  0.00     0.037 A 
ATOM     25  C   UNL A   1      44.972  31.032  29.393  1.00  0.00     0.049 A 
ATOM     26  C   UNL A   1      39.773  32.491  30.507  1.00  0.00     0.074 A 
ATOM     27  C   UNL A   1      45.950  31.955  29.707  1.00  0.00     0.029 A 
ATOM     28  N   UNL A   1      43.771  31.550  29.860  1.00  0.00    -0.354 N 
ATOM     29  N   UNL A   1      41.052  32.293  30.369  1.00  0.00    -0.248 NA
ATOM     30  C   UNL A   1      39.408  33.670  31.304  1.00  0.00     0.031 C 
ATOM     31  C   UNL A   1      45.355  33.016  30.391  1.00  0.00     0.029 A 
ATOM     32  C   UNL A   1      43.993  32.781  30.464  1.00  0.00     0.049 A 
ATOM     33  H   UNL A   1      42.895  31.110  29.777  1.00  0.00     0.167 HD
ATOM     34  C   UNL A   1      41.656  33.355  31.002  1.00  0.00     0.074 A 
ATOM     35  C   UNL A   1      40.604  34.177  31.567  1.00  0.00     0.031 C 
ATOM     36  C   UNL A   1      42.977  33.619  31.046  1.00  0.00     0.037 A 
BRANCH  23  37
ATOM     37  C   UNL A   1      46.501  29.299  28.361  1.00  0.00     0.057 A 
ATOM     38  C   UNL A   1      47.331  28.688  29.309  1.00  0.00     0.134 A 
ATOM     39  C   UNL A   1      47.039  29.647  27.120  1.00  0.00     0.134 A 
ATOM     40  F   UNL A   1      46.874  28.421  30.543  1.00  0.00    -0.206 F 
ATOM     41  C   UNL A   1      48.684  28.504  29.053  1.00  0.00     0.040 A 
ATOM     42  C   UNL A   1      48.380  29.424  26.838  1.00  0.00     0.040 A 
ATOM     43  F   UNL A   1      46.286  30.269  26.200  1.00  0.00    -0.206 F 
ATOM     44  C   UNL A   1      49.209  28.871  27.813  1.00  0.00     0.006 A 
ENDBRANCH  23  37
BRANCH  24  45
ATOM     45  C   UNL A   1      37.262  31.948  30.363  1.00  0.00     0.057 A 
ATOM     46  C   UNL A   1      36.396  32.730  29.587  1.00  0.00     0.134 A 
ATOM     47  C   UNL A   1      36.774  31.527  31.611  1.00  0.00     0.134 A 
ATOM     48  F   UNL A   1      36.803  33.214  28.406  1.00  0.00    -0.206 F 
ATOM     49  C   UNL A   1      35.112  33.081  30.033  1.00  0.00     0.040 A 
ATOM     50  C   UNL A   1      35.489  31.854  32.061  1.00  0.00     0.040 A 
ATOM     51  F   UNL A   1      37.550  30.804  32.428  1.00  0.00    -0.206 F 
ATOM     52  C   UNL A   1      34.653  32.640  31.273  1.00  0.00     0.006 A 
ENDBRANCH  24  45
BRANCH  36  53
ATOM     53  C   UNL A   1      43.377  34.920  31.654  1.00  0.00     0.057 A 
ATOM     54  C   UNL A   1      43.610  35.063  33.024  1.00  0.00     0.134 A 
ATOM     55  C   UNL A   1      43.559  36.039  30.832  1.00  0.00     0.134 A 
ATOM     56  F   UNL A   1      43.402  34.037  33.862  1.00  0.00    -0.206 F 
ATOM     57  C   UNL A   1      44.029  36.281  33.559  1.00  0.00     0.040 A 
ATOM     58  C   UNL A   1      44.001  37.253  31.351  1.00  0.00     0.040 A 
ATOM     59  F   UNL A   1      43.322  35.962  29.514  1.00  0.00    -0.206 F 
ATOM     60  C   UNL A   1      44.240  37.375  32.718  1.00  0.00     0.006 A 
ENDBRANCH  36  53
ENDBRANCH  10  11
ENDBRANCH   3   5
ENDBRANCH   2   3
ENDBRANCH   1   2
BRANCH   1  61
ATOM     61  C   UNL A   1      43.932  20.733  25.195  1.00  0.00     0.274 C 
BRANCH  61  62
ATOM     62  O   UNL A   1      43.848  21.899  24.359  1.00  0.00    -0.460 OA
BRANCH  62  63
ATOM     63  C   UNL A   1      44.881  22.794  24.353  1.00  0.00     0.335 C 
ATOM     64  O   UNL A   1      46.005  22.557  23.960  1.00  0.00    -0.249 OA
BRANCH  63  65
ATOM     65  C   UNL A   1      44.462  24.130  25.024  1.00  0.00     0.232 C 
ATOM     66  C   UNL A   1      44.188  24.038  26.528  1.00  0.00     0.087 C 
ATOM     67  O   UNL A   1      45.400  25.177  24.768  1.00  0.00    -0.355 OA
ATOM     68  C   UNL A   1      45.556  24.210  27.162  1.00  0.00     0.123 C 
ATOM     69  C   UNL A   1      46.198  25.401  25.947  1.00  0.00     0.186 C 
BRANCH  68  70
ATOM     70  C   UNL A   1      45.329  24.224  28.811  1.00  0.00    -0.013 A 
ATOM     71  C   UNL A   1      45.979  25.179  29.656  1.00  0.00     0.008 A 
ATOM     72  C   UNL A   1      44.511  23.362  29.571  1.00  0.00     0.008 A 
ATOM     73  C   UNL A   1      45.619  25.428  31.015  1.00  0.00     0.021 A 
ATOM     74  C   UNL A   1      44.068  23.650  30.904  1.00  0.00     0.021 A 
ATOM     75  C   UNL A   1      44.598  24.712  31.610  1.00  0.00     0.041 A 
ATOM     76  Cl  UNL A   1      44.054  25.095  33.199  1.00  0.00    -0.084 Cl
ENDBRANCH  68  70
BRANCH  68  77
ATOM     77  O   UNL A   1      46.127  22.940  26.840  1.00  0.00    -0.382 OA
ATOM     78  H   UNL A   1      45.735  22.256  27.405  1.00  0.00     0.212 HD
ENDBRANCH  68  77
BRANCH  69  79
ATOM     79  C   UNL A   1      47.706  25.720  25.380  1.00  0.00    -0.016 A 
ATOM     80  C   UNL A   1      48.891  25.505  26.115  1.00  0.00     0.008 A 
ATOM     81  C   UNL A   1      47.997  26.218  24.075  1.00  0.00     0.008 A 
ATOM     82  C   UNL A   1      50.177  25.999  25.733  1.00  0.00     0.021 A 
ATOM     83  C   UNL A   1      49.272  26.716  23.665  1.00  0.00     0.021 A 
ATOM     84  C   UNL A   1      50.354  26.644  24.521  1.00  0.00     0.041 A 
ATOM     85  Cl  UNL A   1      51.876  27.324  24.094  1.00  0.00    -0.084 Cl
ENDBRANCH  69  79
ENDBRANCH  63  65
ENDBRANCH  62  63
ENDBRANCH  61  62
ENDBRANCH   1  61
TORSDOF 14
ENDMDL
