MODEL 1
REMARK VINA RESULT:     -10.6      0.000      0.000
REMARK SMILES CC(C)C[C@H](NC(=O)[C@H](Cc1ccccc1)NC(=O)CNC(=O)C[NH3+])C(=O)OCCOC(=O)c1ccc(-c2c3nc(c(-c4c(F)cccc4F)c4ccc([nH]4)c(-c4c(F)cccc4F)c4nc(c(-c5c(F)cccc5F)c5ccc2[nH]5)C=C4)C=C3)cc1
REMARK SMILES IDX 26 1 27 2 5 3 4 4 2 5 1 6 3 7 6 8 7 9 8 11 9 12 17 13 18 14
REMARK SMILES IDX 19 16 20 17 21 18 22 19 23 21 24 22 25 23 10 27 11 28 12 29
REMARK SMILES IDX 16 30 13 31 15 32 14 33 28 34 29 35 30 36 31 37 32 38 33 39
REMARK SMILES IDX 34 40 35 41 87 42 36 43 86 44 37 45 38 46 39 47 80 48 40 49
REMARK SMILES IDX 85 50 79 51 81 52 41 53 84 54 78 55 77 56 42 58 68 59 51 60
REMARK SMILES IDX 67 61 52 62 55 63 66 64 82 65 53 66 54 67 65 69 83 70 56 71
REMARK SMILES IDX 43 72 44 73 49 74 45 75 46 76 48 77 50 78 47 79 69 80 70 81
REMARK SMILES IDX 75 82 71 83 72 84 74 85 76 86 73 87 57 88 58 89 63 90 59 91
REMARK SMILES IDX 60 92 62 93 64 94 61 95
REMARK H PARENT 6 10 17 15 21 20 25 24 25 25 25 26 81 57 55 68
REMARK Flexibility Score: inf
ROOT
ATOM      1  C   UNL A   1      34.837  24.056  23.963  1.00  0.00     0.328 C 
ATOM      2  O   UNL A   1      34.398  24.098  22.819  1.00  0.00    -0.250 OA
ENDROOT
BRANCH   1   3
ATOM      3  C   UNL A   1      34.057  24.599  25.172  1.00  0.00     0.192 C 
BRANCH   3   4
ATOM      4  C   UNL A   1      34.505  26.069  25.310  1.00  0.00     0.040 C 
BRANCH   4   5
ATOM      5  C   UNL A   1      33.449  27.153  24.916  1.00  0.00    -0.015 C 
ATOM      6  C   UNL A   1      33.438  28.453  25.735  1.00  0.00     0.007 C 
ATOM      7  C   UNL A   1      33.569  27.510  23.431  1.00  0.00     0.007 C 
ENDBRANCH   4   5
ENDBRANCH   3   4
BRANCH   3   8
ATOM      8  N   UNL A   1      34.290  23.798  26.388  1.00  0.00    -0.341 N 
ATOM      9  C   UNL A   1      33.880  22.533  26.737  1.00  0.00     0.243 C 
ATOM     10  H   UNL A   1      34.836  24.249  27.071  1.00  0.00     0.164 HD
ATOM     11  O   UNL A   1      34.542  21.950  27.602  1.00  0.00    -0.273 OA
BRANCH   9  12
ATOM     12  C   UNL A   1      32.687  21.819  26.041  1.00  0.00     0.175 C 
BRANCH  12  13
ATOM     13  N   UNL A   1      32.575  20.423  26.484  1.00  0.00    -0.342 N 
ATOM     14  C   UNL A   1      32.904  19.299  25.781  1.00  0.00     0.240 C 
ATOM     15  H   UNL A   1      32.221  20.281  27.391  1.00  0.00     0.164 HD
ATOM     16  O   UNL A   1      32.333  18.244  26.058  1.00  0.00    -0.273 OA
BRANCH  14  17
ATOM     17  C   UNL A   1      33.973  19.359  24.682  1.00  0.00     0.216 C 
BRANCH  17  18
ATOM     18  N   UNL A   1      34.320  18.104  24.041  1.00  0.00    -0.342 N 
ATOM     19  C   UNL A   1      33.648  17.350  23.119  1.00  0.00     0.275 C 
ATOM     20  H   UNL A   1      35.189  17.731  24.316  1.00  0.00     0.164 HD
ATOM     21  O   UNL A   1      34.224  16.390  22.601  1.00  0.00    -0.268 OA
BRANCH  19  22
ATOM     22  C   UNL A   1      32.218  17.692  22.714  1.00  0.00     0.360 C 
BRANCH  22  23
ATOM     23  N   UNL A   1      32.153  18.487  21.487  1.00  0.00    -0.350 N 
ATOM     24  H   UNL A   1      31.209  18.855  21.370  1.00  0.00     0.344 HD
ATOM     25  H   UNL A   1      32.390  17.898  20.687  1.00  0.00     0.344 HD
ATOM     26  H   UNL A   1      32.815  19.260  21.547  1.00  0.00     0.344 HD
ENDBRANCH  22  23
ENDBRANCH  19  22
ENDBRANCH  17  18
ENDBRANCH  14  17
ENDBRANCH  12  13
BRANCH  12  27
ATOM     27  C   UNL A   1      31.358  22.571  26.392  1.00  0.00     0.070 C 
BRANCH  27  28
ATOM     28  C   UNL A   1      30.900  23.619  25.391  1.00  0.00    -0.045 A 
ATOM     29  C   UNL A   1      31.019  23.430  24.009  1.00  0.00     0.004 A 
ATOM     30  C   UNL A   1      30.371  24.837  25.851  1.00  0.00     0.004 A 
ATOM     31  C   UNL A   1      30.750  24.480  23.123  1.00  0.00     0.000 A 
ATOM     32  C   UNL A   1      30.099  25.884  24.965  1.00  0.00     0.000 A 
ATOM     33  C   UNL A   1      30.321  25.714  23.603  1.00  0.00     0.000 A 
ENDBRANCH  27  28
ENDBRANCH  12  27
ENDBRANCH   9  12
ENDBRANCH   3   8
ENDBRANCH   1   3
BRANCH   1  34
ATOM     34  O   UNL A   1      36.121  23.725  24.278  1.00  0.00    -0.461 OA
BRANCH  34  35
ATOM     35  C   UNL A   1      36.647  22.612  23.529  1.00  0.00     0.274 C 
BRANCH  35  36
ATOM     36  C   UNL A   1      36.962  21.391  24.399  1.00  0.00     0.275 C 
BRANCH  36  37
ATOM     37  O   UNL A   1      37.371  21.745  25.734  1.00  0.00    -0.458 OA
BRANCH  37  38
ATOM     38  C   UNL A   1      38.664  21.471  26.022  1.00  0.00     0.338 C 
ATOM     39  O   UNL A   1      39.272  20.442  25.744  1.00  0.00    -0.246 OA
BRANCH  38  40
ATOM     40  C   UNL A   1      39.341  22.669  26.546  1.00  0.00     0.060 A 
ATOM     41  C   UNL A   1      38.922  23.916  26.065  1.00  0.00     0.016 A 
ATOM     42  C   UNL A   1      40.400  22.580  27.451  1.00  0.00     0.016 A 
ATOM     43  C   UNL A   1      39.553  25.079  26.493  1.00  0.00     0.010 A 
ATOM     44  C   UNL A   1      41.051  23.750  27.861  1.00  0.00     0.010 A 
ATOM     45  C   UNL A   1      40.634  25.002  27.376  1.00  0.00    -0.014 A 
BRANCH  45  46
ATOM     46  C   UNL A   1      41.385  26.234  27.707  1.00  0.00     0.031 A 
ATOM     47  C   UNL A   1      40.708  27.312  28.504  1.00  0.00     0.074 A 
ATOM     48  C   UNL A   1      42.670  26.369  27.337  1.00  0.00     0.049 A 
ATOM     49  N   UNL A   1      41.138  28.508  28.812  1.00  0.00    -0.248 NA
ATOM     50  C   UNL A   1      39.367  26.998  29.021  1.00  0.00     0.031 C 
ATOM     51  C   UNL A   1      43.457  25.359  26.630  1.00  0.00     0.029 A 
ATOM     52  N   UNL A   1      43.539  27.418  27.503  1.00  0.00    -0.354 N 
ATOM     53  C   UNL A   1      40.117  29.096  29.545  1.00  0.00     0.074 A 
ATOM     54  C   UNL A   1      39.040  28.132  29.625  1.00  0.00     0.031 C 
ATOM     55  C   UNL A   1      44.691  25.844  26.410  1.00  0.00     0.029 A 
ATOM     56  C   UNL A   1      44.764  27.212  26.919  1.00  0.00     0.049 A 
ATOM     57  H   UNL A   1      43.306  28.240  27.992  1.00  0.00     0.167 HD
ATOM     58  C   UNL A   1      40.082  30.330  30.100  1.00  0.00     0.037 A 
ATOM     59  C   UNL A   1      45.810  28.049  26.781  1.00  0.00     0.037 A 
ATOM     60  C   UNL A   1      41.162  31.279  30.031  1.00  0.00     0.049 A 
ATOM     61  C   UNL A   1      45.715  29.445  27.336  1.00  0.00     0.074 A 
ATOM     62  C   UNL A   1      41.223  32.557  30.559  1.00  0.00     0.029 A 
ATOM     63  N   UNL A   1      42.374  31.050  29.398  1.00  0.00    -0.354 N 
ATOM     64  N   UNL A   1      44.735  30.007  28.003  1.00  0.00    -0.248 NA
ATOM     65  C   UNL A   1      46.867  30.330  27.108  1.00  0.00     0.031 C 
ATOM     66  C   UNL A   1      42.456  33.117  30.209  1.00  0.00     0.029 A 
ATOM     67  C   UNL A   1      43.180  32.171  29.501  1.00  0.00     0.049 A 
ATOM     68  H   UNL A   1      42.623  30.214  28.941  1.00  0.00     0.167 HD
ATOM     69  C   UNL A   1      45.161  31.296  28.293  1.00  0.00     0.074 A 
ATOM     70  C   UNL A   1      46.493  31.432  27.742  1.00  0.00     0.031 C 
ATOM     71  C   UNL A   1      44.506  32.283  28.953  1.00  0.00     0.037 A 
BRANCH  58  72
ATOM     72  C   UNL A   1      38.821  30.742  30.798  1.00  0.00     0.057 A 
ATOM     73  C   UNL A   1      37.764  31.358  30.119  1.00  0.00     0.134 A 
ATOM     74  C   UNL A   1      38.649  30.476  32.163  1.00  0.00     0.134 A 
ATOM     75  F   UNL A   1      37.874  31.655  28.816  1.00  0.00    -0.206 F 
ATOM     76  C   UNL A   1      36.583  31.709  30.776  1.00  0.00     0.040 A 
ATOM     77  C   UNL A   1      37.465  30.801  32.826  1.00  0.00     0.040 A 
ATOM     78  F   UNL A   1      39.623  29.885  32.870  1.00  0.00    -0.206 F 
ATOM     79  C   UNL A   1      36.428  31.423  32.132  1.00  0.00     0.006 A 
ENDBRANCH  58  72
BRANCH  59  80
ATOM     80  C   UNL A   1      47.024  27.613  26.046  1.00  0.00     0.057 A 
ATOM     81  C   UNL A   1      47.083  27.652  24.649  1.00  0.00     0.134 A 
ATOM     82  C   UNL A   1      48.143  27.111  26.724  1.00  0.00     0.134 A 
ATOM     83  F   UNL A   1      46.035  28.096  23.941  1.00  0.00    -0.206 F 
ATOM     84  C   UNL A   1      48.201  27.189  23.950  1.00  0.00     0.040 A 
ATOM     85  C   UNL A   1      49.277  26.669  26.041  1.00  0.00     0.040 A 
ATOM     86  F   UNL A   1      48.149  27.044  28.063  1.00  0.00    -0.206 F 
ATOM     87  C   UNL A   1      49.303  26.699  24.648  1.00  0.00     0.006 A 
ENDBRANCH  59  80
BRANCH  71  88
ATOM     88  C   UNL A   1      45.235  33.581  29.145  1.00  0.00     0.057 A 
ATOM     89  C   UNL A   1      46.076  33.799  30.243  1.00  0.00     0.134 A 
ATOM     90  C   UNL A   1      45.122  34.608  28.199  1.00  0.00     0.134 A 
ATOM     91  F   UNL A   1      46.217  32.860  31.190  1.00  0.00    -0.206 F 
ATOM     92  C   UNL A   1      46.764  35.004  30.404  1.00  0.00     0.040 A 
ATOM     93  C   UNL A   1      45.824  35.805  28.336  1.00  0.00     0.040 A 
ATOM     94  F   UNL A   1      44.339  34.458  27.120  1.00  0.00    -0.206 F 
ATOM     95  C   UNL A   1      46.645  36.008  29.445  1.00  0.00     0.006 A 
ENDBRANCH  71  88
ENDBRANCH  45  46
ENDBRANCH  38  40
ENDBRANCH  37  38
ENDBRANCH  36  37
ENDBRANCH  35  36
ENDBRANCH  34  35
ENDBRANCH   1  34
TORSDOF 22
ENDMDL
MODEL 2
REMARK VINA RESULT:     -10.6      1.919      3.598
REMARK SMILES CC(C)C[C@H](NC(=O)[C@H](Cc1ccccc1)NC(=O)CNC(=O)C[NH3+])C(=O)OCCOC(=O)c1ccc(-c2c3nc(c(-c4c(F)cccc4F)c4ccc([nH]4)c(-c4c(F)cccc4F)c4nc(c(-c5c(F)cccc5F)c5ccc2[nH]5)C=C4)C=C3)cc1
REMARK SMILES IDX 26 1 27 2 5 3 4 4 2 5 1 6 3 7 6 8 7 9 8 11 9 12 17 13 18 14
REMARK SMILES IDX 19 16 20 17 21 18 22 19 23 21 24 22 25 23 10 27 11 28 12 29
REMARK SMILES IDX 16 30 13 31 15 32 14 33 28 34 29 35 30 36 31 37 32 38 33 39
REMARK SMILES IDX 34 40 35 41 87 42 36 43 86 44 37 45 38 46 39 47 80 48 40 49
REMARK SMILES IDX 85 50 79 51 81 52 41 53 84 54 78 55 77 56 42 58 68 59 51 60
REMARK SMILES IDX 67 61 52 62 55 63 66 64 82 65 53 66 54 67 65 69 83 70 56 71
REMARK SMILES IDX 43 72 44 73 49 74 45 75 46 76 48 77 50 78 47 79 69 80 70 81
REMARK SMILES IDX 75 82 71 83 72 84 74 85 76 86 73 87 57 88 58 89 63 90 59 91
REMARK SMILES IDX 60 92 62 93 64 94 61 95
REMARK H PARENT 6 10 17 15 21 20 25 24 25 25 25 26 81 57 55 68
REMARK Flexibility Score: inf
ROOT
ATOM      1  C   UNL A   1      34.554  24.717  24.762  1.00  0.00     0.328 C 
ATOM      2  O   UNL A   1      34.440  25.476  25.717  1.00  0.00    -0.250 OA
ENDROOT
BRANCH   1   3
ATOM      3  C   UNL A   1      33.606  24.756  23.552  1.00  0.00     0.192 C 
BRANCH   3   4
ATOM      4  C   UNL A   1      33.801  23.398  22.847  1.00  0.00     0.040 C 
BRANCH   4   5
ATOM      5  C   UNL A   1      32.578  22.425  22.870  1.00  0.00    -0.015 C 
ATOM      6  C   UNL A   1      32.641  21.239  23.846  1.00  0.00     0.007 C 
ATOM      7  C   UNL A   1      31.278  23.196  23.118  1.00  0.00     0.007 C 
ENDBRANCH   4   5
ENDBRANCH   3   4
BRANCH   3   8
ATOM      8  N   UNL A   1      33.867  25.914  22.678  1.00  0.00    -0.341 N 
ATOM      9  C   UNL A   1      33.392  27.204  22.710  1.00  0.00     0.243 C 
ATOM     10  H   UNL A   1      34.494  25.732  21.941  1.00  0.00     0.164 HD
ATOM     11  O   UNL A   1      34.071  28.063  22.138  1.00  0.00    -0.273 OA
BRANCH   9  12
ATOM     12  C   UNL A   1      32.102  27.601  23.481  1.00  0.00     0.175 C 
BRANCH  12  13
ATOM     13  N   UNL A   1      32.397  27.907  24.886  1.00  0.00    -0.342 N 
ATOM     14  C   UNL A   1      31.789  27.391  25.995  1.00  0.00     0.240 C 
ATOM     15  H   UNL A   1      33.116  28.560  25.048  1.00  0.00     0.164 HD
ATOM     16  O   UNL A   1      31.790  28.057  27.030  1.00  0.00    -0.273 OA
BRANCH  14  17
ATOM     17  C   UNL A   1      31.134  26.004  25.944  1.00  0.00     0.216 C 
BRANCH  17  18
ATOM     18  N   UNL A   1      31.699  24.984  26.808  1.00  0.00    -0.342 N 
ATOM     19  C   UNL A   1      31.379  23.664  26.968  1.00  0.00     0.275 C 
ATOM     20  H   UNL A   1      32.440  25.295  27.376  1.00  0.00     0.164 HD
ATOM     21  O   UNL A   1      32.114  22.953  27.658  1.00  0.00    -0.268 OA
BRANCH  19  22
ATOM     22  C   UNL A   1      30.150  23.065  26.293  1.00  0.00     0.360 C 
BRANCH  22  23
ATOM     23  N   UNL A   1      29.179  22.538  27.253  1.00  0.00    -0.350 N 
ATOM     24  H   UNL A   1      28.740  23.313  27.752  1.00  0.00     0.344 HD
ATOM     25  H   UNL A   1      29.654  21.930  27.920  1.00  0.00     0.344 HD
ATOM     26  H   UNL A   1      28.465  22.006  26.756  1.00  0.00     0.344 HD
ENDBRANCH  22  23
ENDBRANCH  19  22
ENDBRANCH  17  18
ENDBRANCH  14  17
ENDBRANCH  12  13
BRANCH  12  27
ATOM     27  C   UNL A   1      31.466  28.866  22.808  1.00  0.00     0.070 C 
BRANCH  27  28
ATOM     28  C   UNL A   1      29.975  29.063  23.030  1.00  0.00    -0.045 A 
ATOM     29  C   UNL A   1      29.086  27.985  23.104  1.00  0.00     0.004 A 
ATOM     30  C   UNL A   1      29.452  30.363  23.128  1.00  0.00     0.004 A 
ATOM     31  C   UNL A   1      27.704  28.205  23.135  1.00  0.00     0.000 A 
ATOM     32  C   UNL A   1      28.072  30.583  23.163  1.00  0.00     0.000 A 
ATOM     33  C   UNL A   1      27.198  29.502  23.132  1.00  0.00     0.000 A 
ENDBRANCH  27  28
ENDBRANCH  12  27
ENDBRANCH   9  12
ENDBRANCH   3   8
ENDBRANCH   1   3
BRANCH   1  34
ATOM     34  O   UNL A   1      35.381  23.633  24.739  1.00  0.00    -0.461 OA
BRANCH  34  35
ATOM     35  C   UNL A   1      35.302  22.803  25.914  1.00  0.00     0.274 C 
BRANCH  35  36
ATOM     36  C   UNL A   1      36.087  21.493  25.784  1.00  0.00     0.275 C 
BRANCH  36  37
ATOM     37  O   UNL A   1      37.320  21.648  25.057  1.00  0.00    -0.458 OA
BRANCH  37  38
ATOM     38  C   UNL A   1      38.428  21.260  25.731  1.00  0.00     0.338 C 
ATOM     39  O   UNL A   1      38.911  20.131  25.753  1.00  0.00    -0.246 OA
BRANCH  38  40
ATOM     40  C   UNL A   1      39.128  22.428  26.291  1.00  0.00     0.060 A 
ATOM     41  C   UNL A   1      38.719  23.697  25.865  1.00  0.00     0.016 A 
ATOM     42  C   UNL A   1      40.198  22.290  27.177  1.00  0.00     0.016 A 
ATOM     43  C   UNL A   1      39.371  24.834  26.329  1.00  0.00     0.010 A 
ATOM     44  C   UNL A   1      40.869  23.434  27.623  1.00  0.00     0.010 A 
ATOM     45  C   UNL A   1      40.463  24.710  27.194  1.00  0.00    -0.014 A 
BRANCH  45  46
ATOM     46  C   UNL A   1      41.235  25.918  27.561  1.00  0.00     0.031 A 
ATOM     47  C   UNL A   1      40.574  26.987  28.383  1.00  0.00     0.074 A 
ATOM     48  C   UNL A   1      42.524  26.038  27.202  1.00  0.00     0.049 A 
ATOM     49  N   UNL A   1      41.024  28.165  28.725  1.00  0.00    -0.248 NA
ATOM     50  C   UNL A   1      39.223  26.685  28.883  1.00  0.00     0.031 C 
ATOM     51  C   UNL A   1      43.296  25.033  26.473  1.00  0.00     0.029 A 
ATOM     52  N   UNL A   1      43.412  27.066  27.401  1.00  0.00    -0.354 N 
ATOM     53  C   UNL A   1      40.009  28.753  29.468  1.00  0.00     0.074 A 
ATOM     54  C   UNL A   1      38.914  27.808  29.516  1.00  0.00     0.031 C 
ATOM     55  C   UNL A   1      44.541  25.500  26.273  1.00  0.00     0.029 A 
ATOM     56  C   UNL A   1      44.637  26.853  26.819  1.00  0.00     0.049 A 
ATOM     57  H   UNL A   1      43.191  27.878  27.911  1.00  0.00     0.167 HD
ATOM     58  C   UNL A   1      39.995  29.973  30.055  1.00  0.00     0.037 A 
ATOM     59  C   UNL A   1      45.699  27.673  26.709  1.00  0.00     0.037 A 
ATOM     60  C   UNL A   1      41.092  30.903  30.017  1.00  0.00     0.049 A 
ATOM     61  C   UNL A   1      45.627  29.056  27.300  1.00  0.00     0.074 A 
ATOM     62  C   UNL A   1      41.174  32.164  30.580  1.00  0.00     0.029 A 
ATOM     63  N   UNL A   1      42.303  30.668  29.385  1.00  0.00    -0.354 N 
ATOM     64  N   UNL A   1      44.654  29.617  27.976  1.00  0.00    -0.248 NA
ATOM     65  C   UNL A   1      46.797  29.924  27.102  1.00  0.00     0.031 C 
ATOM     66  C   UNL A   1      42.419  32.710  30.252  1.00  0.00     0.029 A 
ATOM     67  C   UNL A   1      43.129  31.770  29.523  1.00  0.00     0.049 A 
ATOM     68  H   UNL A   1      42.540  29.839  28.908  1.00  0.00     0.167 HD
ATOM     69  C   UNL A   1      45.101  30.890  28.303  1.00  0.00     0.074 A 
ATOM     70  C   UNL A   1      46.439  31.016  27.764  1.00  0.00     0.031 C 
ATOM     71  C   UNL A   1      44.461  31.872  28.986  1.00  0.00     0.037 A 
BRANCH  58  72
ATOM     72  C   UNL A   1      38.737  30.389  30.756  1.00  0.00     0.057 A 
ATOM     73  C   UNL A   1      37.695  31.042  30.088  1.00  0.00     0.134 A 
ATOM     74  C   UNL A   1      38.552  30.093  32.113  1.00  0.00     0.134 A 
ATOM     75  F   UNL A   1      37.817  31.369  28.793  1.00  0.00    -0.206 F 
ATOM     76  C   UNL A   1      36.517  31.397  30.747  1.00  0.00     0.040 A 
ATOM     77  C   UNL A   1      37.371  30.422  32.778  1.00  0.00     0.040 A 
ATOM     78  F   UNL A   1      39.512  29.466  32.811  1.00  0.00    -0.206 F 
ATOM     79  C   UNL A   1      36.349  31.080  32.095  1.00  0.00     0.006 A 
ENDBRANCH  58  72
BRANCH  59  80
ATOM     80  C   UNL A   1      46.909  27.234  25.970  1.00  0.00     0.057 A 
ATOM     81  C   UNL A   1      47.021  27.409  24.586  1.00  0.00     0.134 A 
ATOM     82  C   UNL A   1      47.969  26.593  26.625  1.00  0.00     0.134 A 
ATOM     83  F   UNL A   1      46.029  27.992  23.897  1.00  0.00    -0.206 F 
ATOM     84  C   UNL A   1      48.132  26.946  23.877  1.00  0.00     0.040 A 
ATOM     85  C   UNL A   1      49.096  26.148  25.934  1.00  0.00     0.040 A 
ATOM     86  F   UNL A   1      47.922  26.391  27.950  1.00  0.00    -0.206 F 
ATOM     87  C   UNL A   1      49.175  26.317  24.554  1.00  0.00     0.006 A 
ENDBRANCH  59  80
BRANCH  71  88
ATOM     88  C   UNL A   1      45.213  33.150  29.216  1.00  0.00     0.057 A 
ATOM     89  C   UNL A   1      46.055  33.321  30.321  1.00  0.00     0.134 A 
ATOM     90  C   UNL A   1      45.120  34.206  28.300  1.00  0.00     0.134 A 
ATOM     91  F   UNL A   1      46.177  32.353  31.241  1.00  0.00    -0.206 F 
ATOM     92  C   UNL A   1      46.765  34.508  30.518  1.00  0.00     0.040 A 
ATOM     93  C   UNL A   1      45.844  35.386  28.473  1.00  0.00     0.040 A 
ATOM     94  F   UNL A   1      44.337  34.102  27.216  1.00  0.00    -0.206 F 
ATOM     95  C   UNL A   1      46.666  35.541  29.588  1.00  0.00     0.006 A 
ENDBRANCH  71  88
ENDBRANCH  45  46
ENDBRANCH  38  40
ENDBRANCH  37  38
ENDBRANCH  36  37
ENDBRANCH  35  36
ENDBRANCH  34  35
ENDBRANCH   1  34
TORSDOF 22
ENDMDL
MODEL 3
REMARK VINA RESULT:     -10.5      0.665      6.075
REMARK SMILES CC(C)C[C@H](NC(=O)[C@H](Cc1ccccc1)NC(=O)CNC(=O)C[NH3+])C(=O)OCCOC(=O)c1ccc(-c2c3nc(c(-c4c(F)cccc4F)c4ccc([nH]4)c(-c4c(F)cccc4F)c4nc(c(-c5c(F)cccc5F)c5ccc2[nH]5)C=C4)C=C3)cc1
REMARK SMILES IDX 26 1 27 2 5 3 4 4 2 5 1 6 3 7 6 8 7 9 8 11 9 12 17 13 18 14
REMARK SMILES IDX 19 16 20 17 21 18 22 19 23 21 24 22 25 23 10 27 11 28 12 29
REMARK SMILES IDX 16 30 13 31 15 32 14 33 28 34 29 35 30 36 31 37 32 38 33 39
REMARK SMILES IDX 34 40 35 41 87 42 36 43 86 44 37 45 38 46 39 47 80 48 40 49
REMARK SMILES IDX 85 50 79 51 81 52 41 53 84 54 78 55 77 56 42 58 68 59 51 60
REMARK SMILES IDX 67 61 52 62 55 63 66 64 82 65 53 66 54 67 65 69 83 70 56 71
REMARK SMILES IDX 43 72 44 73 49 74 45 75 46 76 48 77 50 78 47 79 69 80 70 81
REMARK SMILES IDX 75 82 71 83 72 84 74 85 76 86 73 87 57 88 58 89 63 90 59 91
REMARK SMILES IDX 60 92 62 93 64 94 61 95
REMARK H PARENT 6 10 17 15 21 20 25 24 25 25 25 26 81 57 55 68
REMARK Flexibility Score: inf
ROOT
ATOM      1  C   UNL A   1      34.918  23.780  23.889  1.00  0.00     0.328 C 
ATOM      2  O   UNL A   1      34.519  23.737  22.731  1.00  0.00    -0.250 OA
ENDROOT
BRANCH   1   3
ATOM      3  C   UNL A   1      34.087  24.388  25.031  1.00  0.00     0.192 C 
BRANCH   3   4
ATOM      4  C   UNL A   1      34.553  25.855  25.128  1.00  0.00     0.040 C 
BRANCH   4   5
ATOM      5  C   UNL A   1      33.426  26.936  25.200  1.00  0.00    -0.015 C 
ATOM      6  C   UNL A   1      33.252  27.683  26.531  1.00  0.00     0.007 C 
ATOM      7  C   UNL A   1      33.591  27.965  24.078  1.00  0.00     0.007 C 
ENDBRANCH   4   5
ENDBRANCH   3   4
BRANCH   3   8
ATOM      8  N   UNL A   1      34.242  23.638  26.292  1.00  0.00    -0.341 N 
ATOM      9  C   UNL A   1      33.912  22.348  26.630  1.00  0.00     0.243 C 
ATOM     10  H   UNL A   1      34.657  24.154  27.021  1.00  0.00     0.164 HD
ATOM     11  O   UNL A   1      34.514  21.849  27.586  1.00  0.00    -0.273 OA
BRANCH   9  12
ATOM     12  C   UNL A   1      32.884  21.508  25.820  1.00  0.00     0.175 C 
BRANCH  12  13
ATOM     13  N   UNL A   1      32.971  20.084  26.168  1.00  0.00    -0.342 N 
ATOM     14  C   UNL A   1      32.584  19.017  25.408  1.00  0.00     0.240 C 
ATOM     15  H   UNL A   1      33.352  19.874  27.051  1.00  0.00     0.164 HD
ATOM     16  O   UNL A   1      32.270  17.972  25.979  1.00  0.00    -0.273 OA
BRANCH  14  17
ATOM     17  C   UNL A   1      32.558  19.126  23.878  1.00  0.00     0.216 C 
BRANCH  17  18
ATOM     18  N   UNL A   1      33.040  17.977  23.134  1.00  0.00    -0.342 N 
ATOM     19  C   UNL A   1      34.107  17.150  23.351  1.00  0.00     0.275 C 
ATOM     20  H   UNL A   1      32.508  17.754  22.337  1.00  0.00     0.164 HD
ATOM     21  O   UNL A   1      34.224  16.135  22.661  1.00  0.00    -0.268 OA
BRANCH  19  22
ATOM     22  C   UNL A   1      35.131  17.455  24.440  1.00  0.00     0.360 C 
BRANCH  22  23
ATOM     23  N   UNL A   1      35.138  16.453  25.506  1.00  0.00    -0.350 N 
ATOM     24  H   UNL A   1      35.529  16.862  26.355  1.00  0.00     0.344 HD
ATOM     25  H   UNL A   1      35.706  15.655  25.220  1.00  0.00     0.344 HD
ATOM     26  H   UNL A   1      34.184  16.142  25.687  1.00  0.00     0.344 HD
ENDBRANCH  22  23
ENDBRANCH  19  22
ENDBRANCH  17  18
ENDBRANCH  14  17
ENDBRANCH  12  13
BRANCH  12  27
ATOM     27  C   UNL A   1      31.436  22.020  26.134  1.00  0.00     0.070 C 
BRANCH  27  28
ATOM     28  C   UNL A   1      30.960  23.216  25.325  1.00  0.00    -0.045 A 
ATOM     29  C   UNL A   1      30.985  23.225  23.926  1.00  0.00     0.004 A 
ATOM     30  C   UNL A   1      30.513  24.371  25.989  1.00  0.00     0.004 A 
ATOM     31  C   UNL A   1      30.706  24.400  23.219  1.00  0.00     0.000 A 
ATOM     32  C   UNL A   1      30.230  25.543  25.282  1.00  0.00     0.000 A 
ATOM     33  C   UNL A   1      30.359  25.565  23.898  1.00  0.00     0.000 A 
ENDBRANCH  27  28
ENDBRANCH  12  27
ENDBRANCH   9  12
ENDBRANCH   3   8
ENDBRANCH   1   3
BRANCH   1  34
ATOM     34  O   UNL A   1      36.195  23.493  24.271  1.00  0.00    -0.461 OA
BRANCH  34  35
ATOM     35  C   UNL A   1      36.751  22.321  23.645  1.00  0.00     0.274 C 
BRANCH  35  36
ATOM     36  C   UNL A   1      37.054  21.191  24.636  1.00  0.00     0.275 C 
BRANCH  36  37
ATOM     37  O   UNL A   1      37.531  21.673  25.906  1.00  0.00    -0.458 OA
BRANCH  37  38
ATOM     38  C   UNL A   1      38.850  21.473  26.129  1.00  0.00     0.338 C 
ATOM     39  O   UNL A   1      39.503  20.483  25.809  1.00  0.00    -0.246 OA
BRANCH  38  40
ATOM     40  C   UNL A   1      39.481  22.703  26.636  1.00  0.00     0.060 A 
ATOM     41  C   UNL A   1      38.962  23.928  26.199  1.00  0.00     0.016 A 
ATOM     42  C   UNL A   1      40.591  22.667  27.482  1.00  0.00     0.016 A 
ATOM     43  C   UNL A   1      39.543  25.121  26.612  1.00  0.00     0.010 A 
ATOM     44  C   UNL A   1      41.190  23.868  27.876  1.00  0.00     0.010 A 
ATOM     45  C   UNL A   1      40.673  25.099  27.436  1.00  0.00    -0.014 A 
BRANCH  45  46
ATOM     46  C   UNL A   1      41.365  26.371  27.747  1.00  0.00     0.031 A 
ATOM     47  C   UNL A   1      42.768  26.580  27.256  1.00  0.00     0.074 A 
ATOM     48  C   UNL A   1      40.729  27.343  28.423  1.00  0.00     0.049 A 
ATOM     49  N   UNL A   1      43.593  27.563  27.502  1.00  0.00    -0.248 NA
ATOM     50  C   UNL A   1      43.313  25.539  26.371  1.00  0.00     0.031 C 
ATOM     51  C   UNL A   1      39.342  27.288  28.881  1.00  0.00     0.029 A 
ATOM     52  N   UNL A   1      41.175  28.571  28.844  1.00  0.00    -0.354 N 
ATOM     53  C   UNL A   1      44.759  27.255  26.816  1.00  0.00     0.074 A 
ATOM     54  C   UNL A   1      44.541  25.986  26.154  1.00  0.00     0.031 C 
ATOM     55  C   UNL A   1      39.053  28.427  29.535  1.00  0.00     0.029 A 
ATOM     56  C   UNL A   1      40.247  29.268  29.579  1.00  0.00     0.049 A 
ATOM     57  H   UNL A   1      42.073  28.918  28.642  1.00  0.00     0.167 HD
ATOM     58  C   UNL A   1      45.908  27.968  26.747  1.00  0.00     0.037 A 
ATOM     59  C   UNL A   1      40.365  30.435  30.240  1.00  0.00     0.037 A 
ATOM     60  C   UNL A   1      46.114  29.236  27.393  1.00  0.00     0.049 A 
ATOM     61  C   UNL A   1      41.680  31.168  30.215  1.00  0.00     0.074 A 
ATOM     62  C   UNL A   1      47.244  30.036  27.385  1.00  0.00     0.029 A 
ATOM     63  N   UNL A   1      45.165  29.894  28.160  1.00  0.00    -0.354 N 
ATOM     64  N   UNL A   1      42.789  30.857  29.589  1.00  0.00    -0.248 NA
ATOM     65  C   UNL A   1      41.763  32.408  30.999  1.00  0.00     0.031 C 
ATOM     66  C   UNL A   1      46.993  31.157  28.182  1.00  0.00     0.029 A 
ATOM     67  C   UNL A   1      45.691  31.077  28.650  1.00  0.00     0.049 A 
ATOM     68  H   UNL A   1      44.252  29.566  28.332  1.00  0.00     0.167 HD
ATOM     69  C   UNL A   1      43.691  31.870  29.883  1.00  0.00     0.074 A 
ATOM     70  C   UNL A   1      42.997  32.815  30.733  1.00  0.00     0.031 C 
ATOM     71  C   UNL A   1      44.981  32.008  29.488  1.00  0.00     0.037 A 
BRANCH  58  72
ATOM     72  C   UNL A   1      47.047  27.373  25.974  1.00  0.00     0.057 A 
ATOM     73  C   UNL A   1      47.179  27.548  24.592  1.00  0.00     0.134 A 
ATOM     74  C   UNL A   1      48.049  26.649  26.635  1.00  0.00     0.134 A 
ATOM     75  F   UNL A   1      46.245  28.216  23.899  1.00  0.00    -0.206 F 
ATOM     76  C   UNL A   1      48.261  27.013  23.890  1.00  0.00     0.040 A 
ATOM     77  C   UNL A   1      49.146  26.129  25.949  1.00  0.00     0.040 A 
ATOM     78  F   UNL A   1      47.983  26.447  27.959  1.00  0.00    -0.206 F 
ATOM     79  C   UNL A   1      49.253  26.307  24.571  1.00  0.00     0.006 A 
ENDBRANCH  58  72
BRANCH  59  80
ATOM     80  C   UNL A   1      39.223  30.967  31.026  1.00  0.00     0.057 A 
ATOM     81  C   UNL A   1      39.055  30.644  32.378  1.00  0.00     0.134 A 
ATOM     82  C   UNL A   1      38.250  31.782  30.434  1.00  0.00     0.134 A 
ATOM     83  F   UNL A   1      39.938  29.846  32.995  1.00  0.00    -0.206 F 
ATOM     84  C   UNL A   1      37.952  31.094  33.106  1.00  0.00     0.040 A 
ATOM     85  C   UNL A   1      37.156  32.261  31.156  1.00  0.00     0.040 A 
ATOM     86  F   UNL A   1      38.350  32.126  29.142  1.00  0.00    -0.206 F 
ATOM     87  C   UNL A   1      37.001  31.909  32.495  1.00  0.00     0.006 A 
ENDBRANCH  59  80
BRANCH  71  88
ATOM     88  C   UNL A   1      45.711  33.236  29.944  1.00  0.00     0.057 A 
ATOM     89  C   UNL A   1      45.632  34.444  29.240  1.00  0.00     0.134 A 
ATOM     90  C   UNL A   1      46.470  33.219  31.121  1.00  0.00     0.134 A 
ATOM     91  F   UNL A   1      44.932  34.523  28.099  1.00  0.00    -0.206 F 
ATOM     92  C   UNL A   1      46.301  35.588  29.682  1.00  0.00     0.040 A 
ATOM     93  C   UNL A   1      47.122  34.362  31.585  1.00  0.00     0.040 A 
ATOM     94  F   UNL A   1      46.579  32.096  31.846  1.00  0.00    -0.206 F 
ATOM     95  C   UNL A   1      47.042  35.551  30.861  1.00  0.00     0.006 A 
ENDBRANCH  71  88
ENDBRANCH  45  46
ENDBRANCH  38  40
ENDBRANCH  37  38
ENDBRANCH  36  37
ENDBRANCH  35  36
ENDBRANCH  34  35
ENDBRANCH   1  34
TORSDOF 22
ENDMDL
