MODEL 1
REMARK VINA RESULT:     -11.6      0.000      0.000
REMARK SMILES O=C(CCc1cccnc1)Nc1cccc(F)c1C(=O)OCCOC(=O)c1ccc(-c2c3nc(c(-c4c(F)cccc4F)c4ccc([nH]4)c(-c4c(F)cccc4F)c4nc(c(-c5c(F)cccc5F)c5ccc2[nH]5)C=C4)C=C3)cc1
REMARK SMILES IDX 22 1 21 2 19 3 20 4 18 5 12 6 13 7 14 8 16 9 15 10 17 11
REMARK SMILES IDX 11 12 1 13 2 14 3 16 4 17 5 18 6 19 10 20 7 21 9 22 8 23
REMARK SMILES IDX 23 24 24 25 25 26 26 27 27 28 28 29 80 30 29 31 79 32 30 33
REMARK SMILES IDX 31 34 32 35 73 36 33 37 78 38 72 39 74 40 34 41 77 42 71 43
REMARK SMILES IDX 70 44 35 46 61 47 44 48 60 49 45 50 48 51 59 52 75 53 46 54
REMARK SMILES IDX 47 55 58 57 76 58 49 59 36 60 37 61 42 62 38 63 39 64 41 65
REMARK SMILES IDX 43 66 40 67 62 68 63 69 68 70 64 71 65 72 67 73 69 74 66 75
REMARK SMILES IDX 50 76 51 77 56 78 52 79 53 80 55 81 57 82 54 83
REMARK H PARENT 11 15 74 45 48 56
REMARK Flexibility Score: inf
ROOT
ATOM      1  C   UNL A   1      32.992  29.237  24.594  1.00  0.00     0.275 C 
ENDROOT
BRANCH   1   2
ATOM      2  O   UNL A   1      33.493  28.022  25.161  1.00  0.00    -0.458 OA
BRANCH   2   3
ATOM      3  C   UNL A   1      33.433  26.910  24.391  1.00  0.00     0.343 C 
ATOM      4  O   UNL A   1      33.765  26.787  23.234  1.00  0.00    -0.246 OA
BRANCH   3   5
ATOM      5  C   UNL A   1      32.941  25.835  25.255  1.00  0.00     0.119 A 
ATOM      6  C   UNL A   1      31.611  25.756  25.679  1.00  0.00     0.058 A 
ATOM      7  C   UNL A   1      31.226  24.677  26.490  1.00  0.00     0.027 A 
ATOM      8  C   UNL A   1      32.159  23.696  26.855  1.00  0.00     0.005 A 
ATOM      9  C   UNL A   1      33.877  24.895  25.685  1.00  0.00     0.139 A 
ATOM     10  C   UNL A   1      33.490  23.814  26.464  1.00  0.00     0.040 A 
ATOM     11  F   UNL A   1      35.169  25.012  25.343  1.00  0.00    -0.206 F 
BRANCH   6  12
ATOM     12  N   UNL A   1      30.605  26.599  25.163  1.00  0.00    -0.325 N 
ATOM     13  O   UNL A   1      29.903  25.261  23.409  1.00  0.00    -0.275 OA
ATOM     14  C   UNL A   1      29.897  26.332  24.005  1.00  0.00     0.224 C 
ATOM     15  H   UNL A   1      30.395  27.425  25.655  1.00  0.00     0.169 HD
BRANCH  14  16
ATOM     16  C   UNL A   1      29.121  27.530  23.495  1.00  0.00     0.105 C 
BRANCH  16  17
ATOM     17  C   UNL A   1      29.862  28.505  22.571  1.00  0.00     0.047 C 
BRANCH  17  18
ATOM     18  C   UNL A   1      29.239  29.873  22.443  1.00  0.00    -0.029 A 
ATOM     19  C   UNL A   1      29.105  30.692  23.557  1.00  0.00     0.007 A 
ATOM     20  C   UNL A   1      28.720  30.366  21.245  1.00  0.00     0.114 A 
ATOM     21  C   UNL A   1      28.516  31.943  23.433  1.00  0.00     0.020 A 
ATOM     22  N   UNL A   1      28.170  31.595  21.089  1.00  0.00    -0.264 NA
ATOM     23  C   UNL A   1      28.082  32.360  22.191  1.00  0.00     0.111 A 
ENDBRANCH  17  18
ENDBRANCH  16  17
ENDBRANCH  14  16
ENDBRANCH   6  12
ENDBRANCH   3   5
ENDBRANCH   2   3
ENDBRANCH   1   2
BRANCH   1  24
ATOM     24  C   UNL A   1      31.948  29.843  25.540  1.00  0.00     0.275 C 
BRANCH  24  25
ATOM     25  O   UNL A   1      32.457  29.969  26.892  1.00  0.00    -0.458 OA
BRANCH  25  26
ATOM     26  C   UNL A   1      33.021  31.167  27.197  1.00  0.00     0.338 C 
ATOM     27  O   UNL A   1      32.450  32.246  27.226  1.00  0.00    -0.246 OA
BRANCH  26  28
ATOM     28  C   UNL A   1      34.416  30.999  27.684  1.00  0.00     0.060 A 
ATOM     29  C   UNL A   1      34.847  29.693  27.937  1.00  0.00     0.016 A 
ATOM     30  C   UNL A   1      35.293  32.061  27.926  1.00  0.00     0.016 A 
ATOM     31  C   UNL A   1      36.149  29.444  28.385  1.00  0.00     0.010 A 
ATOM     32  C   UNL A   1      36.602  31.812  28.397  1.00  0.00     0.010 A 
ATOM     33  C   UNL A   1      37.043  30.499  28.634  1.00  0.00    -0.014 A 
BRANCH  33  34
ATOM     34  C   UNL A   1      38.324  30.168  29.335  1.00  0.00     0.031 A 
ATOM     35  C   UNL A   1      38.469  30.571  30.769  1.00  0.00     0.074 A 
ATOM     36  C   UNL A   1      39.297  29.412  28.789  1.00  0.00     0.049 A 
ATOM     37  N   UNL A   1      39.392  30.233  31.631  1.00  0.00    -0.248 NA
ATOM     38  C   UNL A   1      37.452  31.495  31.288  1.00  0.00     0.031 C 
ATOM     39  C   UNL A   1      39.345  29.023  27.397  1.00  0.00     0.029 A 
ATOM     40  N   UNL A   1      40.406  28.800  29.331  1.00  0.00    -0.354 N 
ATOM     41  C   UNL A   1      39.083  30.923  32.791  1.00  0.00     0.074 A 
ATOM     42  C   UNL A   1      37.890  31.698  32.520  1.00  0.00     0.031 C 
ATOM     43  C   UNL A   1      40.327  28.129  27.204  1.00  0.00     0.029 A 
ATOM     44  C   UNL A   1      41.054  27.951  28.457  1.00  0.00     0.049 A 
ATOM     45  H   UNL A   1      40.707  28.952  30.256  1.00  0.00     0.167 HD
ATOM     46  C   UNL A   1      39.745  30.927  33.970  1.00  0.00     0.037 A 
ATOM     47  C   UNL A   1      42.116  27.133  28.632  1.00  0.00     0.037 A 
ATOM     48  C   UNL A   1      40.950  30.187  34.236  1.00  0.00     0.049 A 
ATOM     49  C   UNL A   1      42.821  27.129  29.963  1.00  0.00     0.074 A 
ATOM     50  C   UNL A   1      41.691  30.151  35.404  1.00  0.00     0.029 A 
ATOM     51  N   UNL A   1      41.600  29.369  33.325  1.00  0.00    -0.354 N 
ATOM     52  N   UNL A   1      42.509  27.775  31.060  1.00  0.00    -0.248 NA
ATOM     53  C   UNL A   1      44.045  26.319  30.074  1.00  0.00     0.031 C 
ATOM     54  C   UNL A   1      42.821  29.359  35.180  1.00  0.00     0.029 A 
ATOM     55  C   UNL A   1      42.745  28.837  33.900  1.00  0.00     0.049 A 
ATOM     56  H   UNL A   1      41.295  29.190  32.406  1.00  0.00     0.167 HD
ATOM     57  C   UNL A   1      43.499  27.461  31.983  1.00  0.00     0.074 A 
ATOM     58  C   UNL A   1      44.401  26.536  31.333  1.00  0.00     0.031 C 
ATOM     59  C   UNL A   1      43.647  27.917  33.252  1.00  0.00     0.037 A 
BRANCH  46  60
ATOM     60  C   UNL A   1      39.204  31.830  35.036  1.00  0.00     0.057 A 
ATOM     61  C   UNL A   1      39.559  33.183  35.060  1.00  0.00     0.134 A 
ATOM     62  C   UNL A   1      38.316  31.372  36.018  1.00  0.00     0.134 A 
ATOM     63  F   UNL A   1      40.401  33.683  34.143  1.00  0.00    -0.206 F 
ATOM     64  C   UNL A   1      39.051  34.052  36.025  1.00  0.00     0.040 A 
ATOM     65  C   UNL A   1      37.776  32.238  36.969  1.00  0.00     0.040 A 
ATOM     66  F   UNL A   1      37.914  30.091  36.030  1.00  0.00    -0.206 F 
ATOM     67  C   UNL A   1      38.149  33.581  36.976  1.00  0.00     0.006 A 
ENDBRANCH  46  60
BRANCH  47  68
ATOM     68  C   UNL A   1      42.602  26.266  27.519  1.00  0.00     0.057 A 
ATOM     69  C   UNL A   1      43.526  26.730  26.574  1.00  0.00     0.134 A 
ATOM     70  C   UNL A   1      42.164  24.941  27.378  1.00  0.00     0.134 A 
ATOM     71  F   UNL A   1      44.000  27.981  26.652  1.00  0.00    -0.206 F 
ATOM     72  C   UNL A   1      43.966  25.931  25.516  1.00  0.00     0.040 A 
ATOM     73  C   UNL A   1      42.621  24.118  26.345  1.00  0.00     0.040 A 
ATOM     74  F   UNL A   1      41.309  24.414  28.268  1.00  0.00    -0.206 F 
ATOM     75  C   UNL A   1      43.517  24.617  25.402  1.00  0.00     0.006 A 
ENDBRANCH  47  68
BRANCH  59  76
ATOM     76  C   UNL A   1      44.818  27.411  34.048  1.00  0.00     0.057 A 
ATOM     77  C   UNL A   1      46.055  28.069  33.988  1.00  0.00     0.134 A 
ATOM     78  C   UNL A   1      44.750  26.236  34.809  1.00  0.00     0.134 A 
ATOM     79  F   UNL A   1      46.193  29.193  33.269  1.00  0.00    -0.206 F 
ATOM     80  C   UNL A   1      47.182  27.568  34.638  1.00  0.00     0.040 A 
ATOM     81  C   UNL A   1      45.866  25.742  35.488  1.00  0.00     0.040 A 
ATOM     82  F   UNL A   1      43.597  25.560  34.917  1.00  0.00    -0.206 F 
ATOM     83  C   UNL A   1      47.089  26.403  35.395  1.00  0.00     0.006 A 
ENDBRANCH  59  76
ENDBRANCH  33  34
ENDBRANCH  26  28
ENDBRANCH  25  26
ENDBRANCH  24  25
ENDBRANCH   1  24
TORSDOF 15
ENDMDL
MODEL 2
REMARK VINA RESULT:     -11.6      1.478      3.885
REMARK SMILES O=C(CCc1cccnc1)Nc1cccc(F)c1C(=O)OCCOC(=O)c1ccc(-c2c3nc(c(-c4c(F)cccc4F)c4ccc([nH]4)c(-c4c(F)cccc4F)c4nc(c(-c5c(F)cccc5F)c5ccc2[nH]5)C=C4)C=C3)cc1
REMARK SMILES IDX 22 1 21 2 19 3 20 4 18 5 12 6 13 7 14 8 16 9 15 10 17 11
REMARK SMILES IDX 11 12 1 13 2 14 3 16 4 17 5 18 6 19 10 20 7 21 9 22 8 23
REMARK SMILES IDX 23 24 24 25 25 26 26 27 27 28 28 29 80 30 29 31 79 32 30 33
REMARK SMILES IDX 31 34 32 35 73 36 33 37 78 38 72 39 74 40 34 41 77 42 71 43
REMARK SMILES IDX 70 44 35 46 61 47 44 48 60 49 45 50 48 51 59 52 75 53 46 54
REMARK SMILES IDX 47 55 58 57 76 58 49 59 36 60 37 61 42 62 38 63 39 64 41 65
REMARK SMILES IDX 43 66 40 67 62 68 63 69 68 70 64 71 65 72 67 73 69 74 66 75
REMARK SMILES IDX 50 76 51 77 56 78 52 79 53 80 55 81 57 82 54 83
REMARK H PARENT 11 15 74 45 48 56
REMARK Flexibility Score: inf
ROOT
ATOM      1  C   UNL A   1      32.608  29.285  25.060  1.00  0.00     0.275 C 
ENDROOT
BRANCH   1   2
ATOM      2  O   UNL A   1      32.271  29.296  23.669  1.00  0.00    -0.458 OA
BRANCH   2   3
ATOM      3  C   UNL A   1      32.022  28.100  23.085  1.00  0.00     0.343 C 
ATOM      4  O   UNL A   1      32.815  27.337  22.583  1.00  0.00    -0.246 OA
BRANCH   3   5
ATOM      5  C   UNL A   1      30.586  27.858  23.236  1.00  0.00     0.119 A 
ATOM      6  C   UNL A   1      30.072  26.690  23.811  1.00  0.00     0.058 A 
ATOM      7  C   UNL A   1      28.681  26.556  23.932  1.00  0.00     0.027 A 
ATOM      8  C   UNL A   1      27.828  27.579  23.495  1.00  0.00     0.005 A 
ATOM      9  C   UNL A   1      29.727  28.836  22.736  1.00  0.00     0.139 A 
ATOM     10  C   UNL A   1      28.352  28.714  22.882  1.00  0.00     0.040 A 
ATOM     11  F   UNL A   1      30.215  29.921  22.116  1.00  0.00    -0.206 F 
BRANCH   6  12
ATOM     12  N   UNL A   1      30.897  25.742  24.450  1.00  0.00    -0.325 N 
ATOM     13  O   UNL A   1      30.880  26.652  26.578  1.00  0.00    -0.275 OA
ATOM     14  C   UNL A   1      31.321  25.851  25.762  1.00  0.00     0.224 C 
ATOM     15  H   UNL A   1      31.187  24.956  23.933  1.00  0.00     0.169 HD
BRANCH  14  16
ATOM     16  C   UNL A   1      32.446  24.894  26.104  1.00  0.00     0.105 C 
BRANCH  16  17
ATOM     17  C   UNL A   1      33.881  25.393  25.897  1.00  0.00     0.047 C 
BRANCH  17  18
ATOM     18  C   UNL A   1      34.742  24.533  25.005  1.00  0.00    -0.029 A 
ATOM     19  C   UNL A   1      35.999  24.120  25.427  1.00  0.00     0.007 A 
ATOM     20  C   UNL A   1      34.365  24.157  23.715  1.00  0.00     0.114 A 
ATOM     21  C   UNL A   1      36.790  23.342  24.593  1.00  0.00     0.020 A 
ATOM     22  N   UNL A   1      35.103  23.370  22.893  1.00  0.00    -0.264 NA
ATOM     23  C   UNL A   1      36.304  22.978  23.354  1.00  0.00     0.111 A 
ENDBRANCH  17  18
ENDBRANCH  16  17
ENDBRANCH  14  16
ENDBRANCH   6  12
ENDBRANCH   3   5
ENDBRANCH   2   3
ENDBRANCH   1   2
BRANCH   1  24
ATOM     24  C   UNL A   1      31.759  30.331  25.794  1.00  0.00     0.275 C 
BRANCH  24  25
ATOM     25  O   UNL A   1      32.258  30.585  27.131  1.00  0.00    -0.458 OA
BRANCH  25  26
ATOM     26  C   UNL A   1      32.933  31.752  27.294  1.00  0.00     0.338 C 
ATOM     27  O   UNL A   1      32.458  32.875  27.226  1.00  0.00    -0.246 OA
BRANCH  26  28
ATOM     28  C   UNL A   1      34.326  31.512  27.758  1.00  0.00     0.060 A 
ATOM     29  C   UNL A   1      34.671  30.194  28.071  1.00  0.00     0.016 A 
ATOM     30  C   UNL A   1      35.280  32.520  27.922  1.00  0.00     0.016 A 
ATOM     31  C   UNL A   1      35.964  29.876  28.501  1.00  0.00     0.010 A 
ATOM     32  C   UNL A   1      36.581  32.204  28.377  1.00  0.00     0.010 A 
ATOM     33  C   UNL A   1      36.935  30.877  28.673  1.00  0.00    -0.014 A 
BRANCH  33  34
ATOM     34  C   UNL A   1      38.208  30.493  29.362  1.00  0.00     0.031 A 
ATOM     35  C   UNL A   1      38.376  30.873  30.800  1.00  0.00     0.074 A 
ATOM     36  C   UNL A   1      39.151  29.711  28.801  1.00  0.00     0.049 A 
ATOM     37  N   UNL A   1      39.292  30.493  31.652  1.00  0.00    -0.248 NA
ATOM     38  C   UNL A   1      37.396  31.825  31.336  1.00  0.00     0.031 C 
ATOM     39  C   UNL A   1      39.176  29.337  27.403  1.00  0.00     0.029 A 
ATOM     40  N   UNL A   1      40.241  29.053  29.328  1.00  0.00    -0.354 N 
ATOM     41  C   UNL A   1      39.014  31.179  32.822  1.00  0.00     0.074 A 
ATOM     42  C   UNL A   1      37.848  31.999  32.568  1.00  0.00     0.031 C 
ATOM     43  C   UNL A   1      40.125  28.412  27.194  1.00  0.00     0.029 A 
ATOM     44  C   UNL A   1      40.854  28.193  28.440  1.00  0.00     0.049 A 
ATOM     45  H   UNL A   1      40.553  29.184  30.252  1.00  0.00     0.167 HD
ATOM     46  C   UNL A   1      39.684  31.146  33.996  1.00  0.00     0.037 A 
ATOM     47  C   UNL A   1      41.887  27.337  28.597  1.00  0.00     0.037 A 
ATOM     48  C   UNL A   1      40.863  30.361  34.246  1.00  0.00     0.049 A 
ATOM     49  C   UNL A   1      42.600  27.291  29.923  1.00  0.00     0.074 A 
ATOM     50  C   UNL A   1      41.610  30.285  35.407  1.00  0.00     0.029 A 
ATOM     51  N   UNL A   1      41.479  29.531  33.320  1.00  0.00    -0.354 N 
ATOM     52  N   UNL A   1      42.318  27.935  31.030  1.00  0.00    -0.248 NA
ATOM     53  C   UNL A   1      43.795  26.438  30.017  1.00  0.00     0.031 C 
ATOM     54  C   UNL A   1      42.710  29.456  35.167  1.00  0.00     0.029 A 
ATOM     55  C   UNL A   1      42.609  28.953  33.881  1.00  0.00     0.049 A 
ATOM     56  H   UNL A   1      41.162  29.375  32.401  1.00  0.00     0.167 HD
ATOM     57  C   UNL A   1      43.301  27.575  31.943  1.00  0.00     0.074 A 
ATOM     58  C   UNL A   1      44.167  26.627  31.276  1.00  0.00     0.031 C 
ATOM     59  C   UNL A   1      43.474  28.010  33.216  1.00  0.00     0.037 A 
BRANCH  46  60
ATOM     60  C   UNL A   1      39.181  32.054  35.076  1.00  0.00     0.057 A 
ATOM     61  C   UNL A   1      38.352  31.555  36.087  1.00  0.00     0.134 A 
ATOM     62  C   UNL A   1      39.536  33.408  35.134  1.00  0.00     0.134 A 
ATOM     63  F   UNL A   1      37.982  30.265  36.090  1.00  0.00    -0.206 F 
ATOM     64  C   UNL A   1      37.890  32.371  37.118  1.00  0.00     0.040 A 
ATOM     65  C   UNL A   1      39.106  34.227  36.179  1.00  0.00     0.040 A 
ATOM     66  F   UNL A   1      40.352  33.939  34.210  1.00  0.00    -0.206 F 
ATOM     67  C   UNL A   1      38.276  33.709  37.171  1.00  0.00     0.006 A 
ENDBRANCH  46  60
BRANCH  47  68
ATOM     68  C   UNL A   1      42.336  26.466  27.471  1.00  0.00     0.057 A 
ATOM     69  C   UNL A   1      41.882  25.148  27.335  1.00  0.00     0.134 A 
ATOM     70  C   UNL A   1      43.225  26.934  26.493  1.00  0.00     0.134 A 
ATOM     71  F   UNL A   1      41.021  24.635  28.224  1.00  0.00    -0.206 F 
ATOM     72  C   UNL A   1      42.318  24.320  26.297  1.00  0.00     0.040 A 
ATOM     73  C   UNL A   1      43.644  26.129  25.430  1.00  0.00     0.040 A 
ATOM     74  F   UNL A   1      43.672  28.199  26.536  1.00  0.00    -0.206 F 
ATOM     75  C   UNL A   1      43.199  24.812  25.337  1.00  0.00     0.006 A 
ENDBRANCH  47  68
BRANCH  59  76
ATOM     76  C   UNL A   1      44.631  27.454  33.998  1.00  0.00     0.057 A 
ATOM     77  C   UNL A   1      44.476  26.289  34.762  1.00  0.00     0.134 A 
ATOM     78  C   UNL A   1      45.869  28.107  34.064  1.00  0.00     0.134 A 
ATOM     79  F   UNL A   1      43.314  25.620  34.755  1.00  0.00    -0.206 F 
ATOM     80  C   UNL A   1      45.502  25.804  35.574  1.00  0.00     0.040 A 
ATOM     81  C   UNL A   1      46.913  27.614  34.850  1.00  0.00     0.040 A 
ATOM     82  F   UNL A   1      46.090  29.223  33.353  1.00  0.00    -0.206 F 
ATOM     83  C   UNL A   1      46.727  26.465  35.617  1.00  0.00     0.006 A 
ENDBRANCH  59  76
ENDBRANCH  33  34
ENDBRANCH  26  28
ENDBRANCH  25  26
ENDBRANCH  24  25
ENDBRANCH   1  24
TORSDOF 15
ENDMDL
MODEL 3
REMARK VINA RESULT:     -11.3      4.578      9.435
REMARK SMILES O=C(CCc1cccnc1)Nc1cccc(F)c1C(=O)OCCOC(=O)c1ccc(-c2c3nc(c(-c4c(F)cccc4F)c4ccc([nH]4)c(-c4c(F)cccc4F)c4nc(c(-c5c(F)cccc5F)c5ccc2[nH]5)C=C4)C=C3)cc1
REMARK SMILES IDX 22 1 21 2 19 3 20 4 18 5 12 6 13 7 14 8 16 9 15 10 17 11
REMARK SMILES IDX 11 12 1 13 2 14 3 16 4 17 5 18 6 19 10 20 7 21 9 22 8 23
REMARK SMILES IDX 23 24 24 25 25 26 26 27 27 28 28 29 80 30 29 31 79 32 30 33
REMARK SMILES IDX 31 34 32 35 73 36 33 37 78 38 72 39 74 40 34 41 77 42 71 43
REMARK SMILES IDX 70 44 35 46 61 47 44 48 60 49 45 50 48 51 59 52 75 53 46 54
REMARK SMILES IDX 47 55 58 57 76 58 49 59 36 60 37 61 42 62 38 63 39 64 41 65
REMARK SMILES IDX 43 66 40 67 62 68 63 69 68 70 64 71 65 72 67 73 69 74 66 75
REMARK SMILES IDX 50 76 51 77 56 78 52 79 53 80 55 81 57 82 54 83
REMARK H PARENT 11 15 74 45 48 56
REMARK Flexibility Score: inf
ROOT
ATOM      1  C   UNL A   1      36.659  22.802  23.509  1.00  0.00     0.275 C 
ENDROOT
BRANCH   1   2
ATOM      2  O   UNL A   1      35.750  23.695  24.162  1.00  0.00    -0.458 OA
BRANCH   2   3
ATOM      3  C   UNL A   1      34.627  24.034  23.487  1.00  0.00     0.343 C 
ATOM      4  O   UNL A   1      34.399  23.904  22.306  1.00  0.00    -0.246 OA
BRANCH   3   5
ATOM      5  C   UNL A   1      33.682  24.540  24.486  1.00  0.00     0.119 A 
ATOM      6  C   UNL A   1      33.053  23.709  25.419  1.00  0.00     0.058 A 
ATOM      7  C   UNL A   1      32.178  24.286  26.352  1.00  0.00     0.027 A 
ATOM      8  C   UNL A   1      31.952  25.670  26.351  1.00  0.00     0.005 A 
ATOM      9  C   UNL A   1      33.393  25.903  24.446  1.00  0.00     0.139 A 
ATOM     10  C   UNL A   1      32.549  26.477  25.386  1.00  0.00     0.040 A 
ATOM     11  F   UNL A   1      33.936  26.689  23.503  1.00  0.00    -0.206 F 
BRANCH   6  12
ATOM     12  N   UNL A   1      33.415  22.356  25.586  1.00  0.00    -0.325 N 
ATOM     13  O   UNL A   1      32.106  21.442  23.910  1.00  0.00    -0.275 OA
ATOM     14  C   UNL A   1      32.836  21.313  24.886  1.00  0.00     0.224 C 
ATOM     15  H   UNL A   1      34.120  22.142  26.238  1.00  0.00     0.169 HD
BRANCH  14  16
ATOM     16  C   UNL A   1      33.159  19.953  25.473  1.00  0.00     0.105 C 
BRANCH  16  17
ATOM     17  C   UNL A   1      33.924  18.967  24.582  1.00  0.00     0.047 C 
BRANCH  17  18
ATOM     18  C   UNL A   1      33.697  17.507  24.891  1.00  0.00    -0.029 A 
ATOM     19  C   UNL A   1      32.461  17.070  25.351  1.00  0.00     0.007 A 
ATOM     20  C   UNL A   1      34.700  16.543  24.794  1.00  0.00     0.114 A 
ATOM     21  C   UNL A   1      32.267  15.728  25.649  1.00  0.00     0.020 A 
ATOM     22  N   UNL A   1      34.528  15.221  25.045  1.00  0.00    -0.264 NA
ATOM     23  C   UNL A   1      33.309  14.842  25.467  1.00  0.00     0.111 A 
ENDBRANCH  17  18
ENDBRANCH  16  17
ENDBRANCH  14  16
ENDBRANCH   6  12
ENDBRANCH   3   5
ENDBRANCH   2   3
ENDBRANCH   1   2
BRANCH   1  24
ATOM     24  C   UNL A   1      36.771  21.509  24.327  1.00  0.00     0.275 C 
BRANCH  24  25
ATOM     25  O   UNL A   1      37.244  21.765  25.673  1.00  0.00    -0.458 OA
BRANCH  25  26
ATOM     26  C   UNL A   1      38.549  21.466  25.904  1.00  0.00     0.338 C 
ATOM     27  O   UNL A   1      39.147  20.485  25.489  1.00  0.00    -0.246 OA
BRANCH  26  28
ATOM     28  C   UNL A   1      39.248  22.585  26.590  1.00  0.00     0.060 A 
ATOM     29  C   UNL A   1      38.781  23.878  26.331  1.00  0.00     0.016 A 
ATOM     30  C   UNL A   1      40.346  22.419  27.439  1.00  0.00     0.016 A 
ATOM     31  C   UNL A   1      39.372  24.988  26.944  1.00  0.00     0.010 A 
ATOM     32  C   UNL A   1      40.957  23.541  28.044  1.00  0.00     0.010 A 
ATOM     33  C   UNL A   1      40.476  24.839  27.800  1.00  0.00    -0.014 A 
BRANCH  33  34
ATOM     34  C   UNL A   1      41.197  26.082  28.221  1.00  0.00     0.031 A 
ATOM     35  C   UNL A   1      42.563  26.330  27.662  1.00  0.00     0.074 A 
ATOM     36  C   UNL A   1      40.633  27.052  28.967  1.00  0.00     0.049 A 
ATOM     37  N   UNL A   1      43.296  27.411  27.726  1.00  0.00    -0.248 NA
ATOM     38  C   UNL A   1      43.191  25.203  26.962  1.00  0.00     0.031 C 
ATOM     39  C   UNL A   1      39.363  26.924  29.649  1.00  0.00     0.029 A 
ATOM     40  N   UNL A   1      41.018  28.345  29.248  1.00  0.00    -0.354 N 
ATOM     41  C   UNL A   1      44.485  27.088  27.096  1.00  0.00     0.074 A 
ATOM     42  C   UNL A   1      44.375  25.711  26.660  1.00  0.00     0.031 C 
ATOM     43  C   UNL A   1      38.990  28.111  30.149  1.00  0.00     0.029 A 
ATOM     44  C   UNL A   1      40.055  29.081  29.907  1.00  0.00     0.049 A 
ATOM     45  H   UNL A   1      41.899  28.710  29.001  1.00  0.00     0.167 HD
ATOM     46  C   UNL A   1      45.579  27.861  26.915  1.00  0.00     0.037 A 
ATOM     47  C   UNL A   1      40.028  30.378  30.286  1.00  0.00     0.037 A 
ATOM     48  C   UNL A   1      45.710  29.218  27.375  1.00  0.00     0.049 A 
ATOM     49  C   UNL A   1      41.246  31.231  30.046  1.00  0.00     0.074 A 
ATOM     50  C   UNL A   1      46.796  30.065  27.244  1.00  0.00     0.029 A 
ATOM     51  N   UNL A   1      44.736  29.921  28.069  1.00  0.00    -0.354 N 
ATOM     52  N   UNL A   1      42.362  30.918  29.433  1.00  0.00    -0.248 NA
ATOM     53  C   UNL A   1      41.224  32.601  30.583  1.00  0.00     0.031 C 
ATOM     54  C   UNL A   1      46.502  31.259  27.908  1.00  0.00     0.029 A 
ATOM     55  C   UNL A   1      45.204  31.188  28.387  1.00  0.00     0.049 A 
ATOM     56  H   UNL A   1      43.844  29.574  28.300  1.00  0.00     0.167 HD
ATOM     57  C   UNL A   1      43.174  32.041  29.520  1.00  0.00     0.074 A 
ATOM     58  C   UNL A   1      42.411  33.059  30.211  1.00  0.00     0.031 C 
ATOM     59  C   UNL A   1      44.446  32.202  29.078  1.00  0.00     0.037 A 
BRANCH  46  60
ATOM     60  C   UNL A   1      46.752  27.212  26.246  1.00  0.00     0.057 A 
ATOM     61  C   UNL A   1      46.900  27.286  24.856  1.00  0.00     0.134 A 
ATOM     62  C   UNL A   1      47.744  26.539  26.972  1.00  0.00     0.134 A 
ATOM     63  F   UNL A   1      45.986  27.921  24.106  1.00  0.00    -0.206 F 
ATOM     64  C   UNL A   1      47.994  26.713  24.210  1.00  0.00     0.040 A 
ATOM     65  C   UNL A   1      48.859  25.990  26.339  1.00  0.00     0.040 A 
ATOM     66  F   UNL A   1      47.673  26.460  28.310  1.00  0.00    -0.206 F 
ATOM     67  C   UNL A   1      48.982  26.072  24.953  1.00  0.00     0.006 A 
ENDBRANCH  46  60
BRANCH  47  68
ATOM     68  C   UNL A   1      38.825  30.953  30.954  1.00  0.00     0.057 A 
ATOM     69  C   UNL A   1      38.639  30.864  32.340  1.00  0.00     0.134 A 
ATOM     70  C   UNL A   1      37.831  31.621  30.224  1.00  0.00     0.134 A 
ATOM     71  F   UNL A   1      39.553  30.252  33.105  1.00  0.00    -0.206 F 
ATOM     72  C   UNL A   1      37.503  31.379  32.968  1.00  0.00     0.040 A 
ATOM     73  C   UNL A   1      36.704  32.171  30.843  1.00  0.00     0.040 A 
ATOM     74  F   UNL A   1      37.958  31.780  28.898  1.00  0.00    -0.206 F 
ATOM     75  C   UNL A   1      36.532  32.040  32.219  1.00  0.00     0.006 A 
ENDBRANCH  47  68
BRANCH  59  76
ATOM     76  C   UNL A   1      45.105  33.535  29.299  1.00  0.00     0.057 A 
ATOM     77  C   UNL A   1      45.807  33.791  30.485  1.00  0.00     0.134 A 
ATOM     78  C   UNL A   1      44.982  34.588  28.384  1.00  0.00     0.134 A 
ATOM     79  F   UNL A   1      45.954  32.831  31.410  1.00  0.00    -0.206 F 
ATOM     80  C   UNL A   1      46.346  35.048  30.759  1.00  0.00     0.040 A 
ATOM     81  C   UNL A   1      45.542  35.843  28.635  1.00  0.00     0.040 A 
ATOM     82  F   UNL A   1      44.330  34.411  27.225  1.00  0.00    -0.206 F 
ATOM     83  C   UNL A   1      46.218  36.078  29.831  1.00  0.00     0.006 A 
ENDBRANCH  59  76
ENDBRANCH  33  34
ENDBRANCH  26  28
ENDBRANCH  25  26
ENDBRANCH  24  25
ENDBRANCH   1  24
TORSDOF 15
ENDMDL
