MODEL 1
REMARK VINA RESULT:     -10.0      0.000      0.000
REMARK SMILES CN(CC1CCC1)C(=O)N(CC(=O)OCCOC(=O)c1ccc(-c2c3nc(c(-c4c(F)cccc4F)c4ccc([nH]4)c(-c4c(F)cccc4F)c4nc(c(-c5c(F)cccc5F)c5ccc2[nH]5)C=C4)C=C3)cc1)C(C)(C)C
REMARK SMILES IDX 14 1 12 2 13 3 11 4 10 5 8 6 9 7 2 8 1 9 3 10 4 11 5 12 7 13
REMARK SMILES IDX 6 14 74 15 75 16 76 17 77 18 15 19 16 20 17 21 18 22 19 23
REMARK SMILES IDX 20 24 21 25 73 26 22 27 72 28 23 29 24 30 25 31 66 32 26 33
REMARK SMILES IDX 71 34 65 35 67 36 27 37 70 38 64 39 63 40 28 42 54 43 37 44
REMARK SMILES IDX 53 45 38 46 41 47 52 48 68 49 39 50 40 51 51 53 69 54 42 55
REMARK SMILES IDX 29 56 30 57 35 58 31 59 32 60 34 61 36 62 33 63 55 64 56 65
REMARK SMILES IDX 61 66 57 67 58 68 60 69 62 70 59 71 43 72 44 73 49 74 45 75
REMARK SMILES IDX 46 76 48 77 50 78 47 79
REMARK H PARENT 67 41 41 52
REMARK Flexibility Score: inf
ROOT
ATOM      1  O   UNL A   1      34.884  22.722  24.349  1.00  0.00    -0.461 OA
ENDROOT
BRANCH   1   2
ATOM      2  C   UNL A   1      34.113  23.151  23.314  1.00  0.00     0.325 C 
ATOM      3  O   UNL A   1      34.556  23.500  22.221  1.00  0.00    -0.250 OA
BRANCH   2   4
ATOM      4  C   UNL A   1      32.608  23.100  23.578  1.00  0.00     0.244 C 
BRANCH   4   5
ATOM      5  N   UNL A   1      31.978  24.230  24.258  1.00  0.00    -0.309 N 
BRANCH   5   6
ATOM      6  C   UNL A   1      31.778  25.486  23.697  1.00  0.00     0.320 C 
ATOM      7  O   UNL A   1      30.709  25.716  23.113  1.00  0.00    -0.248 OA
BRANCH   6   8
ATOM      8  N   UNL A   1      32.720  26.507  23.693  1.00  0.00    -0.327 N 
ATOM      9  C   UNL A   1      33.018  26.996  22.341  1.00  0.00     0.148 C 
BRANCH   8  10
ATOM     10  C   UNL A   1      33.389  27.287  24.747  1.00  0.00     0.124 C 
BRANCH  10  11
ATOM     11  C   UNL A   1      32.381  28.063  25.573  1.00  0.00     0.008 C 
ATOM     12  C   UNL A   1      32.507  27.991  27.122  1.00  0.00     0.005 C 
ATOM     13  C   UNL A   1      32.448  29.609  25.761  1.00  0.00     0.005 C 
ATOM     14  C   UNL A   1      31.810  29.372  27.145  1.00  0.00     0.001 C 
ENDBRANCH  10  11
ENDBRANCH   8  10
ENDBRANCH   6   8
ENDBRANCH   5   6
BRANCH   5  15
ATOM     15  C   UNL A   1      31.451  23.999  25.678  1.00  0.00     0.037 C 
ATOM     16  C   UNL A   1      30.821  22.595  25.824  1.00  0.00     0.034 C 
ATOM     17  C   UNL A   1      32.588  24.191  26.716  1.00  0.00     0.034 C 
ATOM     18  C   UNL A   1      30.345  24.992  26.127  1.00  0.00     0.034 C 
ENDBRANCH   5  15
ENDBRANCH   4   5
ENDBRANCH   2   4
ENDBRANCH   1   2
BRANCH   1  19
ATOM     19  C   UNL A   1      34.657  21.360  24.772  1.00  0.00     0.274 C 
BRANCH  19  20
ATOM     20  C   UNL A   1      35.956  20.671  25.182  1.00  0.00     0.275 C 
BRANCH  20  21
ATOM     21  O   UNL A   1      36.854  21.638  25.748  1.00  0.00    -0.458 OA
BRANCH  21  22
ATOM     22  C   UNL A   1      38.163  21.298  25.743  1.00  0.00     0.338 C 
ATOM     23  O   UNL A   1      38.652  20.245  25.375  1.00  0.00    -0.246 OA
BRANCH  22  24
ATOM     24  C   UNL A   1      38.975  22.432  26.228  1.00  0.00     0.060 A 
ATOM     25  C   UNL A   1      40.131  22.219  26.985  1.00  0.00     0.016 A 
ATOM     26  C   UNL A   1      38.524  23.731  26.007  1.00  0.00     0.016 A 
ATOM     27  C   UNL A   1      40.806  23.285  27.566  1.00  0.00     0.010 A 
ATOM     28  C   UNL A   1      39.260  24.808  26.502  1.00  0.00     0.010 A 
ATOM     29  C   UNL A   1      40.405  24.594  27.290  1.00  0.00    -0.014 A 
BRANCH  29  30
ATOM     30  C   UNL A   1      41.198  25.749  27.773  1.00  0.00     0.031 A 
ATOM     31  C   UNL A   1      40.546  26.810  28.606  1.00  0.00     0.074 A 
ATOM     32  C   UNL A   1      42.489  25.871  27.404  1.00  0.00     0.049 A 
ATOM     33  N   UNL A   1      40.961  28.020  28.873  1.00  0.00    -0.248 NA
ATOM     34  C   UNL A   1      39.246  26.470  29.205  1.00  0.00     0.031 C 
ATOM     35  C   UNL A   1      43.254  24.883  26.640  1.00  0.00     0.029 A 
ATOM     36  N   UNL A   1      43.378  26.896  27.604  1.00  0.00    -0.354 N 
ATOM     37  C   UNL A   1      39.951  28.607  29.622  1.00  0.00     0.074 A 
ATOM     38  C   UNL A   1      38.906  27.617  29.777  1.00  0.00     0.031 C 
ATOM     39  C   UNL A   1      44.496  25.346  26.440  1.00  0.00     0.029 A 
ATOM     40  C   UNL A   1      44.584  26.697  26.976  1.00  0.00     0.049 A 
ATOM     41  H   UNL A   1      43.174  27.694  28.143  1.00  0.00     0.167 HD
ATOM     42  C   UNL A   1      39.902  29.866  30.120  1.00  0.00     0.037 A 
ATOM     43  C   UNL A   1      45.621  27.533  26.788  1.00  0.00     0.037 A 
ATOM     44  C   UNL A   1      40.967  30.826  29.985  1.00  0.00     0.049 A 
ATOM     45  C   UNL A   1      45.522  28.939  27.297  1.00  0.00     0.074 A 
ATOM     46  C   UNL A   1      41.029  32.121  30.469  1.00  0.00     0.029 A 
ATOM     47  N   UNL A   1      42.162  30.588  29.323  1.00  0.00    -0.354 N 
ATOM     48  N   UNL A   1      44.540  29.510  27.952  1.00  0.00    -0.248 NA
ATOM     49  C   UNL A   1      46.658  29.824  27.017  1.00  0.00     0.031 C 
ATOM     50  C   UNL A   1      42.251  32.677  30.074  1.00  0.00     0.029 A 
ATOM     51  C   UNL A   1      42.963  31.716  29.373  1.00  0.00     0.049 A 
ATOM     52  H   UNL A   1      42.406  29.741  28.883  1.00  0.00     0.167 HD
ATOM     53  C   UNL A   1      44.941  30.819  28.167  1.00  0.00     0.074 A 
ATOM     54  C   UNL A   1      46.262  30.954  27.588  1.00  0.00     0.031 C 
ATOM     55  C   UNL A   1      44.273  31.824  28.784  1.00  0.00     0.037 A 
BRANCH  42  56
ATOM     56  C   UNL A   1      38.647  30.287  30.821  1.00  0.00     0.057 A 
ATOM     57  C   UNL A   1      38.462  30.095  32.195  1.00  0.00     0.134 A 
ATOM     58  C   UNL A   1      37.622  30.928  30.113  1.00  0.00     0.134 A 
ATOM     59  F   UNL A   1      39.399  29.472  32.926  1.00  0.00    -0.206 F 
ATOM     60  C   UNL A   1      37.296  30.514  32.838  1.00  0.00     0.040 A 
ATOM     61  C   UNL A   1      36.460  31.370  30.748  1.00  0.00     0.040 A 
ATOM     62  F   UNL A   1      37.738  31.144  28.794  1.00  0.00    -0.206 F 
ATOM     63  C   UNL A   1      36.294  31.160  32.116  1.00  0.00     0.006 A 
ENDBRANCH  42  56
BRANCH  43  64
ATOM     64  C   UNL A   1      46.808  27.071  26.029  1.00  0.00     0.057 A 
ATOM     65  C   UNL A   1      47.864  26.421  26.672  1.00  0.00     0.134 A 
ATOM     66  C   UNL A   1      46.899  27.239  24.641  1.00  0.00     0.134 A 
ATOM     67  F   UNL A   1      47.841  26.250  28.002  1.00  0.00    -0.206 F 
ATOM     68  C   UNL A   1      48.972  25.953  25.963  1.00  0.00     0.040 A 
ATOM     69  C   UNL A   1      47.989  26.755  23.916  1.00  0.00     0.040 A 
ATOM     70  F   UNL A   1      45.914  27.851  23.967  1.00  0.00    -0.206 F 
ATOM     71  C   UNL A   1      49.031  26.112  24.579  1.00  0.00     0.006 A 
ENDBRANCH  43  64
BRANCH  55  72
ATOM     72  C   UNL A   1      44.976  33.142  28.879  1.00  0.00     0.057 A 
ATOM     73  C   UNL A   1      44.786  34.144  27.920  1.00  0.00     0.134 A 
ATOM     74  C   UNL A   1      45.831  33.419  29.952  1.00  0.00     0.134 A 
ATOM     75  F   UNL A   1      43.993  33.928  26.861  1.00  0.00    -0.206 F 
ATOM     76  C   UNL A   1      45.436  35.375  28.019  1.00  0.00     0.040 A 
ATOM     77  C   UNL A   1      46.470  34.653  30.071  1.00  0.00     0.040 A 
ATOM     78  F   UNL A   1      46.049  32.499  30.904  1.00  0.00    -0.206 F 
ATOM     79  C   UNL A   1      46.276  35.633  29.100  1.00  0.00     0.006 A 
ENDBRANCH  55  72
ENDBRANCH  29  30
ENDBRANCH  22  24
ENDBRANCH  21  22
ENDBRANCH  20  21
ENDBRANCH  19  20
ENDBRANCH   1  19
TORSDOF 17
ENDMDL
MODEL 2
REMARK VINA RESULT:      -9.9      3.822      8.752
REMARK SMILES CN(CC1CCC1)C(=O)N(CC(=O)OCCOC(=O)c1ccc(-c2c3nc(c(-c4c(F)cccc4F)c4ccc([nH]4)c(-c4c(F)cccc4F)c4nc(c(-c5c(F)cccc5F)c5ccc2[nH]5)C=C4)C=C3)cc1)C(C)(C)C
REMARK SMILES IDX 14 1 12 2 13 3 11 4 10 5 8 6 9 7 2 8 1 9 3 10 4 11 5 12 7 13
REMARK SMILES IDX 6 14 74 15 75 16 76 17 77 18 15 19 16 20 17 21 18 22 19 23
REMARK SMILES IDX 20 24 21 25 73 26 22 27 72 28 23 29 24 30 25 31 66 32 26 33
REMARK SMILES IDX 71 34 65 35 67 36 27 37 70 38 64 39 63 40 28 42 54 43 37 44
REMARK SMILES IDX 53 45 38 46 41 47 52 48 68 49 39 50 40 51 51 53 69 54 42 55
REMARK SMILES IDX 29 56 30 57 35 58 31 59 32 60 34 61 36 62 33 63 55 64 56 65
REMARK SMILES IDX 61 66 57 67 58 68 60 69 62 70 59 71 43 72 44 73 49 74 45 75
REMARK SMILES IDX 46 76 48 77 50 78 47 79
REMARK H PARENT 67 41 41 52
REMARK Flexibility Score: inf
ROOT
ATOM      1  O   UNL A   1      30.337  28.583  23.922  1.00  0.00    -0.461 OA
ENDROOT
BRANCH   1   2
ATOM      2  C   UNL A   1      30.467  27.468  23.153  1.00  0.00     0.325 C 
ATOM      3  O   UNL A   1      30.543  27.481  21.926  1.00  0.00    -0.250 OA
BRANCH   2   4
ATOM      4  C   UNL A   1      30.593  26.164  23.940  1.00  0.00     0.244 C 
BRANCH   4   5
ATOM      5  N   UNL A   1      31.928  25.693  24.305  1.00  0.00    -0.309 N 
BRANCH   5   6
ATOM      6  C   UNL A   1      32.851  25.151  23.418  1.00  0.00     0.320 C 
ATOM      7  O   UNL A   1      33.442  25.908  22.635  1.00  0.00    -0.248 OA
BRANCH   6   8
ATOM      8  N   UNL A   1      33.133  23.796  23.304  1.00  0.00    -0.327 N 
ATOM      9  C   UNL A   1      34.538  23.484  23.597  1.00  0.00     0.148 C 
BRANCH   8  10
ATOM     10  C   UNL A   1      32.313  22.595  23.075  1.00  0.00     0.124 C 
BRANCH  10  11
ATOM     11  C   UNL A   1      32.845  21.415  23.866  1.00  0.00     0.008 C 
ATOM     12  C   UNL A   1      32.166  21.092  25.229  1.00  0.00     0.005 C 
ATOM     13  C   UNL A   1      32.528  19.934  23.496  1.00  0.00     0.005 C 
ATOM     14  C   UNL A   1      32.634  19.635  25.006  1.00  0.00     0.001 C 
ENDBRANCH  10  11
ENDBRANCH   8  10
ENDBRANCH   6   8
ENDBRANCH   5   6
BRANCH   5  15
ATOM     15  C   UNL A   1      32.363  25.857  25.765  1.00  0.00     0.037 C 
ATOM     16  C   UNL A   1      32.422  24.494  26.493  1.00  0.00     0.034 C 
ATOM     17  C   UNL A   1      33.737  26.571  25.845  1.00  0.00     0.034 C 
ATOM     18  C   UNL A   1      31.418  26.738  26.627  1.00  0.00     0.034 C 
ENDBRANCH   5  15
ENDBRANCH   4   5
ENDBRANCH   2   4
ENDBRANCH   1   2
BRANCH   1  19
ATOM     19  C   UNL A   1      31.553  29.333  24.142  1.00  0.00     0.274 C 
BRANCH  19  20
ATOM     20  C   UNL A   1      31.464  30.194  25.400  1.00  0.00     0.275 C 
BRANCH  20  21
ATOM     21  O   UNL A   1      32.710  30.136  26.110  1.00  0.00    -0.458 OA
BRANCH  21  22
ATOM     22  C   UNL A   1      32.973  31.185  26.923  1.00  0.00     0.338 C 
ATOM     23  O   UNL A   1      32.273  32.162  27.119  1.00  0.00    -0.246 OA
BRANCH  22  24
ATOM     24  C   UNL A   1      34.265  30.973  27.608  1.00  0.00     0.060 A 
ATOM     25  C   UNL A   1      34.679  29.693  27.983  1.00  0.00     0.016 A 
ATOM     26  C   UNL A   1      35.029  32.081  27.969  1.00  0.00     0.016 A 
ATOM     27  C   UNL A   1      35.818  29.513  28.759  1.00  0.00     0.010 A 
ATOM     28  C   UNL A   1      36.228  31.893  28.657  1.00  0.00     0.010 A 
ATOM     29  C   UNL A   1      36.630  30.608  29.063  1.00  0.00    -0.014 A 
BRANCH  29  30
ATOM     30  C   UNL A   1      37.926  30.422  29.757  1.00  0.00     0.031 A 
ATOM     31  C   UNL A   1      38.995  29.575  29.134  1.00  0.00     0.074 A 
ATOM     32  C   UNL A   1      38.112  30.963  30.976  1.00  0.00     0.049 A 
ATOM     33  N   UNL A   1      40.055  29.048  29.686  1.00  0.00    -0.248 NA
ATOM     34  C   UNL A   1      38.841  29.269  27.703  1.00  0.00     0.031 C 
ATOM     35  C   UNL A   1      37.173  31.849  31.669  1.00  0.00     0.029 A 
ATOM     36  N   UNL A   1      39.151  30.825  31.863  1.00  0.00    -0.354 N 
ATOM     37  C   UNL A   1      40.666  28.301  28.688  1.00  0.00     0.074 A 
ATOM     38  C   UNL A   1      39.863  28.451  27.493  1.00  0.00     0.031 C 
ATOM     39  C   UNL A   1      37.678  32.178  32.866  1.00  0.00     0.029 A 
ATOM     40  C   UNL A   1      38.925  31.453  33.063  1.00  0.00     0.049 A 
ATOM     41  H   UNL A   1      39.974  30.327  31.658  1.00  0.00     0.167 HD
ATOM     42  C   UNL A   1      41.788  27.548  28.775  1.00  0.00     0.037 A 
ATOM     43  C   UNL A   1      39.606  31.397  34.222  1.00  0.00     0.037 A 
ATOM     44  C   UNL A   1      42.593  27.438  29.963  1.00  0.00     0.049 A 
ATOM     45  C   UNL A   1      40.813  30.512  34.313  1.00  0.00     0.074 A 
ATOM     46  C   UNL A   1      43.761  26.720  30.154  1.00  0.00     0.029 A 
ATOM     47  N   UNL A   1      42.316  28.076  31.164  1.00  0.00    -0.354 N 
ATOM     48  N   UNL A   1      41.352  29.759  33.385  1.00  0.00    -0.248 NA
ATOM     49  C   UNL A   1      41.486  30.446  35.615  1.00  0.00     0.031 C 
ATOM     50  C   UNL A   1      44.173  26.899  31.479  1.00  0.00     0.029 A 
ATOM     51  C   UNL A   1      43.281  27.756  32.103  1.00  0.00     0.049 A 
ATOM     52  H   UNL A   1      41.546  28.670  31.324  1.00  0.00     0.167 HD
ATOM     53  C   UNL A   1      42.432  29.133  33.989  1.00  0.00     0.074 A 
ATOM     54  C   UNL A   1      42.481  29.607  35.357  1.00  0.00     0.031 C 
ATOM     55  C   UNL A   1      43.303  28.240  33.460  1.00  0.00     0.037 A 
BRANCH  42  56
ATOM     56  C   UNL A   1      42.189  26.758  27.567  1.00  0.00     0.057 A 
ATOM     57  C   UNL A   1      42.994  27.298  26.557  1.00  0.00     0.134 A 
ATOM     58  C   UNL A   1      41.791  25.421  27.432  1.00  0.00     0.134 A 
ATOM     59  F   UNL A   1      43.394  28.577  26.620  1.00  0.00    -0.206 F 
ATOM     60  C   UNL A   1      43.379  26.541  25.449  1.00  0.00     0.040 A 
ATOM     61  C   UNL A   1      42.186  24.648  26.339  1.00  0.00     0.040 A 
ATOM     62  F   UNL A   1      41.021  24.843  28.365  1.00  0.00    -0.206 F 
ATOM     63  C   UNL A   1      42.980  25.210  25.341  1.00  0.00     0.006 A 
ENDBRANCH  42  56
BRANCH  43  64
ATOM     64  C   UNL A   1      39.117  32.155  35.398  1.00  0.00     0.057 A 
ATOM     65  C   UNL A   1      39.433  33.506  35.565  1.00  0.00     0.134 A 
ATOM     66  C   UNL A   1      38.298  31.558  36.365  1.00  0.00     0.134 A 
ATOM     67  F   UNL A   1      40.230  34.126  34.683  1.00  0.00    -0.206 F 
ATOM     68  C   UNL A   1      38.953  34.239  36.652  1.00  0.00     0.040 A 
ATOM     69  C   UNL A   1      37.790  32.283  37.443  1.00  0.00     0.040 A 
ATOM     70  F   UNL A   1      37.956  30.266  36.257  1.00  0.00    -0.206 F 
ATOM     71  C   UNL A   1      38.121  33.629  37.590  1.00  0.00     0.006 A 
ENDBRANCH  43  64
BRANCH  55  72
ATOM     72  C   UNL A   1      44.388  27.743  34.362  1.00  0.00     0.057 A 
ATOM     73  C   UNL A   1      45.596  28.436  34.507  1.00  0.00     0.134 A 
ATOM     74  C   UNL A   1      44.214  26.572  35.110  1.00  0.00     0.134 A 
ATOM     75  F   UNL A   1      45.826  29.554  33.803  1.00  0.00    -0.206 F 
ATOM     76  C   UNL A   1      46.601  27.973  35.358  1.00  0.00     0.040 A 
ATOM     77  C   UNL A   1      45.204  26.111  35.978  1.00  0.00     0.040 A 
ATOM     78  F   UNL A   1      43.077  25.867  35.015  1.00  0.00    -0.206 F 
ATOM     79  C   UNL A   1      46.402  26.811  36.100  1.00  0.00     0.006 A 
ENDBRANCH  55  72
ENDBRANCH  29  30
ENDBRANCH  22  24
ENDBRANCH  21  22
ENDBRANCH  20  21
ENDBRANCH  19  20
ENDBRANCH   1  19
TORSDOF 17
ENDMDL
MODEL 3
REMARK VINA RESULT:      -9.8      1.092      2.074
REMARK SMILES CN(CC1CCC1)C(=O)N(CC(=O)OCCOC(=O)c1ccc(-c2c3nc(c(-c4c(F)cccc4F)c4ccc([nH]4)c(-c4c(F)cccc4F)c4nc(c(-c5c(F)cccc5F)c5ccc2[nH]5)C=C4)C=C3)cc1)C(C)(C)C
REMARK SMILES IDX 14 1 12 2 13 3 11 4 10 5 8 6 9 7 2 8 1 9 3 10 4 11 5 12 7 13
REMARK SMILES IDX 6 14 74 15 75 16 76 17 77 18 15 19 16 20 17 21 18 22 19 23
REMARK SMILES IDX 20 24 21 25 73 26 22 27 72 28 23 29 24 30 25 31 66 32 26 33
REMARK SMILES IDX 71 34 65 35 67 36 27 37 70 38 64 39 63 40 28 42 54 43 37 44
REMARK SMILES IDX 53 45 38 46 41 47 52 48 68 49 39 50 40 51 51 53 69 54 42 55
REMARK SMILES IDX 29 56 30 57 35 58 31 59 32 60 34 61 36 62 33 63 55 64 56 65
REMARK SMILES IDX 61 66 57 67 58 68 60 69 62 70 59 71 43 72 44 73 49 74 45 75
REMARK SMILES IDX 46 76 48 77 50 78 47 79
REMARK H PARENT 67 41 41 52
REMARK Flexibility Score: inf
ROOT
ATOM      1  O   UNL A   1      34.969  22.569  23.731  1.00  0.00    -0.461 OA
ENDROOT
BRANCH   1   2
ATOM      2  C   UNL A   1      33.900  23.007  23.013  1.00  0.00     0.325 C 
ATOM      3  O   UNL A   1      33.950  23.328  21.826  1.00  0.00    -0.250 OA
BRANCH   2   4
ATOM      4  C   UNL A   1      32.576  23.003  23.775  1.00  0.00     0.244 C 
BRANCH   4   5
ATOM      5  N   UNL A   1      31.985  24.284  24.159  1.00  0.00    -0.309 N 
BRANCH   5   6
ATOM      6  C   UNL A   1      31.138  25.041  23.359  1.00  0.00     0.320 C 
ATOM      7  O   UNL A   1      29.979  24.642  23.171  1.00  0.00    -0.248 OA
BRANCH   6   8
ATOM      8  N   UNL A   1      31.508  26.207  22.700  1.00  0.00    -0.327 N 
ATOM      9  C   UNL A   1      32.000  25.954  21.340  1.00  0.00     0.148 C 
BRANCH   8  10
ATOM     10  C   UNL A   1      31.401  27.640  23.017  1.00  0.00     0.124 C 
BRANCH  10  11
ATOM     11  C   UNL A   1      30.168  28.249  22.375  1.00  0.00     0.008 C 
ATOM     12  C   UNL A   1      28.831  28.179  23.167  1.00  0.00     0.005 C 
ATOM     13  C   UNL A   1      29.913  29.785  22.317  1.00  0.00     0.005 C 
ATOM     14  C   UNL A   1      28.410  29.440  22.377  1.00  0.00     0.001 C 
ENDBRANCH  10  11
ENDBRANCH   8  10
ENDBRANCH   6   8
ENDBRANCH   5   6
BRANCH   5  15
ATOM     15  C   UNL A   1      32.280  24.807  25.569  1.00  0.00     0.037 C 
ATOM     16  C   UNL A   1      32.343  23.654  26.597  1.00  0.00     0.034 C 
ATOM     17  C   UNL A   1      33.605  25.614  25.582  1.00  0.00     0.034 C 
ATOM     18  C   UNL A   1      31.220  25.794  26.127  1.00  0.00     0.034 C 
ENDBRANCH   5  15
ENDBRANCH   4   5
ENDBRANCH   2   4
ENDBRANCH   1   2
BRANCH   1  19
ATOM     19  C   UNL A   1      34.698  21.494  24.658  1.00  0.00     0.274 C 
BRANCH  19  20
ATOM     20  C   UNL A   1      35.837  21.309  25.657  1.00  0.00     0.275 C 
BRANCH  20  21
ATOM     21  O   UNL A   1      37.059  21.801  25.088  1.00  0.00    -0.458 OA
BRANCH  21  22
ATOM     22  C   UNL A   1      38.199  21.329  25.643  1.00  0.00     0.338 C 
ATOM     23  O   UNL A   1      38.560  20.168  25.714  1.00  0.00    -0.246 OA
BRANCH  22  24
ATOM     24  C   UNL A   1      39.013  22.454  26.146  1.00  0.00     0.060 A 
ATOM     25  C   UNL A   1      40.145  22.228  26.932  1.00  0.00     0.016 A 
ATOM     26  C   UNL A   1      38.585  23.758  25.909  1.00  0.00     0.016 A 
ATOM     27  C   UNL A   1      40.820  23.286  27.528  1.00  0.00     0.010 A 
ATOM     28  C   UNL A   1      39.323  24.827  26.420  1.00  0.00     0.010 A 
ATOM     29  C   UNL A   1      40.444  24.599  27.238  1.00  0.00    -0.014 A 
BRANCH  29  30
ATOM     30  C   UNL A   1      41.240  25.745  27.737  1.00  0.00     0.031 A 
ATOM     31  C   UNL A   1      40.586  26.805  28.572  1.00  0.00     0.074 A 
ATOM     32  C   UNL A   1      42.535  25.862  27.383  1.00  0.00     0.049 A 
ATOM     33  N   UNL A   1      41.007  28.010  28.852  1.00  0.00    -0.248 NA
ATOM     34  C   UNL A   1      39.278  26.469  29.155  1.00  0.00     0.031 C 
ATOM     35  C   UNL A   1      43.301  24.875  26.618  1.00  0.00     0.029 A 
ATOM     36  N   UNL A   1      43.429  26.879  27.599  1.00  0.00    -0.354 N 
ATOM     37  C   UNL A   1      39.993  28.598  29.596  1.00  0.00     0.074 A 
ATOM     38  C   UNL A   1      38.940  27.614  29.733  1.00  0.00     0.031 C 
ATOM     39  C   UNL A   1      44.549  25.331  26.435  1.00  0.00     0.029 A 
ATOM     40  C   UNL A   1      44.640  26.677  26.982  1.00  0.00     0.049 A 
ATOM     41  H   UNL A   1      43.225  27.674  28.143  1.00  0.00     0.167 HD
ATOM     42  C   UNL A   1      39.948  29.853  30.103  1.00  0.00     0.037 A 
ATOM     43  C   UNL A   1      45.684  27.508  26.811  1.00  0.00     0.037 A 
ATOM     44  C   UNL A   1      41.020  30.807  29.987  1.00  0.00     0.049 A 
ATOM     45  C   UNL A   1      45.589  28.910  27.330  1.00  0.00     0.074 A 
ATOM     46  C   UNL A   1      41.086  32.098  30.481  1.00  0.00     0.029 A 
ATOM     47  N   UNL A   1      42.221  30.566  29.335  1.00  0.00    -0.354 N 
ATOM     48  N   UNL A   1      44.605  29.483  27.979  1.00  0.00    -0.248 NA
ATOM     49  C   UNL A   1      46.734  29.790  27.068  1.00  0.00     0.031 C 
ATOM     50  C   UNL A   1      42.316  32.648  30.103  1.00  0.00     0.029 A 
ATOM     51  C   UNL A   1      43.028  31.688  29.401  1.00  0.00     0.049 A 
ATOM     52  H   UNL A   1      42.463  29.721  28.891  1.00  0.00     0.167 HD
ATOM     53  C   UNL A   1      45.012  30.788  28.209  1.00  0.00     0.074 A 
ATOM     54  C   UNL A   1      46.340  30.917  27.644  1.00  0.00     0.031 C 
ATOM     55  C   UNL A   1      44.345  31.792  28.827  1.00  0.00     0.037 A 
BRANCH  42  56
ATOM     56  C   UNL A   1      38.689  30.277  30.795  1.00  0.00     0.057 A 
ATOM     57  C   UNL A   1      37.635  30.894  30.110  1.00  0.00     0.134 A 
ATOM     58  C   UNL A   1      38.516  30.032  32.163  1.00  0.00     0.134 A 
ATOM     59  F   UNL A   1      37.745  31.172  28.802  1.00  0.00    -0.206 F 
ATOM     60  C   UNL A   1      36.458  31.263  30.764  1.00  0.00     0.040 A 
ATOM     61  C   UNL A   1      37.336  30.378  32.824  1.00  0.00     0.040 A 
ATOM     62  F   UNL A   1      39.487  29.443  32.877  1.00  0.00    -0.206 F 
ATOM     63  C   UNL A   1      36.303  30.999  32.124  1.00  0.00     0.006 A 
ENDBRANCH  42  56
BRANCH  43  64
ATOM     64  C   UNL A   1      46.875  27.043  26.060  1.00  0.00     0.057 A 
ATOM     65  C   UNL A   1      46.982  27.250  24.682  1.00  0.00     0.134 A 
ATOM     66  C   UNL A   1      47.947  26.412  26.705  1.00  0.00     0.134 A 
ATOM     67  F   UNL A   1      45.979  27.830  24.008  1.00  0.00    -0.206 F 
ATOM     68  C   UNL A   1      48.112  26.846  23.969  1.00  0.00     0.040 A 
ATOM     69  C   UNL A   1      49.093  26.025  26.011  1.00  0.00     0.040 A 
ATOM     70  F   UNL A   1      47.906  26.191  28.027  1.00  0.00    -0.206 F 
ATOM     71  C   UNL A   1      49.176  26.239  24.636  1.00  0.00     0.006 A 
ENDBRANCH  43  64
BRANCH  55  72
ATOM     72  C   UNL A   1      45.055  33.104  28.939  1.00  0.00     0.057 A 
ATOM     73  C   UNL A   1      45.914  33.384  30.009  1.00  0.00     0.134 A 
ATOM     74  C   UNL A   1      44.899  34.086  27.954  1.00  0.00     0.134 A 
ATOM     75  F   UNL A   1      46.089  32.487  30.991  1.00  0.00    -0.206 F 
ATOM     76  C   UNL A   1      46.582  34.605  30.103  1.00  0.00     0.040 A 
ATOM     77  C   UNL A   1      45.577  35.303  28.028  1.00  0.00     0.040 A 
ATOM     78  F   UNL A   1      44.093  33.874  26.903  1.00  0.00    -0.206 F 
ATOM     79  C   UNL A   1      46.418  35.565  29.107  1.00  0.00     0.006 A 
ENDBRANCH  55  72
ENDBRANCH  29  30
ENDBRANCH  22  24
ENDBRANCH  21  22
ENDBRANCH  20  21
ENDBRANCH  19  20
ENDBRANCH   1  19
TORSDOF 17
ENDMDL
