MODEL 1
REMARK VINA RESULT:     -12.0      0.000      0.000
REMARK SMILES Cc1c(CC(=O)OCCOC(=O)c2ccc(-c3c4nc(c(-c5c(F)cccc5F)c5ccc([nH]5)c(-c5c(F)cccc5F)c5nc(c(-c6c(F)cccc6F)c6ccc3[nH]6)C=C5)C=C4)cc2)c2ccccc2n1C(=O)c1ccc(Cl)cc1
REMARK SMILES IDX 8 1 7 2 5 3 6 4 4 5 3 6 1 7 2 8 73 9 67 10 72 11 68 12 71 13
REMARK SMILES IDX 69 14 70 15 74 16 75 17 76 18 77 19 82 20 78 21 81 22 79 23
REMARK SMILES IDX 80 24 9 25 10 26 11 27 12 28 13 29 14 30 66 31 15 32 65 33
REMARK SMILES IDX 16 34 17 35 18 36 59 37 19 38 64 39 58 40 60 41 20 42 63 43
REMARK SMILES IDX 57 44 56 45 21 47 47 48 30 49 46 50 31 51 34 52 45 53 61 54
REMARK SMILES IDX 32 55 33 56 44 58 62 59 35 60 22 61 23 62 28 63 24 64 25 65
REMARK SMILES IDX 27 66 29 67 26 68 48 69 49 70 54 71 50 72 51 73 53 74 55 75
REMARK SMILES IDX 52 76 36 77 37 78 42 79 38 80 39 81 41 82 43 83 40 84
REMARK H PARENT 60 46 34 57
REMARK Flexibility Score: inf
ROOT
ATOM      1  C   UNL A   1      33.177  30.065  26.508  1.00  0.00     0.274 C 
ENDROOT
BRANCH   1   2
ATOM      2  O   UNL A   1      31.866  29.704  26.018  1.00  0.00    -0.462 OA
BRANCH   2   3
ATOM      3  C   UNL A   1      31.451  28.448  26.311  1.00  0.00     0.310 C 
ATOM      4  O   UNL A   1      31.359  28.003  27.453  1.00  0.00    -0.252 OA
BRANCH   3   5
ATOM      5  C   UNL A   1      31.133  27.580  25.125  1.00  0.00     0.160 C 
BRANCH   5   6
ATOM      6  C   UNL A   1      31.777  26.233  24.944  1.00  0.00    -0.008 A 
ATOM      7  C   UNL A   1      33.917  27.175  23.884  1.00  0.00     0.065 C 
ATOM      8  C   UNL A   1      33.043  26.069  24.389  1.00  0.00     0.028 A 
ATOM      9  N   UNL A   1      33.382  24.715  24.420  1.00  0.00    -0.280 N 
ATOM     10  C   UNL A   1      31.394  24.962  25.476  1.00  0.00     0.004 A 
ATOM     11  C   UNL A   1      32.443  24.066  25.241  1.00  0.00     0.056 A 
ATOM     12  C   UNL A   1      30.277  24.488  26.200  1.00  0.00     0.010 A 
ATOM     13  C   UNL A   1      32.407  22.766  25.807  1.00  0.00     0.027 A 
ATOM     14  C   UNL A   1      30.243  23.204  26.751  1.00  0.00     0.001 A 
ATOM     15  C   UNL A   1      31.306  22.350  26.557  1.00  0.00     0.002 A 
BRANCH   9  16
ATOM     16  C   UNL A   1      34.483  24.101  23.764  1.00  0.00     0.262 C 
ATOM     17  O   UNL A   1      34.538  24.081  22.538  1.00  0.00    -0.268 OA
BRANCH  16  18
ATOM     18  C   UNL A   1      35.603  23.463  24.465  1.00  0.00     0.040 A 
ATOM     19  C   UNL A   1      36.200  24.099  25.558  1.00  0.00     0.015 A 
ATOM     20  C   UNL A   1      36.120  22.277  23.935  1.00  0.00     0.015 A 
ATOM     21  C   UNL A   1      37.380  23.572  26.082  1.00  0.00     0.021 A 
ATOM     22  C   UNL A   1      37.299  21.758  24.465  1.00  0.00     0.021 A 
ATOM     23  C   UNL A   1      37.932  22.416  25.522  1.00  0.00     0.041 A 
ATOM     24  Cl  UNL A   1      39.432  21.820  26.115  1.00  0.00    -0.084 Cl
ENDBRANCH  16  18
ENDBRANCH   9  16
ENDBRANCH   5   6
ENDBRANCH   3   5
ENDBRANCH   2   3
ENDBRANCH   1   2
BRANCH   1  25
ATOM     25  C   UNL A   1      33.111  31.368  27.310  1.00  0.00     0.275 C 
BRANCH  25  26
ATOM     26  O   UNL A   1      34.165  31.361  28.285  1.00  0.00    -0.458 OA
BRANCH  26  27
ATOM     27  C   UNL A   1      35.310  32.012  27.972  1.00  0.00     0.338 C 
ATOM     28  O   UNL A   1      35.432  33.163  27.585  1.00  0.00    -0.246 OA
BRANCH  27  29
ATOM     29  C   UNL A   1      36.387  31.192  28.556  1.00  0.00     0.060 A 
ATOM     30  C   UNL A   1      37.530  31.796  29.085  1.00  0.00     0.016 A 
ATOM     31  C   UNL A   1      36.356  29.819  28.306  1.00  0.00     0.016 A 
ATOM     32  C   UNL A   1      38.691  31.043  29.208  1.00  0.00     0.010 A 
ATOM     33  C   UNL A   1      37.528  29.088  28.371  1.00  0.00     0.010 A 
ATOM     34  C   UNL A   1      38.706  29.713  28.766  1.00  0.00    -0.014 A 
BRANCH  34  35
ATOM     35  C   UNL A   1      39.881  28.894  29.012  1.00  0.00     0.031 A 
ATOM     36  C   UNL A   1      40.166  28.791  30.459  1.00  0.00     0.074 A 
ATOM     37  C   UNL A   1      40.620  28.186  28.139  1.00  0.00     0.049 A 
ATOM     38  N   UNL A   1      40.997  29.514  31.127  1.00  0.00    -0.248 NA
ATOM     39  C   UNL A   1      39.301  27.936  31.283  1.00  0.00     0.031 C 
ATOM     40  C   UNL A   1      40.353  27.853  26.742  1.00  0.00     0.029 A 
ATOM     41  N   UNL A   1      41.810  27.560  28.389  1.00  0.00    -0.354 N 
ATOM     42  C   UNL A   1      40.906  29.067  32.436  1.00  0.00     0.074 A 
ATOM     43  C   UNL A   1      39.715  28.264  32.507  1.00  0.00     0.031 C 
ATOM     44  C   UNL A   1      41.275  26.952  26.314  1.00  0.00     0.029 A 
ATOM     45  C   UNL A   1      42.279  26.767  27.352  1.00  0.00     0.049 A 
ATOM     46  H   UNL A   1      42.295  27.664  29.240  1.00  0.00     0.167 HD
ATOM     47  C   UNL A   1      41.963  29.184  33.282  1.00  0.00     0.037 A 
ATOM     48  C   UNL A   1      43.416  26.024  27.362  1.00  0.00     0.037 A 
ATOM     49  C   UNL A   1      42.961  30.078  32.742  1.00  0.00     0.049 A 
ATOM     50  C   UNL A   1      44.303  26.571  28.416  1.00  0.00     0.074 A 
ATOM     51  C   UNL A   1      42.999  31.408  32.373  1.00  0.00     0.029 A 
ATOM     52  N   UNL A   1      44.054  29.490  32.156  1.00  0.00    -0.354 N 
ATOM     53  N   UNL A   1      44.938  27.703  28.322  1.00  0.00    -0.248 NA
ATOM     54  C   UNL A   1      44.238  26.006  29.756  1.00  0.00     0.031 C 
ATOM     55  C   UNL A   1      43.879  31.465  31.250  1.00  0.00     0.029 A 
ATOM     56  C   UNL A   1      44.358  30.177  31.011  1.00  0.00     0.049 A 
ATOM     57  H   UNL A   1      44.538  28.705  32.500  1.00  0.00     0.167 HD
ATOM     58  C   UNL A   1      44.949  28.205  29.613  1.00  0.00     0.074 A 
ATOM     59  C   UNL A   1      44.655  27.060  30.464  1.00  0.00     0.031 C 
ATOM     60  C   UNL A   1      44.912  29.552  29.831  1.00  0.00     0.037 A 
BRANCH  47  61
ATOM     61  C   UNL A   1      42.297  28.183  34.362  1.00  0.00     0.057 A 
ATOM     62  C   UNL A   1      41.931  28.307  35.719  1.00  0.00     0.134 A 
ATOM     63  C   UNL A   1      42.721  26.899  33.975  1.00  0.00     0.134 A 
ATOM     64  F   UNL A   1      41.446  29.439  36.240  1.00  0.00    -0.206 F 
ATOM     65  C   UNL A   1      41.945  27.231  36.609  1.00  0.00     0.040 A 
ATOM     66  C   UNL A   1      42.685  25.803  34.844  1.00  0.00     0.040 A 
ATOM     67  F   UNL A   1      43.097  26.650  32.711  1.00  0.00    -0.206 F 
ATOM     68  C   UNL A   1      42.284  25.965  36.163  1.00  0.00     0.006 A 
ENDBRANCH  47  61
BRANCH  48  69
ATOM     69  C   UNL A   1      43.791  24.795  26.632  1.00  0.00     0.057 A 
ATOM     70  C   UNL A   1      44.612  24.857  25.495  1.00  0.00     0.134 A 
ATOM     71  C   UNL A   1      43.113  23.584  26.841  1.00  0.00     0.134 A 
ATOM     72  F   UNL A   1      45.256  25.988  25.174  1.00  0.00    -0.206 F 
ATOM     73  C   UNL A   1      44.719  23.790  24.596  1.00  0.00     0.040 A 
ATOM     74  C   UNL A   1      43.208  22.511  25.948  1.00  0.00     0.040 A 
ATOM     75  F   UNL A   1      42.282  23.437  27.884  1.00  0.00    -0.206 F 
ATOM     76  C   UNL A   1      44.001  22.618  24.810  1.00  0.00     0.006 A 
ENDBRANCH  48  69
BRANCH  60  77
ATOM     77  C   UNL A   1      45.265  30.440  28.670  1.00  0.00     0.057 A 
ATOM     78  C   UNL A   1      46.570  30.939  28.585  1.00  0.00     0.134 A 
ATOM     79  C   UNL A   1      44.361  30.859  27.682  1.00  0.00     0.134 A 
ATOM     80  F   UNL A   1      47.477  30.623  29.523  1.00  0.00    -0.206 F 
ATOM     81  C   UNL A   1      46.970  31.790  27.553  1.00  0.00     0.040 A 
ATOM     82  C   UNL A   1      44.759  31.679  26.622  1.00  0.00     0.040 A 
ATOM     83  F   UNL A   1      43.067  30.516  27.733  1.00  0.00    -0.206 F 
ATOM     84  C   UNL A   1      46.067  32.148  26.556  1.00  0.00     0.006 A 
ENDBRANCH  60  77
ENDBRANCH  34  35
ENDBRANCH  27  29
ENDBRANCH  26  27
ENDBRANCH  25  26
ENDBRANCH   1  25
TORSDOF 14
ENDMDL
MODEL 2
REMARK VINA RESULT:     -12.0      3.395      8.653
REMARK SMILES Cc1c(CC(=O)OCCOC(=O)c2ccc(-c3c4nc(c(-c5c(F)cccc5F)c5ccc([nH]5)c(-c5c(F)cccc5F)c5nc(c(-c6c(F)cccc6F)c6ccc3[nH]6)C=C5)C=C4)cc2)c2ccccc2n1C(=O)c1ccc(Cl)cc1
REMARK SMILES IDX 8 1 7 2 5 3 6 4 4 5 3 6 1 7 2 8 73 9 67 10 72 11 68 12 71 13
REMARK SMILES IDX 69 14 70 15 74 16 75 17 76 18 77 19 82 20 78 21 81 22 79 23
REMARK SMILES IDX 80 24 9 25 10 26 11 27 12 28 13 29 14 30 66 31 15 32 65 33
REMARK SMILES IDX 16 34 17 35 18 36 59 37 19 38 64 39 58 40 60 41 20 42 63 43
REMARK SMILES IDX 57 44 56 45 21 47 47 48 30 49 46 50 31 51 34 52 45 53 61 54
REMARK SMILES IDX 32 55 33 56 44 58 62 59 35 60 22 61 23 62 28 63 24 64 25 65
REMARK SMILES IDX 27 66 29 67 26 68 48 69 49 70 54 71 50 72 51 73 53 74 55 75
REMARK SMILES IDX 52 76 36 77 37 78 42 79 38 80 39 81 41 82 43 83 40 84
REMARK H PARENT 60 46 34 57
REMARK Flexibility Score: inf
ROOT
ATOM      1  C   UNL A   1      43.964  20.904  25.388  1.00  0.00     0.274 C 
ENDROOT
BRANCH   1   2
ATOM      2  O   UNL A   1      42.523  20.791  25.375  1.00  0.00    -0.462 OA
BRANCH   2   3
ATOM      3  C   UNL A   1      41.998  19.839  26.181  1.00  0.00     0.310 C 
ATOM      4  O   UNL A   1      42.654  18.942  26.705  1.00  0.00    -0.252 OA
BRANCH   3   5
ATOM      5  C   UNL A   1      40.509  19.913  26.383  1.00  0.00     0.160 C 
BRANCH   5   6
ATOM      6  C   UNL A   1      39.754  21.199  26.189  1.00  0.00    -0.008 A 
ATOM      7  C   UNL A   1      37.793  20.095  24.952  1.00  0.00     0.065 C 
ATOM      8  C   UNL A   1      38.521  21.261  25.548  1.00  0.00     0.028 A 
ATOM      9  N   UNL A   1      38.053  22.576  25.587  1.00  0.00    -0.280 N 
ATOM     10  C   UNL A   1      39.976  22.482  26.779  1.00  0.00     0.004 A 
ATOM     11  C   UNL A   1      38.865  23.284  26.491  1.00  0.00     0.056 A 
ATOM     12  C   UNL A   1      40.989  23.035  27.594  1.00  0.00     0.010 A 
ATOM     13  C   UNL A   1      38.737  24.563  27.090  1.00  0.00     0.027 A 
ATOM     14  C   UNL A   1      40.862  24.299  28.178  1.00  0.00     0.001 A 
ATOM     15  C   UNL A   1      39.738  25.056  27.928  1.00  0.00     0.002 A 
BRANCH   9  16
ATOM     16  C   UNL A   1      36.946  23.106  24.869  1.00  0.00     0.262 C 
ATOM     17  O   UNL A   1      37.031  23.296  23.658  1.00  0.00    -0.268 OA
BRANCH  16  18
ATOM     18  C   UNL A   1      35.662  23.457  25.482  1.00  0.00     0.040 A 
ATOM     19  C   UNL A   1      35.134  22.664  26.507  1.00  0.00     0.015 A 
ATOM     20  C   UNL A   1      34.940  24.521  24.934  1.00  0.00     0.015 A 
ATOM     21  C   UNL A   1      33.829  22.900  26.937  1.00  0.00     0.021 A 
ATOM     22  C   UNL A   1      33.637  24.749  25.371  1.00  0.00     0.021 A 
ATOM     23  C   UNL A   1      33.083  23.929  26.356  1.00  0.00     0.041 A 
ATOM     24  Cl  UNL A   1      31.445  24.160  26.829  1.00  0.00    -0.084 Cl
ENDBRANCH  16  18
ENDBRANCH   9  16
ENDBRANCH   5   6
ENDBRANCH   3   5
ENDBRANCH   2   3
ENDBRANCH   1   2
BRANCH   1  25
ATOM     25  C   UNL A   1      44.397  22.189  26.098  1.00  0.00     0.275 C 
BRANCH  25  26
ATOM     26  O   UNL A   1      43.732  23.301  25.481  1.00  0.00    -0.458 OA
BRANCH  26  27
ATOM     27  C   UNL A   1      44.419  24.465  25.386  1.00  0.00     0.338 C 
ATOM     28  O   UNL A   1      45.326  24.736  24.615  1.00  0.00    -0.246 OA
BRANCH  27  29
ATOM     29  C   UNL A   1      43.603  25.450  26.118  1.00  0.00     0.060 A 
ATOM     30  C   UNL A   1      42.676  26.247  25.442  1.00  0.00     0.016 A 
ATOM     31  C   UNL A   1      43.984  25.753  27.427  1.00  0.00     0.016 A 
ATOM     32  C   UNL A   1      42.261  27.436  26.026  1.00  0.00     0.010 A 
ATOM     33  C   UNL A   1      43.616  26.967  27.980  1.00  0.00     0.010 A 
ATOM     34  C   UNL A   1      42.803  27.833  27.256  1.00  0.00    -0.014 A 
BRANCH  34  35
ATOM     35  C   UNL A   1      42.273  29.011  27.922  1.00  0.00     0.031 A 
ATOM     36  C   UNL A   1      43.233  30.133  27.868  1.00  0.00     0.074 A 
ATOM     37  C   UNL A   1      41.052  29.209  28.451  1.00  0.00     0.049 A 
ATOM     38  N   UNL A   1      44.078  30.460  28.785  1.00  0.00    -0.248 NA
ATOM     39  C   UNL A   1      43.413  30.839  26.592  1.00  0.00     0.031 C 
ATOM     40  C   UNL A   1      39.840  28.403  28.333  1.00  0.00     0.029 A 
ATOM     41  N   UNL A   1      40.649  30.273  29.209  1.00  0.00    -0.354 N 
ATOM     42  C   UNL A   1      44.768  31.551  28.278  1.00  0.00     0.074 A 
ATOM     43  C   UNL A   1      44.473  31.598  26.872  1.00  0.00     0.031 C 
ATOM     44  C   UNL A   1      38.794  29.089  28.863  1.00  0.00     0.029 A 
ATOM     45  C   UNL A   1      39.291  30.305  29.493  1.00  0.00     0.049 A 
ATOM     46  H   UNL A   1      41.274  30.963  29.528  1.00  0.00     0.167 HD
ATOM     47  C   UNL A   1      45.313  32.473  29.114  1.00  0.00     0.037 A 
ATOM     48  C   UNL A   1      38.642  31.264  30.199  1.00  0.00     0.037 A 
ATOM     49  C   UNL A   1      45.349  31.982  30.472  1.00  0.00     0.049 A 
ATOM     50  C   UNL A   1      39.648  31.978  31.022  1.00  0.00     0.074 A 
ATOM     51  C   UNL A   1      45.943  30.918  31.121  1.00  0.00     0.029 A 
ATOM     52  N   UNL A   1      44.367  32.441  31.314  1.00  0.00    -0.354 N 
ATOM     53  N   UNL A   1      40.226  31.470  32.072  1.00  0.00    -0.248 NA
ATOM     54  C   UNL A   1      40.280  33.174  30.485  1.00  0.00     0.031 C 
ATOM     55  C   UNL A   1      45.017  30.529  32.137  1.00  0.00     0.029 A 
ATOM     56  C   UNL A   1      43.924  31.395  32.078  1.00  0.00     0.049 A 
ATOM     57  H   UNL A   1      44.035  33.367  31.359  1.00  0.00     0.167 HD
ATOM     58  C   UNL A   1      41.508  31.991  32.051  1.00  0.00     0.074 A 
ATOM     59  C   UNL A   1      41.431  33.142  31.161  1.00  0.00     0.031 C 
ATOM     60  C   UNL A   1      42.558  31.263  32.533  1.00  0.00     0.037 A 
BRANCH  47  61
ATOM     61  C   UNL A   1      45.406  33.947  28.801  1.00  0.00     0.057 A 
ATOM     62  C   UNL A   1      44.302  34.807  28.626  1.00  0.00     0.134 A 
ATOM     63  C   UNL A   1      46.640  34.595  28.993  1.00  0.00     0.134 A 
ATOM     64  F   UNL A   1      43.048  34.362  28.494  1.00  0.00    -0.206 F 
ATOM     65  C   UNL A   1      44.408  36.198  28.683  1.00  0.00     0.040 A 
ATOM     66  C   UNL A   1      46.748  35.985  29.107  1.00  0.00     0.040 A 
ATOM     67  F   UNL A   1      47.767  33.889  29.170  1.00  0.00    -0.206 F 
ATOM     68  C   UNL A   1      45.627  36.791  28.964  1.00  0.00     0.006 A 
ENDBRANCH  47  61
BRANCH  48  69
ATOM     69  C   UNL A   1      37.240  31.731  30.163  1.00  0.00     0.057 A 
ATOM     70  C   UNL A   1      36.861  32.804  29.342  1.00  0.00     0.134 A 
ATOM     71  C   UNL A   1      36.316  31.349  31.148  1.00  0.00     0.134 A 
ATOM     72  F   UNL A   1      37.697  33.284  28.410  1.00  0.00    -0.206 F 
ATOM     73  C   UNL A   1      35.651  33.485  29.518  1.00  0.00     0.040 A 
ATOM     74  C   UNL A   1      35.104  32.023  31.337  1.00  0.00     0.040 A 
ATOM     75  F   UNL A   1      36.598  30.353  32.001  1.00  0.00    -0.206 F 
ATOM     76  C   UNL A   1      34.776  33.107  30.531  1.00  0.00     0.006 A 
ENDBRANCH  48  69
BRANCH  60  77
ATOM     77  C   UNL A   1      42.227  30.101  33.427  1.00  0.00     0.057 A 
ATOM     78  C   UNL A   1      42.327  30.276  34.812  1.00  0.00     0.134 A 
ATOM     79  C   UNL A   1      41.876  28.820  32.974  1.00  0.00     0.134 A 
ATOM     80  F   UNL A   1      42.708  31.460  35.319  1.00  0.00    -0.206 F 
ATOM     81  C   UNL A   1      42.063  29.239  35.709  1.00  0.00     0.040 A 
ATOM     82  C   UNL A   1      41.571  27.784  33.862  1.00  0.00     0.040 A 
ATOM     83  F   UNL A   1      41.851  28.528  31.666  1.00  0.00    -0.206 F 
ATOM     84  C   UNL A   1      41.665  27.992  35.235  1.00  0.00     0.006 A 
ENDBRANCH  60  77
ENDBRANCH  34  35
ENDBRANCH  27  29
ENDBRANCH  26  27
ENDBRANCH  25  26
ENDBRANCH   1  25
TORSDOF 14
ENDMDL
MODEL 3
REMARK VINA RESULT:     -11.9      3.050      7.049
REMARK SMILES Cc1c(CC(=O)OCCOC(=O)c2ccc(-c3c4nc(c(-c5c(F)cccc5F)c5ccc([nH]5)c(-c5c(F)cccc5F)c5nc(c(-c6c(F)cccc6F)c6ccc3[nH]6)C=C5)C=C4)cc2)c2ccccc2n1C(=O)c1ccc(Cl)cc1
REMARK SMILES IDX 8 1 7 2 5 3 6 4 4 5 3 6 1 7 2 8 73 9 67 10 72 11 68 12 71 13
REMARK SMILES IDX 69 14 70 15 74 16 75 17 76 18 77 19 82 20 78 21 81 22 79 23
REMARK SMILES IDX 80 24 9 25 10 26 11 27 12 28 13 29 14 30 66 31 15 32 65 33
REMARK SMILES IDX 16 34 17 35 18 36 59 37 19 38 64 39 58 40 60 41 20 42 63 43
REMARK SMILES IDX 57 44 56 45 21 47 47 48 30 49 46 50 31 51 34 52 45 53 61 54
REMARK SMILES IDX 32 55 33 56 44 58 62 59 35 60 22 61 23 62 28 63 24 64 25 65
REMARK SMILES IDX 27 66 29 67 26 68 48 69 49 70 54 71 50 72 51 73 53 74 55 75
REMARK SMILES IDX 52 76 36 77 37 78 42 79 38 80 39 81 41 82 43 83 40 84
REMARK H PARENT 60 46 34 57
REMARK Flexibility Score: inf
ROOT
ATOM      1  C   UNL A   1      31.666  28.706  24.625  1.00  0.00     0.274 C 
ENDROOT
BRANCH   1   2
ATOM      2  O   UNL A   1      31.797  27.705  25.660  1.00  0.00    -0.462 OA
BRANCH   2   3
ATOM      3  C   UNL A   1      32.928  26.962  25.622  1.00  0.00     0.310 C 
ATOM      4  O   UNL A   1      33.973  27.325  25.087  1.00  0.00    -0.252 OA
BRANCH   3   5
ATOM      5  C   UNL A   1      32.829  25.603  26.259  1.00  0.00     0.160 C 
BRANCH   5   6
ATOM      6  C   UNL A   1      33.263  24.361  25.530  1.00  0.00    -0.008 A 
ATOM      7  C   UNL A   1      30.933  23.873  24.565  1.00  0.00     0.065 C 
ATOM      8  C   UNL A   1      32.393  23.596  24.759  1.00  0.00     0.028 A 
ATOM      9  N   UNL A   1      33.108  22.556  24.162  1.00  0.00    -0.280 N 
ATOM     10  C   UNL A   1      34.581  23.871  25.271  1.00  0.00     0.004 A 
ATOM     11  C   UNL A   1      34.475  22.830  24.341  1.00  0.00     0.056 A 
ATOM     12  C   UNL A   1      35.877  24.250  25.687  1.00  0.00     0.010 A 
ATOM     13  C   UNL A   1      35.645  22.261  23.776  1.00  0.00     0.027 A 
ATOM     14  C   UNL A   1      37.027  23.683  25.132  1.00  0.00     0.001 A 
ATOM     15  C   UNL A   1      36.909  22.695  24.178  1.00  0.00     0.002 A 
BRANCH   9  16
ATOM     16  C   UNL A   1      32.564  21.435  23.478  1.00  0.00     0.262 C 
ATOM     17  O   UNL A   1      31.943  21.594  22.430  1.00  0.00    -0.268 OA
BRANCH  16  18
ATOM     18  C   UNL A   1      32.689  20.050  23.943  1.00  0.00     0.040 A 
ATOM     19  C   UNL A   1      32.544  18.991  23.040  1.00  0.00     0.015 A 
ATOM     20  C   UNL A   1      32.835  19.828  25.316  1.00  0.00     0.015 A 
ATOM     21  C   UNL A   1      32.471  17.690  23.535  1.00  0.00     0.021 A 
ATOM     22  C   UNL A   1      32.760  18.524  25.800  1.00  0.00     0.021 A 
ATOM     23  C   UNL A   1      32.562  17.465  24.911  1.00  0.00     0.041 A 
ATOM     24  Cl  UNL A   1      32.384  15.867  25.523  1.00  0.00    -0.084 Cl
ENDBRANCH  16  18
ENDBRANCH   9  16
ENDBRANCH   5   6
ENDBRANCH   3   5
ENDBRANCH   2   3
ENDBRANCH   1   2
BRANCH   1  25
ATOM     25  C   UNL A   1      31.269  30.056  25.229  1.00  0.00     0.275 C 
BRANCH  25  26
ATOM     26  O   UNL A   1      32.044  30.274  26.417  1.00  0.00    -0.458 OA
BRANCH  26  27
ATOM     27  C   UNL A   1      32.221  31.555  26.821  1.00  0.00     0.338 C 
ATOM     28  O   UNL A   1      31.405  32.462  26.804  1.00  0.00    -0.246 OA
BRANCH  27  29
ATOM     29  C   UNL A   1      33.451  31.532  27.634  1.00  0.00     0.060 A 
ATOM     30  C   UNL A   1      33.995  32.718  28.131  1.00  0.00     0.016 A 
ATOM     31  C   UNL A   1      34.192  30.348  27.644  1.00  0.00     0.016 A 
ATOM     32  C   UNL A   1      35.338  32.744  28.486  1.00  0.00     0.010 A 
ATOM     33  C   UNL A   1      35.542  30.391  27.940  1.00  0.00     0.010 A 
ATOM     34  C   UNL A   1      36.127  31.600  28.304  1.00  0.00    -0.014 A 
BRANCH  34  35
ATOM     35  C   UNL A   1      37.495  31.593  28.793  1.00  0.00     0.031 A 
ATOM     36  C   UNL A   1      38.131  30.276  28.583  1.00  0.00     0.074 A 
ATOM     37  C   UNL A   1      38.226  32.610  29.285  1.00  0.00     0.049 A 
ATOM     38  N   UNL A   1      38.217  29.323  29.446  1.00  0.00    -0.248 NA
ATOM     39  C   UNL A   1      38.534  29.903  27.220  1.00  0.00     0.031 C 
ATOM     40  C   UNL A   1      37.953  34.045  29.278  1.00  0.00     0.029 A 
ATOM     41  N   UNL A   1      39.452  32.526  29.882  1.00  0.00    -0.354 N 
ATOM     42  C   UNL A   1      38.872  28.290  28.792  1.00  0.00     0.074 A 
ATOM     43  C   UNL A   1      38.845  28.618  27.392  1.00  0.00     0.031 C 
ATOM     44  C   UNL A   1      39.059  34.711  29.702  1.00  0.00     0.029 A 
ATOM     45  C   UNL A   1      40.053  33.747  30.154  1.00  0.00     0.049 A 
ATOM     46  H   UNL A   1      39.877  31.665  30.101  1.00  0.00     0.167 HD
ATOM     47  C   UNL A   1      39.607  27.385  29.489  1.00  0.00     0.037 A 
ATOM     48  C   UNL A   1      41.275  33.932  30.714  1.00  0.00     0.037 A 
ATOM     49  C   UNL A   1      39.326  27.471  30.903  1.00  0.00     0.049 A 
ATOM     50  C   UNL A   1      41.637  32.685  31.430  1.00  0.00     0.074 A 
ATOM     51  C   UNL A   1      38.210  27.306  31.700  1.00  0.00     0.029 A 
ATOM     52  N   UNL A   1      40.241  28.151  31.668  1.00  0.00    -0.354 N 
ATOM     53  N   UNL A   1      41.087  32.296  32.544  1.00  0.00    -0.248 NA
ATOM     54  C   UNL A   1      42.406  31.667  30.730  1.00  0.00     0.031 C 
ATOM     55  C   UNL A   1      38.355  28.255  32.757  1.00  0.00     0.029 A 
ATOM     56  C   UNL A   1      39.565  28.925  32.572  1.00  0.00     0.049 A 
ATOM     57  H   UNL A   1      41.220  28.093  31.579  1.00  0.00     0.167 HD
ATOM     58  C   UNL A   1      41.054  30.915  32.453  1.00  0.00     0.074 A 
ATOM     59  C   UNL A   1      42.013  30.585  31.407  1.00  0.00     0.031 C 
ATOM     60  C   UNL A   1      40.043  30.208  33.036  1.00  0.00     0.037 A 
BRANCH  47  61
ATOM     61  C   UNL A   1      40.870  26.742  28.969  1.00  0.00     0.057 A 
ATOM     62  C   UNL A   1      40.948  25.444  28.421  1.00  0.00     0.134 A 
ATOM     63  C   UNL A   1      41.984  27.563  28.716  1.00  0.00     0.134 A 
ATOM     64  F   UNL A   1      39.953  24.556  28.512  1.00  0.00    -0.206 F 
ATOM     65  C   UNL A   1      42.026  25.013  27.646  1.00  0.00     0.040 A 
ATOM     66  C   UNL A   1      43.042  27.159  27.895  1.00  0.00     0.040 A 
ATOM     67  F   UNL A   1      42.032  28.819  29.183  1.00  0.00    -0.206 F 
ATOM     68  C   UNL A   1      43.060  25.884  27.347  1.00  0.00     0.006 A 
ENDBRANCH  47  61
BRANCH  48  69
ATOM     69  C   UNL A   1      42.246  35.041  30.607  1.00  0.00     0.057 A 
ATOM     70  C   UNL A   1      42.846  35.354  29.378  1.00  0.00     0.134 A 
ATOM     71  C   UNL A   1      42.837  35.609  31.747  1.00  0.00     0.134 A 
ATOM     72  F   UNL A   1      42.394  34.816  28.236  1.00  0.00    -0.206 F 
ATOM     73  C   UNL A   1      43.993  36.153  29.291  1.00  0.00     0.040 A 
ATOM     74  C   UNL A   1      43.985  36.406  31.675  1.00  0.00     0.040 A 
ATOM     75  F   UNL A   1      42.354  35.345  32.971  1.00  0.00    -0.206 F 
ATOM     76  C   UNL A   1      44.577  36.666  30.444  1.00  0.00     0.006 A 
ENDBRANCH  48  69
BRANCH  60  77
ATOM     77  C   UNL A   1      39.233  30.918  34.086  1.00  0.00     0.057 A 
ATOM     78  C   UNL A   1      39.537  30.684  35.433  1.00  0.00     0.134 A 
ATOM     79  C   UNL A   1      38.146  31.763  33.819  1.00  0.00     0.134 A 
ATOM     80  F   UNL A   1      40.531  29.846  35.766  1.00  0.00    -0.206 F 
ATOM     81  C   UNL A   1      38.816  31.283  36.467  1.00  0.00     0.040 A 
ATOM     82  C   UNL A   1      37.441  32.401  34.845  1.00  0.00     0.040 A 
ATOM     83  F   UNL A   1      37.716  31.970  32.567  1.00  0.00    -0.206 F 
ATOM     84  C   UNL A   1      37.775  32.160  36.174  1.00  0.00     0.006 A 
ENDBRANCH  60  77
ENDBRANCH  34  35
ENDBRANCH  27  29
ENDBRANCH  26  27
ENDBRANCH  25  26
ENDBRANCH   1  25
TORSDOF 14
ENDMDL
