MODEL 1
REMARK VINA RESULT:     -10.8      0.000      0.000
REMARK SMILES O=C(OCCOC(=O)[C@@H]1CCc2[nH]ncc2C1)c1ccc(-c2c3nc(c(-c4c(F)cccc4F)c4ccc([nH]4)c(-c4c(F)cccc4F)c4nc(c(-c5c(F)cccc5F)c5ccc2[nH]5)C=C4)C=C3)cc1
REMARK SMILES IDX 4 1 3 2 2 3 1 4 18 5 19 6 71 7 20 8 70 9 21 10 22 11 23 12
REMARK SMILES IDX 64 13 24 14 69 15 63 16 65 17 25 18 68 19 62 20 61 21 26 23
REMARK SMILES IDX 52 24 35 25 51 26 36 27 39 28 50 29 66 30 37 31 38 32 49 34
REMARK SMILES IDX 67 35 40 36 27 37 28 38 33 39 29 40 30 41 32 42 34 43 31 44
REMARK SMILES IDX 53 45 54 46 59 47 55 48 56 49 58 50 60 51 57 52 41 53 42 54
REMARK SMILES IDX 47 55 43 56 44 57 46 58 48 59 45 60 5 61 6 62 7 63 8 64 9 65
REMARK SMILES IDX 10 66 17 67 11 68 16 69 12 70 15 71 13 72 14 73
REMARK H PARENT 65 22 39 33 13 74
REMARK Flexibility Score: inf
ROOT
ATOM      1  C   UNL A   1      33.255  36.100  29.421  1.00  0.00     0.275 C 
ENDROOT
BRANCH   1   2
ATOM      2  O   UNL A   1      32.437  36.419  30.553  1.00  0.00    -0.458 OA
BRANCH   2   3
ATOM      3  C   UNL A   1      32.714  36.274  31.868  1.00  0.00     0.338 C 
ATOM      4  O   UNL A   1      32.237  37.097  32.652  1.00  0.00    -0.246 OA
BRANCH   3   5
ATOM      5  C   UNL A   1      33.683  35.270  32.423  1.00  0.00     0.060 A 
ATOM      6  C   UNL A   1      33.408  33.975  32.887  1.00  0.00     0.016 A 
ATOM      7  C   UNL A   1      35.026  35.677  32.411  1.00  0.00     0.016 A 
ATOM      8  C   UNL A   1      34.436  33.066  33.191  1.00  0.00     0.010 A 
ATOM      9  C   UNL A   1      36.049  34.779  32.708  1.00  0.00     0.010 A 
ATOM     10  C   UNL A   1      35.767  33.450  33.063  1.00  0.00    -0.014 A 
BRANCH  10  11
ATOM     11  C   UNL A   1      36.900  32.565  33.427  1.00  0.00     0.031 A 
ATOM     12  C   UNL A   1      37.666  32.932  34.661  1.00  0.00     0.074 A 
ATOM     13  C   UNL A   1      37.335  31.575  32.623  1.00  0.00     0.049 A 
ATOM     14  N   UNL A   1      38.838  32.531  35.070  1.00  0.00    -0.248 NA
ATOM     15  C   UNL A   1      37.036  33.952  35.518  1.00  0.00     0.031 C 
ATOM     16  C   UNL A   1      36.697  31.124  31.387  1.00  0.00     0.029 A 
ATOM     17  N   UNL A   1      38.479  30.815  32.697  1.00  0.00    -0.354 N 
ATOM     18  C   UNL A   1      39.093  33.275  36.212  1.00  0.00     0.074 A 
ATOM     19  C   UNL A   1      38.017  34.228  36.357  1.00  0.00     0.031 C 
ATOM     20  C   UNL A   1      37.498  30.234  30.775  1.00  0.00     0.029 A 
ATOM     21  C   UNL A   1      38.703  30.047  31.577  1.00  0.00     0.049 A 
ATOM     22  H   UNL A   1      39.081  30.819  33.477  1.00  0.00     0.167 HD
ATOM     23  C   UNL A   1      40.102  33.138  37.102  1.00  0.00     0.037 A 
ATOM     24  C   UNL A   1      39.772  29.299  31.236  1.00  0.00     0.037 A 
ATOM     25  C   UNL A   1      41.147  32.167  36.967  1.00  0.00     0.049 A 
ATOM     26  C   UNL A   1      40.915  29.174  32.212  1.00  0.00     0.074 A 
ATOM     27  C   UNL A   1      42.174  31.871  37.840  1.00  0.00     0.029 A 
ATOM     28  N   UNL A   1      41.291  31.331  35.868  1.00  0.00    -0.354 N 
ATOM     29  N   UNL A   1      41.093  29.785  33.359  1.00  0.00    -0.248 NA
ATOM     30  C   UNL A   1      41.986  28.225  31.870  1.00  0.00     0.031 C 
ATOM     31  C   UNL A   1      42.957  30.868  37.258  1.00  0.00     0.029 A 
ATOM     32  C   UNL A   1      42.393  30.517  36.040  1.00  0.00     0.049 A 
ATOM     33  H   UNL A   1      40.697  31.320  35.084  1.00  0.00     0.167 HD
ATOM     34  C   UNL A   1      42.253  29.248  33.906  1.00  0.00     0.074 A 
ATOM     35  C   UNL A   1      42.753  28.279  32.952  1.00  0.00     0.031 C 
ATOM     36  C   UNL A   1      42.836  29.518  35.099  1.00  0.00     0.037 A 
BRANCH  23  37
ATOM     37  C   UNL A   1      40.062  34.057  38.284  1.00  0.00     0.057 A 
ATOM     38  C   UNL A   1      39.310  33.741  39.428  1.00  0.00     0.134 A 
ATOM     39  C   UNL A   1      40.669  35.316  38.237  1.00  0.00     0.134 A 
ATOM     40  F   UNL A   1      38.682  32.558  39.524  1.00  0.00    -0.206 F 
ATOM     41  C   UNL A   1      39.095  34.674  40.441  1.00  0.00     0.040 A 
ATOM     42  C   UNL A   1      40.492  36.244  39.264  1.00  0.00     0.040 A 
ATOM     43  F   UNL A   1      41.405  35.679  37.177  1.00  0.00    -0.206 F 
ATOM     44  C   UNL A   1      39.684  35.934  40.356  1.00  0.00     0.006 A 
ENDBRANCH  23  37
BRANCH  24  45
ATOM     45  C   UNL A   1      39.798  28.562  29.944  1.00  0.00     0.057 A 
ATOM     46  C   UNL A   1      39.214  27.295  29.828  1.00  0.00     0.134 A 
ATOM     47  C   UNL A   1      40.430  29.083  28.807  1.00  0.00     0.134 A 
ATOM     48  F   UNL A   1      38.608  26.734  30.885  1.00  0.00    -0.206 F 
ATOM     49  C   UNL A   1      39.276  26.562  28.640  1.00  0.00     0.040 A 
ATOM     50  C   UNL A   1      40.488  28.366  27.608  1.00  0.00     0.040 A 
ATOM     51  F   UNL A   1      41.003  30.294  28.839  1.00  0.00    -0.206 F 
ATOM     52  C   UNL A   1      39.916  27.098  27.524  1.00  0.00     0.006 A 
ENDBRANCH  24  45
BRANCH  36  53
ATOM     53  C   UNL A   1      44.019  28.694  35.507  1.00  0.00     0.057 A 
ATOM     54  C   UNL A   1      45.333  29.085  35.231  1.00  0.00     0.134 A 
ATOM     55  C   UNL A   1      43.832  27.556  36.305  1.00  0.00     0.134 A 
ATOM     56  F   UNL A   1      45.576  30.157  34.463  1.00  0.00    -0.206 F 
ATOM     57  C   UNL A   1      46.423  28.379  35.744  1.00  0.00     0.040 A 
ATOM     58  C   UNL A   1      44.911  26.856  36.842  1.00  0.00     0.040 A 
ATOM     59  F   UNL A   1      42.595  27.135  36.610  1.00  0.00    -0.206 F 
ATOM     60  C   UNL A   1      46.212  27.271  36.565  1.00  0.00     0.006 A 
ENDBRANCH  36  53
ENDBRANCH  10  11
ENDBRANCH   3   5
ENDBRANCH   2   3
ENDBRANCH   1   2
BRANCH   1  61
ATOM     61  C   UNL A   1      32.990  34.710  28.833  1.00  0.00     0.274 C 
BRANCH  61  62
ATOM     62  O   UNL A   1      33.929  33.709  29.278  1.00  0.00    -0.462 OA
BRANCH  62  63
ATOM     63  C   UNL A   1      34.650  33.083  28.310  1.00  0.00     0.309 C 
ATOM     64  O   UNL A   1      35.429  33.662  27.552  1.00  0.00    -0.252 OA
BRANCH  63  65
ATOM     65  C   UNL A   1      34.375  31.593  28.175  1.00  0.00     0.104 C 
ATOM     66  C   UNL A   1      35.629  30.879  27.612  1.00  0.00     0.022 C 
ATOM     67  C   UNL A   1      33.118  31.235  27.364  1.00  0.00     0.054 C 
ATOM     68  C   UNL A   1      35.494  29.342  27.642  1.00  0.00     0.057 C 
ATOM     69  C   UNL A   1      33.066  29.786  27.028  1.00  0.00    -0.006 A 
ATOM     70  C   UNL A   1      34.158  28.961  27.133  1.00  0.00     0.038 A 
ATOM     71  C   UNL A   1      32.050  28.951  26.527  1.00  0.00     0.138 A 
ATOM     72  N   UNL A   1      33.765  27.731  26.698  1.00  0.00    -0.282 N 
ATOM     73  N   UNL A   1      32.467  27.693  26.355  1.00  0.00    -0.184 NA
ATOM     74  H   UNL A   1      34.367  26.955  26.642  1.00  0.00     0.190 HD
ENDBRANCH  63  65
ENDBRANCH  62  63
ENDBRANCH  61  62
ENDBRANCH   1  61
TORSDOF 11
ENDMDL
MODEL 2
REMARK VINA RESULT:     -10.6      4.647      9.438
REMARK SMILES O=C(OCCOC(=O)[C@@H]1CCc2[nH]ncc2C1)c1ccc(-c2c3nc(c(-c4c(F)cccc4F)c4ccc([nH]4)c(-c4c(F)cccc4F)c4nc(c(-c5c(F)cccc5F)c5ccc2[nH]5)C=C4)C=C3)cc1
REMARK SMILES IDX 4 1 3 2 2 3 1 4 18 5 19 6 71 7 20 8 70 9 21 10 22 11 23 12
REMARK SMILES IDX 64 13 24 14 69 15 63 16 65 17 25 18 68 19 62 20 61 21 26 23
REMARK SMILES IDX 52 24 35 25 51 26 36 27 39 28 50 29 66 30 37 31 38 32 49 34
REMARK SMILES IDX 67 35 40 36 27 37 28 38 33 39 29 40 30 41 32 42 34 43 31 44
REMARK SMILES IDX 53 45 54 46 59 47 55 48 56 49 58 50 60 51 57 52 41 53 42 54
REMARK SMILES IDX 47 55 43 56 44 57 46 58 48 59 45 60 5 61 6 62 7 63 8 64 9 65
REMARK SMILES IDX 10 66 17 67 11 68 16 69 12 70 15 71 13 72 14 73
REMARK H PARENT 65 22 39 33 13 74
REMARK Flexibility Score: inf
ROOT
ATOM      1  C   UNL A   1      43.926  21.629  25.033  1.00  0.00     0.275 C 
ENDROOT
BRANCH   1   2
ATOM      2  O   UNL A   1      43.472  22.925  24.626  1.00  0.00    -0.458 OA
BRANCH   2   3
ATOM      3  C   UNL A   1      43.920  24.141  25.009  1.00  0.00     0.338 C 
ATOM      4  O   UNL A   1      45.013  24.515  24.581  1.00  0.00    -0.246 OA
BRANCH   3   5
ATOM      5  C   UNL A   1      43.246  25.004  26.038  1.00  0.00     0.060 A 
ATOM      6  C   UNL A   1      42.252  24.631  26.955  1.00  0.00     0.016 A 
ATOM      7  C   UNL A   1      43.727  26.321  26.110  1.00  0.00     0.016 A 
ATOM      8  C   UNL A   1      41.853  25.485  27.998  1.00  0.00     0.010 A 
ATOM      9  C   UNL A   1      43.337  27.169  27.143  1.00  0.00     0.010 A 
ATOM     10  C   UNL A   1      42.424  26.747  28.123  1.00  0.00    -0.014 A 
BRANCH  10  11
ATOM     11  C   UNL A   1      42.005  27.722  29.160  1.00  0.00     0.031 A 
ATOM     12  C   UNL A   1      42.643  27.582  30.507  1.00  0.00     0.074 A 
ATOM     13  C   UNL A   1      40.992  28.590  28.972  1.00  0.00     0.049 A 
ATOM     14  N   UNL A   1      42.293  28.087  31.658  1.00  0.00    -0.248 NA
ATOM     15  C   UNL A   1      43.811  26.683  30.565  1.00  0.00     0.031 C 
ATOM     16  C   UNL A   1      40.272  28.818  27.720  1.00  0.00     0.029 A 
ATOM     17  N   UNL A   1      40.340  29.396  29.875  1.00  0.00    -0.354 N 
ATOM     18  C   UNL A   1      43.178  27.541  32.574  1.00  0.00     0.074 A 
ATOM     19  C   UNL A   1      43.994  26.581  31.868  1.00  0.00     0.031 C 
ATOM     20  C   UNL A   1      39.226  29.632  27.952  1.00  0.00     0.029 A 
ATOM     21  C   UNL A   1      39.206  29.989  29.367  1.00  0.00     0.049 A 
ATOM     22  H   UNL A   1      40.655  29.537  30.799  1.00  0.00     0.167 HD
ATOM     23  C   UNL A   1      43.344  27.854  33.879  1.00  0.00     0.037 A 
ATOM     24  C   UNL A   1      38.254  30.716  29.986  1.00  0.00     0.037 A 
ATOM     25  C   UNL A   1      42.552  28.832  34.563  1.00  0.00     0.049 A 
ATOM     26  C   UNL A   1      38.418  31.036  31.451  1.00  0.00     0.074 A 
ATOM     27  C   UNL A   1      42.677  29.301  35.855  1.00  0.00     0.029 A 
ATOM     28  N   UNL A   1      41.472  29.492  33.991  1.00  0.00    -0.354 N 
ATOM     29  N   UNL A   1      39.336  30.619  32.290  1.00  0.00    -0.248 NA
ATOM     30  C   UNL A   1      37.443  31.962  32.047  1.00  0.00     0.031 C 
ATOM     31  C   UNL A   1      41.654  30.230  36.075  1.00  0.00     0.029 A 
ATOM     32  C   UNL A   1      40.918  30.365  34.906  1.00  0.00     0.049 A 
ATOM     33  H   UNL A   1      41.149  29.357  33.071  1.00  0.00     0.167 HD
ATOM     34  C   UNL A   1      39.091  31.280  33.489  1.00  0.00     0.074 A 
ATOM     35  C   UNL A   1      37.921  32.106  33.277  1.00  0.00     0.031 C 
ATOM     36  C   UNL A   1      39.787  31.222  34.651  1.00  0.00     0.037 A 
BRANCH  23  37
ATOM     37  C   UNL A   1      44.445  27.130  34.592  1.00  0.00     0.057 A 
ATOM     38  C   UNL A   1      44.200  25.936  35.291  1.00  0.00     0.134 A 
ATOM     39  C   UNL A   1      45.725  27.685  34.689  1.00  0.00     0.134 A 
ATOM     40  F   UNL A   1      42.985  25.366  35.257  1.00  0.00    -0.206 F 
ATOM     41  C   UNL A   1      45.161  25.369  36.126  1.00  0.00     0.040 A 
ATOM     42  C   UNL A   1      46.707  27.104  35.493  1.00  0.00     0.040 A 
ATOM     43  F   UNL A   1      46.028  28.820  34.042  1.00  0.00    -0.206 F 
ATOM     44  C   UNL A   1      46.419  25.959  36.233  1.00  0.00     0.006 A 
ENDBRANCH  23  37
BRANCH  24  45
ATOM     45  C   UNL A   1      37.090  31.242  29.224  1.00  0.00     0.057 A 
ATOM     46  C   UNL A   1      35.990  30.425  28.936  1.00  0.00     0.134 A 
ATOM     47  C   UNL A   1      37.057  32.555  28.738  1.00  0.00     0.134 A 
ATOM     48  F   UNL A   1      35.969  29.152  29.359  1.00  0.00    -0.206 F 
ATOM     49  C   UNL A   1      34.913  30.882  28.173  1.00  0.00     0.040 A 
ATOM     50  C   UNL A   1      35.978  33.030  27.984  1.00  0.00     0.040 A 
ATOM     51  F   UNL A   1      38.068  33.400  28.981  1.00  0.00    -0.206 F 
ATOM     52  C   UNL A   1      34.905  32.190  27.695  1.00  0.00     0.006 A 
ENDBRANCH  24  45
BRANCH  36  53
ATOM     53  C   UNL A   1      39.383  32.145  35.759  1.00  0.00     0.057 A 
ATOM     54  C   UNL A   1      39.842  33.463  35.838  1.00  0.00     0.134 A 
ATOM     55  C   UNL A   1      38.413  31.737  36.686  1.00  0.00     0.134 A 
ATOM     56  F   UNL A   1      40.778  33.910  34.987  1.00  0.00    -0.206 F 
ATOM     57  C   UNL A   1      39.342  34.349  36.794  1.00  0.00     0.040 A 
ATOM     58  C   UNL A   1      37.889  32.617  37.630  1.00  0.00     0.040 A 
ATOM     59  F   UNL A   1      37.929  30.485  36.657  1.00  0.00    -0.206 F 
ATOM     60  C   UNL A   1      38.351  33.931  37.683  1.00  0.00     0.006 A 
ENDBRANCH  36  53
ENDBRANCH  10  11
ENDBRANCH   3   5
ENDBRANCH   2   3
ENDBRANCH   1   2
BRANCH   1  61
ATOM     61  C   UNL A   1      43.078  20.990  26.138  1.00  0.00     0.274 C 
BRANCH  61  62
ATOM     62  O   UNL A   1      41.708  20.757  25.749  1.00  0.00    -0.462 OA
BRANCH  62  63
ATOM     63  C   UNL A   1      40.752  21.171  26.622  1.00  0.00     0.309 C 
ATOM     64  O   UNL A   1      40.711  20.834  27.805  1.00  0.00    -0.252 OA
BRANCH  63  65
ATOM     65  C   UNL A   1      39.669  22.047  26.009  1.00  0.00     0.104 C 
ATOM     66  C   UNL A   1      39.250  23.143  27.022  1.00  0.00     0.022 C 
ATOM     67  C   UNL A   1      38.444  21.286  25.472  1.00  0.00     0.054 C 
ATOM     68  C   UNL A   1      38.305  24.190  26.396  1.00  0.00     0.057 C 
ATOM     69  C   UNL A   1      37.314  22.202  25.157  1.00  0.00    -0.006 A 
ATOM     70  C   UNL A   1      37.261  23.497  25.611  1.00  0.00     0.038 A 
ATOM     71  C   UNL A   1      36.110  22.036  24.448  1.00  0.00     0.138 A 
ATOM     72  N   UNL A   1      36.076  24.014  25.181  1.00  0.00    -0.282 N 
ATOM     73  N   UNL A   1      35.371  23.148  24.437  1.00  0.00    -0.184 NA
ATOM     74  H   UNL A   1      35.771  24.926  25.394  1.00  0.00     0.190 HD
ENDBRANCH  63  65
ENDBRANCH  62  63
ENDBRANCH  61  62
ENDBRANCH   1  61
TORSDOF 11
ENDMDL
MODEL 3
REMARK VINA RESULT:     -10.6      4.761      9.624
REMARK SMILES O=C(OCCOC(=O)[C@@H]1CCc2[nH]ncc2C1)c1ccc(-c2c3nc(c(-c4c(F)cccc4F)c4ccc([nH]4)c(-c4c(F)cccc4F)c4nc(c(-c5c(F)cccc5F)c5ccc2[nH]5)C=C4)C=C3)cc1
REMARK SMILES IDX 4 1 3 2 2 3 1 4 18 5 19 6 71 7 20 8 70 9 21 10 22 11 23 12
REMARK SMILES IDX 64 13 24 14 69 15 63 16 65 17 25 18 68 19 62 20 61 21 26 23
REMARK SMILES IDX 52 24 35 25 51 26 36 27 39 28 50 29 66 30 37 31 38 32 49 34
REMARK SMILES IDX 67 35 40 36 27 37 28 38 33 39 29 40 30 41 32 42 34 43 31 44
REMARK SMILES IDX 53 45 54 46 59 47 55 48 56 49 58 50 60 51 57 52 41 53 42 54
REMARK SMILES IDX 47 55 43 56 44 57 46 58 48 59 45 60 5 61 6 62 7 63 8 64 9 65
REMARK SMILES IDX 10 66 17 67 11 68 16 69 12 70 15 71 13 72 14 73
REMARK H PARENT 65 22 39 33 13 74
REMARK Flexibility Score: inf
ROOT
ATOM      1  C   UNL A   1      44.022  21.854  24.955  1.00  0.00     0.275 C 
ENDROOT
BRANCH   1   2
ATOM      2  O   UNL A   1      43.708  23.176  24.501  1.00  0.00    -0.458 OA
BRANCH   2   3
ATOM      3  C   UNL A   1      44.163  24.363  24.962  1.00  0.00     0.338 C 
ATOM      4  O   UNL A   1      45.293  24.718  24.622  1.00  0.00    -0.246 OA
BRANCH   3   5
ATOM      5  C   UNL A   1      43.446  25.207  25.977  1.00  0.00     0.060 A 
ATOM      6  C   UNL A   1      42.361  24.841  26.787  1.00  0.00     0.016 A 
ATOM      7  C   UNL A   1      43.981  26.492  26.159  1.00  0.00     0.016 A 
ATOM      8  C   UNL A   1      41.915  25.661  27.838  1.00  0.00     0.010 A 
ATOM      9  C   UNL A   1      43.544  27.307  27.201  1.00  0.00     0.010 A 
ATOM     10  C   UNL A   1      42.533  26.884  28.078  1.00  0.00    -0.014 A 
BRANCH  10  11
ATOM     11  C   UNL A   1      42.074  27.826  29.128  1.00  0.00     0.031 A 
ATOM     12  C   UNL A   1      42.683  27.664  30.485  1.00  0.00     0.074 A 
ATOM     13  C   UNL A   1      41.051  28.683  28.937  1.00  0.00     0.049 A 
ATOM     14  N   UNL A   1      42.297  28.134  31.640  1.00  0.00    -0.248 NA
ATOM     15  C   UNL A   1      43.863  26.783  30.549  1.00  0.00     0.031 C 
ATOM     16  C   UNL A   1      40.357  28.930  27.674  1.00  0.00     0.029 A 
ATOM     17  N   UNL A   1      40.366  29.456  29.844  1.00  0.00    -0.354 N 
ATOM     18  C   UNL A   1      43.170  27.581  32.563  1.00  0.00     0.074 A 
ATOM     19  C   UNL A   1      44.019  26.651  31.853  1.00  0.00     0.031 C 
ATOM     20  C   UNL A   1      39.293  29.721  27.901  1.00  0.00     0.029 A 
ATOM     21  C   UNL A   1      39.234  30.043  29.324  1.00  0.00     0.049 A 
ATOM     22  H   UNL A   1      40.657  29.580  30.777  1.00  0.00     0.167 HD
ATOM     23  C   UNL A   1      43.301  27.865  33.879  1.00  0.00     0.037 A 
ATOM     24  C   UNL A   1      38.255  30.739  29.937  1.00  0.00     0.037 A 
ATOM     25  C   UNL A   1      42.476  28.813  34.567  1.00  0.00     0.049 A 
ATOM     26  C   UNL A   1      38.381  31.026  31.413  1.00  0.00     0.074 A 
ATOM     27  C   UNL A   1      42.564  29.252  35.873  1.00  0.00     0.029 A 
ATOM     28  N   UNL A   1      41.399  29.469  33.986  1.00  0.00    -0.354 N 
ATOM     29  N   UNL A   1      39.285  30.603  32.263  1.00  0.00    -0.248 NA
ATOM     30  C   UNL A   1      37.376  31.921  32.008  1.00  0.00     0.031 C 
ATOM     31  C   UNL A   1      41.521  30.159  36.091  1.00  0.00     0.029 A 
ATOM     32  C   UNL A   1      40.810  30.311  34.909  1.00  0.00     0.049 A 
ATOM     33  H   UNL A   1      41.100  29.351  33.056  1.00  0.00     0.167 HD
ATOM     34  C   UNL A   1      39.002  31.230  33.471  1.00  0.00     0.074 A 
ATOM     35  C   UNL A   1      37.823  32.043  33.251  1.00  0.00     0.031 C 
ATOM     36  C   UNL A   1      39.671  31.155  34.647  1.00  0.00     0.037 A 
BRANCH  23  37
ATOM     37  C   UNL A   1      44.396  27.141  34.600  1.00  0.00     0.057 A 
ATOM     38  C   UNL A   1      45.707  27.647  34.632  1.00  0.00     0.134 A 
ATOM     39  C   UNL A   1      44.178  25.876  35.156  1.00  0.00     0.134 A 
ATOM     40  F   UNL A   1      45.987  28.844  34.093  1.00  0.00    -0.206 F 
ATOM     41  C   UNL A   1      46.771  26.886  35.114  1.00  0.00     0.040 A 
ATOM     42  C   UNL A   1      45.230  25.123  35.676  1.00  0.00     0.040 A 
ATOM     43  F   UNL A   1      42.950  25.337  35.164  1.00  0.00    -0.206 F 
ATOM     44  C   UNL A   1      46.533  25.616  35.634  1.00  0.00     0.006 A 
ENDBRANCH  23  37
BRANCH  24  45
ATOM     45  C   UNL A   1      37.101  31.266  29.161  1.00  0.00     0.057 A 
ATOM     46  C   UNL A   1      37.082  32.592  28.713  1.00  0.00     0.134 A 
ATOM     47  C   UNL A   1      35.980  30.476  28.874  1.00  0.00     0.134 A 
ATOM     48  F   UNL A   1      38.118  33.404  28.970  1.00  0.00    -0.206 F 
ATOM     49  C   UNL A   1      35.984  33.123  28.031  1.00  0.00     0.040 A 
ATOM     50  C   UNL A   1      34.880  30.992  28.181  1.00  0.00     0.040 A 
ATOM     51  F   UNL A   1      35.929  29.195  29.262  1.00  0.00    -0.206 F 
ATOM     52  C   UNL A   1      34.877  32.321  27.763  1.00  0.00     0.006 A 
ENDBRANCH  24  45
BRANCH  36  53
ATOM     53  C   UNL A   1      39.227  32.045  35.768  1.00  0.00     0.057 A 
ATOM     54  C   UNL A   1      39.614  33.385  35.856  1.00  0.00     0.134 A 
ATOM     55  C   UNL A   1      38.288  31.575  36.698  1.00  0.00     0.134 A 
ATOM     56  F   UNL A   1      40.517  33.890  35.003  1.00  0.00    -0.206 F 
ATOM     57  C   UNL A   1      39.073  34.233  36.825  1.00  0.00     0.040 A 
ATOM     58  C   UNL A   1      37.724  32.416  37.655  1.00  0.00     0.040 A 
ATOM     59  F   UNL A   1      37.873  30.299  36.660  1.00  0.00    -0.206 F 
ATOM     60  C   UNL A   1      38.114  33.753  37.717  1.00  0.00     0.006 A 
ENDBRANCH  36  53
ENDBRANCH  10  11
ENDBRANCH   3   5
ENDBRANCH   2   3
ENDBRANCH   1   2
BRANCH   1  61
ATOM     61  C   UNL A   1      43.202  21.401  26.167  1.00  0.00     0.274 C 
BRANCH  61  62
ATOM     62  O   UNL A   1      42.065  20.583  25.818  1.00  0.00    -0.462 OA
BRANCH  62  63
ATOM     63  C   UNL A   1      40.956  20.726  26.593  1.00  0.00     0.309 C 
ATOM     64  O   UNL A   1      40.758  20.089  27.628  1.00  0.00    -0.252 OA
BRANCH  63  65
ATOM     65  C   UNL A   1      39.920  21.697  26.049  1.00  0.00     0.104 C 
ATOM     66  C   UNL A   1      39.638  22.801  27.099  1.00  0.00     0.022 C 
ATOM     67  C   UNL A   1      38.615  21.048  25.557  1.00  0.00     0.054 C 
ATOM     68  C   UNL A   1      38.752  23.933  26.537  1.00  0.00     0.057 C 
ATOM     69  C   UNL A   1      37.549  22.057  25.312  1.00  0.00    -0.006 A 
ATOM     70  C   UNL A   1      37.621  23.342  25.791  1.00  0.00     0.038 A 
ATOM     71  C   UNL A   1      36.304  22.001  24.659  1.00  0.00     0.138 A 
ATOM     72  N   UNL A   1      36.462  23.960  25.428  1.00  0.00    -0.282 N 
ATOM     73  N   UNL A   1      35.656  23.168  24.703  1.00  0.00    -0.184 NA
ATOM     74  H   UNL A   1      36.241  24.888  25.670  1.00  0.00     0.190 HD
ENDBRANCH  63  65
ENDBRANCH  62  63
ENDBRANCH  61  62
ENDBRANCH   1  61
TORSDOF 11
ENDMDL
