MODEL 1
REMARK VINA RESULT:     -11.7      0.000      0.000
REMARK SMILES O=C(OCCOC(=O)c1cc(S(=O)(=O)Cc2cccc(O)c2)ccc1F)c1ccc(-c2c3nc(c(-c4c(F)cccc4F)c4ccc([nH]4)c(-c4c(F)cccc4F)c4nc(c(-c5c(F)cccc5F)c5ccc2[nH]5)C=C4)C=C3)cc1
REMARK SMILES IDX 5 1 4 2 3 3 2 4 1 5 27 6 28 7 80 8 29 9 79 10 30 11 31 12
REMARK SMILES IDX 32 13 73 14 33 15 78 16 72 17 74 18 34 19 77 20 71 21 70 22
REMARK SMILES IDX 35 24 61 25 44 26 60 27 45 28 48 29 59 30 75 31 46 32 47 33
REMARK SMILES IDX 58 35 76 36 49 37 36 38 37 39 42 40 38 41 39 42 41 43 43 44
REMARK SMILES IDX 40 45 62 46 63 47 68 48 64 49 65 50 67 51 69 52 66 53 50 54
REMARK SMILES IDX 51 55 56 56 52 57 53 58 55 59 57 60 54 61 6 62 7 63 8 64
REMARK SMILES IDX 9 65 10 66 25 67 11 68 24 69 26 70 23 71 12 72 13 73 14 74
REMARK SMILES IDX 15 75 16 76 17 77 22 78 18 79 20 80 19 81 21 82
REMARK H PARENT 74 23 48 34 21 83
REMARK Flexibility Score: inf
ROOT
ATOM      1  C   UNL A   1      38.106  20.938  25.365  1.00  0.00     0.275 C 
ENDROOT
BRANCH   1   2
ATOM      2  C   UNL A   1      38.668  19.593  24.896  1.00  0.00     0.275 C 
BRANCH   2   3
ATOM      3  O   UNL A   1      39.698  19.038  25.731  1.00  0.00    -0.458 OA
BRANCH   3   4
ATOM      4  C   UNL A   1      40.966  19.449  25.959  1.00  0.00     0.338 C 
ATOM      5  O   UNL A   1      41.886  18.665  25.729  1.00  0.00    -0.246 OA
BRANCH   4   6
ATOM      6  C   UNL A   1      41.321  20.763  26.588  1.00  0.00     0.060 A 
ATOM      7  C   UNL A   1      41.273  21.070  27.948  1.00  0.00     0.016 A 
ATOM      8  C   UNL A   1      41.755  21.772  25.711  1.00  0.00     0.016 A 
ATOM      9  C   UNL A   1      41.727  22.302  28.426  1.00  0.00     0.010 A 
ATOM     10  C   UNL A   1      42.233  22.999  26.183  1.00  0.00     0.010 A 
ATOM     11  C   UNL A   1      42.219  23.270  27.550  1.00  0.00    -0.014 A 
BRANCH  11  12
ATOM     12  C   UNL A   1      42.554  24.610  28.078  1.00  0.00     0.031 A 
ATOM     13  C   UNL A   1      44.000  24.957  28.273  1.00  0.00     0.074 A 
ATOM     14  C   UNL A   1      41.588  25.525  28.279  1.00  0.00     0.049 A 
ATOM     15  N   UNL A   1      44.532  26.096  28.629  1.00  0.00    -0.248 NA
ATOM     16  C   UNL A   1      44.980  23.888  28.011  1.00  0.00     0.031 C 
ATOM     17  C   UNL A   1      40.156  25.292  28.093  1.00  0.00     0.029 A 
ATOM     18  N   UNL A   1      41.660  26.838  28.674  1.00  0.00    -0.354 N 
ATOM     19  C   UNL A   1      45.905  25.892  28.569  1.00  0.00     0.074 A 
ATOM     20  C   UNL A   1      46.127  24.504  28.246  1.00  0.00     0.031 C 
ATOM     21  C   UNL A   1      39.480  26.412  28.401  1.00  0.00     0.029 A 
ATOM     22  C   UNL A   1      40.431  27.442  28.802  1.00  0.00     0.049 A 
ATOM     23  H   UNL A   1      42.510  27.302  28.848  1.00  0.00     0.167 HD
ATOM     24  C   UNL A   1      46.894  26.801  28.714  1.00  0.00     0.037 A 
ATOM     25  C   UNL A   1      40.117  28.692  29.193  1.00  0.00     0.037 A 
ATOM     26  C   UNL A   1      46.665  28.180  29.038  1.00  0.00     0.049 A 
ATOM     27  C   UNL A   1      41.242  29.646  29.494  1.00  0.00     0.074 A 
ATOM     28  C   UNL A   1      47.594  29.181  29.249  1.00  0.00     0.029 A 
ATOM     29  N   UNL A   1      45.411  28.749  29.193  1.00  0.00    -0.354 N 
ATOM     30  N   UNL A   1      42.537  29.444  29.421  1.00  0.00    -0.248 NA
ATOM     31  C   UNL A   1      40.869  31.006  29.908  1.00  0.00     0.031 C 
ATOM     32  C   UNL A   1      46.901  30.346  29.586  1.00  0.00     0.029 A 
ATOM     33  C   UNL A   1      45.540  30.082  29.534  1.00  0.00     0.049 A 
ATOM     34  H   UNL A   1      44.556  28.275  29.077  1.00  0.00     0.167 HD
ATOM     35  C   UNL A   1      43.130  30.662  29.728  1.00  0.00     0.074 A 
ATOM     36  C   UNL A   1      42.054  31.594  29.993  1.00  0.00     0.031 C 
ATOM     37  C   UNL A   1      44.445  30.985  29.779  1.00  0.00     0.037 A 
BRANCH  24  38
ATOM     38  C   UNL A   1      48.300  26.328  28.511  1.00  0.00     0.057 A 
ATOM     39  C   UNL A   1      48.905  26.396  27.251  1.00  0.00     0.134 A 
ATOM     40  C   UNL A   1      49.045  25.777  29.562  1.00  0.00     0.134 A 
ATOM     41  F   UNL A   1      48.246  26.922  26.208  1.00  0.00    -0.206 F 
ATOM     42  C   UNL A   1      50.199  25.918  27.040  1.00  0.00     0.040 A 
ATOM     43  C   UNL A   1      50.347  25.315  29.368  1.00  0.00     0.040 A 
ATOM     44  F   UNL A   1      48.527  25.707  30.798  1.00  0.00    -0.206 F 
ATOM     45  C   UNL A   1      50.924  25.377  28.101  1.00  0.00     0.006 A 
ENDBRANCH  24  38
BRANCH  25  46
ATOM     46  C   UNL A   1      38.697  29.120  29.295  1.00  0.00     0.057 A 
ATOM     47  C   UNL A   1      37.988  29.018  30.500  1.00  0.00     0.134 A 
ATOM     48  C   UNL A   1      38.017  29.661  28.198  1.00  0.00     0.134 A 
ATOM     49  F   UNL A   1      38.573  28.499  31.589  1.00  0.00    -0.206 F 
ATOM     50  C   UNL A   1      36.660  29.438  30.609  1.00  0.00     0.040 A 
ATOM     51  C   UNL A   1      36.696  30.107  28.298  1.00  0.00     0.040 A 
ATOM     52  F   UNL A   1      38.642  29.800  27.019  1.00  0.00    -0.206 F 
ATOM     53  C   UNL A   1      36.013  29.993  29.506  1.00  0.00     0.006 A 
ENDBRANCH  25  46
BRANCH  37  54
ATOM     54  C   UNL A   1      44.796  32.405  30.106  1.00  0.00     0.057 A 
ATOM     55  C   UNL A   1      44.925  33.358  29.088  1.00  0.00     0.134 A 
ATOM     56  C   UNL A   1      45.093  32.806  31.414  1.00  0.00     0.134 A 
ATOM     57  F   UNL A   1      44.668  33.031  27.813  1.00  0.00    -0.206 F 
ATOM     58  C   UNL A   1      45.352  34.657  29.357  1.00  0.00     0.040 A 
ATOM     59  C   UNL A   1      45.493  34.110  31.701  1.00  0.00     0.040 A 
ATOM     60  F   UNL A   1      44.981  31.938  32.432  1.00  0.00    -0.206 F 
ATOM     61  C   UNL A   1      45.636  35.037  30.669  1.00  0.00     0.006 A 
ENDBRANCH  37  54
ENDBRANCH  11  12
ENDBRANCH   4   6
ENDBRANCH   3   4
ENDBRANCH   2   3
ENDBRANCH   1   2
BRANCH   1  62
ATOM     62  O   UNL A   1      37.270  21.595  24.400  1.00  0.00    -0.458 OA
BRANCH  62  63
ATOM     63  C   UNL A   1      35.934  21.495  24.621  1.00  0.00     0.341 C 
ATOM     64  O   UNL A   1      35.312  20.484  24.900  1.00  0.00    -0.246 OA
BRANCH  63  65
ATOM     65  C   UNL A   1      35.310  22.825  24.562  1.00  0.00     0.097 A 
ATOM     66  C   UNL A   1      34.660  23.252  23.393  1.00  0.00     0.039 A 
ATOM     67  C   UNL A   1      35.399  23.681  25.656  1.00  0.00     0.137 A 
ATOM     68  C   UNL A   1      34.068  24.526  23.347  1.00  0.00     0.068 A 
ATOM     69  C   UNL A   1      34.880  24.970  25.580  1.00  0.00     0.041 A 
ATOM     70  F   UNL A   1      35.998  23.295  26.790  1.00  0.00    -0.206 F 
ATOM     71  C   UNL A   1      34.235  25.401  24.418  1.00  0.00     0.023 A 
BRANCH  68  72
ATOM     72  S   UNL A   1      33.118  24.966  21.896  1.00  0.00     0.182 S 
ATOM     73  O   UNL A   1      33.556  26.314  21.581  1.00  0.00    -0.223 OA
ATOM     74  O   UNL A   1      33.312  23.899  20.931  1.00  0.00    -0.223 OA
BRANCH  72  75
ATOM     75  C   UNL A   1      31.383  25.070  22.285  1.00  0.00     0.177 C 
BRANCH  75  76
ATOM     76  C   UNL A   1      31.014  24.674  23.697  1.00  0.00    -0.029 A 
ATOM     77  C   UNL A   1      30.687  25.651  24.655  1.00  0.00     0.005 A 
ATOM     78  C   UNL A   1      31.110  23.347  24.134  1.00  0.00     0.051 A 
ATOM     79  C   UNL A   1      30.464  25.302  25.995  1.00  0.00     0.004 A 
ATOM     80  C   UNL A   1      30.862  23.007  25.461  1.00  0.00     0.115 A 
ATOM     81  C   UNL A   1      30.540  23.971  26.401  1.00  0.00     0.046 A 
BRANCH  80  82
ATOM     82  O   UNL A   1      30.987  21.695  25.800  1.00  0.00    -0.508 OA
ATOM     83  H   UNL A   1      31.219  21.061  25.149  1.00  0.00     0.293 HD
ENDBRANCH  80  82
ENDBRANCH  75  76
ENDBRANCH  72  75
ENDBRANCH  68  72
ENDBRANCH  63  65
ENDBRANCH  62  63
ENDBRANCH   1  62
TORSDOF 15
ENDMDL
MODEL 2
REMARK VINA RESULT:     -11.6      4.575      9.365
REMARK SMILES O=C(OCCOC(=O)c1cc(S(=O)(=O)Cc2cccc(O)c2)ccc1F)c1ccc(-c2c3nc(c(-c4c(F)cccc4F)c4ccc([nH]4)c(-c4c(F)cccc4F)c4nc(c(-c5c(F)cccc5F)c5ccc2[nH]5)C=C4)C=C3)cc1
REMARK SMILES IDX 5 1 4 2 3 3 2 4 1 5 27 6 28 7 80 8 29 9 79 10 30 11 31 12
REMARK SMILES IDX 32 13 73 14 33 15 78 16 72 17 74 18 34 19 77 20 71 21 70 22
REMARK SMILES IDX 35 24 61 25 44 26 60 27 45 28 48 29 59 30 75 31 46 32 47 33
REMARK SMILES IDX 58 35 76 36 49 37 36 38 37 39 42 40 38 41 39 42 41 43 43 44
REMARK SMILES IDX 40 45 62 46 63 47 68 48 64 49 65 50 67 51 69 52 66 53 50 54
REMARK SMILES IDX 51 55 56 56 52 57 53 58 55 59 57 60 54 61 6 62 7 63 8 64
REMARK SMILES IDX 9 65 10 66 25 67 11 68 24 69 26 70 23 71 12 72 13 73 14 74
REMARK SMILES IDX 15 75 16 76 17 77 22 78 18 79 20 80 19 81 21 82
REMARK H PARENT 74 23 48 34 21 83
REMARK Flexibility Score: inf
ROOT
ATOM      1  C   UNL A   1      32.540  30.963  26.750  1.00  0.00     0.275 C 
ENDROOT
BRANCH   1   2
ATOM      2  C   UNL A   1      31.578  32.134  26.969  1.00  0.00     0.275 C 
BRANCH   2   3
ATOM      3  O   UNL A   1      32.204  33.424  27.076  1.00  0.00    -0.458 OA
BRANCH   3   4
ATOM      4  C   UNL A   1      32.916  33.978  28.084  1.00  0.00     0.338 C 
ATOM      5  O   UNL A   1      32.536  35.051  28.550  1.00  0.00    -0.246 OA
BRANCH   4   6
ATOM      6  C   UNL A   1      34.213  33.426  28.595  1.00  0.00     0.060 A 
ATOM      7  C   UNL A   1      35.493  33.811  28.194  1.00  0.00     0.016 A 
ATOM      8  C   UNL A   1      34.116  32.431  29.583  1.00  0.00     0.016 A 
ATOM      9  C   UNL A   1      36.630  33.295  28.818  1.00  0.00     0.010 A 
ATOM     10  C   UNL A   1      35.249  31.926  30.229  1.00  0.00     0.010 A 
ATOM     11  C   UNL A   1      36.518  32.358  29.845  1.00  0.00    -0.014 A 
BRANCH  11  12
ATOM     12  C   UNL A   1      37.745  31.729  30.379  1.00  0.00     0.031 A 
ATOM     13  C   UNL A   1      38.171  32.075  31.775  1.00  0.00     0.074 A 
ATOM     14  C   UNL A   1      38.401  30.795  29.666  1.00  0.00     0.049 A 
ATOM     15  N   UNL A   1      39.151  31.577  32.483  1.00  0.00    -0.248 NA
ATOM     16  C   UNL A   1      37.378  33.099  32.478  1.00  0.00     0.031 C 
ATOM     17  C   UNL A   1      38.049  30.372  28.311  1.00  0.00     0.029 A 
ATOM     18  N   UNL A   1      39.492  30.025  29.979  1.00  0.00    -0.354 N 
ATOM     19  C   UNL A   1      39.044  32.183  33.729  1.00  0.00     0.074 A 
ATOM     20  C   UNL A   1      37.980  33.154  33.654  1.00  0.00     0.031 C 
ATOM     21  C   UNL A   1      38.924  29.441  27.895  1.00  0.00     0.029 A 
ATOM     22  C   UNL A   1      39.895  29.198  28.956  1.00  0.00     0.049 A 
ATOM     23  H   UNL A   1      39.943  30.060  30.854  1.00  0.00     0.167 HD
ATOM     24  C   UNL A   1      39.739  31.911  34.856  1.00  0.00     0.037 A 
ATOM     25  C   UNL A   1      40.929  28.338  28.893  1.00  0.00     0.037 A 
ATOM     26  C   UNL A   1      40.798  30.946  34.922  1.00  0.00     0.049 A 
ATOM     27  C   UNL A   1      41.782  28.161  30.121  1.00  0.00     0.074 A 
ATOM     28  C   UNL A   1      41.597  30.616  36.001  1.00  0.00     0.029 A 
ATOM     29  N   UNL A   1      41.201  30.151  33.860  1.00  0.00    -0.354 N 
ATOM     30  N   UNL A   1      41.662  28.732  31.297  1.00  0.00    -0.248 NA
ATOM     31  C   UNL A   1      42.897  27.209  30.026  1.00  0.00     0.031 C 
ATOM     32  C   UNL A   1      42.521  29.659  35.573  1.00  0.00     0.029 A 
ATOM     33  C   UNL A   1      42.263  29.357  34.245  1.00  0.00     0.049 A 
ATOM     34  H   UNL A   1      40.791  30.153  32.965  1.00  0.00     0.167 HD
ATOM     35  C   UNL A   1      42.651  28.170  32.095  1.00  0.00     0.074 A 
ATOM     36  C   UNL A   1      43.363  27.218  31.267  1.00  0.00     0.031 C 
ATOM     37  C   UNL A   1      42.941  28.410  33.397  1.00  0.00     0.037 A 
BRANCH  24  38
ATOM     38  C   UNL A   1      39.361  32.658  36.097  1.00  0.00     0.057 A 
ATOM     39  C   UNL A   1      38.411  32.141  36.985  1.00  0.00     0.134 A 
ATOM     40  C   UNL A   1      39.919  33.908  36.396  1.00  0.00     0.134 A 
ATOM     41  F   UNL A   1      37.848  30.945  36.758  1.00  0.00    -0.206 F 
ATOM     42  C   UNL A   1      38.019  32.849  38.121  1.00  0.00     0.040 A 
ATOM     43  C   UNL A   1      39.550  34.615  37.540  1.00  0.00     0.040 A 
ATOM     44  F   UNL A   1      40.852  34.445  35.595  1.00  0.00    -0.206 F 
ATOM     45  C   UNL A   1      38.590  34.089  38.403  1.00  0.00     0.006 A 
ENDBRANCH  24  38
BRANCH  25  46
ATOM     46  C   UNL A   1      41.198  27.566  27.651  1.00  0.00     0.057 A 
ATOM     47  C   UNL A   1      41.991  28.091  26.622  1.00  0.00     0.134 A 
ATOM     48  C   UNL A   1      40.687  26.276  27.469  1.00  0.00     0.134 A 
ATOM     49  F   UNL A   1      42.505  29.326  26.725  1.00  0.00    -0.206 F 
ATOM     50  C   UNL A   1      42.266  27.364  25.462  1.00  0.00     0.040 A 
ATOM     51  C   UNL A   1      40.973  25.527  26.325  1.00  0.00     0.040 A 
ATOM     52  F   UNL A   1      39.933  25.708  28.422  1.00  0.00    -0.206 F 
ATOM     53  C   UNL A   1      41.763  26.072  25.315  1.00  0.00     0.006 A 
ENDBRANCH  25  46
BRANCH  37  54
ATOM     54  C   UNL A   1      44.053  27.618  34.015  1.00  0.00     0.057 A 
ATOM     55  C   UNL A   1      45.377  28.066  33.929  1.00  0.00     0.134 A 
ATOM     56  C   UNL A   1      43.824  26.374  34.614  1.00  0.00     0.134 A 
ATOM     57  F   UNL A   1      45.661  29.244  33.353  1.00  0.00    -0.206 F 
ATOM     58  C   UNL A   1      46.437  27.297  34.403  1.00  0.00     0.040 A 
ATOM     59  C   UNL A   1      44.874  25.608  35.119  1.00  0.00     0.040 A 
ATOM     60  F   UNL A   1      42.576  25.896  34.732  1.00  0.00    -0.206 F 
ATOM     61  C   UNL A   1      46.187  26.063  35.003  1.00  0.00     0.006 A 
ENDBRANCH  37  54
ENDBRANCH  11  12
ENDBRANCH   4   6
ENDBRANCH   3   4
ENDBRANCH   2   3
ENDBRANCH   1   2
BRANCH   1  62
ATOM     62  O   UNL A   1      31.920  29.670  26.835  1.00  0.00    -0.458 OA
BRANCH  62  63
ATOM     63  C   UNL A   1      32.624  28.649  26.279  1.00  0.00     0.341 C 
ATOM     64  O   UNL A   1      33.837  28.529  26.245  1.00  0.00    -0.246 OA
BRANCH  63  65
ATOM     65  C   UNL A   1      31.705  27.618  25.773  1.00  0.00     0.097 A 
ATOM     66  C   UNL A   1      31.714  26.328  26.326  1.00  0.00     0.039 A 
ATOM     67  C   UNL A   1      30.852  27.911  24.713  1.00  0.00     0.137 A 
ATOM     68  C   UNL A   1      30.833  25.349  25.834  1.00  0.00     0.068 A 
ATOM     69  C   UNL A   1      30.036  26.919  24.177  1.00  0.00     0.041 A 
ATOM     70  F   UNL A   1      30.810  29.137  24.176  1.00  0.00    -0.206 F 
ATOM     71  C   UNL A   1      30.043  25.632  24.721  1.00  0.00     0.023 A 
BRANCH  68  72
ATOM     72  S   UNL A   1      30.769  23.770  26.671  1.00  0.00     0.182 S 
ATOM     73  O   UNL A   1      31.921  23.789  27.554  1.00  0.00    -0.223 OA
ATOM     74  O   UNL A   1      29.434  23.647  27.227  1.00  0.00    -0.223 OA
BRANCH  72  75
ATOM     75  C   UNL A   1      31.029  22.435  25.520  1.00  0.00     0.177 C 
BRANCH  75  76
ATOM     76  C   UNL A   1      32.251  22.571  24.640  1.00  0.00    -0.029 A 
ATOM     77  C   UNL A   1      33.542  22.391  25.168  1.00  0.00     0.005 A 
ATOM     78  C   UNL A   1      32.150  23.005  23.312  1.00  0.00     0.051 A 
ATOM     79  C   UNL A   1      34.682  22.636  24.389  1.00  0.00     0.004 A 
ATOM     80  C   UNL A   1      33.288  23.221  22.538  1.00  0.00     0.115 A 
ATOM     81  C   UNL A   1      34.557  23.042  23.062  1.00  0.00     0.046 A 
BRANCH  80  82
ATOM     82  O   UNL A   1      33.098  23.651  21.260  1.00  0.00    -0.508 OA
ATOM     83  H   UNL A   1      33.434  24.483  20.990  1.00  0.00     0.293 HD
ENDBRANCH  80  82
ENDBRANCH  75  76
ENDBRANCH  72  75
ENDBRANCH  68  72
ENDBRANCH  63  65
ENDBRANCH  62  63
ENDBRANCH   1  62
TORSDOF 15
ENDMDL
MODEL 3
REMARK VINA RESULT:     -11.6      4.624      9.421
REMARK SMILES O=C(OCCOC(=O)c1cc(S(=O)(=O)Cc2cccc(O)c2)ccc1F)c1ccc(-c2c3nc(c(-c4c(F)cccc4F)c4ccc([nH]4)c(-c4c(F)cccc4F)c4nc(c(-c5c(F)cccc5F)c5ccc2[nH]5)C=C4)C=C3)cc1
REMARK SMILES IDX 5 1 4 2 3 3 2 4 1 5 27 6 28 7 80 8 29 9 79 10 30 11 31 12
REMARK SMILES IDX 32 13 73 14 33 15 78 16 72 17 74 18 34 19 77 20 71 21 70 22
REMARK SMILES IDX 35 24 61 25 44 26 60 27 45 28 48 29 59 30 75 31 46 32 47 33
REMARK SMILES IDX 58 35 76 36 49 37 36 38 37 39 42 40 38 41 39 42 41 43 43 44
REMARK SMILES IDX 40 45 62 46 63 47 68 48 64 49 65 50 67 51 69 52 66 53 50 54
REMARK SMILES IDX 51 55 56 56 52 57 53 58 55 59 57 60 54 61 6 62 7 63 8 64
REMARK SMILES IDX 9 65 10 66 25 67 11 68 24 69 26 70 23 71 12 72 13 73 14 74
REMARK SMILES IDX 15 75 16 76 17 77 22 78 18 79 20 80 19 81 21 82
REMARK H PARENT 74 23 48 34 21 83
REMARK Flexibility Score: inf
ROOT
ATOM      1  C   UNL A   1      32.301  31.019  26.775  1.00  0.00     0.275 C 
ENDROOT
BRANCH   1   2
ATOM      2  C   UNL A   1      31.511  32.315  26.977  1.00  0.00     0.275 C 
BRANCH   2   3
ATOM      3  O   UNL A   1      32.309  33.505  27.088  1.00  0.00    -0.458 OA
BRANCH   3   4
ATOM      4  C   UNL A   1      32.992  34.015  28.139  1.00  0.00     0.338 C 
ATOM      5  O   UNL A   1      32.586  35.057  28.651  1.00  0.00    -0.246 OA
BRANCH   4   6
ATOM      6  C   UNL A   1      34.284  33.453  28.650  1.00  0.00     0.060 A 
ATOM      7  C   UNL A   1      35.567  33.849  28.272  1.00  0.00     0.016 A 
ATOM      8  C   UNL A   1      34.179  32.435  29.614  1.00  0.00     0.016 A 
ATOM      9  C   UNL A   1      36.699  33.320  28.895  1.00  0.00     0.010 A 
ATOM     10  C   UNL A   1      35.306  31.918  30.260  1.00  0.00     0.010 A 
ATOM     11  C   UNL A   1      36.578  32.359  29.899  1.00  0.00    -0.014 A 
BRANCH  11  12
ATOM     12  C   UNL A   1      37.801  31.721  30.432  1.00  0.00     0.031 A 
ATOM     13  C   UNL A   1      38.230  32.060  31.828  1.00  0.00     0.074 A 
ATOM     14  C   UNL A   1      38.449  30.784  29.715  1.00  0.00     0.049 A 
ATOM     15  N   UNL A   1      39.206  31.554  32.535  1.00  0.00    -0.248 NA
ATOM     16  C   UNL A   1      37.444  33.088  32.533  1.00  0.00     0.031 C 
ATOM     17  C   UNL A   1      38.093  30.366  28.360  1.00  0.00     0.029 A 
ATOM     18  N   UNL A   1      39.534  30.004  30.027  1.00  0.00    -0.354 N 
ATOM     19  C   UNL A   1      39.105  32.157  33.782  1.00  0.00     0.074 A 
ATOM     20  C   UNL A   1      38.048  33.136  33.709  1.00  0.00     0.031 C 
ATOM     21  C   UNL A   1      38.961  29.430  27.942  1.00  0.00     0.029 A 
ATOM     22  C   UNL A   1      39.931  29.177  29.001  1.00  0.00     0.049 A 
ATOM     23  H   UNL A   1      39.986  30.034  30.901  1.00  0.00     0.167 HD
ATOM     24  C   UNL A   1      39.798  31.877  34.907  1.00  0.00     0.037 A 
ATOM     25  C   UNL A   1      40.958  28.310  28.936  1.00  0.00     0.037 A 
ATOM     26  C   UNL A   1      40.850  30.904  34.971  1.00  0.00     0.049 A 
ATOM     27  C   UNL A   1      41.811  28.124  30.163  1.00  0.00     0.074 A 
ATOM     28  C   UNL A   1      41.647  30.566  36.049  1.00  0.00     0.029 A 
ATOM     29  N   UNL A   1      41.246  30.110  33.907  1.00  0.00    -0.354 N 
ATOM     30  N   UNL A   1      41.696  28.693  31.340  1.00  0.00    -0.248 NA
ATOM     31  C   UNL A   1      42.919  27.163  30.065  1.00  0.00     0.031 C 
ATOM     32  C   UNL A   1      42.564  29.603  35.619  1.00  0.00     0.029 A 
ATOM     33  C   UNL A   1      42.303  29.306  34.290  1.00  0.00     0.049 A 
ATOM     34  H   UNL A   1      40.836  30.116  33.012  1.00  0.00     0.167 HD
ATOM     35  C   UNL A   1      42.681  28.121  32.136  1.00  0.00     0.074 A 
ATOM     36  C   UNL A   1      43.386  27.167  31.306  1.00  0.00     0.031 C 
ATOM     37  C   UNL A   1      42.973  28.356  33.439  1.00  0.00     0.037 A 
BRANCH  24  38
ATOM     38  C   UNL A   1      39.426  32.625  36.150  1.00  0.00     0.057 A 
ATOM     39  C   UNL A   1      38.460  32.121  37.029  1.00  0.00     0.134 A 
ATOM     40  C   UNL A   1      40.006  33.862  36.461  1.00  0.00     0.134 A 
ATOM     41  F   UNL A   1      37.875  30.937  36.790  1.00  0.00    -0.206 F 
ATOM     42  C   UNL A   1      38.074  32.829  38.167  1.00  0.00     0.040 A 
ATOM     43  C   UNL A   1      39.643  34.569  37.607  1.00  0.00     0.040 A 
ATOM     44  F   UNL A   1      40.955  34.385  35.669  1.00  0.00    -0.206 F 
ATOM     45  C   UNL A   1      38.667  34.056  38.460  1.00  0.00     0.006 A 
ENDBRANCH  24  38
BRANCH  25  46
ATOM     46  C   UNL A   1      41.222  27.539  27.692  1.00  0.00     0.057 A 
ATOM     47  C   UNL A   1      42.037  28.051  26.674  1.00  0.00     0.134 A 
ATOM     48  C   UNL A   1      40.682  26.262  27.497  1.00  0.00     0.134 A 
ATOM     49  F   UNL A   1      42.579  29.272  26.789  1.00  0.00    -0.206 F 
ATOM     50  C   UNL A   1      42.306  27.323  25.513  1.00  0.00     0.040 A 
ATOM     51  C   UNL A   1      40.961  25.513  26.351  1.00  0.00     0.040 A 
ATOM     52  F   UNL A   1      39.905  25.708  28.439  1.00  0.00    -0.206 F 
ATOM     53  C   UNL A   1      41.774  26.045  25.353  1.00  0.00     0.006 A 
ENDBRANCH  25  46
BRANCH  37  54
ATOM     54  C   UNL A   1      44.080  27.555  34.055  1.00  0.00     0.057 A 
ATOM     55  C   UNL A   1      43.807  26.337  34.690  1.00  0.00     0.134 A 
ATOM     56  C   UNL A   1      45.396  28.031  34.097  1.00  0.00     0.134 A 
ATOM     57  F   UNL A   1      42.563  25.836  34.696  1.00  0.00    -0.206 F 
ATOM     58  C   UNL A   1      44.802  25.628  35.361  1.00  0.00     0.040 A 
ATOM     59  C   UNL A   1      46.406  27.317  34.739  1.00  0.00     0.040 A 
ATOM     60  F   UNL A   1      45.719  29.189  33.500  1.00  0.00    -0.206 F 
ATOM     61  C   UNL A   1      46.107  26.117  35.384  1.00  0.00     0.006 A 
ENDBRANCH  37  54
ENDBRANCH  11  12
ENDBRANCH   4   6
ENDBRANCH   3   4
ENDBRANCH   2   3
ENDBRANCH   1   2
BRANCH   1  62
ATOM     62  O   UNL A   1      31.521  29.928  26.261  1.00  0.00    -0.458 OA
BRANCH  62  63
ATOM     63  C   UNL A   1      32.152  29.135  25.357  1.00  0.00     0.341 C 
ATOM     64  O   UNL A   1      33.284  29.273  24.925  1.00  0.00    -0.246 OA
BRANCH  63  65
ATOM     65  C   UNL A   1      31.299  27.990  25.005  1.00  0.00     0.097 A 
ATOM     66  C   UNL A   1      31.394  26.789  25.725  1.00  0.00     0.039 A 
ATOM     67  C   UNL A   1      30.423  28.084  23.928  1.00  0.00     0.137 A 
ATOM     68  C   UNL A   1      30.575  25.700  25.379  1.00  0.00     0.068 A 
ATOM     69  C   UNL A   1      29.670  26.980  23.539  1.00  0.00     0.041 A 
ATOM     70  F   UNL A   1      30.300  29.223  23.233  1.00  0.00    -0.206 F 
ATOM     71  C   UNL A   1      29.762  25.781  24.250  1.00  0.00     0.023 A 
BRANCH  68  72
ATOM     72  S   UNL A   1      30.617  24.245  26.420  1.00  0.00     0.182 S 
ATOM     73  O   UNL A   1      31.779  24.447  27.266  1.00  0.00    -0.223 OA
ATOM     74  O   UNL A   1      29.300  24.122  27.017  1.00  0.00    -0.223 OA
BRANCH  72  75
ATOM     75  C   UNL A   1      30.938  22.785  25.451  1.00  0.00     0.177 C 
BRANCH  75  76
ATOM     76  C   UNL A   1      32.179  22.843  24.588  1.00  0.00    -0.029 A 
ATOM     77  C   UNL A   1      33.458  22.728  25.160  1.00  0.00     0.005 A 
ATOM     78  C   UNL A   1      32.105  23.142  23.221  1.00  0.00     0.051 A 
ATOM     79  C   UNL A   1      34.615  22.904  24.385  1.00  0.00     0.004 A 
ATOM     80  C   UNL A   1      33.259  23.290  22.455  1.00  0.00     0.115 A 
ATOM     81  C   UNL A   1      34.517  23.175  23.022  1.00  0.00     0.046 A 
BRANCH  80  82
ATOM     82  O   UNL A   1      33.095  23.588  21.137  1.00  0.00    -0.508 OA
ATOM     83  H   UNL A   1      33.446  23.019  20.480  1.00  0.00     0.293 HD
ENDBRANCH  80  82
ENDBRANCH  75  76
ENDBRANCH  72  75
ENDBRANCH  68  72
ENDBRANCH  63  65
ENDBRANCH  62  63
ENDBRANCH   1  62
TORSDOF 15
ENDMDL
