MODEL 1
REMARK VINA RESULT:     -13.2      0.000      0.000
REMARK SMILES O=C(CCN1C(=O)[C@@H]2[C@@H](C1=O)[C@H]1c3ccccc3[C@]2(Br)c2ccccc21)OCCOC(=O)c1ccc(-c2c3nc(c(-c4c(F)cccc4F)c4ccc([nH]4)c(-c4c(F)cccc4F)c4nc(c(-c5c(F)cccc5F)c5ccc2[nH]5)C=C4)C=C3)cc1
REMARK SMILES IDX 28 1 27 2 2 3 1 4 3 5 4 6 5 7 6 8 10 9 7 10 8 11 9 12 11 13
REMARK SMILES IDX 19 14 12 15 21 16 20 17 18 18 26 19 13 20 22 21 17 22 25 23
REMARK SMILES IDX 14 24 23 25 16 26 24 27 15 28 29 29 30 30 31 31 32 32 33 33
REMARK SMILES IDX 34 34 86 35 35 36 85 37 36 38 37 39 38 40 79 41 39 42 84 43
REMARK SMILES IDX 78 44 80 45 40 46 83 47 77 48 76 49 41 51 67 52 50 53 66 54
REMARK SMILES IDX 51 55 54 56 65 57 81 58 52 59 53 60 64 62 82 63 55 64 42 65
REMARK SMILES IDX 43 66 48 67 44 68 45 69 47 70 49 71 46 72 68 73 69 74 74 75
REMARK SMILES IDX 70 76 71 77 73 78 75 79 72 80 56 81 57 82 62 83 58 84 59 85
REMARK SMILES IDX 61 86 63 87 60 88
REMARK H PARENT 80 50 54 61
REMARK Flexibility Score: inf
ROOT
ATOM      1  C   UNL A   1      35.614  21.376  25.640  1.00  0.00     0.274 C 
ENDROOT
BRANCH   1   2
ATOM      2  O   UNL A   1      35.363  22.605  24.934  1.00  0.00    -0.462 OA
BRANCH   2   3
ATOM      3  C   UNL A   1      35.026  22.579  23.617  1.00  0.00     0.307 C 
ATOM      4  O   UNL A   1      35.759  23.073  22.767  1.00  0.00    -0.252 OA
BRANCH   3   5
ATOM      5  C   UNL A   1      33.633  22.104  23.269  1.00  0.00     0.144 C 
BRANCH   5   6
ATOM      6  C   UNL A   1      32.870  23.032  22.329  1.00  0.00     0.140 C 
BRANCH   6   7
ATOM      7  N   UNL A   1      32.532  24.327  22.902  1.00  0.00    -0.281 N 
ATOM      8  C   UNL A   1      33.008  25.551  22.413  1.00  0.00     0.235 C 
ATOM      9  C   UNL A   1      31.764  24.520  24.048  1.00  0.00     0.234 C 
ATOM     10  O   UNL A   1      33.651  25.755  21.403  1.00  0.00    -0.274 OA
ATOM     11  C   UNL A   1      32.664  26.530  23.505  1.00  0.00     0.118 C 
ATOM     12  C   UNL A   1      31.299  25.917  23.856  1.00  0.00     0.105 C 
ATOM     13  O   UNL A   1      31.425  23.740  24.910  1.00  0.00    -0.274 OA
ATOM     14  C   UNL A   1      32.520  28.056  23.556  1.00  0.00     0.088 C 
ATOM     15  C   UNL A   1      30.481  26.822  24.766  1.00  0.00     0.063 C 
ATOM     16  C   UNL A   1      32.471  28.259  25.116  1.00  0.00    -0.022 A 
ATOM     17  Br  UNL A   1      34.027  28.918  22.727  1.00  0.00    -0.074 Br
ATOM     18  C   UNL A   1      31.139  28.498  23.031  1.00  0.00    -0.022 A 
ATOM     19  C   UNL A   1      31.402  27.530  25.736  1.00  0.00    -0.035 A 
ATOM     20  C   UNL A   1      30.044  27.894  23.741  1.00  0.00    -0.035 A 
ATOM     21  C   UNL A   1      33.356  28.961  25.928  1.00  0.00     0.006 A 
ATOM     22  C   UNL A   1      30.860  29.391  22.002  1.00  0.00     0.006 A 
ATOM     23  C   UNL A   1      31.229  27.508  27.114  1.00  0.00     0.005 A 
ATOM     24  C   UNL A   1      28.722  28.206  23.443  1.00  0.00     0.005 A 
ATOM     25  C   UNL A   1      33.179  28.932  27.318  1.00  0.00     0.000 A 
ATOM     26  C   UNL A   1      29.528  29.696  21.702  1.00  0.00     0.000 A 
ATOM     27  C   UNL A   1      32.129  28.213  27.905  1.00  0.00     0.000 A 
ATOM     28  C   UNL A   1      28.471  29.118  22.420  1.00  0.00     0.000 A 
ENDBRANCH   6   7
ENDBRANCH   5   6
ENDBRANCH   3   5
ENDBRANCH   2   3
ENDBRANCH   1   2
BRANCH   1  29
ATOM     29  C   UNL A   1      36.840  20.597  25.149  1.00  0.00     0.275 C 
BRANCH  29  30
ATOM     30  O   UNL A   1      37.991  21.440  25.064  1.00  0.00    -0.458 OA
BRANCH  30  31
ATOM     31  C   UNL A   1      38.978  21.117  25.934  1.00  0.00     0.338 C 
ATOM     32  O   UNL A   1      39.466  20.014  26.110  1.00  0.00    -0.246 OA
BRANCH  31  33
ATOM     33  C   UNL A   1      39.542  22.362  26.495  1.00  0.00     0.060 A 
ATOM     34  C   UNL A   1      40.612  22.352  27.394  1.00  0.00     0.016 A 
ATOM     35  C   UNL A   1      38.943  23.572  26.121  1.00  0.00     0.016 A 
ATOM     36  C   UNL A   1      41.112  23.561  27.880  1.00  0.00     0.010 A 
ATOM     37  C   UNL A   1      39.447  24.779  26.603  1.00  0.00     0.010 A 
ATOM     38  C   UNL A   1      40.556  24.783  27.461  1.00  0.00    -0.014 A 
BRANCH  38  39
ATOM     39  C   UNL A   1      41.259  26.055  27.753  1.00  0.00     0.031 A 
ATOM     40  C   UNL A   1      42.668  26.317  27.318  1.00  0.00     0.074 A 
ATOM     41  C   UNL A   1      40.596  26.980  28.473  1.00  0.00     0.049 A 
ATOM     42  N   UNL A   1      43.374  27.413  27.440  1.00  0.00    -0.248 NA
ATOM     43  C   UNL A   1      43.380  25.207  26.671  1.00  0.00     0.031 C 
ATOM     44  C   UNL A   1      39.239  26.819  28.999  1.00  0.00     0.029 A 
ATOM     45  N   UNL A   1      40.969  28.232  28.886  1.00  0.00    -0.354 N 
ATOM     46  C   UNL A   1      44.608  27.137  26.870  1.00  0.00     0.074 A 
ATOM     47  C   UNL A   1      44.569  25.752  26.444  1.00  0.00     0.031 C 
ATOM     48  C   UNL A   1      38.880  27.943  29.635  1.00  0.00     0.029 A 
ATOM     49  C   UNL A   1      39.990  28.887  29.590  1.00  0.00     0.049 A 
ATOM     50  H   UNL A   1      41.852  28.623  28.696  1.00  0.00     0.167 HD
ATOM     51  C   UNL A   1      45.668  27.968  26.708  1.00  0.00     0.037 A 
ATOM     52  C   UNL A   1      39.983  30.116  30.135  1.00  0.00     0.037 A 
ATOM     53  C   UNL A   1      45.716  29.335  27.174  1.00  0.00     0.049 A 
ATOM     54  C   UNL A   1      41.191  30.994  29.989  1.00  0.00     0.074 A 
ATOM     55  C   UNL A   1      46.728  30.268  27.013  1.00  0.00     0.029 A 
ATOM     56  N   UNL A   1      44.723  29.955  27.919  1.00  0.00    -0.354 N 
ATOM     57  N   UNL A   1      42.314  30.759  29.355  1.00  0.00    -0.248 NA
ATOM     58  C   UNL A   1      41.123  32.314  30.629  1.00  0.00     0.031 C 
ATOM     59  C   UNL A   1      46.374  31.429  27.712  1.00  0.00     0.029 A 
ATOM     60  C   UNL A   1      45.114  31.244  28.257  1.00  0.00     0.049 A 
ATOM     61  H   UNL A   1      43.866  29.542  28.172  1.00  0.00     0.167 HD
ATOM     62  C   UNL A   1      43.075  31.912  29.495  1.00  0.00     0.074 A 
ATOM     63  C   UNL A   1      42.276  32.850  30.258  1.00  0.00     0.031 C 
ATOM     64  C   UNL A   1      44.322  32.169  29.029  1.00  0.00     0.037 A 
BRANCH  51  65
ATOM     65  C   UNL A   1      46.876  27.415  26.002  1.00  0.00     0.057 A 
ATOM     66  C   UNL A   1      46.988  27.483  24.608  1.00  0.00     0.134 A 
ATOM     67  C   UNL A   1      47.912  26.781  26.701  1.00  0.00     0.134 A 
ATOM     68  F   UNL A   1      46.028  28.064  23.873  1.00  0.00    -0.206 F 
ATOM     69  C   UNL A   1      48.089  26.947  23.935  1.00  0.00     0.040 A 
ATOM     70  C   UNL A   1      49.031  26.266  26.043  1.00  0.00     0.040 A 
ATOM     71  F   UNL A   1      47.870  26.682  28.039  1.00  0.00    -0.206 F 
ATOM     72  C   UNL A   1      49.119  26.344  24.655  1.00  0.00     0.006 A 
ENDBRANCH  51  65
BRANCH  52  73
ATOM     73  C   UNL A   1      38.773  30.602  30.841  1.00  0.00     0.057 A 
ATOM     74  C   UNL A   1      38.575  30.364  32.205  1.00  0.00     0.134 A 
ATOM     75  C   UNL A   1      37.785  31.321  30.158  1.00  0.00     0.134 A 
ATOM     76  F   UNL A   1      39.482  29.670  32.910  1.00  0.00    -0.206 F 
ATOM     77  C   UNL A   1      37.436  30.820  32.867  1.00  0.00     0.040 A 
ATOM     78  C   UNL A   1      36.654  31.806  30.813  1.00  0.00     0.040 A 
ATOM     79  F   UNL A   1      37.928  31.591  28.852  1.00  0.00    -0.206 F 
ATOM     80  C   UNL A   1      36.475  31.551  32.171  1.00  0.00     0.006 A 
ENDBRANCH  52  73
BRANCH  64  81
ATOM     81  C   UNL A   1      44.882  33.536  29.314  1.00  0.00     0.057 A 
ATOM     82  C   UNL A   1      44.631  34.605  28.444  1.00  0.00     0.134 A 
ATOM     83  C   UNL A   1      45.657  33.801  30.451  1.00  0.00     0.134 A 
ATOM     84  F   UNL A   1      43.902  34.423  27.332  1.00  0.00    -0.206 F 
ATOM     85  C   UNL A   1      45.122  35.887  28.698  1.00  0.00     0.040 A 
ATOM     86  C   UNL A   1      46.127  35.086  30.733  1.00  0.00     0.040 A 
ATOM     87  F   UNL A   1      45.922  32.828  31.337  1.00  0.00    -0.206 F 
ATOM     88  C   UNL A   1      45.862  36.133  29.853  1.00  0.00     0.006 A 
ENDBRANCH  64  81
ENDBRANCH  38  39
ENDBRANCH  31  33
ENDBRANCH  30  31
ENDBRANCH  29  30
ENDBRANCH   1  29
TORSDOF 13
ENDMDL
MODEL 2
REMARK VINA RESULT:     -13.1      3.922      8.872
REMARK SMILES O=C(CCN1C(=O)[C@@H]2[C@@H](C1=O)[C@H]1c3ccccc3[C@]2(Br)c2ccccc21)OCCOC(=O)c1ccc(-c2c3nc(c(-c4c(F)cccc4F)c4ccc([nH]4)c(-c4c(F)cccc4F)c4nc(c(-c5c(F)cccc5F)c5ccc2[nH]5)C=C4)C=C3)cc1
REMARK SMILES IDX 28 1 27 2 2 3 1 4 3 5 4 6 5 7 6 8 10 9 7 10 8 11 9 12 11 13
REMARK SMILES IDX 19 14 12 15 21 16 20 17 18 18 26 19 13 20 22 21 17 22 25 23
REMARK SMILES IDX 14 24 23 25 16 26 24 27 15 28 29 29 30 30 31 31 32 32 33 33
REMARK SMILES IDX 34 34 86 35 35 36 85 37 36 38 37 39 38 40 79 41 39 42 84 43
REMARK SMILES IDX 78 44 80 45 40 46 83 47 77 48 76 49 41 51 67 52 50 53 66 54
REMARK SMILES IDX 51 55 54 56 65 57 81 58 52 59 53 60 64 62 82 63 55 64 42 65
REMARK SMILES IDX 43 66 48 67 44 68 45 69 47 70 49 71 46 72 68 73 69 74 74 75
REMARK SMILES IDX 70 76 71 77 73 78 75 79 72 80 56 81 57 82 62 83 58 84 59 85
REMARK SMILES IDX 61 86 63 87 60 88
REMARK H PARENT 80 50 54 61
REMARK Flexibility Score: inf
ROOT
ATOM      1  C   UNL A   1      30.652  31.318  25.105  1.00  0.00     0.274 C 
ENDROOT
BRANCH   1   2
ATOM      2  O   UNL A   1      31.126  29.976  24.893  1.00  0.00    -0.462 OA
BRANCH   2   3
ATOM      3  C   UNL A   1      30.903  29.352  23.704  1.00  0.00     0.307 C 
ATOM      4  O   UNL A   1      29.908  28.656  23.533  1.00  0.00    -0.252 OA
BRANCH   3   5
ATOM      5  C   UNL A   1      32.019  29.388  22.685  1.00  0.00     0.144 C 
BRANCH   5   6
ATOM      6  C   UNL A   1      33.379  28.958  23.228  1.00  0.00     0.140 C 
BRANCH   6   7
ATOM      7  N   UNL A   1      33.440  27.575  23.677  1.00  0.00    -0.281 N 
ATOM      8  C   UNL A   1      33.559  26.475  22.818  1.00  0.00     0.235 C 
ATOM      9  C   UNL A   1      33.310  27.156  24.999  1.00  0.00     0.234 C 
ATOM     10  O   UNL A   1      33.748  26.478  21.618  1.00  0.00    -0.274 OA
ATOM     11  C   UNL A   1      33.248  25.296  23.703  1.00  0.00     0.118 C 
ATOM     12  C   UNL A   1      33.971  25.827  24.950  1.00  0.00     0.105 C 
ATOM     13  O   UNL A   1      32.908  27.745  25.977  1.00  0.00    -0.274 OA
ATOM     14  C   UNL A   1      33.528  23.790  23.603  1.00  0.00     0.088 C 
ATOM     15  C   UNL A   1      34.127  24.759  26.022  1.00  0.00     0.063 C 
ATOM     16  C   UNL A   1      32.591  23.277  24.759  1.00  0.00    -0.022 A 
ATOM     17  Br  UNL A   1      33.038  23.111  21.871  1.00  0.00    -0.074 Br
ATOM     18  C   UNL A   1      34.967  23.467  24.053  1.00  0.00    -0.022 A 
ATOM     19  C   UNL A   1      32.903  23.867  26.029  1.00  0.00    -0.035 A 
ATOM     20  C   UNL A   1      35.258  23.917  25.388  1.00  0.00    -0.035 A 
ATOM     21  C   UNL A   1      31.497  22.423  24.673  1.00  0.00     0.006 A 
ATOM     22  C   UNL A   1      35.959  22.801  23.340  1.00  0.00     0.006 A 
ATOM     23  C   UNL A   1      32.147  23.610  27.165  1.00  0.00     0.005 A 
ATOM     24  C   UNL A   1      36.489  23.673  25.986  1.00  0.00     0.005 A 
ATOM     25  C   UNL A   1      30.735  22.170  25.821  1.00  0.00     0.000 A 
ATOM     26  C   UNL A   1      37.198  22.566  23.945  1.00  0.00     0.000 A 
ATOM     27  C   UNL A   1      31.054  22.758  27.053  1.00  0.00     0.000 A 
ATOM     28  C   UNL A   1      37.458  22.988  25.256  1.00  0.00     0.000 A 
ENDBRANCH   6   7
ENDBRANCH   5   6
ENDBRANCH   3   5
ENDBRANCH   2   3
ENDBRANCH   1   2
BRANCH   1  29
ATOM     29  C   UNL A   1      31.019  31.916  26.468  1.00  0.00     0.275 C 
BRANCH  29  30
ATOM     30  O   UNL A   1      32.385  31.653  26.800  1.00  0.00    -0.458 OA
BRANCH  30  31
ATOM     31  C   UNL A   1      33.011  32.684  27.419  1.00  0.00     0.338 C 
ATOM     32  O   UNL A   1      32.534  33.772  27.691  1.00  0.00    -0.246 OA
BRANCH  31  33
ATOM     33  C   UNL A   1      34.316  32.210  27.924  1.00  0.00     0.060 A 
ATOM     34  C   UNL A   1      35.392  33.079  28.126  1.00  0.00     0.016 A 
ATOM     35  C   UNL A   1      34.458  30.838  28.167  1.00  0.00     0.016 A 
ATOM     36  C   UNL A   1      36.597  32.577  28.619  1.00  0.00     0.010 A 
ATOM     37  C   UNL A   1      35.661  30.339  28.665  1.00  0.00     0.010 A 
ATOM     38  C   UNL A   1      36.728  31.210  28.924  1.00  0.00    -0.014 A 
BRANCH  38  39
ATOM     39  C   UNL A   1      37.898  30.735  29.702  1.00  0.00     0.031 A 
ATOM     40  C   UNL A   1      38.148  31.151  31.118  1.00  0.00     0.074 A 
ATOM     41  C   UNL A   1      38.775  29.929  29.074  1.00  0.00     0.049 A 
ATOM     42  N   UNL A   1      39.089  30.750  31.936  1.00  0.00    -0.248 NA
ATOM     43  C   UNL A   1      37.235  32.150  31.688  1.00  0.00     0.031 C 
ATOM     44  C   UNL A   1      38.666  29.497  27.678  1.00  0.00     0.029 A 
ATOM     45  N   UNL A   1      39.924  29.331  29.521  1.00  0.00    -0.354 N 
ATOM     46  C   UNL A   1      38.874  31.429  33.127  1.00  0.00     0.074 A 
ATOM     47  C   UNL A   1      37.740  32.306  32.906  1.00  0.00     0.031 C 
ATOM     48  C   UNL A   1      39.687  28.676  27.394  1.00  0.00     0.029 A 
ATOM     49  C   UNL A   1      40.537  28.551  28.573  1.00  0.00     0.049 A 
ATOM     50  H   UNL A   1      40.274  29.449  30.433  1.00  0.00     0.167 HD
ATOM     51  C   UNL A   1      39.554  31.321  34.296  1.00  0.00     0.037 A 
ATOM     52  C   UNL A   1      41.657  27.812  28.645  1.00  0.00     0.037 A 
ATOM     53  C   UNL A   1      40.710  30.478  34.496  1.00  0.00     0.049 A 
ATOM     54  C   UNL A   1      42.421  27.753  29.935  1.00  0.00     0.074 A 
ATOM     55  C   UNL A   1      41.435  30.266  35.658  1.00  0.00     0.029 A 
ATOM     56  N   UNL A   1      41.329  29.732  33.504  1.00  0.00    -0.354 N 
ATOM     57  N   UNL A   1      42.147  28.318  31.085  1.00  0.00    -0.248 NA
ATOM     58  C   UNL A   1      43.647  26.945  29.935  1.00  0.00     0.031 C 
ATOM     59  C   UNL A   1      42.526  29.443  35.354  1.00  0.00     0.029 A 
ATOM     60  C   UNL A   1      42.449  29.089  34.017  1.00  0.00     0.049 A 
ATOM     61  H   UNL A   1      41.022  29.667  32.571  1.00  0.00     0.167 HD
ATOM     62  C   UNL A   1      43.151  27.911  31.954  1.00  0.00     0.074 A 
ATOM     63  C   UNL A   1      44.026  27.036  31.200  1.00  0.00     0.031 C 
ATOM     64  C   UNL A   1      43.326  28.231  33.260  1.00  0.00     0.037 A 
BRANCH  51  65
ATOM     65  C   UNL A   1      39.068  32.148  35.454  1.00  0.00     0.057 A 
ATOM     66  C   UNL A   1      39.443  33.491  35.587  1.00  0.00     0.134 A 
ATOM     67  C   UNL A   1      38.257  31.604  36.460  1.00  0.00     0.134 A 
ATOM     68  F   UNL A   1      40.228  34.074  34.670  1.00  0.00    -0.206 F 
ATOM     69  C   UNL A   1      39.025  34.263  36.674  1.00  0.00     0.040 A 
ATOM     70  C   UNL A   1      37.811  32.373  37.537  1.00  0.00     0.040 A 
ATOM     71  F   UNL A   1      37.859  30.324  36.395  1.00  0.00    -0.206 F 
ATOM     72  C   UNL A   1      38.199  33.706  37.648  1.00  0.00     0.006 A 
ENDBRANCH  51  65
BRANCH  52  73
ATOM     73  C   UNL A   1      42.103  27.033  27.464  1.00  0.00     0.057 A 
ATOM     74  C   UNL A   1      41.754  25.688  27.299  1.00  0.00     0.134 A 
ATOM     75  C   UNL A   1      42.892  27.625  26.471  1.00  0.00     0.134 A 
ATOM     76  F   UNL A   1      41.009  25.064  28.223  1.00  0.00    -0.206 F 
ATOM     77  C   UNL A   1      42.176  24.957  26.189  1.00  0.00     0.040 A 
ATOM     78  C   UNL A   1      43.299  26.913  25.343  1.00  0.00     0.040 A 
ATOM     79  F   UNL A   1      43.246  28.915  26.570  1.00  0.00    -0.206 F 
ATOM     80  C   UNL A   1      42.945  25.573  25.202  1.00  0.00     0.006 A 
ENDBRANCH  52  73
BRANCH  64  81
ATOM     81  C   UNL A   1      44.501  27.603  33.959  1.00  0.00     0.057 A 
ATOM     82  C   UNL A   1      44.384  26.342  34.559  1.00  0.00     0.134 A 
ATOM     83  C   UNL A   1      45.750  28.234  34.028  1.00  0.00     0.134 A 
ATOM     84  F   UNL A   1      43.216  25.683  34.536  1.00  0.00    -0.206 F 
ATOM     85  C   UNL A   1      45.466  25.730  35.194  1.00  0.00     0.040 A 
ATOM     86  C   UNL A   1      46.849  27.618  34.632  1.00  0.00     0.040 A 
ATOM     87  F   UNL A   1      45.939  29.435  33.459  1.00  0.00    -0.206 F 
ATOM     88  C   UNL A   1      46.707  26.363  35.220  1.00  0.00     0.006 A 
ENDBRANCH  64  81
ENDBRANCH  38  39
ENDBRANCH  31  33
ENDBRANCH  30  31
ENDBRANCH  29  30
ENDBRANCH   1  29
TORSDOF 13
ENDMDL
MODEL 3
REMARK VINA RESULT:     -13.0      0.380      6.113
REMARK SMILES O=C(CCN1C(=O)[C@@H]2[C@@H](C1=O)[C@H]1c3ccccc3[C@]2(Br)c2ccccc21)OCCOC(=O)c1ccc(-c2c3nc(c(-c4c(F)cccc4F)c4ccc([nH]4)c(-c4c(F)cccc4F)c4nc(c(-c5c(F)cccc5F)c5ccc2[nH]5)C=C4)C=C3)cc1
REMARK SMILES IDX 28 1 27 2 2 3 1 4 3 5 4 6 5 7 6 8 10 9 7 10 8 11 9 12 11 13
REMARK SMILES IDX 19 14 12 15 21 16 20 17 18 18 26 19 13 20 22 21 17 22 25 23
REMARK SMILES IDX 14 24 23 25 16 26 24 27 15 28 29 29 30 30 31 31 32 32 33 33
REMARK SMILES IDX 34 34 86 35 35 36 85 37 36 38 37 39 38 40 79 41 39 42 84 43
REMARK SMILES IDX 78 44 80 45 40 46 83 47 77 48 76 49 41 51 67 52 50 53 66 54
REMARK SMILES IDX 51 55 54 56 65 57 81 58 52 59 53 60 64 62 82 63 55 64 42 65
REMARK SMILES IDX 43 66 48 67 44 68 45 69 47 70 49 71 46 72 68 73 69 74 74 75
REMARK SMILES IDX 70 76 71 77 73 78 75 79 72 80 56 81 57 82 62 83 58 84 59 85
REMARK SMILES IDX 61 86 63 87 60 88
REMARK H PARENT 80 50 54 61
REMARK Flexibility Score: inf
ROOT
ATOM      1  C   UNL A   1      35.619  21.366  25.655  1.00  0.00     0.274 C 
ENDROOT
BRANCH   1   2
ATOM      2  O   UNL A   1      35.355  22.593  24.949  1.00  0.00    -0.462 OA
BRANCH   2   3
ATOM      3  C   UNL A   1      35.018  22.563  23.631  1.00  0.00     0.307 C 
ATOM      4  O   UNL A   1      35.756  23.046  22.779  1.00  0.00    -0.252 OA
BRANCH   3   5
ATOM      5  C   UNL A   1      33.621  22.099  23.285  1.00  0.00     0.144 C 
BRANCH   5   6
ATOM      6  C   UNL A   1      32.867  23.030  22.340  1.00  0.00     0.140 C 
BRANCH   6   7
ATOM      7  N   UNL A   1      32.525  24.324  22.912  1.00  0.00    -0.281 N 
ATOM      8  C   UNL A   1      33.005  25.548  22.428  1.00  0.00     0.235 C 
ATOM      9  C   UNL A   1      31.748  24.515  24.052  1.00  0.00     0.234 C 
ATOM     10  O   UNL A   1      33.656  25.754  21.424  1.00  0.00    -0.274 OA
ATOM     11  C   UNL A   1      32.653  26.526  23.519  1.00  0.00     0.118 C 
ATOM     12  C   UNL A   1      31.285  25.913  23.859  1.00  0.00     0.105 C 
ATOM     13  O   UNL A   1      31.402  23.735  24.910  1.00  0.00    -0.274 OA
ATOM     14  C   UNL A   1      32.510  28.052  23.572  1.00  0.00     0.088 C 
ATOM     15  C   UNL A   1      30.460  26.817  24.763  1.00  0.00     0.063 C 
ATOM     16  C   UNL A   1      32.449  28.252  25.132  1.00  0.00    -0.022 A 
ATOM     17  Br  UNL A   1      34.023  28.915  22.756  1.00  0.00    -0.074 Br
ATOM     18  C   UNL A   1      31.133  28.495  23.037  1.00  0.00    -0.022 A 
ATOM     19  C   UNL A   1      31.374  27.523  25.742  1.00  0.00    -0.035 A 
ATOM     20  C   UNL A   1      30.032  27.891  23.737  1.00  0.00    -0.035 A 
ATOM     21  C   UNL A   1      33.327  28.953  25.952  1.00  0.00     0.006 A 
ATOM     22  C   UNL A   1      30.862  29.390  22.007  1.00  0.00     0.006 A 
ATOM     23  C   UNL A   1      31.190  27.499  27.119  1.00  0.00     0.005 A 
ATOM     24  C   UNL A   1      28.713  28.204  23.429  1.00  0.00     0.005 A 
ATOM     25  C   UNL A   1      33.139  28.923  27.340  1.00  0.00     0.000 A 
ATOM     26  C   UNL A   1      29.532  29.696  21.696  1.00  0.00     0.000 A 
ATOM     27  C   UNL A   1      32.084  28.202  27.918  1.00  0.00     0.000 A 
ATOM     28  C   UNL A   1      28.470  29.118  22.405  1.00  0.00     0.000 A 
ENDBRANCH   6   7
ENDBRANCH   5   6
ENDBRANCH   3   5
ENDBRANCH   2   3
ENDBRANCH   1   2
BRANCH   1  29
ATOM     29  C   UNL A   1      36.854  20.602  25.165  1.00  0.00     0.275 C 
BRANCH  29  30
ATOM     30  O   UNL A   1      37.992  21.463  25.068  1.00  0.00    -0.458 OA
BRANCH  30  31
ATOM     31  C   UNL A   1      38.985  21.167  25.943  1.00  0.00     0.338 C 
ATOM     32  O   UNL A   1      39.488  20.074  26.135  1.00  0.00    -0.246 OA
BRANCH  31  33
ATOM     33  C   UNL A   1      39.530  22.428  26.484  1.00  0.00     0.060 A 
ATOM     34  C   UNL A   1      40.566  22.446  27.423  1.00  0.00     0.016 A 
ATOM     35  C   UNL A   1      38.948  23.626  26.051  1.00  0.00     0.016 A 
ATOM     36  C   UNL A   1      41.050  23.669  27.889  1.00  0.00     0.010 A 
ATOM     37  C   UNL A   1      39.436  24.847  26.513  1.00  0.00     0.010 A 
ATOM     38  C   UNL A   1      40.512  24.878  27.411  1.00  0.00    -0.014 A 
BRANCH  38  39
ATOM     39  C   UNL A   1      41.208  26.157  27.688  1.00  0.00     0.031 A 
ATOM     40  C   UNL A   1      40.555  27.289  28.419  1.00  0.00     0.074 A 
ATOM     41  C   UNL A   1      42.463  26.295  27.221  1.00  0.00     0.049 A 
ATOM     42  N   UNL A   1      41.074  28.431  28.795  1.00  0.00    -0.248 NA
ATOM     43  C   UNL A   1      39.137  27.126  28.765  1.00  0.00     0.031 C 
ATOM     44  C   UNL A   1      43.187  25.283  26.449  1.00  0.00     0.029 A 
ATOM     45  N   UNL A   1      43.350  27.335  27.324  1.00  0.00    -0.354 N 
ATOM     46  C   UNL A   1      40.056  29.120  29.440  1.00  0.00     0.074 A 
ATOM     47  C   UNL A   1      38.875  28.283  29.360  1.00  0.00     0.031 C 
ATOM     48  C   UNL A   1      44.418  25.737  26.178  1.00  0.00     0.029 A 
ATOM     49  C   UNL A   1      44.559  27.080  26.727  1.00  0.00     0.049 A 
ATOM     50  H   UNL A   1      43.140  28.180  27.782  1.00  0.00     0.167 HD
ATOM     51  C   UNL A   1      40.110  30.330  30.050  1.00  0.00     0.037 A 
ATOM     52  C   UNL A   1      45.662  27.843  26.634  1.00  0.00     0.037 A 
ATOM     53  C   UNL A   1      41.280  31.177  30.087  1.00  0.00     0.049 A 
ATOM     54  C   UNL A   1      45.676  29.201  27.271  1.00  0.00     0.074 A 
ATOM     55  C   UNL A   1      41.443  32.398  30.722  1.00  0.00     0.029 A 
ATOM     56  N   UNL A   1      42.476  30.908  29.438  1.00  0.00    -0.354 N 
ATOM     57  N   UNL A   1      44.740  29.797  27.970  1.00  0.00    -0.248 NA
ATOM     58  C   UNL A   1      46.905  29.988  27.112  1.00  0.00     0.031 C 
ATOM     59  C   UNL A   1      42.714  32.894  30.406  1.00  0.00     0.029 A 
ATOM     60  C   UNL A   1      43.368  31.956  29.625  1.00  0.00     0.049 A 
ATOM     61  H   UNL A   1      42.666  30.093  28.918  1.00  0.00     0.167 HD
ATOM     62  C   UNL A   1      45.278  31.017  28.358  1.00  0.00     0.074 A 
ATOM     63  C   UNL A   1      46.628  31.065  27.831  1.00  0.00     0.031 C 
ATOM     64  C   UNL A   1      44.705  32.006  29.088  1.00  0.00     0.037 A 
BRANCH  51  65
ATOM     65  C   UNL A   1      38.857  30.819  30.722  1.00  0.00     0.057 A 
ATOM     66  C   UNL A   1      38.578  30.486  32.054  1.00  0.00     0.134 A 
ATOM     67  C   UNL A   1      37.906  31.590  30.039  1.00  0.00     0.134 A 
ATOM     68  F   UNL A   1      39.435  29.741  32.765  1.00  0.00    -0.206 F 
ATOM     69  C   UNL A   1      37.403  30.908  32.682  1.00  0.00     0.040 A 
ATOM     70  C   UNL A   1      36.741  32.040  30.665  1.00  0.00     0.040 A 
ATOM     71  F   UNL A   1      38.110  31.946  28.761  1.00  0.00    -0.206 F 
ATOM     72  C   UNL A   1      36.486  31.695  31.990  1.00  0.00     0.006 A 
ENDBRANCH  51  65
BRANCH  52  73
ATOM     73  C   UNL A   1      46.863  27.320  25.940  1.00  0.00     0.057 A 
ATOM     74  C   UNL A   1      47.050  27.499  24.565  1.00  0.00     0.134 A 
ATOM     75  C   UNL A   1      47.854  26.626  26.644  1.00  0.00     0.134 A 
ATOM     76  F   UNL A   1      46.129  28.146  23.835  1.00  0.00    -0.206 F 
ATOM     77  C   UNL A   1      48.179  27.005  23.912  1.00  0.00     0.040 A 
ATOM     78  C   UNL A   1      49.001  26.149  26.008  1.00  0.00     0.040 A 
ATOM     79  F   UNL A   1      47.735  26.435  27.966  1.00  0.00    -0.206 F 
ATOM     80  C   UNL A   1      49.163  26.335  24.637  1.00  0.00     0.006 A 
ENDBRANCH  52  73
BRANCH  64  81
ATOM     81  C   UNL A   1      45.556  33.212  29.380  1.00  0.00     0.057 A 
ATOM     82  C   UNL A   1      46.394  33.239  30.503  1.00  0.00     0.134 A 
ATOM     83  C   UNL A   1      45.560  34.339  28.548  1.00  0.00     0.134 A 
ATOM     84  F   UNL A   1      46.436  32.196  31.347  1.00  0.00    -0.206 F 
ATOM     85  C   UNL A   1      47.208  34.337  30.783  1.00  0.00     0.040 A 
ATOM     86  C   UNL A   1      46.394  35.431  28.800  1.00  0.00     0.040 A 
ATOM     87  F   UNL A   1      44.796  34.374  27.445  1.00  0.00    -0.206 F 
ATOM     88  C   UNL A   1      47.219  35.433  29.922  1.00  0.00     0.006 A 
ENDBRANCH  64  81
ENDBRANCH  38  39
ENDBRANCH  31  33
ENDBRANCH  30  31
ENDBRANCH  29  30
ENDBRANCH   1  29
TORSDOF 13
ENDMDL
