MODEL 1
REMARK VINA RESULT:     -14.9      0.000      0.000
REMARK SMILES COc1ccc2[nH]cc([C@H](C(=O)OCCOC(=O)c3ccc(-c4c5nc(c(-c6c(F)cccc6F)c6ccc([nH]6)c(-c6c(F)cccc6F)c6nc(c(-c7c(F)cccc7F)c7ccc4[nH]7)C=C6)C=C5)cc3)[NH+]3CC[NH+](Cc4cccc5ccccc45)CC3)c2c1
REMARK SMILES IDX 14 1 13 2 11 3 12 4 10 5 9 6 3 7 4 8 91 9 5 10 90 11 6 12
REMARK SMILES IDX 7 13 8 14 2 16 1 17 73 18 74 19 89 20 75 22 88 23 76 24
REMARK SMILES IDX 77 26 78 27 79 28 87 29 80 30 82 31 86 32 81 33 83 34 85 35
REMARK SMILES IDX 84 36 15 37 16 38 17 39 18 40 19 41 20 42 72 43 21 44 71 45
REMARK SMILES IDX 22 46 23 47 24 48 65 49 25 50 70 51 64 52 66 53 26 54 69 55
REMARK SMILES IDX 63 56 62 57 27 59 53 60 36 61 52 62 37 63 40 64 51 65 67 66
REMARK SMILES IDX 38 67 39 68 50 70 68 71 41 72 28 73 29 74 34 75 30 76 31 77
REMARK SMILES IDX 33 78 35 79 32 80 54 81 55 82 60 83 56 84 57 85 59 86 61 87
REMARK SMILES IDX 58 88 42 89 43 90 48 91 44 92 45 93 47 94 49 95 46 96
REMARK H PARENT 7 15 73 21 76 25 66 58 40 69
REMARK Flexibility Score: inf
ROOT
ATOM      1  C   UNL A   1      32.033  30.232  25.942  1.00  0.00     0.274 C 
ENDROOT
BRANCH   1   2
ATOM      2  O   UNL A   1      32.748  28.934  25.866  1.00  0.00    -0.457 OA
BRANCH   2   3
ATOM      3  C   UNL A   1      31.958  27.778  26.006  1.00  0.00     0.370 C 
ATOM      4  O   UNL A   1      31.466  27.482  27.089  1.00  0.00    -0.245 OA
BRANCH   3   5
ATOM      5  C   UNL A   1      31.577  27.131  24.616  1.00  0.00     0.328 C 
BRANCH   5   6
ATOM      6  C   UNL A   1      31.338  27.917  23.351  1.00  0.00     0.046 A 
ATOM      7  C   UNL A   1      27.771  28.972  22.881  1.00  0.00     0.119 A 
ATOM      8  C   UNL A   1      28.058  30.136  22.179  1.00  0.00     0.048 A 
ATOM      9  C   UNL A   1      28.778  28.063  23.158  1.00  0.00     0.057 A 
ATOM     10  C   UNL A   1      29.351  30.412  21.717  1.00  0.00     0.030 A 
ATOM     11  C   UNL A   1      30.103  28.387  22.852  1.00  0.00     0.013 A 
ATOM     12  C   UNL A   1      30.365  29.534  22.102  1.00  0.00     0.046 A 
ATOM     13  N   UNL A   1      31.727  29.617  21.943  1.00  0.00    -0.361 N 
ATOM     14  C   UNL A   1      32.333  28.641  22.686  1.00  0.00     0.094 A 
ATOM     15  H   UNL A   1      32.193  30.276  21.380  1.00  0.00     0.166 HD
BRANCH   7  16
ATOM     16  O   UNL A   1      26.520  28.850  23.415  1.00  0.00    -0.497 OA
ATOM     17  C   UNL A   1      26.217  27.567  23.953  1.00  0.00     0.278 C 
ENDBRANCH   7  16
ENDBRANCH   5   6
BRANCH   5  18
ATOM     18  N   UNL A   1      32.624  26.191  24.116  1.00  0.00    -0.310 N 
ATOM     19  C   UNL A   1      33.736  25.751  25.005  1.00  0.00     0.325 C 
ATOM     20  C   UNL A   1      31.975  25.107  23.483  1.00  0.00     0.325 C 
ATOM     21  H   UNL A   1      33.172  26.766  23.477  1.00  0.00     0.349 HD
ATOM     22  C   UNL A   1      33.565  24.558  26.048  1.00  0.00     0.324 C 
ATOM     23  C   UNL A   1      31.646  24.124  24.591  1.00  0.00     0.324 C 
ATOM     24  N   UNL A   1      32.573  23.506  25.707  1.00  0.00    -0.322 N 
ATOM     25  H   UNL A   1      31.993  23.280  26.515  1.00  0.00     0.348 HD
BRANCH  24  26
ATOM     26  C   UNL A   1      33.158  21.722  25.584  1.00  0.00     0.300 C 
BRANCH  26  27
ATOM     27  C   UNL A   1      32.301  20.242  24.207  1.00  0.00     0.014 A 
ATOM     28  C   UNL A   1      31.979  20.376  22.785  1.00  0.00     0.010 A 
ATOM     29  C   UNL A   1      32.610  18.501  24.438  1.00  0.00    -0.010 A 
ATOM     30  C   UNL A   1      32.141  19.349  21.822  1.00  0.00     0.001 A 
ATOM     31  C   UNL A   1      33.075  17.726  23.356  1.00  0.00    -0.018 A 
ATOM     32  C   UNL A   1      32.704  17.527  25.608  1.00  0.00     0.009 A 
ATOM     33  C   UNL A   1      32.764  18.134  22.082  1.00  0.00     0.009 A 
ATOM     34  C   UNL A   1      33.897  16.549  23.476  1.00  0.00     0.009 A 
ATOM     35  C   UNL A   1      33.551  16.407  25.777  1.00  0.00     0.001 A 
ATOM     36  C   UNL A   1      34.225  15.953  24.687  1.00  0.00     0.001 A 
ENDBRANCH  26  27
ENDBRANCH  24  26
ENDBRANCH   5  18
ENDBRANCH   3   5
ENDBRANCH   2   3
ENDBRANCH   1   2
BRANCH   1  37
ATOM     37  C   UNL A   1      32.346  31.219  27.186  1.00  0.00     0.275 C 
BRANCH  37  38
ATOM     38  O   UNL A   1      33.705  31.192  27.787  1.00  0.00    -0.458 OA
BRANCH  38  39
ATOM     39  C   UNL A   1      34.301  32.258  28.464  1.00  0.00     0.338 C 
ATOM     40  O   UNL A   1      33.887  33.404  28.391  1.00  0.00    -0.246 OA
BRANCH  39  41
ATOM     41  C   UNL A   1      35.707  31.864  29.344  1.00  0.00     0.060 A 
ATOM     42  C   UNL A   1      35.980  30.928  30.974  1.00  0.00     0.016 A 
ATOM     43  C   UNL A   1      36.574  31.299  27.904  1.00  0.00     0.016 A 
ATOM     44  C   UNL A   1      36.976  29.320  30.890  1.00  0.00     0.010 A 
ATOM     45  C   UNL A   1      37.595  29.923  27.947  1.00  0.00     0.010 A 
ATOM     46  C   UNL A   1      37.935  29.011  29.369  1.00  0.00    -0.014 A 
BRANCH  46  47
ATOM     47  C   UNL A   1      39.467  28.783  29.442  1.00  0.00     0.031 A 
ATOM     48  C   UNL A   1      40.209  27.461  28.997  1.00  0.00     0.074 A 
ATOM     49  C   UNL A   1      40.190  29.868  29.731  1.00  0.00     0.049 A 
ATOM     50  N   UNL A   1      41.485  27.281  28.689  1.00  0.00    -0.248 NA
ATOM     51  C   UNL A   1      39.471  26.195  28.836  1.00  0.00     0.031 C 
ATOM     52  C   UNL A   1      39.619  31.148  30.137  1.00  0.00     0.029 A 
ATOM     53  N   UNL A   1      41.536  30.079  29.697  1.00  0.00    -0.354 N 
ATOM     54  C   UNL A   1      41.608  25.964  28.205  1.00  0.00     0.074 A 
ATOM     55  C   UNL A   1      40.307  25.384  28.216  1.00  0.00     0.031 C 
ATOM     56  C   UNL A   1      40.607  32.044  30.234  1.00  0.00     0.029 A 
ATOM     57  C   UNL A   1      41.880  31.355  30.052  1.00  0.00     0.049 A 
ATOM     58  H   UNL A   1      42.191  29.389  29.443  1.00  0.00     0.167 HD
ATOM     59  C   UNL A   1      42.699  25.224  27.882  1.00  0.00     0.037 A 
ATOM     60  C   UNL A   1      43.090  31.882  30.300  1.00  0.00     0.037 A 
ATOM     61  C   UNL A   1      44.026  25.682  28.156  1.00  0.00     0.049 A 
ATOM     62  C   UNL A   1      44.286  30.992  30.151  1.00  0.00     0.074 A 
ATOM     63  C   UNL A   1      45.223  24.998  28.072  1.00  0.00     0.029 A 
ATOM     64  N   UNL A   1      44.300  26.940  28.667  1.00  0.00    -0.354 N 
ATOM     65  N   UNL A   1      44.352  29.758  29.707  1.00  0.00    -0.248 NA
ATOM     66  C   UNL A   1      45.569  31.551  30.580  1.00  0.00     0.031 C 
ATOM     67  C   UNL A   1      46.211  25.816  28.628  1.00  0.00     0.029 A 
ATOM     68  C   UNL A   1      45.642  27.038  28.961  1.00  0.00     0.049 A 
ATOM     69  H   UNL A   1      43.638  27.656  28.799  1.00  0.00     0.167 HD
ATOM     70  C   UNL A   1      45.685  29.388  29.805  1.00  0.00     0.074 A 
ATOM     71  C   UNL A   1      46.392  30.542  30.329  1.00  0.00     0.031 C 
ATOM     72  C   UNL A   1      46.282  28.209  29.499  1.00  0.00     0.037 A 
BRANCH  59  73
ATOM     73  C   UNL A   1      42.498  23.800  27.397  1.00  0.00     0.057 A 
ATOM     74  C   UNL A   1      42.330  22.719  28.276  1.00  0.00     0.134 A 
ATOM     75  C   UNL A   1      42.482  23.502  26.025  1.00  0.00     0.134 A 
ATOM     76  F   UNL A   1      42.361  22.911  29.603  1.00  0.00    -0.206 F 
ATOM     77  C   UNL A   1      42.163  21.406  27.812  1.00  0.00     0.040 A 
ATOM     78  C   UNL A   1      42.299  22.198  25.548  1.00  0.00     0.040 A 
ATOM     79  F   UNL A   1      42.655  24.473  25.116  1.00  0.00    -0.206 F 
ATOM     80  C   UNL A   1      42.141  21.144  26.444  1.00  0.00     0.006 A 
ENDBRANCH  59  73
BRANCH  60  81
ATOM     81  C   UNL A   1      43.164  33.258  30.852  1.00  0.00     0.057 A 
ATOM     82  C   UNL A   1      43.149  33.509  32.224  1.00  0.00     0.134 A 
ATOM     83  C   UNL A   1      43.347  34.357  29.995  1.00  0.00     0.134 A 
ATOM     84  F   UNL A   1      42.956  32.508  33.095  1.00  0.00    -0.206 F 
ATOM     85  C   UNL A   1      43.334  34.799  32.727  1.00  0.00     0.040 A 
ATOM     86  C   UNL A   1      43.579  35.640  30.485  1.00  0.00     0.040 A 
ATOM     87  F   UNL A   1      43.373  34.184  28.665  1.00  0.00    -0.206 F 
ATOM     88  C   UNL A   1      43.570  35.864  31.857  1.00  0.00     0.006 A 
ENDBRANCH  60  81
BRANCH  72  89
ATOM     89  C   UNL A   1      47.760  28.136  29.693  1.00  0.00     0.057 A 
ATOM     90  C   UNL A   1      48.658  28.493  28.682  1.00  0.00     0.134 A 
ATOM     91  C   UNL A   1      48.282  27.739  30.929  1.00  0.00     0.134 A 
ATOM     92  F   UNL A   1      48.212  28.878  27.477  1.00  0.00    -0.206 F 
ATOM     93  C   UNL A   1      50.035  28.418  28.883  1.00  0.00     0.040 A 
ATOM     94  C   UNL A   1      49.655  27.696  31.154  1.00  0.00     0.040 A 
ATOM     95  F   UNL A   1      47.465  27.409  31.941  1.00  0.00    -0.206 F 
ATOM     96  C   UNL A   1      50.534  28.023  30.124  1.00  0.00     0.006 A 
ENDBRANCH  72  89
ENDBRANCH  46  47
ENDBRANCH  39  41
ENDBRANCH  38  39
ENDBRANCH  37  38
ENDBRANCH   1  37
TORSDOF 16
ENDMDL
MODEL 2
REMARK VINA RESULT:     -14.8      1.291      6.257
REMARK SMILES COc1ccc2[nH]cc([C@H](C(=O)OCCOC(=O)c3ccc(-c4c5nc(c(-c6c(F)cccc6F)c6ccc([nH]6)c(-c6c(F)cccc6F)c6nc(c(-c7c(F)cccc7F)c7ccc4[nH]7)C=C6)C=C5)cc3)[NH+]3CC[NH+](Cc4cccc5ccccc45)CC3)c2c1
REMARK SMILES IDX 14 1 13 2 11 3 12 4 10 5 9 6 3 7 4 8 91 9 5 10 90 11 6 12
REMARK SMILES IDX 7 13 8 14 2 16 1 17 73 18 74 19 89 20 75 22 88 23 76 24
REMARK SMILES IDX 77 26 78 27 79 28 87 29 80 30 82 31 86 32 81 33 83 34 85 35
REMARK SMILES IDX 84 36 15 37 16 38 17 39 18 40 19 41 20 42 72 43 21 44 71 45
REMARK SMILES IDX 22 46 23 47 24 48 65 49 25 50 70 51 64 52 66 53 26 54 69 55
REMARK SMILES IDX 63 56 62 57 27 59 53 60 36 61 52 62 37 63 40 64 51 65 67 66
REMARK SMILES IDX 38 67 39 68 50 70 68 71 41 72 28 73 29 74 34 75 30 76 31 77
REMARK SMILES IDX 33 78 35 79 32 80 54 81 55 82 60 83 56 84 57 85 59 86 61 87
REMARK SMILES IDX 58 88 42 89 43 90 48 91 44 92 45 93 47 94 49 95 46 96
REMARK H PARENT 7 15 73 21 76 25 66 58 40 69
REMARK Flexibility Score: inf
ROOT
ATOM      1  C   UNL A   1      32.220  29.995  25.902  1.00  0.00     0.274 C 
ENDROOT
BRANCH   1   2
ATOM      2  O   UNL A   1      32.731  28.601  25.912  1.00  0.00    -0.457 OA
BRANCH   2   3
ATOM      3  C   UNL A   1      31.761  27.583  25.945  1.00  0.00     0.370 C 
ATOM      4  O   UNL A   1      31.133  27.348  26.971  1.00  0.00    -0.245 OA
BRANCH   3   5
ATOM      5  C   UNL A   1      31.411  27.030  24.507  1.00  0.00     0.328 C 
BRANCH   5   6
ATOM      6  C   UNL A   1      31.207  27.898  23.290  1.00  0.00     0.046 A 
ATOM      7  C   UNL A   1      27.663  29.023  22.815  1.00  0.00     0.119 A 
ATOM      8  C   UNL A   1      27.977  30.226  22.196  1.00  0.00     0.048 A 
ATOM      9  C   UNL A   1      28.653  28.087  23.054  1.00  0.00     0.057 A 
ATOM     10  C   UNL A   1      29.282  30.517  21.779  1.00  0.00     0.030 A 
ATOM     11  C   UNL A   1      29.988  28.414  22.797  1.00  0.00     0.013 A 
ATOM     12  C   UNL A   1      30.278  29.603  22.129  1.00  0.00     0.046 A 
ATOM     13  N   UNL A   1      31.644  29.680  22.004  1.00  0.00    -0.361 N 
ATOM     14  C   UNL A   1      32.224  28.652  22.695  1.00  0.00     0.094 A 
ATOM     15  H   UNL A   1      32.129  30.369  21.495  1.00  0.00     0.166 HD
BRANCH   7  16
ATOM     16  O   UNL A   1      26.399  28.882  23.314  1.00  0.00    -0.497 OA
ATOM     17  C   UNL A   1      26.145  27.643  23.969  1.00  0.00     0.278 C 
ENDBRANCH   7  16
ENDBRANCH   5   6
BRANCH   5  18
ATOM     18  N   UNL A   1      32.464  26.117  23.972  1.00  0.00    -0.310 N 
ATOM     19  C   UNL A   1      33.239  25.234  24.888  1.00  0.00     0.325 C 
ATOM     20  C   UNL A   1      31.920  25.414  22.874  1.00  0.00     0.325 C 
ATOM     21  H   UNL A   1      33.219  26.753  23.714  1.00  0.00     0.349 HD
ATOM     22  C   UNL A   1      32.677  23.830  25.389  1.00  0.00     0.324 C 
ATOM     23  C   UNL A   1      31.207  24.214  23.469  1.00  0.00     0.324 C 
ATOM     24  N   UNL A   1      31.726  23.128  24.488  1.00  0.00    -0.322 N 
ATOM     25  H   UNL A   1      30.926  22.773  25.012  1.00  0.00     0.348 HD
BRANCH  24  26
ATOM     26  C   UNL A   1      32.156  21.393  23.900  1.00  0.00     0.300 C 
BRANCH  26  27
ATOM     27  C   UNL A   1      33.703  20.134  24.819  1.00  0.00     0.014 A 
ATOM     28  C   UNL A   1      34.029  18.731  24.561  1.00  0.00     0.010 A 
ATOM     29  C   UNL A   1      35.225  20.851  25.407  1.00  0.00    -0.010 A 
ATOM     30  C   UNL A   1      35.342  18.195  24.566  1.00  0.00     0.001 A 
ATOM     31  C   UNL A   1      36.459  20.296  25.007  1.00  0.00    -0.018 A 
ATOM     32  C   UNL A   1      35.655  22.117  26.143  1.00  0.00     0.009 A 
ATOM     33  C   UNL A   1      36.493  18.966  24.668  1.00  0.00     0.009 A 
ATOM     34  C   UNL A   1      37.692  21.030  24.881  1.00  0.00     0.009 A 
ATOM     35  C   UNL A   1      36.829  22.891  25.987  1.00  0.00     0.001 A 
ATOM     36  C   UNL A   1      37.851  22.353  25.269  1.00  0.00     0.001 A 
ENDBRANCH  26  27
ENDBRANCH  24  26
ENDBRANCH   5  18
ENDBRANCH   3   5
ENDBRANCH   2   3
ENDBRANCH   1   2
BRANCH   1  37
ATOM     37  C   UNL A   1      32.481  30.926  27.200  1.00  0.00     0.275 C 
BRANCH  37  38
ATOM     38  O   UNL A   1      33.824  30.895  27.836  1.00  0.00    -0.458 OA
BRANCH  38  39
ATOM     39  C   UNL A   1      34.415  31.966  28.509  1.00  0.00     0.338 C 
ATOM     40  O   UNL A   1      33.972  33.102  28.464  1.00  0.00    -0.246 OA
BRANCH  39  41
ATOM     41  C   UNL A   1      35.856  31.594  29.342  1.00  0.00     0.060 A 
ATOM     42  C   UNL A   1      36.208  30.569  30.901  1.00  0.00     0.016 A 
ATOM     43  C   UNL A   1      36.727  31.175  27.855  1.00  0.00     0.016 A 
ATOM     44  C   UNL A   1      37.290  29.028  30.697  1.00  0.00     0.010 A 
ATOM     45  C   UNL A   1      37.823  29.858  27.793  1.00  0.00     0.010 A 
ATOM     46  C   UNL A   1      38.237  28.875  29.146  1.00  0.00    -0.014 A 
BRANCH  46  47
ATOM     47  C   UNL A   1      39.781  28.729  29.183  1.00  0.00     0.031 A 
ATOM     48  C   UNL A   1      40.776  29.778  29.819  1.00  0.00     0.074 A 
ATOM     49  C   UNL A   1      40.248  27.536  28.808  1.00  0.00     0.049 A 
ATOM     50  N   UNL A   1      42.029  29.610  30.215  1.00  0.00    -0.248 NA
ATOM     51  C   UNL A   1      40.347  31.164  30.088  1.00  0.00     0.031 C 
ATOM     52  C   UNL A   1      39.426  26.481  28.225  1.00  0.00     0.029 A 
ATOM     53  N   UNL A   1      41.499  27.000  28.891  1.00  0.00    -0.354 N 
ATOM     54  C   UNL A   1      42.420  30.801  30.857  1.00  0.00     0.074 A 
ATOM     55  C   UNL A   1      41.298  31.679  30.843  1.00  0.00     0.031 C 
ATOM     56  C   UNL A   1      40.178  25.385  28.077  1.00  0.00     0.029 A 
ATOM     57  C   UNL A   1      41.559  25.721  28.407  1.00  0.00     0.049 A 
ATOM     58  H   UNL A   1      42.275  27.481  29.259  1.00  0.00     0.167 HD
ATOM     59  C   UNL A   1      43.625  31.217  31.322  1.00  0.00     0.037 A 
ATOM     60  C   UNL A   1      42.627  24.943  28.165  1.00  0.00     0.037 A 
ATOM     61  C   UNL A   1      44.824  30.479  31.069  1.00  0.00     0.049 A 
ATOM     62  C   UNL A   1      43.982  25.495  28.482  1.00  0.00     0.074 A 
ATOM     63  C   UNL A   1      46.138  30.839  31.298  1.00  0.00     0.029 A 
ATOM     64  N   UNL A   1      44.834  29.251  30.429  1.00  0.00    -0.354 N 
ATOM     65  N   UNL A   1      44.302  26.625  29.071  1.00  0.00    -0.248 NA
ATOM     66  C   UNL A   1      45.128  24.686  28.061  1.00  0.00     0.031 C 
ATOM     67  C   UNL A   1      46.947  29.865  30.704  1.00  0.00     0.029 A 
ATOM     68  C   UNL A   1      46.134  28.858  30.199  1.00  0.00     0.049 A 
ATOM     69  H   UNL A   1      44.034  28.735  30.179  1.00  0.00     0.167 HD
ATOM     70  C   UNL A   1      45.688  26.666  29.089  1.00  0.00     0.074 A 
ATOM     71  C   UNL A   1      46.142  25.434  28.472  1.00  0.00     0.031 C 
ATOM     72  C   UNL A   1      46.520  27.628  29.563  1.00  0.00     0.037 A 
BRANCH  59  73
ATOM     73  C   UNL A   1      43.727  32.591  31.960  1.00  0.00     0.057 A 
ATOM     74  C   UNL A   1      43.924  33.759  31.207  1.00  0.00     0.134 A 
ATOM     75  C   UNL A   1      43.639  32.748  33.352  1.00  0.00     0.134 A 
ATOM     76  F   UNL A   1      44.048  33.697  29.874  1.00  0.00    -0.206 F 
ATOM     77  C   UNL A   1      44.034  35.020  31.813  1.00  0.00     0.040 A 
ATOM     78  C   UNL A   1      43.730  34.002  33.968  1.00  0.00     0.040 A 
ATOM     79  F   UNL A   1      43.471  31.680  34.147  1.00  0.00    -0.206 F 
ATOM     80  C   UNL A   1      43.931  35.144  33.197  1.00  0.00     0.006 A 
ENDBRANCH  59  73
BRANCH  60  81
ATOM     81  C   UNL A   1      42.418  23.654  27.461  1.00  0.00     0.057 A 
ATOM     82  C   UNL A   1      42.495  23.545  26.073  1.00  0.00     0.134 A 
ATOM     83  C   UNL A   1      42.223  22.469  28.192  1.00  0.00     0.134 A 
ATOM     84  F   UNL A   1      42.658  24.640  25.315  1.00  0.00    -0.206 F 
ATOM     85  C   UNL A   1      42.409  22.304  25.436  1.00  0.00     0.040 A 
ATOM     86  C   UNL A   1      42.182  21.222  27.574  1.00  0.00     0.040 A 
ATOM     87  F   UNL A   1      42.141  22.504  29.531  1.00  0.00    -0.206 F 
ATOM     88  C   UNL A   1      42.273  21.138  26.189  1.00  0.00     0.006 A 
ENDBRANCH  60  81
BRANCH  72  89
ATOM     89  C   UNL A   1      47.984  27.357  29.460  1.00  0.00     0.057 A 
ATOM     90  C   UNL A   1      48.668  26.604  30.419  1.00  0.00     0.134 A 
ATOM     91  C   UNL A   1      48.704  27.828  28.355  1.00  0.00     0.134 A 
ATOM     92  F   UNL A   1      48.028  26.130  31.499  1.00  0.00    -0.206 F 
ATOM     93  C   UNL A   1      50.035  26.362  30.304  1.00  0.00     0.040 A 
ATOM     94  C   UNL A   1      50.062  27.563  28.211  1.00  0.00     0.040 A 
ATOM     95  F   UNL A   1      48.092  28.536  27.394  1.00  0.00    -0.206 F 
ATOM     96  C   UNL A   1      50.733  26.839  29.194  1.00  0.00     0.006 A 
ENDBRANCH  72  89
ENDBRANCH  46  47
ENDBRANCH  39  41
ENDBRANCH  38  39
ENDBRANCH  37  38
ENDBRANCH   1  37
TORSDOF 16
ENDMDL
MODEL 3
REMARK VINA RESULT:     -14.6      1.326      5.991
REMARK SMILES COc1ccc2[nH]cc([C@H](C(=O)OCCOC(=O)c3ccc(-c4c5nc(c(-c6c(F)cccc6F)c6ccc([nH]6)c(-c6c(F)cccc6F)c6nc(c(-c7c(F)cccc7F)c7ccc4[nH]7)C=C6)C=C5)cc3)[NH+]3CC[NH+](Cc4cccc5ccccc45)CC3)c2c1
REMARK SMILES IDX 14 1 13 2 11 3 12 4 10 5 9 6 3 7 4 8 91 9 5 10 90 11 6 12
REMARK SMILES IDX 7 13 8 14 2 16 1 17 73 18 74 19 89 20 75 22 88 23 76 24
REMARK SMILES IDX 77 26 78 27 79 28 87 29 80 30 82 31 86 32 81 33 83 34 85 35
REMARK SMILES IDX 84 36 15 37 16 38 17 39 18 40 19 41 20 42 72 43 21 44 71 45
REMARK SMILES IDX 22 46 23 47 24 48 65 49 25 50 70 51 64 52 66 53 26 54 69 55
REMARK SMILES IDX 63 56 62 57 27 59 53 60 36 61 52 62 37 63 40 64 51 65 67 66
REMARK SMILES IDX 38 67 39 68 50 70 68 71 41 72 28 73 29 74 34 75 30 76 31 77
REMARK SMILES IDX 33 78 35 79 32 80 54 81 55 82 60 83 56 84 57 85 59 86 61 87
REMARK SMILES IDX 58 88 42 89 43 90 48 91 44 92 45 93 47 94 49 95 46 96
REMARK H PARENT 7 15 73 21 76 25 66 58 40 69
REMARK Flexibility Score: inf
ROOT
ATOM      1  C   UNL A   1      33.463  29.159  27.130  1.00  0.00     0.274 C 
ENDROOT
BRANCH   1   2
ATOM      2  O   UNL A   1      32.770  28.720  25.893  1.00  0.00    -0.457 OA
BRANCH   2   3
ATOM      3  C   UNL A   1      31.955  27.580  26.007  1.00  0.00     0.370 C 
ATOM      4  O   UNL A   1      31.501  27.239  27.093  1.00  0.00    -0.245 OA
BRANCH   3   5
ATOM      5  C   UNL A   1      31.498  27.017  24.603  1.00  0.00     0.328 C 
BRANCH   5   6
ATOM      6  C   UNL A   1      31.295  27.867  23.373  1.00  0.00     0.046 A 
ATOM      7  C   UNL A   1      27.757  29.014  22.899  1.00  0.00     0.119 A 
ATOM      8  C   UNL A   1      28.078  30.204  22.259  1.00  0.00     0.048 A 
ATOM      9  C   UNL A   1      28.741  28.073  23.148  1.00  0.00     0.057 A 
ATOM     10  C   UNL A   1      29.384  30.476  21.829  1.00  0.00     0.030 A 
ATOM     11  C   UNL A   1      30.077  28.385  22.878  1.00  0.00     0.013 A 
ATOM     12  C   UNL A   1      30.373  29.560  22.188  1.00  0.00     0.046 A 
ATOM     13  N   UNL A   1      31.739  29.623  22.054  1.00  0.00    -0.361 N 
ATOM     14  C   UNL A   1      32.315  28.601  22.759  1.00  0.00     0.094 A 
ATOM     15  H   UNL A   1      32.228  30.299  21.531  1.00  0.00     0.166 HD
BRANCH   7  16
ATOM     16  O   UNL A   1      26.496  28.893  23.408  1.00  0.00    -0.497 OA
ATOM     17  C   UNL A   1      26.183  27.611  23.944  1.00  0.00     0.278 C 
ENDBRANCH   7  16
ENDBRANCH   5   6
BRANCH   5  18
ATOM     18  N   UNL A   1      32.459  26.020  24.045  1.00  0.00    -0.310 N 
ATOM     19  C   UNL A   1      33.661  25.608  24.823  1.00  0.00     0.325 C 
ATOM     20  C   UNL A   1      31.718  24.915  23.568  1.00  0.00     0.325 C 
ATOM     21  H   UNL A   1      32.936  26.538  23.309  1.00  0.00     0.349 HD
ATOM     22  C   UNL A   1      33.596  24.489  25.956  1.00  0.00     0.324 C 
ATOM     23  C   UNL A   1      31.507  24.013  24.769  1.00  0.00     0.324 C 
ATOM     24  N   UNL A   1      32.550  23.444  25.806  1.00  0.00    -0.322 N 
ATOM     25  H   UNL A   1      32.067  23.285  26.691  1.00  0.00     0.348 HD
BRANCH  24  26
ATOM     26  C   UNL A   1      33.083  21.640  25.733  1.00  0.00     0.300 C 
BRANCH  26  27
ATOM     27  C   UNL A   1      32.282  20.182  24.300  1.00  0.00     0.014 A 
ATOM     28  C   UNL A   1      31.997  20.344  22.873  1.00  0.00     0.010 A 
ATOM     29  C   UNL A   1      32.607  18.440  24.500  1.00  0.00    -0.010 A 
ATOM     30  C   UNL A   1      32.197  19.341  21.892  1.00  0.00     0.001 A 
ATOM     31  C   UNL A   1      33.111  17.695  23.413  1.00  0.00    -0.018 A 
ATOM     32  C   UNL A   1      32.682  17.441  25.650  1.00  0.00     0.009 A 
ATOM     33  C   UNL A   1      32.828  18.129  22.141  1.00  0.00     0.009 A 
ATOM     34  C   UNL A   1      33.944  16.526  23.530  1.00  0.00     0.009 A 
ATOM     35  C   UNL A   1      33.539  16.328  25.817  1.00  0.00     0.001 A 
ATOM     36  C   UNL A   1      34.247  15.906  24.735  1.00  0.00     0.001 A 
ENDBRANCH  26  27
ENDBRANCH  24  26
ENDBRANCH   5  18
ENDBRANCH   3   5
ENDBRANCH   2   3
ENDBRANCH   1   2
BRANCH   1  37
ATOM     37  C   UNL A   1      33.978  30.691  27.228  1.00  0.00     0.275 C 
BRANCH  37  38
ATOM     38  O   UNL A   1      34.017  31.341  28.563  1.00  0.00    -0.458 OA
BRANCH  38  39
ATOM     39  C   UNL A   1      34.946  32.307  28.956  1.00  0.00     0.338 C 
ATOM     40  O   UNL A   1      34.865  33.478  28.621  1.00  0.00    -0.246 OA
BRANCH  39  41
ATOM     41  C   UNL A   1      36.256  31.722  29.877  1.00  0.00     0.060 A 
ATOM     42  C   UNL A   1      36.368  30.456  31.289  1.00  0.00     0.016 A 
ATOM     43  C   UNL A   1      37.280  31.473  28.451  1.00  0.00     0.016 A 
ATOM     44  C   UNL A   1      37.393  28.896  30.970  1.00  0.00     0.010 A 
ATOM     45  C   UNL A   1      38.312  30.112  28.309  1.00  0.00     0.010 A 
ATOM     46  C   UNL A   1      38.512  28.913  29.530  1.00  0.00    -0.014 A 
BRANCH  46  47
ATOM     47  C   UNL A   1      40.032  28.663  29.717  1.00  0.00     0.031 A 
ATOM     48  C   UNL A   1      40.985  29.522  30.638  1.00  0.00     0.074 A 
ATOM     49  C   UNL A   1      40.488  27.522  29.195  1.00  0.00     0.049 A 
ATOM     50  N   UNL A   1      42.171  29.208  31.139  1.00  0.00    -0.248 NA
ATOM     51  C   UNL A   1      40.588  30.867  31.095  1.00  0.00     0.031 C 
ATOM     52  C   UNL A   1      39.699  26.637  28.345  1.00  0.00     0.029 A 
ATOM     53  N   UNL A   1      41.694  26.900  29.324  1.00  0.00    -0.354 N 
ATOM     54  C   UNL A   1      42.532  30.246  32.020  1.00  0.00     0.074 A 
ATOM     55  C   UNL A   1      41.460  31.185  32.033  1.00  0.00     0.031 C 
ATOM     56  C   UNL A   1      40.414  25.536  28.094  1.00  0.00     0.029 A 
ATOM     57  C   UNL A   1      41.757  25.721  28.634  1.00  0.00     0.049 A 
ATOM     58  H   UNL A   1      42.439  27.260  29.858  1.00  0.00     0.167 HD
ATOM     59  C   UNL A   1      43.687  30.498  32.686  1.00  0.00     0.037 A 
ATOM     60  C   UNL A   1      42.811  24.927  28.382  1.00  0.00     0.037 A 
ATOM     61  C   UNL A   1      44.874  29.737  32.446  1.00  0.00     0.049 A 
ATOM     62  C   UNL A   1      44.140  25.328  28.944  1.00  0.00     0.074 A 
ATOM     63  C   UNL A   1      46.164  29.966  32.883  1.00  0.00     0.029 A 
ATOM     64  N   UNL A   1      44.909  28.636  31.606  1.00  0.00    -0.354 N 
ATOM     65  N   UNL A   1      44.434  26.318  29.755  1.00  0.00    -0.248 NA
ATOM     66  C   UNL A   1      45.292  24.529  28.521  1.00  0.00     0.031 C 
ATOM     67  C   UNL A   1      46.997  29.057  32.224  1.00  0.00     0.029 A 
ATOM     68  C   UNL A   1      46.209  28.205  31.460  1.00  0.00     0.049 A 
ATOM     69  H   UNL A   1      44.124  28.224  31.179  1.00  0.00     0.167 HD
ATOM     70  C   UNL A   1      45.808  26.266  29.939  1.00  0.00     0.074 A 
ATOM     71  C   UNL A   1      46.280  25.129  29.171  1.00  0.00     0.031 C 
ATOM     72  C   UNL A   1      46.616  27.077  30.666  1.00  0.00     0.037 A 
BRANCH  59  73
ATOM     73  C   UNL A   1      43.771  31.734  33.563  1.00  0.00     0.057 A 
ATOM     74  C   UNL A   1      44.153  32.989  33.064  1.00  0.00     0.134 A 
ATOM     75  C   UNL A   1      43.474  31.667  34.934  1.00  0.00     0.134 A 
ATOM     76  F   UNL A   1      44.481  33.136  31.772  1.00  0.00    -0.206 F 
ATOM     77  C   UNL A   1      44.242  34.119  33.891  1.00  0.00     0.040 A 
ATOM     78  C   UNL A   1      43.543  32.791  35.766  1.00  0.00     0.040 A 
ATOM     79  F   UNL A   1      43.119  30.502  35.496  1.00  0.00    -0.206 F 
ATOM     80  C   UNL A   1      43.930  34.022  35.245  1.00  0.00     0.006 A 
ENDBRANCH  59  73
BRANCH  60  81
ATOM     81  C   UNL A   1      42.634  23.791  27.443  1.00  0.00     0.057 A 
ATOM     82  C   UNL A   1      42.885  23.913  26.077  1.00  0.00     0.134 A 
ATOM     83  C   UNL A   1      42.291  22.517  27.927  1.00  0.00     0.134 A 
ATOM     84  F   UNL A   1      43.196  25.105  25.547  1.00  0.00    -0.206 F 
ATOM     85  C   UNL A   1      42.824  22.805  25.226  1.00  0.00     0.040 A 
ATOM     86  C   UNL A   1      42.271  21.397  27.099  1.00  0.00     0.040 A 
ATOM     87  F   UNL A   1      42.038  22.332  29.231  1.00  0.00    -0.206 F 
ATOM     88  C   UNL A   1      42.536  21.541  25.742  1.00  0.00     0.006 A 
ENDBRANCH  60  81
BRANCH  72  89
ATOM     89  C   UNL A   1      48.069  26.733  30.685  1.00  0.00     0.057 A 
ATOM     90  C   UNL A   1      48.970  27.274  29.764  1.00  0.00     0.134 A 
ATOM     91  C   UNL A   1      48.568  25.874  31.672  1.00  0.00     0.134 A 
ATOM     92  F   UNL A   1      48.544  28.100  28.796  1.00  0.00    -0.206 F 
ATOM     93  C   UNL A   1      50.322  26.939  29.798  1.00  0.00     0.040 A 
ATOM     94  C   UNL A   1      49.922  25.562  31.738  1.00  0.00     0.040 A 
ATOM     95  F   UNL A   1      47.751  25.346  32.594  1.00  0.00    -0.206 F 
ATOM     96  C   UNL A   1      50.800  26.085  30.791  1.00  0.00     0.006 A 
ENDBRANCH  72  89
ENDBRANCH  46  47
ENDBRANCH  39  41
ENDBRANCH  38  39
ENDBRANCH  37  38
ENDBRANCH   1  37
TORSDOF 16
ENDMDL
