MODEL 1
REMARK VINA RESULT:      -9.7      0.000      0.000
REMARK SMILES CC[NH2+]CCC(=O)NC1(CC(=O)OCCOC(=O)c2ccc(-c3c4nc(c(-c5c(F)cccc5F)c5ccc([nH]5)c(-c5c(F)cccc5F)c5nc(c(-c6c(F)cccc6F)c6ccc3[nH]6)C=C5)C=C4)cc2)CCC1
REMARK SMILES IDX 11 1 12 2 10 3 9 4 73 5 75 6 74 7 8 8 6 9 7 10 5 12 4 13
REMARK SMILES IDX 3 14 2 17 1 18 13 19 14 20 15 21 16 22 17 23 18 24 19 25
REMARK SMILES IDX 20 26 72 27 21 28 71 29 22 30 23 31 24 32 65 33 25 34 70 35
REMARK SMILES IDX 64 36 66 37 26 38 69 39 63 40 62 41 27 43 53 44 36 45 52 46
REMARK SMILES IDX 37 47 40 48 51 49 67 50 38 51 39 52 50 54 68 55 41 56 28 57
REMARK SMILES IDX 29 58 34 59 30 60 31 61 33 62 35 63 32 64 54 65 55 66 60 67
REMARK SMILES IDX 56 68 57 69 59 70 61 71 58 72 42 73 43 74 48 75 44 76 45 77
REMARK SMILES IDX 47 78 49 79 46 80
REMARK H PARENT 8 11 3 15 3 16 66 42 40 53
REMARK Flexibility Score: inf
ROOT
ATOM      1  C   UNL A   1      34.906  23.871  24.065  1.00  0.00     0.308 C 
ATOM      2  O   UNL A   1      34.369  24.152  22.997  1.00  0.00    -0.252 OA
ENDROOT
BRANCH   1   3
ATOM      3  C   UNL A   1      34.083  23.726  25.314  1.00  0.00     0.151 C 
BRANCH   3   4
ATOM      4  C   UNL A   1      33.527  22.375  25.806  1.00  0.00     0.050 C 
ATOM      5  C   UNL A   1      32.215  22.648  26.647  1.00  0.00     0.029 C 
ATOM      6  C   UNL A   1      34.100  21.827  27.141  1.00  0.00     0.029 C 
ATOM      7  C   UNL A   1      33.089  22.697  27.905  1.00  0.00     0.005 C 
BRANCH   4   8
ATOM      8  N   UNL A   1      33.175  21.465  24.694  1.00  0.00    -0.350 N 
ATOM      9  C   UNL A   1      32.782  20.166  24.578  1.00  0.00     0.226 C 
ATOM     10  O   UNL A   1      32.405  19.817  23.453  1.00  0.00    -0.275 OA
ATOM     11  H   UNL A   1      33.241  21.909  23.818  1.00  0.00     0.164 HD
BRANCH   9  12
ATOM     12  C   UNL A   1      32.749  19.167  25.713  1.00  0.00     0.161 C 
BRANCH  12  13
ATOM     13  C   UNL A   1      32.633  17.708  25.273  1.00  0.00     0.270 C 
BRANCH  13  14
ATOM     14  N   UNL A   1      33.564  16.764  25.893  1.00  0.00    -0.346 N 
ATOM     15  H   UNL A   1      34.142  17.279  26.557  1.00  0.00     0.346 HD
ATOM     16  H   UNL A   1      32.990  16.043  26.332  1.00  0.00     0.346 HD
BRANCH  14  17
ATOM     17  C   UNL A   1      34.445  16.074  24.962  1.00  0.00     0.257 C 
ATOM     18  C   UNL A   1      34.128  16.512  23.536  1.00  0.00     0.071 C 
ENDBRANCH  14  17
ENDBRANCH  13  14
ENDBRANCH  12  13
ENDBRANCH   9  12
ENDBRANCH   4   8
ENDBRANCH   3   4
ENDBRANCH   1   3
BRANCH   1  19
ATOM     19  O   UNL A   1      36.225  23.629  24.217  1.00  0.00    -0.462 OA
BRANCH  19  20
ATOM     20  C   UNL A   1      36.731  22.443  23.552  1.00  0.00     0.274 C 
BRANCH  20  21
ATOM     21  C   UNL A   1      36.832  21.287  24.543  1.00  0.00     0.275 C 
BRANCH  21  22
ATOM     22  O   UNL A   1      37.401  21.787  25.763  1.00  0.00    -0.458 OA
BRANCH  22  23
ATOM     23  C   UNL A   1      38.685  21.430  25.999  1.00  0.00     0.338 C 
ATOM     24  O   UNL A   1      39.177  20.326  25.867  1.00  0.00    -0.246 OA
BRANCH  23  25
ATOM     25  C   UNL A   1      39.436  22.613  26.472  1.00  0.00     0.060 A 
ATOM     26  C   UNL A   1      40.571  22.477  27.277  1.00  0.00     0.016 A 
ATOM     27  C   UNL A   1      38.970  23.884  26.141  1.00  0.00     0.016 A 
ATOM     28  C   UNL A   1      41.209  23.600  27.795  1.00  0.00     0.010 A 
ATOM     29  C   UNL A   1      39.664  25.011  26.583  1.00  0.00     0.010 A 
ATOM     30  C   UNL A   1      40.781  24.882  27.428  1.00  0.00    -0.014 A 
BRANCH  30  31
ATOM     31  C   UNL A   1      41.499  26.094  27.899  1.00  0.00     0.031 A 
ATOM     32  C   UNL A   1      40.771  27.145  28.686  1.00  0.00     0.074 A 
ATOM     33  C   UNL A   1      42.795  26.275  27.574  1.00  0.00     0.049 A 
ATOM     34  N   UNL A   1      41.155  28.353  29.011  1.00  0.00    -0.248 NA
ATOM     35  C   UNL A   1      39.423  26.795  29.159  1.00  0.00     0.031 C 
ATOM     36  C   UNL A   1      43.624  25.323  26.834  1.00  0.00     0.029 A 
ATOM     37  N   UNL A   1      43.637  27.332  27.814  1.00  0.00    -0.354 N 
ATOM     38  C   UNL A   1      40.080  28.925  29.681  1.00  0.00     0.074 A 
ATOM     39  C   UNL A   1      39.026  27.933  29.712  1.00  0.00     0.031 C 
ATOM     40  C   UNL A   1      44.857  25.831  26.690  1.00  0.00     0.029 A 
ATOM     41  C   UNL A   1      44.883  27.174  27.258  1.00  0.00     0.049 A 
ATOM     42  H   UNL A   1      43.373  28.126  28.333  1.00  0.00     0.167 HD
ATOM     43  C   UNL A   1      39.984  30.167  30.215  1.00  0.00     0.037 A 
ATOM     44  C   UNL A   1      45.916  28.030  27.169  1.00  0.00     0.037 A 
ATOM     45  C   UNL A   1      41.047  31.138  30.204  1.00  0.00     0.049 A 
ATOM     46  C   UNL A   1      45.777  29.411  27.740  1.00  0.00     0.074 A 
ATOM     47  C   UNL A   1      41.060  32.411  30.745  1.00  0.00     0.029 A 
ATOM     48  N   UNL A   1      42.292  30.938  29.625  1.00  0.00    -0.354 N 
ATOM     49  N   UNL A   1      44.751  29.948  28.352  1.00  0.00    -0.248 NA
ATOM     50  C   UNL A   1      46.932  30.307  27.594  1.00  0.00     0.031 C 
ATOM     51  C   UNL A   1      42.299  32.996  30.460  1.00  0.00     0.029 A 
ATOM     52  C   UNL A   1      43.074  32.071  29.779  1.00  0.00     0.049 A 
ATOM     53  H   UNL A   1      42.577  30.112  29.170  1.00  0.00     0.167 HD
ATOM     54  C   UNL A   1      45.136  31.242  28.674  1.00  0.00     0.074 A 
ATOM     55  C   UNL A   1      46.499  31.401  28.204  1.00  0.00     0.031 C 
ATOM     56  C   UNL A   1      44.426  32.211  29.300  1.00  0.00     0.037 A 
BRANCH  43  57
ATOM     57  C   UNL A   1      38.666  30.553  30.821  1.00  0.00     0.057 A 
ATOM     58  C   UNL A   1      38.379  30.347  32.176  1.00  0.00     0.134 A 
ATOM     59  C   UNL A   1      37.672  31.150  30.034  1.00  0.00     0.134 A 
ATOM     60  F   UNL A   1      39.281  29.766  32.981  1.00  0.00    -0.206 F 
ATOM     61  C   UNL A   1      37.141  30.694  32.721  1.00  0.00     0.040 A 
ATOM     62  C   UNL A   1      36.440  31.525  30.573  1.00  0.00     0.040 A 
ATOM     63  F   UNL A   1      37.882  31.382  28.730  1.00  0.00    -0.206 F 
ATOM     64  C   UNL A   1      36.169  31.289  31.919  1.00  0.00     0.006 A 
ENDBRANCH  43  57
BRANCH  44  65
ATOM     65  C   UNL A   1      47.161  27.605  26.480  1.00  0.00     0.057 A 
ATOM     66  C   UNL A   1      47.307  27.755  25.098  1.00  0.00     0.134 A 
ATOM     67  C   UNL A   1      48.245  27.078  27.194  1.00  0.00     0.134 A 
ATOM     68  F   UNL A   1      46.297  28.236  24.360  1.00  0.00    -0.206 F 
ATOM     69  C   UNL A   1      48.489  27.396  24.447  1.00  0.00     0.040 A 
ATOM     70  C   UNL A   1      49.440  26.738  26.560  1.00  0.00     0.040 A 
ATOM     71  F   UNL A   1      48.166  26.916  28.523  1.00  0.00    -0.206 F 
ATOM     72  C   UNL A   1      49.563  26.895  25.181  1.00  0.00     0.006 A 
ENDBRANCH  44  65
BRANCH  56  73
ATOM     73  C   UNL A   1      45.121  33.520  29.530  1.00  0.00     0.057 A 
ATOM     74  C   UNL A   1      45.888  33.754  30.677  1.00  0.00     0.134 A 
ATOM     75  C   UNL A   1      45.038  34.548  28.583  1.00  0.00     0.134 A 
ATOM     76  F   UNL A   1      45.992  32.815  31.629  1.00  0.00    -0.206 F 
ATOM     77  C   UNL A   1      46.535  34.973  30.883  1.00  0.00     0.040 A 
ATOM     78  C   UNL A   1      45.698  35.762  28.767  1.00  0.00     0.040 A 
ATOM     79  F   UNL A   1      44.321  34.383  27.460  1.00  0.00    -0.206 F 
ATOM     80  C   UNL A   1      46.446  35.979  29.923  1.00  0.00     0.006 A 
ENDBRANCH  56  73
ENDBRANCH  30  31
ENDBRANCH  23  25
ENDBRANCH  22  23
ENDBRANCH  21  22
ENDBRANCH  20  21
ENDBRANCH  19  20
ENDBRANCH   1  19
TORSDOF 17
ENDMDL
MODEL 2
REMARK VINA RESULT:      -9.7      5.038      9.688
REMARK SMILES CC[NH2+]CCC(=O)NC1(CC(=O)OCCOC(=O)c2ccc(-c3c4nc(c(-c5c(F)cccc5F)c5ccc([nH]5)c(-c5c(F)cccc5F)c5nc(c(-c6c(F)cccc6F)c6ccc3[nH]6)C=C5)C=C4)cc2)CCC1
REMARK SMILES IDX 11 1 12 2 10 3 9 4 73 5 75 6 74 7 8 8 6 9 7 10 5 12 4 13
REMARK SMILES IDX 3 14 2 17 1 18 13 19 14 20 15 21 16 22 17 23 18 24 19 25
REMARK SMILES IDX 20 26 72 27 21 28 71 29 22 30 23 31 24 32 65 33 25 34 70 35
REMARK SMILES IDX 64 36 66 37 26 38 69 39 63 40 62 41 27 43 53 44 36 45 52 46
REMARK SMILES IDX 37 47 40 48 51 49 67 50 38 51 39 52 50 54 68 55 41 56 28 57
REMARK SMILES IDX 29 58 34 59 30 60 31 61 33 62 35 63 32 64 54 65 55 66 60 67
REMARK SMILES IDX 56 68 57 69 59 70 61 71 58 72 42 73 43 74 48 75 44 76 45 77
REMARK SMILES IDX 47 78 49 79 46 80
REMARK H PARENT 8 11 3 15 3 16 66 42 40 53
REMARK Flexibility Score: inf
ROOT
ATOM      1  C   UNL A   1      33.256  35.853  29.220  1.00  0.00     0.308 C 
ATOM      2  O   UNL A   1      32.159  36.086  28.719  1.00  0.00    -0.252 OA
ENDROOT
BRANCH   1   3
ATOM      3  C   UNL A   1      33.640  36.477  30.532  1.00  0.00     0.151 C 
BRANCH   3   4
ATOM      4  C   UNL A   1      33.532  35.740  31.881  1.00  0.00     0.050 C 
ATOM      5  C   UNL A   1      32.107  36.038  32.503  1.00  0.00     0.029 C 
ATOM      6  C   UNL A   1      34.077  36.482  33.130  1.00  0.00     0.029 C 
ATOM      7  C   UNL A   1      32.734  37.220  33.250  1.00  0.00     0.005 C 
BRANCH   4   8
ATOM      8  N   UNL A   1      33.671  34.273  31.741  1.00  0.00    -0.350 N 
ATOM      9  C   UNL A   1      34.693  33.375  31.805  1.00  0.00     0.226 C 
ATOM     10  O   UNL A   1      34.363  32.184  31.805  1.00  0.00    -0.275 OA
ATOM     11  H   UNL A   1      32.808  33.836  31.556  1.00  0.00     0.164 HD
BRANCH   9  12
ATOM     12  C   UNL A   1      36.158  33.739  31.904  1.00  0.00     0.161 C 
BRANCH  12  13
ATOM     13  C   UNL A   1      36.980  33.410  30.659  1.00  0.00     0.270 C 
BRANCH  13  14
ATOM     14  N   UNL A   1      37.314  34.533  29.783  1.00  0.00    -0.346 N 
ATOM     15  H   UNL A   1      36.653  34.537  29.006  1.00  0.00     0.346 HD
ATOM     16  H   UNL A   1      37.262  35.373  30.361  1.00  0.00     0.346 HD
BRANCH  14  17
ATOM     17  C   UNL A   1      38.662  34.500  29.232  1.00  0.00     0.257 C 
ATOM     18  C   UNL A   1      39.680  34.553  30.366  1.00  0.00     0.071 C 
ENDBRANCH  14  17
ENDBRANCH  13  14
ENDBRANCH  12  13
ENDBRANCH   9  12
ENDBRANCH   4   8
ENDBRANCH   3   4
ENDBRANCH   1   3
BRANCH   1  19
ATOM     19  O   UNL A   1      34.173  35.014  28.694  1.00  0.00    -0.462 OA
BRANCH  19  20
ATOM     20  C   UNL A   1      33.671  33.728  28.246  1.00  0.00     0.274 C 
BRANCH  20  21
ATOM     21  C   UNL A   1      34.830  32.764  28.008  1.00  0.00     0.275 C 
BRANCH  21  22
ATOM     22  O   UNL A   1      34.541  31.534  28.690  1.00  0.00    -0.458 OA
BRANCH  22  23
ATOM     23  C   UNL A   1      34.790  30.405  27.988  1.00  0.00     0.338 C 
ATOM     24  O   UNL A   1      34.031  29.824  27.236  1.00  0.00    -0.246 OA
BRANCH  23  25
ATOM     25  C   UNL A   1      36.164  29.945  28.283  1.00  0.00     0.060 A 
ATOM     26  C   UNL A   1      36.494  29.392  29.524  1.00  0.00     0.016 A 
ATOM     27  C   UNL A   1      37.152  30.112  27.315  1.00  0.00     0.016 A 
ATOM     28  C   UNL A   1      37.811  29.056  29.821  1.00  0.00     0.010 A 
ATOM     29  C   UNL A   1      38.456  29.687  27.578  1.00  0.00     0.010 A 
ATOM     30  C   UNL A   1      38.803  29.170  28.838  1.00  0.00    -0.014 A 
BRANCH  30  31
ATOM     31  C   UNL A   1      40.199  28.736  29.104  1.00  0.00     0.031 A 
ATOM     32  C   UNL A   1      41.186  29.694  29.706  1.00  0.00     0.074 A 
ATOM     33  C   UNL A   1      40.593  27.495  28.756  1.00  0.00     0.049 A 
ATOM     34  N   UNL A   1      42.483  29.580  29.827  1.00  0.00    -0.248 NA
ATOM     35  C   UNL A   1      40.640  30.957  30.228  1.00  0.00     0.031 C 
ATOM     36  C   UNL A   1      39.730  26.460  28.184  1.00  0.00     0.029 A 
ATOM     37  N   UNL A   1      41.828  26.900  28.820  1.00  0.00    -0.354 N 
ATOM     38  C   UNL A   1      42.917  30.774  30.392  1.00  0.00     0.074 A 
ATOM     39  C   UNL A   1      41.743  31.600  30.584  1.00  0.00     0.031 C 
ATOM     40  C   UNL A   1      40.457  25.355  27.961  1.00  0.00     0.029 A 
ATOM     41  C   UNL A   1      41.848  25.628  28.299  1.00  0.00     0.049 A 
ATOM     42  H   UNL A   1      42.622  27.340  29.200  1.00  0.00     0.167 HD
ATOM     43  C   UNL A   1      44.180  31.145  30.713  1.00  0.00     0.037 A 
ATOM     44  C   UNL A   1      42.877  24.792  28.071  1.00  0.00     0.037 A 
ATOM     45  C   UNL A   1      45.338  30.306  30.544  1.00  0.00     0.049 A 
ATOM     46  C   UNL A   1      44.271  25.235  28.406  1.00  0.00     0.074 A 
ATOM     47  C   UNL A   1      46.656  30.577  30.867  1.00  0.00     0.029 A 
ATOM     48  N   UNL A   1      45.314  29.026  30.008  1.00  0.00    -0.354 N 
ATOM     49  N   UNL A   1      44.672  26.372  28.920  1.00  0.00    -0.248 NA
ATOM     50  C   UNL A   1      45.354  24.286  28.117  1.00  0.00     0.031 C 
ATOM     51  C   UNL A   1      47.434  29.477  30.492  1.00  0.00     0.029 A 
ATOM     52  C   UNL A   1      46.596  28.503  29.974  1.00  0.00     0.049 A 
ATOM     53  H   UNL A   1      44.504  28.561  29.697  1.00  0.00     0.167 HD
ATOM     54  C   UNL A   1      46.053  26.275  29.025  1.00  0.00     0.074 A 
ATOM     55  C   UNL A   1      46.416  24.959  28.537  1.00  0.00     0.031 C 
ATOM     56  C   UNL A   1      46.938  27.193  29.480  1.00  0.00     0.037 A 
BRANCH  43  57
ATOM     57  C   UNL A   1      44.373  32.535  31.245  1.00  0.00     0.057 A 
ATOM     58  C   UNL A   1      44.618  33.628  30.404  1.00  0.00     0.134 A 
ATOM     59  C   UNL A   1      44.304  32.784  32.622  1.00  0.00     0.134 A 
ATOM     60  F   UNL A   1      44.713  33.457  29.077  1.00  0.00    -0.206 F 
ATOM     61  C   UNL A   1      44.816  34.913  30.915  1.00  0.00     0.040 A 
ATOM     62  C   UNL A   1      44.474  34.068  33.143  1.00  0.00     0.040 A 
ATOM     63  F   UNL A   1      44.066  31.784  33.484  1.00  0.00    -0.206 F 
ATOM     64  C   UNL A   1      44.739  35.135  32.289  1.00  0.00     0.006 A 
ENDBRANCH  43  57
BRANCH  44  65
ATOM     65  C   UNL A   1      42.618  23.462  27.465  1.00  0.00     0.057 A 
ATOM     66  C   UNL A   1      42.257  22.367  28.256  1.00  0.00     0.134 A 
ATOM     67  C   UNL A   1      42.685  23.267  26.080  1.00  0.00     0.134 A 
ATOM     68  F   UNL A   1      42.195  22.488  29.589  1.00  0.00    -0.206 F 
ATOM     69  C   UNL A   1      41.971  21.123  27.690  1.00  0.00     0.040 A 
ATOM     70  C   UNL A   1      42.378  22.037  25.500  1.00  0.00     0.040 A 
ATOM     71  F   UNL A   1      43.019  24.282  25.269  1.00  0.00    -0.206 F 
ATOM     72  C   UNL A   1      42.022  20.958  26.307  1.00  0.00     0.006 A 
ENDBRANCH  44  65
BRANCH  56  73
ATOM     73  C   UNL A   1      48.384  26.793  29.493  1.00  0.00     0.057 A 
ATOM     74  C   UNL A   1      48.938  26.069  30.555  1.00  0.00     0.134 A 
ATOM     75  C   UNL A   1      49.222  27.118  28.420  1.00  0.00     0.134 A 
ATOM     76  F   UNL A   1      48.190  25.743  31.619  1.00  0.00    -0.206 F 
ATOM     77  C   UNL A   1      50.283  25.697  30.558  1.00  0.00     0.040 A 
ATOM     78  C   UNL A   1      50.563  26.732  28.401  1.00  0.00     0.040 A 
ATOM     79  F   UNL A   1      48.749  27.807  27.370  1.00  0.00    -0.206 F 
ATOM     80  C   UNL A   1      51.097  26.024  29.476  1.00  0.00     0.006 A 
ENDBRANCH  56  73
ENDBRANCH  30  31
ENDBRANCH  23  25
ENDBRANCH  22  23
ENDBRANCH  21  22
ENDBRANCH  20  21
ENDBRANCH  19  20
ENDBRANCH   1  19
TORSDOF 17
ENDMDL
MODEL 3
REMARK VINA RESULT:      -9.6      4.116      8.503
REMARK SMILES CC[NH2+]CCC(=O)NC1(CC(=O)OCCOC(=O)c2ccc(-c3c4nc(c(-c5c(F)cccc5F)c5ccc([nH]5)c(-c5c(F)cccc5F)c5nc(c(-c6c(F)cccc6F)c6ccc3[nH]6)C=C5)C=C4)cc2)CCC1
REMARK SMILES IDX 11 1 12 2 10 3 9 4 73 5 75 6 74 7 8 8 6 9 7 10 5 12 4 13
REMARK SMILES IDX 3 14 2 17 1 18 13 19 14 20 15 21 16 22 17 23 18 24 19 25
REMARK SMILES IDX 20 26 72 27 21 28 71 29 22 30 23 31 24 32 65 33 25 34 70 35
REMARK SMILES IDX 64 36 66 37 26 38 69 39 63 40 62 41 27 43 53 44 36 45 52 46
REMARK SMILES IDX 37 47 40 48 51 49 67 50 38 51 39 52 50 54 68 55 41 56 28 57
REMARK SMILES IDX 29 58 34 59 30 60 31 61 33 62 35 63 32 64 54 65 55 66 60 67
REMARK SMILES IDX 56 68 57 69 59 70 61 71 58 72 42 73 43 74 48 75 44 76 45 77
REMARK SMILES IDX 47 78 49 79 46 80
REMARK H PARENT 8 11 3 15 3 16 66 42 40 53
REMARK Flexibility Score: inf
ROOT
ATOM      1  C   UNL A   1      31.882  26.486  26.254  1.00  0.00     0.308 C 
ATOM      2  O   UNL A   1      30.885  26.078  26.843  1.00  0.00    -0.252 OA
ENDROOT
BRANCH   1   3
ATOM      3  C   UNL A   1      32.815  25.519  25.581  1.00  0.00     0.151 C 
BRANCH   3   4
ATOM      4  C   UNL A   1      32.392  24.624  24.399  1.00  0.00     0.050 C 
ATOM      5  C   UNL A   1      33.698  24.064  23.702  1.00  0.00     0.029 C 
ATOM      6  C   UNL A   1      32.139  25.331  23.041  1.00  0.00     0.029 C 
ATOM      7  C   UNL A   1      33.648  25.265  22.752  1.00  0.00     0.005 C 
BRANCH   4   8
ATOM      8  N   UNL A   1      31.572  23.468  24.825  1.00  0.00    -0.350 N 
ATOM      9  C   UNL A   1      31.524  22.648  25.912  1.00  0.00     0.226 C 
ATOM     10  O   UNL A   1      30.551  21.888  25.968  1.00  0.00    -0.275 OA
ATOM     11  H   UNL A   1      30.889  23.233  24.156  1.00  0.00     0.164 HD
BRANCH   9  12
ATOM     12  C   UNL A   1      32.539  22.637  27.032  1.00  0.00     0.161 C 
BRANCH  12  13
ATOM     13  C   UNL A   1      33.670  21.625  26.855  1.00  0.00     0.270 C 
BRANCH  13  14
ATOM     14  N   UNL A   1      33.280  20.276  26.440  1.00  0.00    -0.346 N 
ATOM     15  H   UNL A   1      33.677  19.613  27.106  1.00  0.00     0.346 HD
ATOM     16  H   UNL A   1      32.260  20.267  26.422  1.00  0.00     0.346 HD
BRANCH  14  17
ATOM     17  C   UNL A   1      33.717  19.896  25.105  1.00  0.00     0.257 C 
ATOM     18  C   UNL A   1      32.529  19.366  24.309  1.00  0.00     0.071 C 
ENDBRANCH  14  17
ENDBRANCH  13  14
ENDBRANCH  12  13
ENDBRANCH   9  12
ENDBRANCH   4   8
ENDBRANCH   3   4
ENDBRANCH   1   3
BRANCH   1  19
ATOM     19  O   UNL A   1      32.208  27.788  26.116  1.00  0.00    -0.462 OA
BRANCH  19  20
ATOM     20  C   UNL A   1      31.431  28.537  25.146  1.00  0.00     0.274 C 
BRANCH  20  21
ATOM     21  C   UNL A   1      31.618  30.035  25.364  1.00  0.00     0.275 C 
BRANCH  21  22
ATOM     22  O   UNL A   1      32.932  30.253  25.900  1.00  0.00    -0.458 OA
BRANCH  22  23
ATOM     23  C   UNL A   1      33.019  31.190  26.872  1.00  0.00     0.338 C 
ATOM     24  O   UNL A   1      32.222  32.077  27.112  1.00  0.00    -0.246 OA
BRANCH  23  25
ATOM     25  C   UNL A   1      34.275  30.990  27.626  1.00  0.00     0.060 A 
ATOM     26  C   UNL A   1      35.095  32.069  27.969  1.00  0.00     0.016 A 
ATOM     27  C   UNL A   1      34.664  29.693  27.956  1.00  0.00     0.016 A 
ATOM     28  C   UNL A   1      36.322  31.855  28.591  1.00  0.00     0.010 A 
ATOM     29  C   UNL A   1      35.848  29.485  28.663  1.00  0.00     0.010 A 
ATOM     30  C   UNL A   1      36.698  30.561  28.974  1.00  0.00    -0.014 A 
BRANCH  30  31
ATOM     31  C   UNL A   1      37.962  30.319  29.716  1.00  0.00     0.031 A 
ATOM     32  C   UNL A   1      39.033  29.450  29.121  1.00  0.00     0.074 A 
ATOM     33  C   UNL A   1      38.127  30.839  30.949  1.00  0.00     0.049 A 
ATOM     34  N   UNL A   1      40.106  28.955  29.682  1.00  0.00    -0.248 NA
ATOM     35  C   UNL A   1      38.864  29.075  27.708  1.00  0.00     0.031 C 
ATOM     36  C   UNL A   1      37.176  31.716  31.633  1.00  0.00     0.029 A 
ATOM     37  N   UNL A   1      39.150  30.690  31.852  1.00  0.00    -0.354 N 
ATOM     38  C   UNL A   1      40.714  28.170  28.709  1.00  0.00     0.074 A 
ATOM     39  C   UNL A   1      39.887  28.252  27.524  1.00  0.00     0.031 C 
ATOM     40  C   UNL A   1      37.664  32.038  32.840  1.00  0.00     0.029 A 
ATOM     41  C   UNL A   1      38.921  31.328  33.046  1.00  0.00     0.049 A 
ATOM     42  H   UNL A   1      39.967  30.175  31.662  1.00  0.00     0.167 HD
ATOM     43  C   UNL A   1      41.855  27.446  28.802  1.00  0.00     0.037 A 
ATOM     44  C   UNL A   1      39.616  31.308  34.197  1.00  0.00     0.037 A 
ATOM     45  C   UNL A   1      42.687  27.393  29.976  1.00  0.00     0.049 A 
ATOM     46  C   UNL A   1      40.860  30.474  34.288  1.00  0.00     0.074 A 
ATOM     47  C   UNL A   1      43.878  26.713  30.161  1.00  0.00     0.029 A 
ATOM     48  N   UNL A   1      42.415  28.052  31.167  1.00  0.00    -0.354 N 
ATOM     49  N   UNL A   1      41.415  29.721  33.371  1.00  0.00    -0.248 NA
ATOM     50  C   UNL A   1      41.565  30.476  35.577  1.00  0.00     0.031 C 
ATOM     51  C   UNL A   1      44.307  26.931  31.475  1.00  0.00     0.029 A 
ATOM     52  C   UNL A   1      43.406  27.780  32.096  1.00  0.00     0.049 A 
ATOM     53  H   UNL A   1      41.631  28.626  31.327  1.00  0.00     0.167 HD
ATOM     54  C   UNL A   1      42.540  29.165  33.965  1.00  0.00     0.074 A 
ATOM     55  C   UNL A   1      42.596  29.684  35.317  1.00  0.00     0.031 C 
ATOM     56  C   UNL A   1      43.441  28.302  33.439  1.00  0.00     0.037 A 
BRANCH  43  57
ATOM     57  C   UNL A   1      42.246  26.623  27.609  1.00  0.00     0.057 A 
ATOM     58  C   UNL A   1      41.825  25.296  27.448  1.00  0.00     0.134 A 
ATOM     59  C   UNL A   1      43.049  27.172  26.601  1.00  0.00     0.134 A 
ATOM     60  F   UNL A   1      41.067  24.706  28.384  1.00  0.00    -0.206 F 
ATOM     61  C   UNL A   1      42.212  24.537  26.342  1.00  0.00     0.040 A 
ATOM     62  C   UNL A   1      43.422  26.431  25.478  1.00  0.00     0.040 A 
ATOM     63  F   UNL A   1      43.483  28.438  26.689  1.00  0.00    -0.206 F 
ATOM     64  C   UNL A   1      43.010  25.106  25.351  1.00  0.00     0.006 A 
ENDBRANCH  43  57
BRANCH  44  65
ATOM     65  C   UNL A   1      39.123  32.082  35.363  1.00  0.00     0.057 A 
ATOM     66  C   UNL A   1      39.435  33.437  35.513  1.00  0.00     0.134 A 
ATOM     67  C   UNL A   1      38.297  31.497  36.331  1.00  0.00     0.134 A 
ATOM     68  F   UNL A   1      40.237  34.047  34.628  1.00  0.00    -0.206 F 
ATOM     69  C   UNL A   1      38.942  34.185  36.584  1.00  0.00     0.040 A 
ATOM     70  C   UNL A   1      37.778  32.238  37.393  1.00  0.00     0.040 A 
ATOM     71  F   UNL A   1      37.958  30.203  36.239  1.00  0.00    -0.206 F 
ATOM     72  C   UNL A   1      38.102  33.587  37.523  1.00  0.00     0.006 A 
ENDBRANCH  44  65
BRANCH  56  73
ATOM     73  C   UNL A   1      44.577  27.884  34.324  1.00  0.00     0.057 A 
ATOM     74  C   UNL A   1      44.507  26.734  35.119  1.00  0.00     0.134 A 
ATOM     75  C   UNL A   1      45.761  28.631  34.364  1.00  0.00     0.134 A 
ATOM     76  F   UNL A   1      43.394  25.986  35.136  1.00  0.00    -0.206 F 
ATOM     77  C   UNL A   1      45.571  26.349  35.937  1.00  0.00     0.040 A 
ATOM     78  C   UNL A   1      46.839  28.244  35.161  1.00  0.00     0.040 A 
ATOM     79  F   UNL A   1      45.892  29.742  33.622  1.00  0.00    -0.206 F 
ATOM     80  C   UNL A   1      46.743  27.102  35.954  1.00  0.00     0.006 A 
ENDBRANCH  56  73
ENDBRANCH  30  31
ENDBRANCH  23  25
ENDBRANCH  22  23
ENDBRANCH  21  22
ENDBRANCH  20  21
ENDBRANCH  19  20
ENDBRANCH   1  19
TORSDOF 17
ENDMDL
