MODEL 1
REMARK VINA RESULT:     -11.5      0.000      0.000
REMARK SMILES O=C(OCCOC(=O)[C@H](Oc1cccc([N+](=O)[O-])c1)c1ccccc1)c1ccc(-c2c3nc(c(-c4c(F)cccc4F)c4ccc([nH]4)c(-c4c(F)cccc4F)c4nc(c(-c5c(F)cccc5F)c5ccc2[nH]5)C=C4)C=C3)cc1
REMARK SMILES IDX 5 1 4 2 3 3 2 4 1 5 26 6 27 7 79 8 28 9 78 10 29 11 30 12
REMARK SMILES IDX 31 13 72 14 32 15 77 16 71 17 73 18 33 19 76 20 70 21 69 22
REMARK SMILES IDX 34 24 60 25 43 26 59 27 44 28 47 29 58 30 74 31 45 32 46 33
REMARK SMILES IDX 57 35 75 36 48 37 35 38 36 39 41 40 37 41 38 42 40 43 42 44
REMARK SMILES IDX 39 45 61 46 62 47 67 48 63 49 64 50 66 51 68 52 65 53 49 54
REMARK SMILES IDX 50 55 55 56 51 57 52 58 54 59 56 60 53 61 6 62 7 63 8 64
REMARK SMILES IDX 9 65 20 66 21 67 25 68 22 69 24 70 23 71 10 72 11 73 12 74
REMARK SMILES IDX 19 75 13 76 15 77 14 78 16 79 17 80 18 81
REMARK H PARENT 73 23 47 34
REMARK Flexibility Score: inf
ROOT
ATOM      1  C   UNL A   1      35.593  22.391  24.559  1.00  0.00     0.274 C 
ENDROOT
BRANCH   1   2
ATOM      2  C   UNL A   1      36.969  21.800  24.250  1.00  0.00     0.275 C 
BRANCH   2   3
ATOM      3  O   UNL A   1      37.581  21.238  25.433  1.00  0.00    -0.458 OA
BRANCH   3   4
ATOM      4  C   UNL A   1      38.860  21.382  25.864  1.00  0.00     0.338 C 
ATOM      5  O   UNL A   1      39.574  20.386  25.951  1.00  0.00    -0.246 OA
BRANCH   4   6
ATOM      6  C   UNL A   1      39.357  22.650  26.491  1.00  0.00     0.060 A 
ATOM      7  C   UNL A   1      38.893  23.933  26.200  1.00  0.00     0.016 A 
ATOM      8  C   UNL A   1      40.411  22.528  27.423  1.00  0.00     0.016 A 
ATOM      9  C   UNL A   1      39.428  25.053  26.846  1.00  0.00     0.010 A 
ATOM     10  C   UNL A   1      40.968  23.652  28.056  1.00  0.00     0.010 A 
ATOM     11  C   UNL A   1      40.482  24.926  27.762  1.00  0.00    -0.014 A 
BRANCH  11  12
ATOM     12  C   UNL A   1      41.152  26.170  28.220  1.00  0.00     0.031 A 
ATOM     13  C   UNL A   1      42.501  26.488  27.658  1.00  0.00     0.074 A 
ATOM     14  C   UNL A   1      40.552  27.041  29.049  1.00  0.00     0.049 A 
ATOM     15  N   UNL A   1      43.193  27.591  27.745  1.00  0.00    -0.248 NA
ATOM     16  C   UNL A   1      43.173  25.398  26.933  1.00  0.00     0.031 C 
ATOM     17  C   UNL A   1      39.314  26.783  29.764  1.00  0.00     0.029 A 
ATOM     18  N   UNL A   1      40.878  28.331  29.400  1.00  0.00    -0.354 N 
ATOM     19  C   UNL A   1      44.406  27.314  27.133  1.00  0.00     0.074 A 
ATOM     20  C   UNL A   1      44.340  25.952  26.647  1.00  0.00     0.031 C 
ATOM     21  C   UNL A   1      38.921  27.913  30.375  1.00  0.00     0.029 A 
ATOM     22  C   UNL A   1      39.873  28.974  30.092  1.00  0.00     0.049 A 
ATOM     23  H   UNL A   1      41.740  28.752  29.179  1.00  0.00     0.167 HD
ATOM     24  C   UNL A   1      45.491  28.114  27.031  1.00  0.00     0.037 A 
ATOM     25  C   UNL A   1      39.725  30.276  30.417  1.00  0.00     0.037 A 
ATOM     26  C   UNL A   1      45.558  29.448  27.566  1.00  0.00     0.049 A 
ATOM     27  C   UNL A   1      40.883  31.199  30.149  1.00  0.00     0.074 A 
ATOM     28  C   UNL A   1      46.625  30.327  27.565  1.00  0.00     0.029 A 
ATOM     29  N   UNL A   1      44.510  30.089  28.214  1.00  0.00    -0.354 N 
ATOM     30  N   UNL A   1      42.015  30.944  29.539  1.00  0.00    -0.248 NA
ATOM     31  C   UNL A   1      40.777  32.571  30.670  1.00  0.00     0.031 C 
ATOM     32  C   UNL A   1      46.234  31.486  28.246  1.00  0.00     0.029 A 
ATOM     33  C   UNL A   1      44.907  31.351  28.619  1.00  0.00     0.049 A 
ATOM     34  H   UNL A   1      43.617  29.703  28.362  1.00  0.00     0.167 HD
ATOM     35  C   UNL A   1      42.773  32.101  29.646  1.00  0.00     0.074 A 
ATOM     36  C   UNL A   1      41.939  33.089  30.302  1.00  0.00     0.031 C 
ATOM     37  C   UNL A   1      44.061  32.311  29.284  1.00  0.00     0.037 A 
BRANCH  24  38
ATOM     38  C   UNL A   1      46.710  27.512  26.401  1.00  0.00     0.057 A 
ATOM     39  C   UNL A   1      46.926  27.545  25.017  1.00  0.00     0.134 A 
ATOM     40  C   UNL A   1      47.657  26.849  27.190  1.00  0.00     0.134 A 
ATOM     41  F   UNL A   1      46.036  28.134  24.204  1.00  0.00    -0.206 F 
ATOM     42  C   UNL A   1      48.027  26.913  24.439  1.00  0.00     0.040 A 
ATOM     43  C   UNL A   1      48.776  26.237  26.626  1.00  0.00     0.040 A 
ATOM     44  F   UNL A   1      47.502  26.772  28.521  1.00  0.00    -0.206 F 
ATOM     45  C   UNL A   1      48.958  26.259  25.244  1.00  0.00     0.006 A 
ENDBRANCH  24  38
BRANCH  25  46
ATOM     46  C   UNL A   1      38.456  30.808  31.000  1.00  0.00     0.057 A 
ATOM     47  C   UNL A   1      38.235  30.765  32.386  1.00  0.00     0.134 A 
ATOM     48  C   UNL A   1      37.422  31.329  30.215  1.00  0.00     0.134 A 
ATOM     49  F   UNL A   1      39.170  30.257  33.205  1.00  0.00    -0.206 F 
ATOM     50  C   UNL A   1      37.034  31.193  32.960  1.00  0.00     0.040 A 
ATOM     51  C   UNL A   1      36.230  31.797  30.779  1.00  0.00     0.040 A 
ATOM     52  F   UNL A   1      37.547  31.392  28.882  1.00  0.00    -0.206 F 
ATOM     53  C   UNL A   1      36.028  31.719  32.156  1.00  0.00     0.006 A 
ENDBRANCH  25  46
BRANCH  37  54
ATOM     54  C   UNL A   1      44.648  33.650  29.614  1.00  0.00     0.057 A 
ATOM     55  C   UNL A   1      45.321  33.876  30.823  1.00  0.00     0.134 A 
ATOM     56  C   UNL A   1      44.578  34.709  28.702  1.00  0.00     0.134 A 
ATOM     57  F   UNL A   1      45.413  32.904  31.744  1.00  0.00    -0.206 F 
ATOM     58  C   UNL A   1      45.884  35.117  31.121  1.00  0.00     0.040 A 
ATOM     59  C   UNL A   1      45.159  35.946  28.978  1.00  0.00     0.040 A 
ATOM     60  F   UNL A   1      43.953  34.552  27.525  1.00  0.00    -0.206 F 
ATOM     61  C   UNL A   1      45.809  36.154  30.193  1.00  0.00     0.006 A 
ENDBRANCH  37  54
ENDBRANCH  11  12
ENDBRANCH   4   6
ENDBRANCH   3   4
ENDBRANCH   2   3
ENDBRANCH   1   2
BRANCH   1  62
ATOM     62  O   UNL A   1      35.125  21.850  25.800  1.00  0.00    -0.459 OA
BRANCH  62  63
ATOM     63  C   UNL A   1      33.876  21.286  25.810  1.00  0.00     0.352 C 
ATOM     64  O   UNL A   1      33.212  21.082  26.818  1.00  0.00    -0.247 OA
BRANCH  63  65
ATOM     65  C   UNL A   1      33.433  21.044  24.342  1.00  0.00     0.313 C 
BRANCH  65  66
ATOM     66  C   UNL A   1      33.543  19.542  24.045  1.00  0.00     0.004 A 
ATOM     67  C   UNL A   1      34.633  18.803  24.549  1.00  0.00     0.008 A 
ATOM     68  C   UNL A   1      32.588  18.863  23.273  1.00  0.00     0.008 A 
ATOM     69  C   UNL A   1      34.738  17.429  24.332  1.00  0.00     0.000 A 
ATOM     70  C   UNL A   1      32.694  17.486  23.058  1.00  0.00     0.000 A 
ATOM     71  C   UNL A   1      33.761  16.768  23.597  1.00  0.00     0.000 A 
ENDBRANCH  65  66
BRANCH  65  72
ATOM     72  O   UNL A   1      32.147  21.530  23.940  1.00  0.00    -0.474 OA
BRANCH  72  73
ATOM     73  C   UNL A   1      31.909  22.867  23.800  1.00  0.00     0.128 A 
ATOM     74  C   UNL A   1      30.995  23.634  24.522  1.00  0.00     0.047 A 
ATOM     75  C   UNL A   1      32.642  23.481  22.782  1.00  0.00     0.132 A 
ATOM     76  C   UNL A   1      30.696  24.948  24.144  1.00  0.00     0.011 A 
ATOM     77  C   UNL A   1      32.367  24.809  22.425  1.00  0.00     0.273 A 
ATOM     78  C   UNL A   1      31.366  25.536  23.076  1.00  0.00     0.086 A 
BRANCH  77  79
ATOM     79  N   UNL A   1      33.125  25.438  21.343  1.00  0.00     0.062 N 
ATOM     80  O   UNL A   1      33.738  26.484  21.603  1.00  0.00    -0.258 OA
ATOM     81  O   UNL A   1      33.117  24.883  20.236  1.00  0.00    -0.258 OA
ENDBRANCH  77  79
ENDBRANCH  72  73
ENDBRANCH  65  72
ENDBRANCH  63  65
ENDBRANCH  62  63
ENDBRANCH   1  62
TORSDOF 15
ENDMDL
MODEL 2
REMARK VINA RESULT:     -11.5      3.056      7.692
REMARK SMILES O=C(OCCOC(=O)[C@H](Oc1cccc([N+](=O)[O-])c1)c1ccccc1)c1ccc(-c2c3nc(c(-c4c(F)cccc4F)c4ccc([nH]4)c(-c4c(F)cccc4F)c4nc(c(-c5c(F)cccc5F)c5ccc2[nH]5)C=C4)C=C3)cc1
REMARK SMILES IDX 5 1 4 2 3 3 2 4 1 5 26 6 27 7 79 8 28 9 78 10 29 11 30 12
REMARK SMILES IDX 31 13 72 14 32 15 77 16 71 17 73 18 33 19 76 20 70 21 69 22
REMARK SMILES IDX 34 24 60 25 43 26 59 27 44 28 47 29 58 30 74 31 45 32 46 33
REMARK SMILES IDX 57 35 75 36 48 37 35 38 36 39 41 40 37 41 38 42 40 43 42 44
REMARK SMILES IDX 39 45 61 46 62 47 67 48 63 49 64 50 66 51 68 52 65 53 49 54
REMARK SMILES IDX 50 55 55 56 51 57 52 58 54 59 56 60 53 61 6 62 7 63 8 64
REMARK SMILES IDX 9 65 20 66 21 67 25 68 22 69 24 70 23 71 10 72 11 73 12 74
REMARK SMILES IDX 19 75 13 76 15 77 14 78 16 79 17 80 18 81
REMARK H PARENT 73 23 47 34
REMARK Flexibility Score: inf
ROOT
ATOM      1  C   UNL A   1      32.583  30.183  27.112  1.00  0.00     0.274 C 
ENDROOT
BRANCH   1   2
ATOM      2  C   UNL A   1      33.835  30.969  27.503  1.00  0.00     0.275 C 
BRANCH   2   3
ATOM      3  O   UNL A   1      34.750  30.156  28.272  1.00  0.00    -0.458 OA
BRANCH   3   4
ATOM      4  C   UNL A   1      35.798  30.565  29.032  1.00  0.00     0.338 C 
ATOM      5  O   UNL A   1      35.703  31.615  29.662  1.00  0.00    -0.246 OA
BRANCH   4   6
ATOM      6  C   UNL A   1      37.156  29.937  28.927  1.00  0.00     0.060 A 
ATOM      7  C   UNL A   1      37.900  29.434  29.995  1.00  0.00     0.016 A 
ATOM      8  C   UNL A   1      37.738  29.892  27.641  1.00  0.00     0.016 A 
ATOM      9  C   UNL A   1      39.162  28.866  29.785  1.00  0.00     0.010 A 
ATOM     10  C   UNL A   1      39.016  29.346  27.430  1.00  0.00     0.010 A 
ATOM     11  C   UNL A   1      39.739  28.835  28.509  1.00  0.00    -0.014 A 
BRANCH  11  12
ATOM     12  C   UNL A   1      41.167  28.440  28.406  1.00  0.00     0.031 A 
ATOM     13  C   UNL A   1      41.480  27.046  27.967  1.00  0.00     0.074 A 
ATOM     14  C   UNL A   1      42.166  29.313  28.616  1.00  0.00     0.049 A 
ATOM     15  N   UNL A   1      42.624  26.527  27.614  1.00  0.00    -0.248 NA
ATOM     16  C   UNL A   1      40.352  26.100  27.962  1.00  0.00     0.031 C 
ATOM     17  C   UNL A   1      41.998  30.644  29.176  1.00  0.00     0.029 A 
ATOM     18  N   UNL A   1      43.514  29.232  28.348  1.00  0.00    -0.354 N 
ATOM     19  C   UNL A   1      42.369  25.182  27.397  1.00  0.00     0.074 A 
ATOM     20  C   UNL A   1      40.954  24.973  27.621  1.00  0.00     0.031 C 
ATOM     21  C   UNL A   1      43.169  31.297  29.104  1.00  0.00     0.029 A 
ATOM     22  C   UNL A   1      44.168  30.438  28.489  1.00  0.00     0.049 A 
ATOM     23  H   UNL A   1      43.964  28.398  28.082  1.00  0.00     0.167 HD
ATOM     24  C   UNL A   1      43.250  24.205  27.084  1.00  0.00     0.037 A 
ATOM     25  C   UNL A   1      45.413  30.810  28.123  1.00  0.00     0.037 A 
ATOM     26  C   UNL A   1      44.662  24.421  26.916  1.00  0.00     0.049 A 
ATOM     27  C   UNL A   1      46.342  29.739  27.619  1.00  0.00     0.074 A 
ATOM     28  C   UNL A   1      45.653  23.494  26.651  1.00  0.00     0.029 A 
ATOM     29  N   UNL A   1      45.285  25.658  27.014  1.00  0.00    -0.354 N 
ATOM     30  N   UNL A   1      46.089  28.475  27.382  1.00  0.00    -0.248 NA
ATOM     31  C   UNL A   1      47.744  30.124  27.395  1.00  0.00     0.031 C 
ATOM     32  C   UNL A   1      46.881  24.165  26.625  1.00  0.00     0.029 A 
ATOM     33  C   UNL A   1      46.647  25.518  26.817  1.00  0.00     0.049 A 
ATOM     34  H   UNL A   1      44.825  26.510  27.196  1.00  0.00     0.167 HD
ATOM     35  C   UNL A   1      47.303  27.904  27.031  1.00  0.00     0.074 A 
ATOM     36  C   UNL A   1      48.277  28.977  26.999  1.00  0.00     0.031 C 
ATOM     37  C   UNL A   1      47.599  26.601  26.806  1.00  0.00     0.037 A 
BRANCH  24  38
ATOM     38  C   UNL A   1      42.704  22.811  27.008  1.00  0.00     0.057 A 
ATOM     39  C   UNL A   1      42.415  22.061  28.155  1.00  0.00     0.134 A 
ATOM     40  C   UNL A   1      42.511  22.197  25.764  1.00  0.00     0.134 A 
ATOM     41  F   UNL A   1      42.613  22.582  29.376  1.00  0.00    -0.206 F 
ATOM     42  C   UNL A   1      41.980  20.739  28.067  1.00  0.00     0.040 A 
ATOM     43  C   UNL A   1      42.052  20.884  25.664  1.00  0.00     0.040 A 
ATOM     44  F   UNL A   1      42.781  22.858  24.628  1.00  0.00    -0.206 F 
ATOM     45  C   UNL A   1      41.793  20.147  26.818  1.00  0.00     0.006 A 
ENDBRANCH  24  38
BRANCH  25  46
ATOM     46  C   UNL A   1      45.866  32.232  28.185  1.00  0.00     0.057 A 
ATOM     47  C   UNL A   1      45.688  33.086  27.083  1.00  0.00     0.134 A 
ATOM     48  C   UNL A   1      46.517  32.773  29.298  1.00  0.00     0.134 A 
ATOM     49  F   UNL A   1      45.094  32.635  25.968  1.00  0.00    -0.206 F 
ATOM     50  C   UNL A   1      46.158  34.402  27.080  1.00  0.00     0.040 A 
ATOM     51  C   UNL A   1      46.958  34.100  29.325  1.00  0.00     0.040 A 
ATOM     52  F   UNL A   1      46.739  32.021  30.386  1.00  0.00    -0.206 F 
ATOM     53  C   UNL A   1      46.790  34.917  28.208  1.00  0.00     0.006 A 
ENDBRANCH  25  46
BRANCH  37  54
ATOM     54  C   UNL A   1      49.035  26.269  26.535  1.00  0.00     0.057 A 
ATOM     55  C   UNL A   1      49.901  25.871  27.563  1.00  0.00     0.134 A 
ATOM     56  C   UNL A   1      49.546  26.305  25.233  1.00  0.00     0.134 A 
ATOM     57  F   UNL A   1      49.474  25.828  28.835  1.00  0.00    -0.206 F 
ATOM     58  C   UNL A   1      51.232  25.544  27.308  1.00  0.00     0.040 A 
ATOM     59  C   UNL A   1      50.868  25.954  24.961  1.00  0.00     0.040 A 
ATOM     60  F   UNL A   1      48.765  26.670  24.205  1.00  0.00    -0.206 F 
ATOM     61  C   UNL A   1      51.716  25.578  26.002  1.00  0.00     0.006 A 
ENDBRANCH  37  54
ENDBRANCH  11  12
ENDBRANCH   4   6
ENDBRANCH   3   4
ENDBRANCH   2   3
ENDBRANCH   1   2
BRANCH   1  62
ATOM     62  O   UNL A   1      32.963  28.843  26.778  1.00  0.00    -0.459 OA
BRANCH  62  63
ATOM     63  C   UNL A   1      32.050  27.850  27.022  1.00  0.00     0.352 C 
ATOM     64  O   UNL A   1      31.305  27.813  27.992  1.00  0.00    -0.247 OA
BRANCH  63  65
ATOM     65  C   UNL A   1      32.070  26.858  25.829  1.00  0.00     0.313 C 
BRANCH  65  66
ATOM     66  C   UNL A   1      30.891  27.192  24.904  1.00  0.00     0.004 A 
ATOM     67  C   UNL A   1      30.890  28.398  24.173  1.00  0.00     0.008 A 
ATOM     68  C   UNL A   1      29.791  26.334  24.759  1.00  0.00     0.008 A 
ATOM     69  C   UNL A   1      29.854  28.710  23.292  1.00  0.00     0.000 A 
ATOM     70  C   UNL A   1      28.753  26.647  23.876  1.00  0.00     0.000 A 
ATOM     71  C   UNL A   1      28.792  27.827  23.135  1.00  0.00     0.000 A 
ENDBRANCH  65  66
BRANCH  65  72
ATOM     72  O   UNL A   1      33.276  26.750  25.065  1.00  0.00    -0.474 OA
BRANCH  72  73
ATOM     73  C   UNL A   1      33.829  25.533  24.785  1.00  0.00     0.128 A 
ATOM     74  C   UNL A   1      34.939  24.956  25.403  1.00  0.00     0.047 A 
ATOM     75  C   UNL A   1      33.221  24.851  23.730  1.00  0.00     0.132 A 
ATOM     76  C   UNL A   1      35.532  23.799  24.887  1.00  0.00     0.011 A 
ATOM     77  C   UNL A   1      33.797  23.672  23.234  1.00  0.00     0.273 A 
ATOM     78  C   UNL A   1      34.976  23.162  23.784  1.00  0.00     0.086 A 
BRANCH  77  79
ATOM     79  N   UNL A   1      33.164  22.975  22.113  1.00  0.00     0.062 N 
ATOM     80  O   UNL A   1      33.467  23.337  20.967  1.00  0.00    -0.258 OA
ATOM     81  O   UNL A   1      32.373  22.060  22.378  1.00  0.00    -0.258 OA
ENDBRANCH  77  79
ENDBRANCH  72  73
ENDBRANCH  65  72
ENDBRANCH  63  65
ENDBRANCH  62  63
ENDBRANCH   1  62
TORSDOF 15
ENDMDL
MODEL 3
REMARK VINA RESULT:     -11.4      3.015      7.754
REMARK SMILES O=C(OCCOC(=O)[C@H](Oc1cccc([N+](=O)[O-])c1)c1ccccc1)c1ccc(-c2c3nc(c(-c4c(F)cccc4F)c4ccc([nH]4)c(-c4c(F)cccc4F)c4nc(c(-c5c(F)cccc5F)c5ccc2[nH]5)C=C4)C=C3)cc1
REMARK SMILES IDX 5 1 4 2 3 3 2 4 1 5 26 6 27 7 79 8 28 9 78 10 29 11 30 12
REMARK SMILES IDX 31 13 72 14 32 15 77 16 71 17 73 18 33 19 76 20 70 21 69 22
REMARK SMILES IDX 34 24 60 25 43 26 59 27 44 28 47 29 58 30 74 31 45 32 46 33
REMARK SMILES IDX 57 35 75 36 48 37 35 38 36 39 41 40 37 41 38 42 40 43 42 44
REMARK SMILES IDX 39 45 61 46 62 47 67 48 63 49 64 50 66 51 68 52 65 53 49 54
REMARK SMILES IDX 50 55 55 56 51 57 52 58 54 59 56 60 53 61 6 62 7 63 8 64
REMARK SMILES IDX 9 65 20 66 21 67 25 68 22 69 24 70 23 71 10 72 11 73 12 74
REMARK SMILES IDX 19 75 13 76 15 77 14 78 16 79 17 80 18 81
REMARK H PARENT 73 23 47 34
REMARK Flexibility Score: inf
ROOT
ATOM      1  C   UNL A   1      32.585  30.259  27.045  1.00  0.00     0.274 C 
ENDROOT
BRANCH   1   2
ATOM      2  C   UNL A   1      33.782  31.050  27.573  1.00  0.00     0.275 C 
BRANCH   2   3
ATOM      3  O   UNL A   1      34.736  30.187  28.231  1.00  0.00    -0.458 OA
BRANCH   3   4
ATOM      4  C   UNL A   1      35.774  30.541  29.030  1.00  0.00     0.338 C 
ATOM      5  O   UNL A   1      35.678  31.555  29.716  1.00  0.00    -0.246 OA
BRANCH   4   6
ATOM      6  C   UNL A   1      37.128  29.906  28.914  1.00  0.00     0.060 A 
ATOM      7  C   UNL A   1      37.859  29.358  29.967  1.00  0.00     0.016 A 
ATOM      8  C   UNL A   1      37.721  29.904  27.631  1.00  0.00     0.016 A 
ATOM      9  C   UNL A   1      39.118  28.787  29.747  1.00  0.00     0.010 A 
ATOM     10  C   UNL A   1      38.995  29.355  27.410  1.00  0.00     0.010 A 
ATOM     11  C   UNL A   1      39.705  28.798  28.475  1.00  0.00    -0.014 A 
BRANCH  11  12
ATOM     12  C   UNL A   1      41.130  28.396  28.369  1.00  0.00     0.031 A 
ATOM     13  C   UNL A   1      41.434  26.997  27.938  1.00  0.00     0.074 A 
ATOM     14  C   UNL A   1      42.135  29.265  28.570  1.00  0.00     0.049 A 
ATOM     15  N   UNL A   1      42.575  26.470  27.583  1.00  0.00    -0.248 NA
ATOM     16  C   UNL A   1      40.302  26.057  27.943  1.00  0.00     0.031 C 
ATOM     17  C   UNL A   1      41.976  30.599  29.122  1.00  0.00     0.029 A 
ATOM     18  N   UNL A   1      43.482  29.174  28.297  1.00  0.00    -0.354 N 
ATOM     19  C   UNL A   1      42.311  25.125  27.376  1.00  0.00     0.074 A 
ATOM     20  C   UNL A   1      40.897  24.924  27.607  1.00  0.00     0.031 C 
ATOM     21  C   UNL A   1      43.151  31.246  29.041  1.00  0.00     0.029 A 
ATOM     22  C   UNL A   1      44.142  30.378  28.428  1.00  0.00     0.049 A 
ATOM     23  H   UNL A   1      43.927  28.336  28.035  1.00  0.00     0.167 HD
ATOM     24  C   UNL A   1      43.186  24.141  27.066  1.00  0.00     0.037 A 
ATOM     25  C   UNL A   1      45.388  30.741  28.055  1.00  0.00     0.037 A 
ATOM     26  C   UNL A   1      44.598  24.349  26.891  1.00  0.00     0.049 A 
ATOM     27  C   UNL A   1      46.310  29.662  27.554  1.00  0.00     0.074 A 
ATOM     28  C   UNL A   1      45.583  23.415  26.627  1.00  0.00     0.029 A 
ATOM     29  N   UNL A   1      45.229  25.583  26.979  1.00  0.00    -0.354 N 
ATOM     30  N   UNL A   1      46.049  28.398  27.325  1.00  0.00    -0.248 NA
ATOM     31  C   UNL A   1      47.713  30.038  27.322  1.00  0.00     0.031 C 
ATOM     32  C   UNL A   1      46.815  24.079  26.593  1.00  0.00     0.029 A 
ATOM     33  C   UNL A   1      46.590  25.434  26.777  1.00  0.00     0.049 A 
ATOM     34  H   UNL A   1      44.774  26.438  27.157  1.00  0.00     0.167 HD
ATOM     35  C   UNL A   1      47.259  27.818  26.973  1.00  0.00     0.074 A 
ATOM     36  C   UNL A   1      48.238  28.886  26.931  1.00  0.00     0.031 C 
ATOM     37  C   UNL A   1      47.546  26.512  26.755  1.00  0.00     0.037 A 
BRANCH  24  38
ATOM     38  C   UNL A   1      42.633  22.750  27.001  1.00  0.00     0.057 A 
ATOM     39  C   UNL A   1      42.289  22.030  28.152  1.00  0.00     0.134 A 
ATOM     40  C   UNL A   1      42.487  22.106  25.765  1.00  0.00     0.134 A 
ATOM     41  F   UNL A   1      42.439  22.580  29.367  1.00  0.00    -0.206 F 
ATOM     42  C   UNL A   1      41.847  20.709  28.079  1.00  0.00     0.040 A 
ATOM     43  C   UNL A   1      42.022  20.795  25.678  1.00  0.00     0.040 A 
ATOM     44  F   UNL A   1      42.811  22.737  24.626  1.00  0.00    -0.206 F 
ATOM     45  C   UNL A   1      41.709  20.089  26.838  1.00  0.00     0.006 A 
ENDBRANCH  24  38
BRANCH  25  46
ATOM     46  C   UNL A   1      45.849  32.161  28.106  1.00  0.00     0.057 A 
ATOM     47  C   UNL A   1      46.464  32.671  29.261  1.00  0.00     0.134 A 
ATOM     48  C   UNL A   1      45.660  33.057  27.048  1.00  0.00     0.134 A 
ATOM     49  F   UNL A   1      46.658  31.881  30.328  1.00  0.00    -0.206 F 
ATOM     50  C   UNL A   1      46.847  34.011  29.368  1.00  0.00     0.040 A 
ATOM     51  C   UNL A   1      46.075  34.391  27.126  1.00  0.00     0.040 A 
ATOM     52  F   UNL A   1      45.068  32.654  25.915  1.00  0.00    -0.206 F 
ATOM     53  C   UNL A   1      46.660  34.876  28.294  1.00  0.00     0.006 A 
ENDBRANCH  25  46
BRANCH  37  54
ATOM     54  C   UNL A   1      48.980  26.171  26.481  1.00  0.00     0.057 A 
ATOM     55  C   UNL A   1      49.519  26.257  25.190  1.00  0.00     0.134 A 
ATOM     56  C   UNL A   1      49.838  25.794  27.520  1.00  0.00     0.134 A 
ATOM     57  F   UNL A   1      48.744  26.603  24.150  1.00  0.00    -0.206 F 
ATOM     58  C   UNL A   1      50.857  25.958  24.939  1.00  0.00     0.040 A 
ATOM     59  C   UNL A   1      51.185  25.518  27.285  1.00  0.00     0.040 A 
ATOM     60  F   UNL A   1      49.384  25.700  28.778  1.00  0.00    -0.206 F 
ATOM     61  C   UNL A   1      51.696  25.594  25.990  1.00  0.00     0.006 A 
ENDBRANCH  37  54
ENDBRANCH  11  12
ENDBRANCH   4   6
ENDBRANCH   3   4
ENDBRANCH   2   3
ENDBRANCH   1   2
BRANCH   1  62
ATOM     62  O   UNL A   1      32.978  28.895  26.854  1.00  0.00    -0.459 OA
BRANCH  62  63
ATOM     63  C   UNL A   1      32.027  27.930  27.061  1.00  0.00     0.352 C 
ATOM     64  O   UNL A   1      31.231  27.925  27.991  1.00  0.00    -0.247 OA
BRANCH  63  65
ATOM     65  C   UNL A   1      32.081  26.924  25.880  1.00  0.00     0.313 C 
BRANCH  65  66
ATOM     66  C   UNL A   1      30.911  27.226  24.935  1.00  0.00     0.004 A 
ATOM     67  C   UNL A   1      30.881  28.439  24.216  1.00  0.00     0.008 A 
ATOM     68  C   UNL A   1      29.845  26.331  24.758  1.00  0.00     0.008 A 
ATOM     69  C   UNL A   1      29.853  28.723  23.317  1.00  0.00     0.000 A 
ATOM     70  C   UNL A   1      28.815  26.616  23.856  1.00  0.00     0.000 A 
ATOM     71  C   UNL A   1      28.826  27.805  23.128  1.00  0.00     0.000 A 
ENDBRANCH  65  66
BRANCH  65  72
ATOM     72  O   UNL A   1      33.300  26.827  25.135  1.00  0.00    -0.474 OA
BRANCH  72  73
ATOM     73  C   UNL A   1      33.578  25.728  24.374  1.00  0.00     0.128 A 
ATOM     74  C   UNL A   1      33.354  25.579  23.005  1.00  0.00     0.047 A 
ATOM     75  C   UNL A   1      34.090  24.644  25.090  1.00  0.00     0.132 A 
ATOM     76  C   UNL A   1      33.487  24.334  22.383  1.00  0.00     0.011 A 
ATOM     77  C   UNL A   1      34.257  23.404  24.457  1.00  0.00     0.273 A 
ATOM     78  C   UNL A   1      33.920  23.231  23.112  1.00  0.00     0.086 A 
BRANCH  77  79
ATOM     79  N   UNL A   1      34.775  22.267  25.220  1.00  0.00     0.062 N 
ATOM     80  O   UNL A   1      35.150  22.479  26.383  1.00  0.00    -0.258 OA
ATOM     81  O   UNL A   1      34.799  21.162  24.662  1.00  0.00    -0.258 OA
ENDBRANCH  77  79
ENDBRANCH  72  73
ENDBRANCH  65  72
ENDBRANCH  63  65
ENDBRANCH  62  63
ENDBRANCH   1  62
TORSDOF 15
ENDMDL
