MODEL 1
REMARK VINA RESULT:     -11.1      0.000      0.000
REMARK SMILES COc1ccc(/C=C2/SC(=S)N([C@H](C)C(=O)OCCOC(=O)c3ccc(-c4c5nc(c(-c6c(F)cccc6F)c6ccc([nH]6)c(-c6c(F)cccc6F)c6nc(c(-c7c(F)cccc7F)c7ccc4[nH]7)C=C6)C=C5)cc3)C2=O)cc1OC
REMARK SMILES IDX 18 1 17 2 15 3 16 4 13 5 14 6 12 7 7 8 8 9 9 10 77 11 10 12
REMARK SMILES IDX 78 13 11 14 6 15 3 16 4 17 80 18 5 19 79 20 2 21 1 22 81 23
REMARK SMILES IDX 82 24 19 25 20 26 21 27 22 28 23 29 24 30 76 31 25 32 75 33
REMARK SMILES IDX 26 34 27 35 28 36 69 37 29 38 74 39 68 40 70 41 30 42 73 43
REMARK SMILES IDX 67 44 66 45 31 47 57 48 40 49 56 50 41 51 44 52 55 53 71 54
REMARK SMILES IDX 42 55 43 56 54 58 72 59 45 60 32 61 33 62 38 63 34 64 35 65
REMARK SMILES IDX 37 66 39 67 36 68 58 69 59 70 64 71 60 72 61 73 63 74 65 75
REMARK SMILES IDX 62 76 46 77 47 78 52 79 48 80 49 81 51 82 53 83 50 84
REMARK H PARENT 70 46 44 57
REMARK Flexibility Score: inf
ROOT
ATOM      1  C   UNL A   1      31.394  30.771  25.910  1.00  0.00     0.274 C 
ENDROOT
BRANCH   1   2
ATOM      2  O   UNL A   1      31.765  29.540  26.561  1.00  0.00    -0.461 OA
BRANCH   2   3
ATOM      3  C   UNL A   1      32.803  28.836  26.027  1.00  0.00     0.329 C 
ATOM      4  O   UNL A   1      33.899  29.306  25.743  1.00  0.00    -0.250 OA
BRANCH   3   5
ATOM      5  C   UNL A   1      32.414  27.376  25.757  1.00  0.00     0.199 C 
ATOM      6  C   UNL A   1      31.208  26.966  26.623  1.00  0.00     0.044 C 
BRANCH   5   7
ATOM      7  N   UNL A   1      32.307  26.888  24.359  1.00  0.00    -0.279 N 
ATOM      8  C   UNL A   1      33.386  24.186  22.228  1.00  0.00     0.029 C 
ATOM      9  C   UNL A   1      32.957  25.380  22.662  1.00  0.00     0.081 C 
ATOM     10  S   UNL A   1      31.722  26.295  21.903  1.00  0.00    -0.054 SA
ATOM     11  C   UNL A   1      33.327  26.045  23.936  1.00  0.00     0.266 C 
ATOM     12  C   UNL A   1      31.353  27.170  23.403  1.00  0.00     0.149 C 
ATOM     13  O   UNL A   1      34.402  25.891  24.498  1.00  0.00    -0.268 OA
ATOM     14  S   UNL A   1      30.003  28.143  23.469  1.00  0.00    -0.052 S 
BRANCH   8  15
ATOM     15  C   UNL A   1      34.198  23.282  23.050  1.00  0.00    -0.020 A 
ATOM     16  C   UNL A   1      35.679  21.606  24.743  1.00  0.00     0.160 A 
ATOM     17  C   UNL A   1      36.326  22.498  23.874  1.00  0.00     0.051 A 
ATOM     18  C   UNL A   1      34.282  21.542  24.770  1.00  0.00     0.161 A 
ATOM     19  C   UNL A   1      35.589  23.329  23.023  1.00  0.00     0.012 A 
ATOM     20  C   UNL A   1      33.559  22.373  23.906  1.00  0.00     0.058 A 
BRANCH  16  21
ATOM     21  O   UNL A   1      36.437  20.885  25.626  1.00  0.00    -0.493 OA
ATOM     22  C   UNL A   1      37.572  20.295  24.996  1.00  0.00     0.278 C 
ENDBRANCH  16  21
BRANCH  18  23
ATOM     23  O   UNL A   1      33.470  20.768  25.554  1.00  0.00    -0.493 OA
ATOM     24  C   UNL A   1      32.529  19.916  24.923  1.00  0.00     0.278 C 
ENDBRANCH  18  23
ENDBRANCH   8  15
ENDBRANCH   5   7
ENDBRANCH   3   5
ENDBRANCH   2   3
ENDBRANCH   1   2
BRANCH   1  25
ATOM     25  C   UNL A   1      31.477  31.961  26.869  1.00  0.00     0.275 C 
BRANCH  25  26
ATOM     26  O   UNL A   1      32.656  32.750  26.620  1.00  0.00    -0.458 OA
BRANCH  26  27
ATOM     27  C   UNL A   1      33.103  33.462  27.677  1.00  0.00     0.338 C 
ATOM     28  O   UNL A   1      32.529  34.385  28.240  1.00  0.00    -0.246 OA
BRANCH  27  29
ATOM     29  C   UNL A   1      34.340  32.864  28.201  1.00  0.00     0.060 A 
ATOM     30  C   UNL A   1      34.302  31.520  28.585  1.00  0.00     0.016 A 
ATOM     31  C   UNL A   1      35.505  33.616  28.365  1.00  0.00     0.016 A 
ATOM     32  C   UNL A   1      35.432  30.916  29.128  1.00  0.00     0.010 A 
ATOM     33  C   UNL A   1      36.635  33.013  28.926  1.00  0.00     0.010 A 
ATOM     34  C   UNL A   1      36.601  31.663  29.318  1.00  0.00    -0.014 A 
BRANCH  34  35
ATOM     35  C   UNL A   1      37.756  31.036  29.997  1.00  0.00     0.031 A 
ATOM     36  C   UNL A   1      38.026  31.348  31.440  1.00  0.00     0.074 A 
ATOM     37  C   UNL A   1      38.531  30.158  29.337  1.00  0.00     0.049 A 
ATOM     38  N   UNL A   1      38.993  30.922  32.212  1.00  0.00    -0.248 NA
ATOM     39  C   UNL A   1      37.077  32.256  32.103  1.00  0.00     0.031 C 
ATOM     40  C   UNL A   1      38.338  29.742  27.947  1.00  0.00     0.029 A 
ATOM     41  N   UNL A   1      39.633  29.456  29.750  1.00  0.00    -0.354 N 
ATOM     42  C   UNL A   1      38.775  31.515  33.449  1.00  0.00     0.074 A 
ATOM     43  C   UNL A   1      37.597  32.346  33.319  1.00  0.00     0.031 C 
ATOM     44  C   UNL A   1      39.292  28.854  27.623  1.00  0.00     0.029 A 
ATOM     45  C   UNL A   1      40.179  28.666  28.769  1.00  0.00     0.049 A 
ATOM     46  H   UNL A   1      39.998  29.512  30.662  1.00  0.00     0.167 HD
ATOM     47  C   UNL A   1      39.490  31.371  34.591  1.00  0.00     0.037 A 
ATOM     48  C   UNL A   1      41.282  27.893  28.790  1.00  0.00     0.037 A 
ATOM     49  C   UNL A   1      40.660  30.542  34.718  1.00  0.00     0.049 A 
ATOM     50  C   UNL A   1      42.094  27.802  30.052  1.00  0.00     0.074 A 
ATOM     51  C   UNL A   1      41.450  30.331  35.834  1.00  0.00     0.029 A 
ATOM     52  N   UNL A   1      41.208  29.789  33.691  1.00  0.00    -0.354 N 
ATOM     53  N   UNL A   1      41.880  28.365  31.217  1.00  0.00    -0.248 NA
ATOM     54  C   UNL A   1      43.305  26.970  30.001  1.00  0.00     0.031 C 
ATOM     55  C   UNL A   1      42.499  29.478  35.472  1.00  0.00     0.029 A 
ATOM     56  C   UNL A   1      42.338  29.127  34.142  1.00  0.00     0.049 A 
ATOM     57  H   UNL A   1      40.846  29.732  32.777  1.00  0.00     0.167 HD
ATOM     58  C   UNL A   1      42.915  27.942  32.041  1.00  0.00     0.074 A 
ATOM     59  C   UNL A   1      43.748  27.061  31.247  1.00  0.00     0.031 C 
ATOM     60  C   UNL A   1      43.155  28.255  33.337  1.00  0.00     0.037 A 
BRANCH  47  61
ATOM     61  C   UNL A   1      39.038  32.155  35.786  1.00  0.00     0.057 A 
ATOM     62  C   UNL A   1      38.215  31.593  36.771  1.00  0.00     0.134 A 
ATOM     63  C   UNL A   1      39.448  33.481  35.966  1.00  0.00     0.134 A 
ATOM     64  F   UNL A   1      37.773  30.332  36.649  1.00  0.00    -0.206 F 
ATOM     65  C   UNL A   1      37.801  32.330  37.882  1.00  0.00     0.040 A 
ATOM     66  C   UNL A   1      39.060  34.221  37.083  1.00  0.00     0.040 A 
ATOM     67  F   UNL A   1      40.239  34.077  35.060  1.00  0.00    -0.206 F 
ATOM     68  C   UNL A   1      38.229  33.646  38.042  1.00  0.00     0.006 A 
ENDBRANCH  47  61
BRANCH  48  69
ATOM     69  C   UNL A   1      41.693  27.155  27.571  1.00  0.00     0.057 A 
ATOM     70  C   UNL A   1      41.344  25.813  27.383  1.00  0.00     0.134 A 
ATOM     71  C   UNL A   1      42.459  27.769  26.573  1.00  0.00     0.134 A 
ATOM     72  F   UNL A   1      40.632  25.162  28.316  1.00  0.00    -0.206 F 
ATOM     73  C   UNL A   1      41.752  25.103  26.252  1.00  0.00     0.040 A 
ATOM     74  C   UNL A   1      42.855  27.079  25.427  1.00  0.00     0.040 A 
ATOM     75  F   UNL A   1      42.828  29.052  26.697  1.00  0.00    -0.206 F 
ATOM     76  C   UNL A   1      42.506  25.739  25.267  1.00  0.00     0.006 A 
ENDBRANCH  48  69
BRANCH  60  77
ATOM     77  C   UNL A   1      44.354  27.622  33.981  1.00  0.00     0.057 A 
ATOM     78  C   UNL A   1      44.280  26.374  34.611  1.00  0.00     0.134 A 
ATOM     79  C   UNL A   1      45.601  28.258  33.946  1.00  0.00     0.134 A 
ATOM     80  F   UNL A   1      43.110  25.720  34.689  1.00  0.00    -0.206 F 
ATOM     81  C   UNL A   1      45.400  25.790  35.204  1.00  0.00     0.040 A 
ATOM     82  C   UNL A   1      46.734  27.674  34.516  1.00  0.00     0.040 A 
ATOM     83  F   UNL A   1      45.741  29.452  33.352  1.00  0.00    -0.206 F 
ATOM     84  C   UNL A   1      46.633  26.439  35.152  1.00  0.00     0.006 A 
ENDBRANCH  60  77
ENDBRANCH  34  35
ENDBRANCH  27  29
ENDBRANCH  26  27
ENDBRANCH  25  26
ENDBRANCH   1  25
TORSDOF 15
ENDMDL
MODEL 2
REMARK VINA RESULT:     -11.0      3.793      8.379
REMARK SMILES COc1ccc(/C=C2/SC(=S)N([C@H](C)C(=O)OCCOC(=O)c3ccc(-c4c5nc(c(-c6c(F)cccc6F)c6ccc([nH]6)c(-c6c(F)cccc6F)c6nc(c(-c7c(F)cccc7F)c7ccc4[nH]7)C=C6)C=C5)cc3)C2=O)cc1OC
REMARK SMILES IDX 18 1 17 2 15 3 16 4 13 5 14 6 12 7 7 8 8 9 9 10 77 11 10 12
REMARK SMILES IDX 78 13 11 14 6 15 3 16 4 17 80 18 5 19 79 20 2 21 1 22 81 23
REMARK SMILES IDX 82 24 19 25 20 26 21 27 22 28 23 29 24 30 76 31 25 32 75 33
REMARK SMILES IDX 26 34 27 35 28 36 69 37 29 38 74 39 68 40 70 41 30 42 73 43
REMARK SMILES IDX 67 44 66 45 31 47 57 48 40 49 56 50 41 51 44 52 55 53 71 54
REMARK SMILES IDX 42 55 43 56 54 58 72 59 45 60 32 61 33 62 38 63 34 64 35 65
REMARK SMILES IDX 37 66 39 67 36 68 58 69 59 70 64 71 60 72 61 73 63 74 65 75
REMARK SMILES IDX 62 76 46 77 47 78 52 79 48 80 49 81 51 82 53 83 50 84
REMARK H PARENT 70 46 44 57
REMARK Flexibility Score: inf
ROOT
ATOM      1  C   UNL A   1      37.684  21.171  25.231  1.00  0.00     0.274 C 
ENDROOT
BRANCH   1   2
ATOM      2  O   UNL A   1      37.330  22.341  24.468  1.00  0.00    -0.461 OA
BRANCH   2   3
ATOM      3  C   UNL A   1      36.751  23.376  25.141  1.00  0.00     0.329 C 
ATOM      4  O   UNL A   1      37.218  23.917  26.136  1.00  0.00    -0.250 OA
BRANCH   3   5
ATOM      5  C   UNL A   1      35.391  23.752  24.535  1.00  0.00     0.199 C 
ATOM      6  C   UNL A   1      35.163  23.005  23.207  1.00  0.00     0.044 C 
BRANCH   5   7
ATOM      7  N   UNL A   1      34.181  23.770  25.396  1.00  0.00    -0.279 N 
ATOM      8  C   UNL A   1      31.086  25.562  25.865  1.00  0.00     0.029 C 
ATOM      9  C   UNL A   1      32.174  24.808  26.082  1.00  0.00     0.081 C 
ATOM     10  S   UNL A   1      32.171  23.346  26.978  1.00  0.00    -0.054 SA
ATOM     11  C   UNL A   1      33.513  24.986  25.467  1.00  0.00     0.266 C 
ATOM     12  C   UNL A   1      33.633  22.760  26.160  1.00  0.00     0.149 C 
ATOM     13  O   UNL A   1      33.964  26.067  25.118  1.00  0.00    -0.268 OA
ATOM     14  S   UNL A   1      34.122  21.185  26.390  1.00  0.00    -0.052 S 
BRANCH   8  15
ATOM     15  C   UNL A   1      31.036  26.617  24.847  1.00  0.00    -0.020 A 
ATOM     16  C   UNL A   1      30.838  28.706  22.986  1.00  0.00     0.160 A 
ATOM     17  C   UNL A   1      30.621  27.376  22.595  1.00  0.00     0.051 A 
ATOM     18  C   UNL A   1      31.161  29.003  24.315  1.00  0.00     0.161 A 
ATOM     19  C   UNL A   1      30.727  26.332  23.520  1.00  0.00     0.012 A 
ATOM     20  C   UNL A   1      31.272  27.947  25.227  1.00  0.00     0.058 A 
BRANCH  16  21
ATOM     21  O   UNL A   1      30.627  29.702  22.071  1.00  0.00    -0.493 OA
ATOM     22  C   UNL A   1      29.255  30.087  22.008  1.00  0.00     0.278 C 
ENDBRANCH  16  21
BRANCH  18  23
ATOM     23  O   UNL A   1      31.382  30.222  24.896  1.00  0.00    -0.493 OA
ATOM     24  C   UNL A   1      31.748  30.265  26.265  1.00  0.00     0.278 C 
ENDBRANCH  18  23
ENDBRANCH   8  15
ENDBRANCH   5   7
ENDBRANCH   3   5
ENDBRANCH   2   3
ENDBRANCH   1   2
BRANCH   1  25
ATOM     25  C   UNL A   1      39.142  21.223  25.695  1.00  0.00     0.275 C 
BRANCH  25  26
ATOM     26  O   UNL A   1      39.660  19.901  25.935  1.00  0.00    -0.458 OA
BRANCH  26  27
ATOM     27  C   UNL A   1      41.004  19.822  26.039  1.00  0.00     0.338 C 
ATOM     28  O   UNL A   1      41.721  18.909  25.650  1.00  0.00    -0.246 OA
BRANCH  27  29
ATOM     29  C   UNL A   1      41.547  21.091  26.547  1.00  0.00     0.060 A 
ATOM     30  C   UNL A   1      41.390  21.368  27.909  1.00  0.00     0.016 A 
ATOM     31  C   UNL A   1      42.153  22.020  25.698  1.00  0.00     0.016 A 
ATOM     32  C   UNL A   1      41.846  22.573  28.433  1.00  0.00     0.010 A 
ATOM     33  C   UNL A   1      42.596  23.238  26.223  1.00  0.00     0.010 A 
ATOM     34  C   UNL A   1      42.437  23.523  27.591  1.00  0.00    -0.014 A 
BRANCH  34  35
ATOM     35  C   UNL A   1      42.816  24.842  28.144  1.00  0.00     0.031 A 
ATOM     36  C   UNL A   1      41.760  25.886  28.361  1.00  0.00     0.074 A 
ATOM     37  C   UNL A   1      44.091  25.085  28.493  1.00  0.00     0.049 A 
ATOM     38  N   UNL A   1      41.883  27.107  28.814  1.00  0.00    -0.248 NA
ATOM     39  C   UNL A   1      40.380  25.501  28.027  1.00  0.00     0.031 C 
ATOM     40  C   UNL A   1      45.195  24.132  28.373  1.00  0.00     0.029 A 
ATOM     41  N   UNL A   1      44.672  26.208  29.023  1.00  0.00    -0.354 N 
ATOM     42  C   UNL A   1      40.601  27.640  28.813  1.00  0.00     0.074 A 
ATOM     43  C   UNL A   1      39.717  26.618  28.295  1.00  0.00     0.031 C 
ATOM     44  C   UNL A   1      46.321  24.712  28.818  1.00  0.00     0.029 A 
ATOM     45  C   UNL A   1      46.024  26.085  29.223  1.00  0.00     0.049 A 
ATOM     46  H   UNL A   1      44.166  27.025  29.240  1.00  0.00     0.167 HD
ATOM     47  C   UNL A   1      40.198  28.870  29.216  1.00  0.00     0.037 A 
ATOM     48  C   UNL A   1      46.922  26.986  29.664  1.00  0.00     0.037 A 
ATOM     49  C   UNL A   1      41.079  29.884  29.733  1.00  0.00     0.049 A 
ATOM     50  C   UNL A   1      46.458  28.365  30.043  1.00  0.00     0.074 A 
ATOM     51  C   UNL A   1      40.765  31.159  30.168  1.00  0.00     0.029 A 
ATOM     52  N   UNL A   1      42.450  29.737  29.881  1.00  0.00    -0.354 N 
ATOM     53  N   UNL A   1      45.244  28.860  30.041  1.00  0.00    -0.248 NA
ATOM     54  C   UNL A   1      47.491  29.313  30.485  1.00  0.00     0.031 C 
ATOM     55  C   UNL A   1      41.951  31.798  30.546  1.00  0.00     0.029 A 
ATOM     56  C   UNL A   1      42.999  30.906  30.383  1.00  0.00     0.049 A 
ATOM     57  H   UNL A   1      42.957  28.922  29.663  1.00  0.00     0.167 HD
ATOM     58  C   UNL A   1      45.363  30.166  30.496  1.00  0.00     0.074 A 
ATOM     59  C   UNL A   1      46.767  30.382  30.782  1.00  0.00     0.031 C 
ATOM     60  C   UNL A   1      44.398  31.103  30.661  1.00  0.00     0.037 A 
BRANCH  47  61
ATOM     61  C   UNL A   1      38.740  29.191  29.082  1.00  0.00     0.057 A 
ATOM     62  C   UNL A   1      37.865  29.119  30.174  1.00  0.00     0.134 A 
ATOM     63  C   UNL A   1      38.210  29.600  27.853  1.00  0.00     0.134 A 
ATOM     64  F   UNL A   1      38.307  28.717  31.375  1.00  0.00    -0.206 F 
ATOM     65  C   UNL A   1      36.508  29.422  30.041  1.00  0.00     0.040 A 
ATOM     66  C   UNL A   1      36.861  29.928  27.713  1.00  0.00     0.040 A 
ATOM     67  F   UNL A   1      38.996  29.692  26.770  1.00  0.00    -0.206 F 
ATOM     68  C   UNL A   1      36.005  29.834  28.808  1.00  0.00     0.006 A 
ENDBRANCH  47  61
BRANCH  48  69
ATOM     69  C   UNL A   1      48.356  26.619  29.757  1.00  0.00     0.057 A 
ATOM     70  C   UNL A   1      49.244  26.890  28.710  1.00  0.00     0.134 A 
ATOM     71  C   UNL A   1      48.869  25.973  30.888  1.00  0.00     0.134 A 
ATOM     72  F   UNL A   1      48.806  27.484  27.589  1.00  0.00    -0.206 F 
ATOM     73  C   UNL A   1      50.588  26.520  28.778  1.00  0.00     0.040 A 
ATOM     74  C   UNL A   1      50.216  25.618  30.980  1.00  0.00     0.040 A 
ATOM     75  F   UNL A   1      48.068  25.683  31.923  1.00  0.00    -0.206 F 
ATOM     76  C   UNL A   1      51.079  25.887  29.919  1.00  0.00     0.006 A 
ENDBRANCH  48  69
BRANCH  60  77
ATOM     77  C   UNL A   1      44.828  32.438  31.196  1.00  0.00     0.057 A 
ATOM     78  C   UNL A   1      45.193  33.489  30.347  1.00  0.00     0.134 A 
ATOM     79  C   UNL A   1      44.853  32.679  32.575  1.00  0.00     0.134 A 
ATOM     80  F   UNL A   1      45.202  33.317  29.015  1.00  0.00    -0.206 F 
ATOM     81  C   UNL A   1      45.588  34.729  30.851  1.00  0.00     0.040 A 
ATOM     82  C   UNL A   1      45.225  33.922  33.091  1.00  0.00     0.040 A 
ATOM     83  F   UNL A   1      44.508  31.716  33.442  1.00  0.00    -0.206 F 
ATOM     84  C   UNL A   1      45.600  34.949  32.227  1.00  0.00     0.006 A 
ENDBRANCH  60  77
ENDBRANCH  34  35
ENDBRANCH  27  29
ENDBRANCH  26  27
ENDBRANCH  25  26
ENDBRANCH   1  25
TORSDOF 15
ENDMDL
MODEL 3
REMARK VINA RESULT:     -10.9      2.001      6.243
REMARK SMILES COc1ccc(/C=C2/SC(=S)N([C@H](C)C(=O)OCCOC(=O)c3ccc(-c4c5nc(c(-c6c(F)cccc6F)c6ccc([nH]6)c(-c6c(F)cccc6F)c6nc(c(-c7c(F)cccc7F)c7ccc4[nH]7)C=C6)C=C5)cc3)C2=O)cc1OC
REMARK SMILES IDX 18 1 17 2 15 3 16 4 13 5 14 6 12 7 7 8 8 9 9 10 77 11 10 12
REMARK SMILES IDX 78 13 11 14 6 15 3 16 4 17 80 18 5 19 79 20 2 21 1 22 81 23
REMARK SMILES IDX 82 24 19 25 20 26 21 27 22 28 23 29 24 30 76 31 25 32 75 33
REMARK SMILES IDX 26 34 27 35 28 36 69 37 29 38 74 39 68 40 70 41 30 42 73 43
REMARK SMILES IDX 67 44 66 45 31 47 57 48 40 49 56 50 41 51 44 52 55 53 71 54
REMARK SMILES IDX 42 55 43 56 54 58 72 59 45 60 32 61 33 62 38 63 34 64 35 65
REMARK SMILES IDX 37 66 39 67 36 68 58 69 59 70 64 71 60 72 61 73 63 74 65 75
REMARK SMILES IDX 62 76 46 77 47 78 52 79 48 80 49 81 51 82 53 83 50 84
REMARK H PARENT 70 46 44 57
REMARK Flexibility Score: inf
ROOT
ATOM      1  C   UNL A   1      32.315  30.567  26.762  1.00  0.00     0.274 C 
ENDROOT
BRANCH   1   2
ATOM      2  O   UNL A   1      32.398  29.235  27.303  1.00  0.00    -0.461 OA
BRANCH   2   3
ATOM      3  C   UNL A   1      33.355  28.409  26.792  1.00  0.00     0.329 C 
ATOM      4  O   UNL A   1      34.553  28.662  26.751  1.00  0.00    -0.250 OA
BRANCH   3   5
ATOM      5  C   UNL A   1      32.741  27.130  26.206  1.00  0.00     0.199 C 
ATOM      6  C   UNL A   1      31.227  27.076  26.484  1.00  0.00     0.044 C 
BRANCH   5   7
ATOM      7  N   UNL A   1      33.083  26.716  24.821  1.00  0.00    -0.279 N 
ATOM      8  C   UNL A   1      33.655  23.769  22.823  1.00  0.00     0.029 C 
ATOM      9  C   UNL A   1      33.673  25.031  23.276  1.00  0.00     0.081 C 
ATOM     10  S   UNL A   1      33.501  26.416  22.280  1.00  0.00    -0.054 SA
ATOM     11  C   UNL A   1      33.669  25.463  24.696  1.00  0.00     0.266 C 
ATOM     12  C   UNL A   1      32.927  27.406  23.637  1.00  0.00     0.149 C 
ATOM     13  O   UNL A   1      34.157  24.811  25.608  1.00  0.00    -0.268 OA
ATOM     14  S   UNL A   1      32.312  28.925  23.337  1.00  0.00    -0.052 S 
BRANCH   8  15
ATOM     15  C   UNL A   1      33.482  22.608  23.702  1.00  0.00    -0.020 A 
ATOM     16  C   UNL A   1      33.230  20.304  25.283  1.00  0.00     0.160 A 
ATOM     17  C   UNL A   1      32.093  21.012  24.862  1.00  0.00     0.051 A 
ATOM     18  C   UNL A   1      34.506  20.746  24.918  1.00  0.00     0.161 A 
ATOM     19  C   UNL A   1      32.217  22.165  24.080  1.00  0.00     0.012 A 
ATOM     20  C   UNL A   1      34.614  21.907  24.143  1.00  0.00     0.058 A 
BRANCH  16  21
ATOM     21  O   UNL A   1      33.055  19.129  25.962  1.00  0.00    -0.493 OA
ATOM     22  C   UNL A   1      32.749  18.046  25.085  1.00  0.00     0.278 C 
ENDBRANCH  16  21
BRANCH  18  23
ATOM     23  O   UNL A   1      35.724  20.190  25.201  1.00  0.00    -0.493 OA
ATOM     24  C   UNL A   1      36.895  20.869  24.779  1.00  0.00     0.278 C 
ENDBRANCH  18  23
ENDBRANCH   8  15
ENDBRANCH   5   7
ENDBRANCH   3   5
ENDBRANCH   2   3
ENDBRANCH   1   2
BRANCH   1  25
ATOM     25  C   UNL A   1      33.098  31.570  27.613  1.00  0.00     0.275 C 
BRANCH  25  26
ATOM     26  O   UNL A   1      32.707  32.924  27.315  1.00  0.00    -0.458 OA
BRANCH  26  27
ATOM     27  C   UNL A   1      33.136  33.851  28.198  1.00  0.00     0.338 C 
ATOM     28  O   UNL A   1      32.519  34.832  28.595  1.00  0.00    -0.246 OA
BRANCH  27  29
ATOM     29  C   UNL A   1      34.422  33.439  28.779  1.00  0.00     0.060 A 
ATOM     30  C   UNL A   1      35.577  33.650  28.019  1.00  0.00     0.016 A 
ATOM     31  C   UNL A   1      34.495  32.809  30.023  1.00  0.00     0.016 A 
ATOM     32  C   UNL A   1      36.816  33.239  28.503  1.00  0.00     0.010 A 
ATOM     33  C   UNL A   1      35.739  32.382  30.501  1.00  0.00     0.010 A 
ATOM     34  C   UNL A   1      36.903  32.587  29.739  1.00  0.00    -0.014 A 
BRANCH  34  35
ATOM     35  C   UNL A   1      38.211  32.060  30.187  1.00  0.00     0.031 A 
ATOM     36  C   UNL A   1      38.701  30.745  29.654  1.00  0.00     0.074 A 
ATOM     37  C   UNL A   1      38.973  32.777  31.030  1.00  0.00     0.049 A 
ATOM     38  N   UNL A   1      39.804  30.099  29.933  1.00  0.00    -0.248 NA
ATOM     39  C   UNL A   1      37.836  30.072  28.674  1.00  0.00     0.031 C 
ATOM     40  C   UNL A   1      38.622  34.089  31.576  1.00  0.00     0.029 A 
ATOM     41  N   UNL A   1      40.203  32.505  31.570  1.00  0.00    -0.354 N 
ATOM     42  C   UNL A   1      39.764  28.940  29.170  1.00  0.00     0.074 A 
ATOM     43  C   UNL A   1      38.518  28.961  28.432  1.00  0.00     0.031 C 
ATOM     44  C   UNL A   1      39.617  34.507  32.376  1.00  0.00     0.029 A 
ATOM     45  C   UNL A   1      40.657  33.480  32.422  1.00  0.00     0.049 A 
ATOM     46  H   UNL A   1      40.712  31.687  31.367  1.00  0.00     0.167 HD
ATOM     47  C   UNL A   1      40.687  27.952  29.086  1.00  0.00     0.037 A 
ATOM     48  C   UNL A   1      41.776  33.529  33.169  1.00  0.00     0.037 A 
ATOM     49  C   UNL A   1      41.926  27.935  29.820  1.00  0.00     0.049 A 
ATOM     50  C   UNL A   1      42.753  32.389  33.108  1.00  0.00     0.074 A 
ATOM     51  C   UNL A   1      42.926  26.979  29.800  1.00  0.00     0.029 A 
ATOM     52  N   UNL A   1      42.333  28.921  30.705  1.00  0.00    -0.354 N 
ATOM     53  N   UNL A   1      42.708  31.297  32.382  1.00  0.00    -0.248 NA
ATOM     54  C   UNL A   1      43.938  32.485  33.973  1.00  0.00     0.031 C 
ATOM     55  C   UNL A   1      43.921  27.368  30.704  1.00  0.00     0.029 A 
ATOM     56  C   UNL A   1      43.559  28.587  31.254  1.00  0.00     0.049 A 
ATOM     57  H   UNL A   1      41.824  29.738  30.912  1.00  0.00     0.167 HD
ATOM     58  C   UNL A   1      43.863  30.588  32.688  1.00  0.00     0.074 A 
ATOM     59  C   UNL A   1      44.598  31.381  33.652  1.00  0.00     0.031 C 
ATOM     60  C   UNL A   1      44.276  29.388  32.213  1.00  0.00     0.037 A 
BRANCH  47  61
ATOM     61  C   UNL A   1      40.372  26.792  28.190  1.00  0.00     0.057 A 
ATOM     62  C   UNL A   1      39.471  25.789  28.569  1.00  0.00     0.134 A 
ATOM     63  C   UNL A   1      40.960  26.691  26.923  1.00  0.00     0.134 A 
ATOM     64  F   UNL A   1      38.887  25.820  29.776  1.00  0.00    -0.206 F 
ATOM     65  C   UNL A   1      39.182  24.714  27.726  1.00  0.00     0.040 A 
ATOM     66  C   UNL A   1      40.662  25.633  26.064  1.00  0.00     0.040 A 
ATOM     67  F   UNL A   1      41.829  27.621  26.500  1.00  0.00    -0.206 F 
ATOM     68  C   UNL A   1      39.774  24.638  26.467  1.00  0.00     0.006 A 
ENDBRANCH  47  61
BRANCH  48  69
ATOM     69  C   UNL A   1      42.026  34.693  34.054  1.00  0.00     0.057 A 
ATOM     70  C   UNL A   1      42.661  35.845  33.576  1.00  0.00     0.134 A 
ATOM     71  C   UNL A   1      41.652  34.674  35.403  1.00  0.00     0.134 A 
ATOM     72  F   UNL A   1      43.066  35.913  32.298  1.00  0.00    -0.206 F 
ATOM     73  C   UNL A   1      42.926  36.932  34.410  1.00  0.00     0.040 A 
ATOM     74  C   UNL A   1      41.890  35.763  36.243  1.00  0.00     0.040 A 
ATOM     75  F   UNL A   1      41.043  33.598  35.921  1.00  0.00    -0.206 F 
ATOM     76  C   UNL A   1      42.535  36.895  35.747  1.00  0.00     0.006 A 
ENDBRANCH  48  69
BRANCH  60  77
ATOM     77  C   UNL A   1      45.593  28.874  32.715  1.00  0.00     0.057 A 
ATOM     78  C   UNL A   1      46.799  29.191  32.079  1.00  0.00     0.134 A 
ATOM     79  C   UNL A   1      45.656  28.074  33.863  1.00  0.00     0.134 A 
ATOM     80  F   UNL A   1      46.805  29.942  30.967  1.00  0.00    -0.206 F 
ATOM     81  C   UNL A   1      48.021  28.712  32.554  1.00  0.00     0.040 A 
ATOM     82  C   UNL A   1      46.874  27.608  34.361  1.00  0.00     0.040 A 
ATOM     83  F   UNL A   1      44.538  27.740  34.524  1.00  0.00    -0.206 F 
ATOM     84  C   UNL A   1      48.061  27.922  33.702  1.00  0.00     0.006 A 
ENDBRANCH  60  77
ENDBRANCH  34  35
ENDBRANCH  27  29
ENDBRANCH  26  27
ENDBRANCH  25  26
ENDBRANCH   1  25
TORSDOF 15
ENDMDL
