MODEL 1
REMARK VINA RESULT:     -12.8      0.000      0.000
REMARK SMILES CC1=C([C@H](NC(=O)c2cccc3ccccc23)C(=O)OCCOC(=O)c2ccc(-c3c4nc(c(-c5c(F)cccc5F)c5ccc([nH]5)c(-c5c(F)cccc5F)c5nc(c(-c6c(F)cccc6F)c6ccc3[nH]6)C=C5)C=C4)cc2)[C@H](C)N=N1
REMARK SMILES IDX 21 1 20 2 18 3 19 4 4 5 3 6 1 7 2 8 83 9 80 10 82 11 81 12
REMARK SMILES IDX 5 13 6 14 7 16 8 17 9 18 17 19 10 20 12 21 16 22 11 23 13 24
REMARK SMILES IDX 15 25 14 26 22 27 23 28 24 29 25 30 26 31 27 32 79 33 28 34
REMARK SMILES IDX 78 35 29 36 30 37 31 38 72 39 32 40 77 41 71 42 73 43 33 44
REMARK SMILES IDX 76 45 70 46 69 47 34 49 60 50 43 51 59 52 44 53 47 54 58 55
REMARK SMILES IDX 74 56 45 57 46 58 57 60 75 61 48 62 35 63 36 64 41 65 37 66
REMARK SMILES IDX 38 67 40 68 42 69 39 70 61 71 62 72 67 73 63 74 64 75 66 76
REMARK SMILES IDX 68 77 65 78 49 79 50 80 55 81 51 82 52 83 54 84 56 85 53 86
REMARK H PARENT 5 15 73 48 47 59
REMARK Flexibility Score: inf
ROOT
ATOM      1  C   UNL A   1      32.388  30.182  26.312  1.00  0.00     0.274 C 
ENDROOT
BRANCH   1   2
ATOM      2  O   UNL A   1      32.732  28.796  26.481  1.00  0.00    -0.460 OA
BRANCH   2   3
ATOM      3  C   UNL A   1      31.811  27.936  26.965  1.00  0.00     0.333 C 
ATOM      4  O   UNL A   1      31.183  28.132  28.001  1.00  0.00    -0.249 OA
BRANCH   3   5
ATOM      5  C   UNL A   1      31.689  26.637  26.103  1.00  0.00     0.223 C 
BRANCH   5   6
ATOM      6  C   UNL A   1      31.492  26.868  24.632  1.00  0.00     0.012 C 
ATOM      7  C   UNL A   1      33.653  25.942  23.615  1.00  0.00     0.069 C 
ATOM      8  C   UNL A   1      32.323  26.616  23.608  1.00  0.00     0.064 C 
ATOM      9  N   UNL A   1      31.805  27.006  22.399  1.00  0.00    -0.160 NA
ATOM     10  C   UNL A   1      30.250  27.396  23.981  1.00  0.00     0.156 C 
ATOM     11  N   UNL A   1      30.652  27.486  22.550  1.00  0.00    -0.181 NA
ATOM     12  C   UNL A   1      29.013  26.507  24.050  1.00  0.00     0.040 C 
ENDBRANCH   5   6
BRANCH   5  13
ATOM     13  N   UNL A   1      30.869  25.503  26.559  1.00  0.00    -0.335 N 
ATOM     14  C   UNL A   1      30.844  24.143  26.415  1.00  0.00     0.252 C 
ATOM     15  H   UNL A   1      30.128  25.811  27.129  1.00  0.00     0.165 HD
ATOM     16  O   UNL A   1      30.110  23.505  27.171  1.00  0.00    -0.269 OA
BRANCH  14  17
ATOM     17  C   UNL A   1      31.589  23.414  25.364  1.00  0.00     0.047 A 
ATOM     18  C   UNL A   1      31.028  23.280  24.088  1.00  0.00     0.014 A 
ATOM     19  C   UNL A   1      32.869  22.852  25.657  1.00  0.00    -0.006 A 
ATOM     20  C   UNL A   1      31.681  22.545  23.105  1.00  0.00     0.001 A 
ATOM     21  C   UNL A   1      33.518  22.109  24.638  1.00  0.00    -0.018 A 
ATOM     22  C   UNL A   1      33.533  22.946  26.909  1.00  0.00     0.009 A 
ATOM     23  C   UNL A   1      32.913  21.961  23.382  1.00  0.00     0.009 A 
ATOM     24  C   UNL A   1      34.759  21.500  24.886  1.00  0.00     0.009 A 
ATOM     25  C   UNL A   1      34.772  22.343  27.137  1.00  0.00     0.001 A 
ATOM     26  C   UNL A   1      35.385  21.617  26.125  1.00  0.00     0.001 A 
ENDBRANCH  14  17
ENDBRANCH   5  13
ENDBRANCH   3   5
ENDBRANCH   2   3
ENDBRANCH   1   2
BRANCH   1  27
ATOM     27  C   UNL A   1      33.136  31.000  27.348  1.00  0.00     0.275 C 
BRANCH  27  28
ATOM     28  O   UNL A   1      34.532  30.739  27.232  1.00  0.00    -0.458 OA
BRANCH  28  29
ATOM     29  C   UNL A   1      35.350  31.657  27.765  1.00  0.00     0.338 C 
ATOM     30  O   UNL A   1      35.323  32.883  27.626  1.00  0.00    -0.246 OA
BRANCH  29  31
ATOM     31  C   UNL A   1      36.426  30.988  28.466  1.00  0.00     0.060 A 
ATOM     32  C   UNL A   1      37.409  31.766  29.092  1.00  0.00     0.016 A 
ATOM     33  C   UNL A   1      36.560  29.609  28.276  1.00  0.00     0.016 A 
ATOM     34  C   UNL A   1      38.601  31.166  29.426  1.00  0.00     0.010 A 
ATOM     35  C   UNL A   1      37.754  29.022  28.580  1.00  0.00     0.010 A 
ATOM     36  C   UNL A   1      38.773  29.820  29.101  1.00  0.00    -0.014 A 
BRANCH  36  37
ATOM     37  C   UNL A   1      40.044  29.189  29.355  1.00  0.00     0.031 A 
ATOM     38  C   UNL A   1      40.308  28.928  30.788  1.00  0.00     0.074 A 
ATOM     39  C   UNL A   1      40.752  28.673  28.335  1.00  0.00     0.049 A 
ATOM     40  N   UNL A   1      41.292  29.343  31.512  1.00  0.00    -0.248 NA
ATOM     41  C   UNL A   1      39.267  28.209  31.547  1.00  0.00     0.031 C 
ATOM     42  C   UNL A   1      40.351  28.575  26.926  1.00  0.00     0.029 A 
ATOM     43  N   UNL A   1      41.923  27.992  28.370  1.00  0.00    -0.354 N 
ATOM     44  C   UNL A   1      41.095  28.768  32.766  1.00  0.00     0.074 A 
ATOM     45  C   UNL A   1      39.752  28.261  32.784  1.00  0.00     0.031 C 
ATOM     46  C   UNL A   1      41.153  27.686  26.300  1.00  0.00     0.029 A 
ATOM     47  C   UNL A   1      42.183  27.251  27.228  1.00  0.00     0.049 A 
ATOM     48  H   UNL A   1      42.535  28.020  29.141  1.00  0.00     0.167 HD
ATOM     49  C   UNL A   1      42.139  28.500  33.592  1.00  0.00     0.037 A 
ATOM     50  C   UNL A   1      43.126  26.288  27.104  1.00  0.00     0.037 A 
ATOM     51  C   UNL A   1      43.306  29.260  33.227  1.00  0.00     0.049 A 
ATOM     52  C   UNL A   1      44.070  26.435  28.242  1.00  0.00     0.074 A 
ATOM     53  C   UNL A   1      43.592  30.606  33.118  1.00  0.00     0.029 A 
ATOM     54  N   UNL A   1      44.305  28.605  32.550  1.00  0.00    -0.354 N 
ATOM     55  N   UNL A   1      44.895  27.433  28.390  1.00  0.00    -0.248 NA
ATOM     56  C   UNL A   1      43.800  25.672  29.453  1.00  0.00     0.031 C 
ATOM     57  C   UNL A   1      44.480  30.709  32.006  1.00  0.00     0.029 A 
ATOM     58  C   UNL A   1      44.715  29.419  31.527  1.00  0.00     0.049 A 
ATOM     59  H   UNL A   1      44.660  27.713  32.761  1.00  0.00     0.167 HD
ATOM     60  C   UNL A   1      44.918  27.680  29.755  1.00  0.00     0.074 A 
ATOM     61  C   UNL A   1      44.320  26.498  30.365  1.00  0.00     0.031 C 
ATOM     62  C   UNL A   1      45.153  28.936  30.237  1.00  0.00     0.037 A 
BRANCH  49  63
ATOM     63  C   UNL A   1      42.210  27.274  34.468  1.00  0.00     0.057 A 
ATOM     64  C   UNL A   1      41.808  27.371  35.810  1.00  0.00     0.134 A 
ATOM     65  C   UNL A   1      42.913  26.094  34.137  1.00  0.00     0.134 A 
ATOM     66  F   UNL A   1      41.153  28.454  36.254  1.00  0.00    -0.206 F 
ATOM     67  C   UNL A   1      42.140  26.402  36.763  1.00  0.00     0.040 A 
ATOM     68  C   UNL A   1      43.198  25.093  35.069  1.00  0.00     0.040 A 
ATOM     69  F   UNL A   1      43.453  25.888  32.931  1.00  0.00    -0.206 F 
ATOM     70  C   UNL A   1      42.841  25.259  36.395  1.00  0.00     0.006 A 
ENDBRANCH  49  63
BRANCH  50  71
ATOM     71  C   UNL A   1      43.101  25.082  26.249  1.00  0.00     0.057 A 
ATOM     72  C   UNL A   1      44.082  24.873  25.270  1.00  0.00     0.134 A 
ATOM     73  C   UNL A   1      42.268  23.985  26.534  1.00  0.00     0.134 A 
ATOM     74  F   UNL A   1      44.949  25.847  24.959  1.00  0.00    -0.206 F 
ATOM     75  C   UNL A   1      44.239  23.640  24.627  1.00  0.00     0.040 A 
ATOM     76  C   UNL A   1      42.406  22.752  25.890  1.00  0.00     0.040 A 
ATOM     77  F   UNL A   1      41.348  24.045  27.507  1.00  0.00    -0.206 F 
ATOM     78  C   UNL A   1      43.405  22.571  24.942  1.00  0.00     0.006 A 
ENDBRANCH  50  71
BRANCH  62  79
ATOM     79  C   UNL A   1      45.667  29.965  29.268  1.00  0.00     0.057 A 
ATOM     80  C   UNL A   1      44.840  30.782  28.482  1.00  0.00     0.134 A 
ATOM     81  C   UNL A   1      47.039  30.233  29.232  1.00  0.00     0.134 A 
ATOM     82  F   UNL A   1      43.508  30.672  28.533  1.00  0.00    -0.206 F 
ATOM     83  C   UNL A   1      45.360  31.784  27.658  1.00  0.00     0.040 A 
ATOM     84  C   UNL A   1      47.569  31.254  28.440  1.00  0.00     0.040 A 
ATOM     85  F   UNL A   1      47.885  29.534  30.005  1.00  0.00    -0.206 F 
ATOM     86  C   UNL A   1      46.730  32.025  27.639  1.00  0.00     0.006 A 
ENDBRANCH  62  79
ENDBRANCH  36  37
ENDBRANCH  29  31
ENDBRANCH  28  29
ENDBRANCH  27  28
ENDBRANCH   1  27
TORSDOF 14
ENDMDL
MODEL 2
REMARK VINA RESULT:     -12.6      1.893      5.810
REMARK SMILES CC1=C([C@H](NC(=O)c2cccc3ccccc23)C(=O)OCCOC(=O)c2ccc(-c3c4nc(c(-c5c(F)cccc5F)c5ccc([nH]5)c(-c5c(F)cccc5F)c5nc(c(-c6c(F)cccc6F)c6ccc3[nH]6)C=C5)C=C4)cc2)[C@H](C)N=N1
REMARK SMILES IDX 21 1 20 2 18 3 19 4 4 5 3 6 1 7 2 8 83 9 80 10 82 11 81 12
REMARK SMILES IDX 5 13 6 14 7 16 8 17 9 18 17 19 10 20 12 21 16 22 11 23 13 24
REMARK SMILES IDX 15 25 14 26 22 27 23 28 24 29 25 30 26 31 27 32 79 33 28 34
REMARK SMILES IDX 78 35 29 36 30 37 31 38 72 39 32 40 77 41 71 42 73 43 33 44
REMARK SMILES IDX 76 45 70 46 69 47 34 49 60 50 43 51 59 52 44 53 47 54 58 55
REMARK SMILES IDX 74 56 45 57 46 58 57 60 75 61 48 62 35 63 36 64 41 65 37 66
REMARK SMILES IDX 38 67 40 68 42 69 39 70 61 71 62 72 67 73 63 74 64 75 66 76
REMARK SMILES IDX 68 77 65 78 49 79 50 80 55 81 51 82 52 83 54 84 56 85 53 86
REMARK H PARENT 5 15 73 48 47 59
REMARK Flexibility Score: inf
ROOT
ATOM      1  C   UNL A   1      34.070  28.967  26.970  1.00  0.00     0.274 C 
ENDROOT
BRANCH   1   2
ATOM      2  O   UNL A   1      32.696  29.025  26.553  1.00  0.00    -0.460 OA
BRANCH   2   3
ATOM      3  C   UNL A   1      31.820  28.105  27.013  1.00  0.00     0.333 C 
ATOM      4  O   UNL A   1      31.156  28.256  28.034  1.00  0.00    -0.249 OA
BRANCH   3   5
ATOM      5  C   UNL A   1      31.802  26.805  26.144  1.00  0.00     0.223 C 
BRANCH   5   6
ATOM      6  C   UNL A   1      31.472  27.015  24.694  1.00  0.00     0.012 C 
ATOM      7  C   UNL A   1      33.672  26.434  23.517  1.00  0.00     0.069 C 
ATOM      8  C   UNL A   1      32.258  26.900  23.612  1.00  0.00     0.064 C 
ATOM      9  N   UNL A   1      31.606  27.216  22.448  1.00  0.00    -0.160 NA
ATOM     10  C   UNL A   1      30.123  27.356  24.137  1.00  0.00     0.156 C 
ATOM     11  N   UNL A   1      30.407  27.516  22.685  1.00  0.00    -0.181 NA
ATOM     12  C   UNL A   1      29.041  26.289  24.273  1.00  0.00     0.040 C 
ENDBRANCH   5   6
BRANCH   5  13
ATOM     13  N   UNL A   1      31.168  25.574  26.641  1.00  0.00    -0.335 N 
ATOM     14  C   UNL A   1      31.252  24.226  26.423  1.00  0.00     0.252 C 
ATOM     15  H   UNL A   1      30.490  25.779  27.325  1.00  0.00     0.165 HD
ATOM     16  O   UNL A   1      30.698  23.483  27.235  1.00  0.00    -0.269 OA
BRANCH  14  17
ATOM     17  C   UNL A   1      31.905  23.625  25.239  1.00  0.00     0.047 A 
ATOM     18  C   UNL A   1      31.135  23.307  24.113  1.00  0.00     0.014 A 
ATOM     19  C   UNL A   1      33.311  23.371  25.251  1.00  0.00    -0.006 A 
ATOM     20  C   UNL A   1      31.715  22.684  23.015  1.00  0.00     0.001 A 
ATOM     21  C   UNL A   1      33.882  22.737  24.118  1.00  0.00    -0.018 A 
ATOM     22  C   UNL A   1      34.183  23.671  26.331  1.00  0.00     0.009 A 
ATOM     23  C   UNL A   1      33.077  22.397  23.022  1.00  0.00     0.009 A 
ATOM     24  C   UNL A   1      35.252  22.426  24.095  1.00  0.00     0.009 A 
ATOM     25  C   UNL A   1      35.546  23.365  26.289  1.00  0.00     0.001 A 
ATOM     26  C   UNL A   1      36.080  22.740  25.171  1.00  0.00     0.001 A 
ENDBRANCH  14  17
ENDBRANCH   5  13
ENDBRANCH   3   5
ENDBRANCH   2   3
ENDBRANCH   1   2
BRANCH   1  27
ATOM     27  C   UNL A   1      34.452  30.302  27.581  1.00  0.00     0.275 C 
BRANCH  27  28
ATOM     28  O   UNL A   1      35.872  30.403  27.635  1.00  0.00    -0.458 OA
BRANCH  28  29
ATOM     29  C   UNL A   1      36.433  30.189  28.833  1.00  0.00     0.338 C 
ATOM     30  O   UNL A   1      36.138  30.692  29.920  1.00  0.00    -0.246 OA
BRANCH  29  31
ATOM     31  C   UNL A   1      37.594  29.338  28.672  1.00  0.00     0.060 A 
ATOM     32  C   UNL A   1      37.980  28.515  29.738  1.00  0.00     0.016 A 
ATOM     33  C   UNL A   1      38.406  29.560  27.555  1.00  0.00     0.016 A 
ATOM     34  C   UNL A   1      39.257  28.002  29.738  1.00  0.00     0.010 A 
ATOM     35  C   UNL A   1      39.682  29.076  27.571  1.00  0.00     0.010 A 
ATOM     36  C   UNL A   1      40.103  28.349  28.684  1.00  0.00    -0.014 A 
BRANCH  36  37
ATOM     37  C   UNL A   1      41.474  27.902  28.704  1.00  0.00     0.031 A 
ATOM     38  C   UNL A   1      41.695  26.616  28.004  1.00  0.00     0.074 A 
ATOM     39  C   UNL A   1      42.447  28.742  29.098  1.00  0.00     0.049 A 
ATOM     40  N   UNL A   1      42.186  25.520  28.476  1.00  0.00    -0.248 NA
ATOM     41  C   UNL A   1      41.182  26.500  26.627  1.00  0.00     0.031 C 
ATOM     42  C   UNL A   1      42.318  30.162  29.448  1.00  0.00     0.029 A 
ATOM     43  N   UNL A   1      43.787  28.539  29.127  1.00  0.00    -0.354 N 
ATOM     44  C   UNL A   1      42.229  24.642  27.396  1.00  0.00     0.074 A 
ATOM     45  C   UNL A   1      41.424  25.220  26.357  1.00  0.00     0.031 C 
ATOM     46  C   UNL A   1      43.542  30.733  29.431  1.00  0.00     0.029 A 
ATOM     47  C   UNL A   1      44.536  29.702  29.188  1.00  0.00     0.049 A 
ATOM     48  H   UNL A   1      44.192  27.642  29.105  1.00  0.00     0.167 HD
ATOM     49  C   UNL A   1      43.151  23.646  27.331  1.00  0.00     0.037 A 
ATOM     50  C   UNL A   1      45.867  29.803  28.963  1.00  0.00     0.037 A 
ATOM     51  C   UNL A   1      43.702  23.356  28.629  1.00  0.00     0.049 A 
ATOM     52  C   UNL A   1      46.438  28.433  29.030  1.00  0.00     0.074 A 
ATOM     53  C   UNL A   1      43.177  22.945  29.838  1.00  0.00     0.029 A 
ATOM     54  N   UNL A   1      44.958  23.837  28.907  1.00  0.00    -0.354 N 
ATOM     55  N   UNL A   1      46.525  27.724  30.121  1.00  0.00    -0.248 NA
ATOM     56  C   UNL A   1      46.533  27.674  27.791  1.00  0.00     0.031 C 
ATOM     57  C   UNL A   1      43.952  23.617  30.829  1.00  0.00     0.029 A 
ATOM     58  C   UNL A   1      44.929  24.366  30.171  1.00  0.00     0.049 A 
ATOM     59  H   UNL A   1      45.737  23.808  28.307  1.00  0.00     0.167 HD
ATOM     60  C   UNL A   1      46.266  26.420  29.722  1.00  0.00     0.074 A 
ATOM     61  C   UNL A   1      46.394  26.435  28.269  1.00  0.00     0.031 C 
ATOM     62  C   UNL A   1      45.690  25.525  30.578  1.00  0.00     0.037 A 
BRANCH  49  63
ATOM     63  C   UNL A   1      43.821  23.218  26.050  1.00  0.00     0.057 A 
ATOM     64  C   UNL A   1      43.835  21.856  25.709  1.00  0.00     0.134 A 
ATOM     65  C   UNL A   1      44.691  24.033  25.292  1.00  0.00     0.134 A 
ATOM     66  F   UNL A   1      43.070  20.975  26.371  1.00  0.00    -0.206 F 
ATOM     67  C   UNL A   1      44.695  21.335  24.736  1.00  0.00     0.040 A 
ATOM     68  C   UNL A   1      45.511  23.532  24.278  1.00  0.00     0.040 A 
ATOM     69  F   UNL A   1      44.876  25.332  25.553  1.00  0.00    -0.206 F 
ATOM     70  C   UNL A   1      45.541  22.174  24.019  1.00  0.00     0.006 A 
ENDBRANCH  49  63
BRANCH  50  71
ATOM     71  C   UNL A   1      46.622  30.947  28.409  1.00  0.00     0.057 A 
ATOM     72  C   UNL A   1      46.437  31.358  27.083  1.00  0.00     0.134 A 
ATOM     73  C   UNL A   1      47.356  31.822  29.232  1.00  0.00     0.134 A 
ATOM     74  F   UNL A   1      45.717  30.611  26.234  1.00  0.00    -0.206 F 
ATOM     75  C   UNL A   1      46.933  32.578  26.606  1.00  0.00     0.040 A 
ATOM     76  C   UNL A   1      47.868  33.036  28.765  1.00  0.00     0.040 A 
ATOM     77  F   UNL A   1      47.527  31.569  30.537  1.00  0.00    -0.206 F 
ATOM     78  C   UNL A   1      47.644  33.425  27.451  1.00  0.00     0.006 A 
ENDBRANCH  50  71
BRANCH  62  79
ATOM     79  C   UNL A   1      45.618  25.906  32.031  1.00  0.00     0.057 A 
ATOM     80  C   UNL A   1      46.678  25.747  32.936  1.00  0.00     0.134 A 
ATOM     81  C   UNL A   1      44.487  26.585  32.496  1.00  0.00     0.134 A 
ATOM     82  F   UNL A   1      47.840  25.207  32.553  1.00  0.00    -0.206 F 
ATOM     83  C   UNL A   1      46.595  26.194  34.258  1.00  0.00     0.040 A 
ATOM     84  C   UNL A   1      44.404  27.068  33.804  1.00  0.00     0.040 A 
ATOM     85  F   UNL A   1      43.458  26.831  31.669  1.00  0.00    -0.206 F 
ATOM     86  C   UNL A   1      45.455  26.862  34.694  1.00  0.00     0.006 A 
ENDBRANCH  62  79
ENDBRANCH  36  37
ENDBRANCH  29  31
ENDBRANCH  28  29
ENDBRANCH  27  28
ENDBRANCH   1  27
TORSDOF 14
ENDMDL
MODEL 3
REMARK VINA RESULT:     -12.5      2.121      2.915
REMARK SMILES CC1=C([C@H](NC(=O)c2cccc3ccccc23)C(=O)OCCOC(=O)c2ccc(-c3c4nc(c(-c5c(F)cccc5F)c5ccc([nH]5)c(-c5c(F)cccc5F)c5nc(c(-c6c(F)cccc6F)c6ccc3[nH]6)C=C5)C=C4)cc2)[C@H](C)N=N1
REMARK SMILES IDX 21 1 20 2 18 3 19 4 4 5 3 6 1 7 2 8 83 9 80 10 82 11 81 12
REMARK SMILES IDX 5 13 6 14 7 16 8 17 9 18 17 19 10 20 12 21 16 22 11 23 13 24
REMARK SMILES IDX 15 25 14 26 22 27 23 28 24 29 25 30 26 31 27 32 79 33 28 34
REMARK SMILES IDX 78 35 29 36 30 37 31 38 72 39 32 40 77 41 71 42 73 43 33 44
REMARK SMILES IDX 76 45 70 46 69 47 34 49 60 50 43 51 59 52 44 53 47 54 58 55
REMARK SMILES IDX 74 56 45 57 46 58 57 60 75 61 48 62 35 63 36 64 41 65 37 66
REMARK SMILES IDX 38 67 40 68 42 69 39 70 61 71 62 72 67 73 63 74 64 75 66 76
REMARK SMILES IDX 68 77 65 78 49 79 50 80 55 81 51 82 52 83 54 84 56 85 53 86
REMARK H PARENT 5 15 73 48 47 59
REMARK Flexibility Score: inf
ROOT
ATOM      1  C   UNL A   1      34.155  28.728  26.913  1.00  0.00     0.274 C 
ENDROOT
BRANCH   1   2
ATOM      2  O   UNL A   1      32.770  28.855  26.548  1.00  0.00    -0.460 OA
BRANCH   2   3
ATOM      3  C   UNL A   1      31.869  27.978  27.042  1.00  0.00     0.333 C 
ATOM      4  O   UNL A   1      31.252  28.159  28.086  1.00  0.00    -0.249 OA
BRANCH   3   5
ATOM      5  C   UNL A   1      31.755  26.682  26.174  1.00  0.00     0.223 C 
BRANCH   5   6
ATOM      6  C   UNL A   1      31.583  26.916  24.701  1.00  0.00     0.012 C 
ATOM      7  C   UNL A   1      33.766  26.006  23.719  1.00  0.00     0.069 C 
ATOM      8  C   UNL A   1      32.433  26.672  23.691  1.00  0.00     0.064 C 
ATOM      9  N   UNL A   1      31.934  27.064  22.475  1.00  0.00    -0.160 NA
ATOM     10  C   UNL A   1      30.349  27.441  24.030  1.00  0.00     0.156 C 
ATOM     11  N   UNL A   1      30.776  27.537  22.607  1.00  0.00    -0.181 NA
ATOM     12  C   UNL A   1      29.116  26.544  24.074  1.00  0.00     0.040 C 
ENDBRANCH   5   6
BRANCH   5  13
ATOM     13  N   UNL A   1      30.922  25.551  26.615  1.00  0.00    -0.335 N 
ATOM     14  C   UNL A   1      30.875  24.194  26.442  1.00  0.00     0.252 C 
ATOM     15  H   UNL A   1      30.192  25.857  27.199  1.00  0.00     0.165 HD
ATOM     16  O   UNL A   1      30.139  23.551  27.191  1.00  0.00    -0.269 OA
BRANCH  14  17
ATOM     17  C   UNL A   1      31.597  23.477  25.366  1.00  0.00     0.047 A 
ATOM     18  C   UNL A   1      31.008  23.355  24.102  1.00  0.00     0.014 A 
ATOM     19  C   UNL A   1      32.885  22.915  25.625  1.00  0.00    -0.006 A 
ATOM     20  C   UNL A   1      31.639  22.631  23.097  1.00  0.00     0.001 A 
ATOM     21  C   UNL A   1      33.511  22.183  24.583  1.00  0.00    -0.018 A 
ATOM     22  C   UNL A   1      33.576  22.997  26.862  1.00  0.00     0.009 A 
ATOM     23  C   UNL A   1      32.878  22.047  23.340  1.00  0.00     0.009 A 
ATOM     24  C   UNL A   1      34.759  21.574  24.797  1.00  0.00     0.009 A 
ATOM     25  C   UNL A   1      34.822  22.394  27.056  1.00  0.00     0.001 A 
ATOM     26  C   UNL A   1      35.412  21.680  26.023  1.00  0.00     0.001 A 
ENDBRANCH  14  17
ENDBRANCH   5  13
ENDBRANCH   3   5
ENDBRANCH   2   3
ENDBRANCH   1   2
BRANCH   1  27
ATOM     27  C   UNL A   1      34.639  30.057  27.463  1.00  0.00     0.275 C 
BRANCH  27  28
ATOM     28  O   UNL A   1      35.616  29.817  28.472  1.00  0.00    -0.458 OA
BRANCH  28  29
ATOM     29  C   UNL A   1      36.789  30.446  28.319  1.00  0.00     0.338 C 
ATOM     30  O   UNL A   1      37.008  31.658  28.257  1.00  0.00    -0.246 OA
BRANCH  29  31
ATOM     31  C   UNL A   1      37.829  29.466  28.086  1.00  0.00     0.060 A 
ATOM     32  C   UNL A   1      37.757  28.235  28.752  1.00  0.00     0.016 A 
ATOM     33  C   UNL A   1      38.973  29.889  27.400  1.00  0.00     0.016 A 
ATOM     34  C   UNL A   1      38.898  27.468  28.832  1.00  0.00     0.010 A 
ATOM     35  C   UNL A   1      40.110  29.142  27.506  1.00  0.00     0.010 A 
ATOM     36  C   UNL A   1      40.068  27.971  28.263  1.00  0.00    -0.014 A 
BRANCH  36  37
ATOM     37  C   UNL A   1      41.298  27.233  28.411  1.00  0.00     0.031 A 
ATOM     38  C   UNL A   1      41.996  27.481  29.693  1.00  0.00     0.074 A 
ATOM     39  C   UNL A   1      41.587  26.236  27.556  1.00  0.00     0.049 A 
ATOM     40  N   UNL A   1      43.193  27.924  29.882  1.00  0.00    -0.248 NA
ATOM     41  C   UNL A   1      41.208  27.334  30.930  1.00  0.00     0.031 C 
ATOM     42  C   UNL A   1      40.739  25.700  26.484  1.00  0.00     0.029 A 
ATOM     43  N   UNL A   1      42.646  25.390  27.562  1.00  0.00    -0.354 N 
ATOM     44  C   UNL A   1      43.374  27.917  31.263  1.00  0.00     0.074 A 
ATOM     45  C   UNL A   1      42.075  27.745  31.852  1.00  0.00     0.031 C 
ATOM     46  C   UNL A   1      41.217  24.495  26.104  1.00  0.00     0.029 A 
ATOM     47  C   UNL A   1      42.456  24.237  26.817  1.00  0.00     0.049 A 
ATOM     48  H   UNL A   1      43.477  25.577  28.055  1.00  0.00     0.167 HD
ATOM     49  C   UNL A   1      44.606  27.768  31.813  1.00  0.00     0.037 A 
ATOM     50  C   UNL A   1      43.225  23.125  26.865  1.00  0.00     0.037 A 
ATOM     51  C   UNL A   1      45.645  28.074  30.865  1.00  0.00     0.049 A 
ATOM     52  C   UNL A   1      44.499  23.489  27.536  1.00  0.00     0.074 A 
ATOM     53  C   UNL A   1      45.987  29.189  30.125  1.00  0.00     0.029 A 
ATOM     54  N   UNL A   1      46.310  27.020  30.289  1.00  0.00    -0.354 N 
ATOM     55  N   UNL A   1      45.405  24.274  27.023  1.00  0.00    -0.248 NA
ATOM     56  C   UNL A   1      44.582  23.313  28.980  1.00  0.00     0.031 C 
ATOM     57  C   UNL A   1      46.465  28.679  28.882  1.00  0.00     0.029 A 
ATOM     58  C   UNL A   1      46.426  27.285  28.950  1.00  0.00     0.049 A 
ATOM     59  H   UNL A   1      46.643  26.220  30.754  1.00  0.00     0.167 HD
ATOM     60  C   UNL A   1      45.895  25.006  28.095  1.00  0.00     0.074 A 
ATOM     61  C   UNL A   1      45.438  24.292  29.282  1.00  0.00     0.031 C 
ATOM     62  C   UNL A   1      46.375  26.272  27.919  1.00  0.00     0.037 A 
BRANCH  49  63
ATOM     63  C   UNL A   1      44.863  26.976  33.071  1.00  0.00     0.057 A 
ATOM     64  C   UNL A   1      45.574  27.577  34.122  1.00  0.00     0.134 A 
ATOM     65  C   UNL A   1      44.696  25.578  33.183  1.00  0.00     0.134 A 
ATOM     66  F   UNL A   1      45.819  28.896  34.120  1.00  0.00    -0.206 F 
ATOM     67  C   UNL A   1      46.135  26.835  35.168  1.00  0.00     0.040 A 
ATOM     68  C   UNL A   1      45.201  24.836  34.254  1.00  0.00     0.040 A 
ATOM     69  F   UNL A   1      44.132  24.837  32.223  1.00  0.00    -0.206 F 
ATOM     70  C   UNL A   1      45.952  25.459  35.235  1.00  0.00     0.006 A 
ENDBRANCH  49  63
BRANCH  50  71
ATOM     71  C   UNL A   1      42.825  21.720  26.640  1.00  0.00     0.057 A 
ATOM     72  C   UNL A   1      43.487  20.924  25.696  1.00  0.00     0.134 A 
ATOM     73  C   UNL A   1      41.953  21.045  27.515  1.00  0.00     0.134 A 
ATOM     74  F   UNL A   1      44.368  21.470  24.845  1.00  0.00    -0.206 F 
ATOM     75  C   UNL A   1      43.311  19.536  25.638  1.00  0.00     0.040 A 
ATOM     76  C   UNL A   1      41.759  19.662  27.460  1.00  0.00     0.040 A 
ATOM     77  F   UNL A   1      41.328  21.692  28.509  1.00  0.00    -0.206 F 
ATOM     78  C   UNL A   1      42.451  18.900  26.527  1.00  0.00     0.006 A 
ENDBRANCH  50  71
BRANCH  62  79
ATOM     79  C   UNL A   1      46.622  26.729  26.508  1.00  0.00     0.057 A 
ATOM     80  C   UNL A   1      45.663  27.380  25.716  1.00  0.00     0.134 A 
ATOM     81  C   UNL A   1      47.915  26.633  25.983  1.00  0.00     0.134 A 
ATOM     82  F   UNL A   1      44.430  27.615  26.177  1.00  0.00    -0.206 F 
ATOM     83  C   UNL A   1      45.965  27.864  24.440  1.00  0.00     0.040 A 
ATOM     84  C   UNL A   1      48.238  27.144  24.724  1.00  0.00     0.040 A 
ATOM     85  F   UNL A   1      48.900  26.080  26.709  1.00  0.00    -0.206 F 
ATOM     86  C   UNL A   1      47.258  27.750  23.942  1.00  0.00     0.006 A 
ENDBRANCH  62  79
ENDBRANCH  36  37
ENDBRANCH  29  31
ENDBRANCH  28  29
ENDBRANCH  27  28
ENDBRANCH   1  27
TORSDOF 14
ENDMDL
