MODEL 1
REMARK VINA RESULT:     -12.5      0.000      0.000
REMARK SMILES O=C1C[C@H](c2cn[nH]c2C(=O)OCCOC(=O)c2ccc(-c3c4nc(c(-c5c(F)cccc5F)c5ccc([nH]5)c(-c5c(F)cccc5F)c5nc(c(-c6c(F)cccc6F)c6ccc3[nH]6)C=C5)C=C4)cc2)c2c(-c3cccs3)n[nH]c2N1
REMARK SMILES IDX 13 1 12 2 10 3 11 4 9 5 5 6 6 7 7 8 8 9 4 11 1 12 2 13 3 14
REMARK SMILES IDX 82 15 81 16 72 18 80 19 73 20 79 21 74 23 75 24 78 25 76 26
REMARK SMILES IDX 77 27 14 28 15 29 16 30 17 31 18 32 19 33 71 34 20 35 70 36
REMARK SMILES IDX 21 37 22 38 23 39 64 40 24 41 69 42 63 43 65 44 25 45 68 46
REMARK SMILES IDX 62 47 61 48 26 50 52 51 35 52 51 53 36 54 39 55 50 56 66 57
REMARK SMILES IDX 37 58 38 59 49 61 67 62 40 63 27 64 28 65 33 66 29 67 30 68
REMARK SMILES IDX 32 69 34 70 31 71 53 72 54 73 59 74 55 75 56 76 58 77 60 78
REMARK SMILES IDX 57 79 41 80 42 81 47 82 43 83 44 84 46 85 48 86 45 87
REMARK H PARENT 8 10 82 17 80 22 65 49 39 60
REMARK Flexibility Score: inf
ROOT
ATOM      1  C   UNL A   1      32.490  30.118  26.063  1.00  0.00     0.275 C 
ENDROOT
BRANCH   1   2
ATOM      2  O   UNL A   1      31.809  28.952  26.556  1.00  0.00    -0.457 OA
BRANCH   2   3
ATOM      3  C   UNL A   1      32.369  27.743  26.376  1.00  0.00     0.356 C 
ATOM      4  O   UNL A   1      33.554  27.491  26.576  1.00  0.00    -0.244 OA
BRANCH   3   5
ATOM      5  C   UNL A   1      31.402  26.759  25.962  1.00  0.00     0.147 A 
ATOM      6  C   UNL A   1      30.712  26.395  24.800  1.00  0.00     0.013 A 
ATOM      7  C   UNL A   1      29.950  25.261  25.225  1.00  0.00     0.140 A 
ATOM      8  N   UNL A   1      30.096  24.968  26.512  1.00  0.00    -0.183 NA
ATOM      9  N   UNL A   1      30.950  25.900  26.936  1.00  0.00    -0.271 N 
ATOM     10  H   UNL A   1      31.237  25.968  27.875  1.00  0.00     0.190 HD
BRANCH   6  11
ATOM     11  C   UNL A   1      30.648  26.872  23.355  1.00  0.00     0.069 C 
ATOM     12  O   UNL A   1      29.050  30.242  23.345  1.00  0.00    -0.275 OA
ATOM     13  C   UNL A   1      29.877  29.360  23.106  1.00  0.00     0.226 C 
ATOM     14  C   UNL A   1      29.494  27.882  23.122  1.00  0.00     0.114 C 
ATOM     15  N   UNL A   1      31.130  29.701  22.652  1.00  0.00    -0.311 N 
ATOM     16  C   UNL A   1      32.051  28.717  22.434  1.00  0.00     0.132 A 
ATOM     17  H   UNL A   1      31.360  30.644  22.486  1.00  0.00     0.171 HD
ATOM     18  C   UNL A   1      31.890  27.388  22.728  1.00  0.00     0.031 A 
ATOM     19  N   UNL A   1      33.321  28.870  21.976  1.00  0.00    -0.262 N 
ATOM     20  C   UNL A   1      33.143  26.800  22.417  1.00  0.00     0.108 A 
ATOM     21  N   UNL A   1      34.030  27.722  21.998  1.00  0.00    -0.173 NA
ATOM     22  H   UNL A   1      33.686  29.729  21.659  1.00  0.00     0.192 HD
BRANCH  20  23
ATOM     23  C   UNL A   1      33.527  25.392  22.755  1.00  0.00     0.055 A 
ATOM     24  C   UNL A   1      34.335  25.051  23.820  1.00  0.00     0.022 A 
ATOM     25  S   UNL A   1      32.903  24.019  21.963  1.00  0.00    -0.142 S 
ATOM     26  C   UNL A   1      34.361  23.644  24.042  1.00  0.00     0.012 A 
ATOM     27  C   UNL A   1      33.678  22.961  23.062  1.00  0.00     0.065 A 
ENDBRANCH  20  23
ENDBRANCH   6  11
ENDBRANCH   3   5
ENDBRANCH   2   3
ENDBRANCH   1   2
BRANCH   1  28
ATOM     28  C   UNL A   1      33.042  30.869  27.252  1.00  0.00     0.275 C 
BRANCH  28  29
ATOM     29  O   UNL A   1      34.447  30.691  27.253  1.00  0.00    -0.458 OA
BRANCH  29  30
ATOM     30  C   UNL A   1      35.209  31.667  27.787  1.00  0.00     0.338 C 
ATOM     31  O   UNL A   1      35.121  32.869  27.626  1.00  0.00    -0.246 OA
BRANCH  30  32
ATOM     32  C   UNL A   1      36.289  30.987  28.498  1.00  0.00     0.060 A 
ATOM     33  C   UNL A   1      37.335  31.752  29.019  1.00  0.00     0.016 A 
ATOM     34  C   UNL A   1      36.349  29.585  28.423  1.00  0.00     0.016 A 
ATOM     35  C   UNL A   1      38.521  31.110  29.294  1.00  0.00     0.010 A 
ATOM     36  C   UNL A   1      37.531  28.955  28.668  1.00  0.00     0.010 A 
ATOM     37  C   UNL A   1      38.617  29.739  29.022  1.00  0.00    -0.014 A 
BRANCH  37  38
ATOM     38  C   UNL A   1      39.872  29.066  29.216  1.00  0.00     0.031 A 
ATOM     39  C   UNL A   1      40.141  28.788  30.639  1.00  0.00     0.074 A 
ATOM     40  C   UNL A   1      40.597  28.600  28.186  1.00  0.00     0.049 A 
ATOM     41  N   UNL A   1      41.003  29.376  31.394  1.00  0.00    -0.248 NA
ATOM     42  C   UNL A   1      39.205  27.907  31.359  1.00  0.00     0.031 C 
ATOM     43  C   UNL A   1      40.244  28.539  26.765  1.00  0.00     0.029 A 
ATOM     44  N   UNL A   1      41.803  27.985  28.229  1.00  0.00    -0.354 N 
ATOM     45  C   UNL A   1      40.874  28.769  32.635  1.00  0.00     0.074 A 
ATOM     46  C   UNL A   1      39.628  28.053  32.615  1.00  0.00     0.031 C 
ATOM     47  C   UNL A   1      41.121  27.729  26.124  1.00  0.00     0.029 A 
ATOM     48  C   UNL A   1      42.165  27.339  27.057  1.00  0.00     0.049 A 
ATOM     49  H   UNL A   1      42.376  27.995  29.029  1.00  0.00     0.167 HD
ATOM     50  C   UNL A   1      41.943  28.671  33.468  1.00  0.00     0.037 A 
ATOM     51  C   UNL A   1      43.217  26.495  26.923  1.00  0.00     0.037 A 
ATOM     52  C   UNL A   1      42.998  29.571  33.071  1.00  0.00     0.049 A 
ATOM     53  C   UNL A   1      44.137  26.754  28.066  1.00  0.00     0.074 A 
ATOM     54  C   UNL A   1      43.092  30.942  32.921  1.00  0.00     0.029 A 
ATOM     55  N   UNL A   1      44.046  29.042  32.357  1.00  0.00    -0.354 N 
ATOM     56  N   UNL A   1      44.816  27.858  28.211  1.00  0.00    -0.248 NA
ATOM     57  C   UNL A   1      43.931  25.988  29.287  1.00  0.00     0.031 C 
ATOM     58  C   UNL A   1      43.895  31.134  31.759  1.00  0.00     0.029 A 
ATOM     59  C   UNL A   1      44.303  29.880  31.301  1.00  0.00     0.049 A 
ATOM     60  H   UNL A   1      44.527  28.209  32.567  1.00  0.00     0.167 HD
ATOM     61  C   UNL A   1      44.747  28.145  29.568  1.00  0.00     0.074 A 
ATOM     62  C   UNL A   1      44.262  26.915  30.190  1.00  0.00     0.031 C 
ATOM     63  C   UNL A   1      44.801  29.434  30.019  1.00  0.00     0.037 A 
BRANCH  50  64
ATOM     64  C   UNL A   1      42.182  27.492  34.370  1.00  0.00     0.057 A 
ATOM     65  C   UNL A   1      41.884  27.609  35.736  1.00  0.00     0.134 A 
ATOM     66  C   UNL A   1      42.945  26.359  34.012  1.00  0.00     0.134 A 
ATOM     67  F   UNL A   1      41.187  28.658  36.199  1.00  0.00    -0.206 F 
ATOM     68  C   UNL A   1      42.363  26.698  36.684  1.00  0.00     0.040 A 
ATOM     69  C   UNL A   1      43.378  25.415  34.942  1.00  0.00     0.040 A 
ATOM     70  F   UNL A   1      43.403  26.159  32.771  1.00  0.00    -0.206 F 
ATOM     71  C   UNL A   1      43.115  25.598  36.288  1.00  0.00     0.006 A 
ENDBRANCH  50  64
BRANCH  51  72
ATOM     72  C   UNL A   1      43.319  25.274  26.094  1.00  0.00     0.057 A 
ATOM     73  C   UNL A   1      44.419  25.068  25.250  1.00  0.00     0.134 A 
ATOM     74  C   UNL A   1      42.498  24.155  26.322  1.00  0.00     0.134 A 
ATOM     75  F   UNL A   1      45.283  26.064  25.003  1.00  0.00    -0.206 F 
ATOM     76  C   UNL A   1      44.706  23.816  24.689  1.00  0.00     0.040 A 
ATOM     77  C   UNL A   1      42.768  22.901  25.764  1.00  0.00     0.040 A 
ATOM     78  F   UNL A   1      41.458  24.218  27.165  1.00  0.00    -0.206 F 
ATOM     79  C   UNL A   1      43.886  22.723  24.957  1.00  0.00     0.006 A 
ENDBRANCH  51  72
BRANCH  63  80
ATOM     80  C   UNL A   1      45.194  30.503  29.035  1.00  0.00     0.057 A 
ATOM     81  C   UNL A   1      44.293  31.183  28.199  1.00  0.00     0.134 A 
ATOM     82  C   UNL A   1      46.516  30.963  29.037  1.00  0.00     0.134 A 
ATOM     83  F   UNL A   1      42.988  30.884  28.198  1.00  0.00    -0.206 F 
ATOM     84  C   UNL A   1      44.698  32.235  27.373  1.00  0.00     0.040 A 
ATOM     85  C   UNL A   1      46.927  32.036  28.243  1.00  0.00     0.040 A 
ATOM     86  F   UNL A   1      47.423  30.402  29.851  1.00  0.00    -0.206 F 
ATOM     87  C   UNL A   1      46.019  32.670  27.398  1.00  0.00     0.006 A 
ENDBRANCH  63  80
ENDBRANCH  37  38
ENDBRANCH  30  32
ENDBRANCH  29  30
ENDBRANCH  28  29
ENDBRANCH   1  28
TORSDOF 13
ENDMDL
MODEL 2
REMARK VINA RESULT:     -12.3      1.122      2.940
REMARK SMILES O=C1C[C@H](c2cn[nH]c2C(=O)OCCOC(=O)c2ccc(-c3c4nc(c(-c5c(F)cccc5F)c5ccc([nH]5)c(-c5c(F)cccc5F)c5nc(c(-c6c(F)cccc6F)c6ccc3[nH]6)C=C5)C=C4)cc2)c2c(-c3cccs3)n[nH]c2N1
REMARK SMILES IDX 13 1 12 2 10 3 11 4 9 5 5 6 6 7 7 8 8 9 4 11 1 12 2 13 3 14
REMARK SMILES IDX 82 15 81 16 72 18 80 19 73 20 79 21 74 23 75 24 78 25 76 26
REMARK SMILES IDX 77 27 14 28 15 29 16 30 17 31 18 32 19 33 71 34 20 35 70 36
REMARK SMILES IDX 21 37 22 38 23 39 64 40 24 41 69 42 63 43 65 44 25 45 68 46
REMARK SMILES IDX 62 47 61 48 26 50 52 51 35 52 51 53 36 54 39 55 50 56 66 57
REMARK SMILES IDX 37 58 38 59 49 61 67 62 40 63 27 64 28 65 33 66 29 67 30 68
REMARK SMILES IDX 32 69 34 70 31 71 53 72 54 73 59 74 55 75 56 76 58 77 60 78
REMARK SMILES IDX 57 79 41 80 42 81 47 82 43 83 44 84 46 85 48 86 45 87
REMARK H PARENT 8 10 82 17 80 22 65 49 39 60
REMARK Flexibility Score: inf
ROOT
ATOM      1  C   UNL A   1      32.579  30.159  26.593  1.00  0.00     0.275 C 
ENDROOT
BRANCH   1   2
ATOM      2  O   UNL A   1      33.517  29.768  25.576  1.00  0.00    -0.457 OA
BRANCH   2   3
ATOM      3  C   UNL A   1      33.874  28.475  25.481  1.00  0.00     0.356 C 
ATOM      4  O   UNL A   1      34.173  27.765  26.437  1.00  0.00    -0.244 OA
BRANCH   3   5
ATOM      5  C   UNL A   1      33.821  28.002  24.121  1.00  0.00     0.147 A 
ATOM      6  C   UNL A   1      33.413  26.858  23.427  1.00  0.00     0.013 A 
ATOM      7  C   UNL A   1      33.661  27.208  22.062  1.00  0.00     0.140 A 
ATOM      8  N   UNL A   1      34.207  28.408  21.907  1.00  0.00    -0.183 NA
ATOM      9  N   UNL A   1      34.318  28.851  23.160  1.00  0.00    -0.271 N 
ATOM     10  H   UNL A   1      34.723  29.720  23.381  1.00  0.00     0.190 HD
BRANCH   6  11
ATOM     11  C   UNL A   1      32.801  25.508  23.780  1.00  0.00     0.069 C 
ATOM     12  O   UNL A   1      35.400  23.520  25.570  1.00  0.00    -0.275 OA
ATOM     13  C   UNL A   1      34.311  24.050  25.343  1.00  0.00     0.226 C 
ATOM     14  C   UNL A   1      33.874  24.397  23.921  1.00  0.00     0.114 C 
ATOM     15  N   UNL A   1      33.391  24.185  26.355  1.00  0.00    -0.311 N 
ATOM     16  C   UNL A   1      32.205  24.814  26.100  1.00  0.00     0.132 A 
ATOM     17  H   UNL A   1      33.584  23.833  27.254  1.00  0.00     0.171 HD
ATOM     18  C   UNL A   1      31.864  25.438  24.929  1.00  0.00     0.031 A 
ATOM     19  N   UNL A   1      31.183  25.021  26.972  1.00  0.00    -0.262 N 
ATOM     20  C   UNL A   1      30.596  26.017  25.190  1.00  0.00     0.108 A 
ATOM     21  N   UNL A   1      30.204  25.794  26.459  1.00  0.00    -0.173 NA
ATOM     22  H   UNL A   1      31.160  24.644  27.882  1.00  0.00     0.192 HD
BRANCH  20  23
ATOM     23  C   UNL A   1      29.895  26.973  24.275  1.00  0.00     0.055 A 
ATOM     24  C   UNL A   1      28.643  26.745  23.740  1.00  0.00     0.022 A 
ATOM     25  S   UNL A   1      30.479  28.527  23.891  1.00  0.00    -0.142 S 
ATOM     26  C   UNL A   1      28.123  27.901  23.088  1.00  0.00     0.012 A 
ATOM     27  C   UNL A   1      29.048  28.919  23.040  1.00  0.00     0.065 A 
ENDBRANCH  20  23
ENDBRANCH   6  11
ENDBRANCH   3   5
ENDBRANCH   2   3
ENDBRANCH   1   2
BRANCH   1  28
ATOM     28  C   UNL A   1      33.137  31.374  27.296  1.00  0.00     0.275 C 
BRANCH  28  29
ATOM     29  O   UNL A   1      34.336  30.980  27.938  1.00  0.00    -0.458 OA
BRANCH  29  30
ATOM     30  C   UNL A   1      35.323  31.892  28.051  1.00  0.00     0.338 C 
ATOM     31  O   UNL A   1      35.374  33.014  27.584  1.00  0.00    -0.246 OA
BRANCH  30  32
ATOM     32  C   UNL A   1      36.422  31.211  28.732  1.00  0.00     0.060 A 
ATOM     33  C   UNL A   1      37.521  31.963  29.150  1.00  0.00     0.016 A 
ATOM     34  C   UNL A   1      36.432  29.806  28.726  1.00  0.00     0.016 A 
ATOM     35  C   UNL A   1      38.701  31.295  29.388  1.00  0.00     0.010 A 
ATOM     36  C   UNL A   1      37.606  29.148  28.934  1.00  0.00     0.010 A 
ATOM     37  C   UNL A   1      38.736  29.909  29.182  1.00  0.00    -0.014 A 
BRANCH  37  38
ATOM     38  C   UNL A   1      39.978  29.203  29.338  1.00  0.00     0.031 A 
ATOM     39  C   UNL A   1      40.289  28.927  30.752  1.00  0.00     0.074 A 
ATOM     40  C   UNL A   1      40.653  28.711  28.286  1.00  0.00     0.049 A 
ATOM     41  N   UNL A   1      41.192  29.494  31.472  1.00  0.00    -0.248 NA
ATOM     42  C   UNL A   1      39.355  28.075  31.511  1.00  0.00     0.031 C 
ATOM     43  C   UNL A   1      40.249  28.651  26.878  1.00  0.00     0.029 A 
ATOM     44  N   UNL A   1      41.843  28.063  28.291  1.00  0.00    -0.354 N 
ATOM     45  C   UNL A   1      41.091  28.899  32.721  1.00  0.00     0.074 A 
ATOM     46  C   UNL A   1      39.825  28.217  32.750  1.00  0.00     0.031 C 
ATOM     47  C   UNL A   1      41.080  27.813  26.213  1.00  0.00     0.029 A 
ATOM     48  C   UNL A   1      42.145  27.400  27.111  1.00  0.00     0.049 A 
ATOM     49  H   UNL A   1      42.444  28.062  29.070  1.00  0.00     0.167 HD
ATOM     50  C   UNL A   1      42.185  28.777  33.517  1.00  0.00     0.037 A 
ATOM     51  C   UNL A   1      43.169  26.526  26.947  1.00  0.00     0.037 A 
ATOM     52  C   UNL A   1      43.250  29.645  33.077  1.00  0.00     0.049 A 
ATOM     53  C   UNL A   1      44.135  26.767  28.055  1.00  0.00     0.074 A 
ATOM     54  C   UNL A   1      43.377  31.012  32.915  1.00  0.00     0.029 A 
ATOM     55  N   UNL A   1      44.257  29.083  32.331  1.00  0.00    -0.354 N 
ATOM     56  N   UNL A   1      44.849  27.853  28.168  1.00  0.00    -0.248 NA
ATOM     57  C   UNL A   1      43.951  26.015  29.288  1.00  0.00     0.031 C 
ATOM     58  C   UNL A   1      44.143  31.175  31.723  1.00  0.00     0.029 A 
ATOM     59  C   UNL A   1      44.500  29.907  31.261  1.00  0.00     0.049 A 
ATOM     60  H   UNL A   1      44.723  28.238  32.529  1.00  0.00     0.167 HD
ATOM     61  C   UNL A   1      44.836  28.150  29.525  1.00  0.00     0.074 A 
ATOM     62  C   UNL A   1      44.339  26.937  30.173  1.00  0.00     0.031 C 
ATOM     63  C   UNL A   1      44.941  29.439  29.965  1.00  0.00     0.037 A 
BRANCH  50  64
ATOM     64  C   UNL A   1      42.423  27.597  34.418  1.00  0.00     0.057 A 
ATOM     65  C   UNL A   1      42.253  27.753  35.802  1.00  0.00     0.134 A 
ATOM     66  C   UNL A   1      43.077  26.411  34.019  1.00  0.00     0.134 A 
ATOM     67  F   UNL A   1      41.669  28.852  36.302  1.00  0.00    -0.206 F 
ATOM     68  C   UNL A   1      42.751  26.825  36.724  1.00  0.00     0.040 A 
ATOM     69  C   UNL A   1      43.526  25.453  34.927  1.00  0.00     0.040 A 
ATOM     70  F   UNL A   1      43.413  26.163  32.747  1.00  0.00    -0.206 F 
ATOM     71  C   UNL A   1      43.393  25.672  36.287  1.00  0.00     0.006 A 
ENDBRANCH  50  64
BRANCH  51  72
ATOM     72  C   UNL A   1      43.208  25.298  26.123  1.00  0.00     0.057 A 
ATOM     73  C   UNL A   1      44.243  25.083  25.202  1.00  0.00     0.134 A 
ATOM     74  C   UNL A   1      42.405  24.183  26.421  1.00  0.00     0.134 A 
ATOM     75  F   UNL A   1      45.087  26.075  24.884  1.00  0.00    -0.206 F 
ATOM     76  C   UNL A   1      44.486  23.825  24.634  1.00  0.00     0.040 A 
ATOM     77  C   UNL A   1      42.632  22.924  25.855  1.00  0.00     0.040 A 
ATOM     78  F   UNL A   1      41.430  24.255  27.338  1.00  0.00    -0.206 F 
ATOM     79  C   UNL A   1      43.687  22.737  24.971  1.00  0.00     0.006 A 
ENDBRANCH  51  72
BRANCH  63  80
ATOM     80  C   UNL A   1      45.328  30.492  28.960  1.00  0.00     0.057 A 
ATOM     81  C   UNL A   1      44.415  31.201  28.162  1.00  0.00     0.134 A 
ATOM     82  C   UNL A   1      46.664  30.903  28.902  1.00  0.00     0.134 A 
ATOM     83  F   UNL A   1      43.102  30.949  28.220  1.00  0.00    -0.206 F 
ATOM     84  C   UNL A   1      44.822  32.236  27.315  1.00  0.00     0.040 A 
ATOM     85  C   UNL A   1      47.078  31.959  28.086  1.00  0.00     0.040 A 
ATOM     86  F   UNL A   1      47.585  30.312  29.678  1.00  0.00    -0.206 F 
ATOM     87  C   UNL A   1      46.157  32.623  27.280  1.00  0.00     0.006 A 
ENDBRANCH  63  80
ENDBRANCH  37  38
ENDBRANCH  30  32
ENDBRANCH  29  30
ENDBRANCH  28  29
ENDBRANCH   1  28
TORSDOF 13
ENDMDL
MODEL 3
REMARK VINA RESULT:     -12.1      1.329      2.560
REMARK SMILES O=C1C[C@H](c2cn[nH]c2C(=O)OCCOC(=O)c2ccc(-c3c4nc(c(-c5c(F)cccc5F)c5ccc([nH]5)c(-c5c(F)cccc5F)c5nc(c(-c6c(F)cccc6F)c6ccc3[nH]6)C=C5)C=C4)cc2)c2c(-c3cccs3)n[nH]c2N1
REMARK SMILES IDX 13 1 12 2 10 3 11 4 9 5 5 6 6 7 7 8 8 9 4 11 1 12 2 13 3 14
REMARK SMILES IDX 82 15 81 16 72 18 80 19 73 20 79 21 74 23 75 24 78 25 76 26
REMARK SMILES IDX 77 27 14 28 15 29 16 30 17 31 18 32 19 33 71 34 20 35 70 36
REMARK SMILES IDX 21 37 22 38 23 39 64 40 24 41 69 42 63 43 65 44 25 45 68 46
REMARK SMILES IDX 62 47 61 48 26 50 52 51 35 52 51 53 36 54 39 55 50 56 66 57
REMARK SMILES IDX 37 58 38 59 49 61 67 62 40 63 27 64 28 65 33 66 29 67 30 68
REMARK SMILES IDX 32 69 34 70 31 71 53 72 54 73 59 74 55 75 56 76 58 77 60 78
REMARK SMILES IDX 57 79 41 80 42 81 47 82 43 83 44 84 46 85 48 86 45 87
REMARK H PARENT 8 10 82 17 80 22 65 49 39 60
REMARK Flexibility Score: inf
ROOT
ATOM      1  C   UNL A   1      32.505  30.202  26.406  1.00  0.00     0.275 C 
ENDROOT
BRANCH   1   2
ATOM      2  O   UNL A   1      32.365  28.848  26.869  1.00  0.00    -0.457 OA
BRANCH   2   3
ATOM      3  C   UNL A   1      33.246  27.922  26.453  1.00  0.00     0.356 C 
ATOM      4  O   UNL A   1      34.438  28.139  26.254  1.00  0.00    -0.244 OA
BRANCH   3   5
ATOM      5  C   UNL A   1      32.637  26.625  26.315  1.00  0.00     0.147 A 
ATOM      6  C   UNL A   1      32.897  25.411  25.670  1.00  0.00     0.013 A 
ATOM      7  C   UNL A   1      31.797  24.591  26.078  1.00  0.00     0.140 A 
ATOM      8  N   UNL A   1      30.917  25.219  26.848  1.00  0.00    -0.183 NA
ATOM      9  N   UNL A   1      31.431  26.446  26.951  1.00  0.00    -0.271 N 
ATOM     10  H   UNL A   1      30.982  27.169  27.446  1.00  0.00     0.190 HD
BRANCH   6  11
ATOM     11  C   UNL A   1      33.990  24.845  24.772  1.00  0.00     0.069 C 
ATOM     12  O   UNL A   1      34.401  21.238  25.624  1.00  0.00    -0.275 OA
ATOM     13  C   UNL A   1      34.237  22.245  24.934  1.00  0.00     0.226 C 
ATOM     14  C   UNL A   1      34.697  23.621  25.410  1.00  0.00     0.114 C 
ATOM     15  N   UNL A   1      33.786  22.123  23.641  1.00  0.00    -0.311 N 
ATOM     16  C   UNL A   1      33.567  23.251  22.901  1.00  0.00     0.132 A 
ATOM     17  H   UNL A   1      33.624  21.234  23.251  1.00  0.00     0.171 HD
ATOM     18  C   UNL A   1      33.652  24.539  23.359  1.00  0.00     0.031 A 
ATOM     19  N   UNL A   1      33.140  23.315  21.612  1.00  0.00    -0.262 N 
ATOM     20  C   UNL A   1      33.241  25.336  22.260  1.00  0.00     0.108 A 
ATOM     21  N   UNL A   1      32.887  24.577  21.206  1.00  0.00    -0.173 NA
ATOM     22  H   UNL A   1      33.029  22.524  21.036  1.00  0.00     0.192 HD
BRANCH  20  23
ATOM     23  C   UNL A   1      32.978  26.809  22.330  1.00  0.00     0.055 A 
ATOM     24  C   UNL A   1      31.717  27.359  22.439  1.00  0.00     0.022 A 
ATOM     25  S   UNL A   1      34.201  27.991  22.433  1.00  0.00    -0.142 S 
ATOM     26  C   UNL A   1      31.766  28.758  22.707  1.00  0.00     0.012 A 
ATOM     27  C   UNL A   1      33.055  29.240  22.663  1.00  0.00     0.065 A 
ENDBRANCH  20  23
ENDBRANCH   6  11
ENDBRANCH   3   5
ENDBRANCH   2   3
ENDBRANCH   1   2
BRANCH   1  28
ATOM     28  C   UNL A   1      33.177  30.999  27.499  1.00  0.00     0.275 C 
BRANCH  28  29
ATOM     29  O   UNL A   1      34.560  31.051  27.199  1.00  0.00    -0.458 OA
BRANCH  29  30
ATOM     30  C   UNL A   1      35.307  31.991  27.812  1.00  0.00     0.338 C 
ATOM     31  O   UNL A   1      35.228  33.201  27.717  1.00  0.00    -0.246 OA
BRANCH  30  32
ATOM     32  C   UNL A   1      36.361  31.267  28.519  1.00  0.00     0.060 A 
ATOM     33  C   UNL A   1      37.418  31.992  29.071  1.00  0.00     0.016 A 
ATOM     34  C   UNL A   1      36.387  29.866  28.409  1.00  0.00     0.016 A 
ATOM     35  C   UNL A   1      38.585  31.314  29.344  1.00  0.00     0.010 A 
ATOM     36  C   UNL A   1      37.550  29.201  28.653  1.00  0.00     0.010 A 
ATOM     37  C   UNL A   1      38.651  29.948  29.039  1.00  0.00    -0.014 A 
BRANCH  37  38
ATOM     38  C   UNL A   1      39.886  29.240  29.232  1.00  0.00     0.031 A 
ATOM     39  C   UNL A   1      40.149  28.955  30.654  1.00  0.00     0.074 A 
ATOM     40  C   UNL A   1      40.595  28.753  28.201  1.00  0.00     0.049 A 
ATOM     41  N   UNL A   1      41.029  29.517  31.407  1.00  0.00    -0.248 NA
ATOM     42  C   UNL A   1      39.189  28.101  31.376  1.00  0.00     0.031 C 
ATOM     43  C   UNL A   1      40.239  28.701  26.780  1.00  0.00     0.029 A 
ATOM     44  N   UNL A   1      41.783  28.103  28.242  1.00  0.00    -0.354 N 
ATOM     45  C   UNL A   1      40.885  28.915  32.649  1.00  0.00     0.074 A 
ATOM     46  C   UNL A   1      39.618  28.235  32.632  1.00  0.00     0.031 C 
ATOM     47  C   UNL A   1      41.090  27.866  26.138  1.00  0.00     0.029 A 
ATOM     48  C   UNL A   1      42.124  27.446  27.069  1.00  0.00     0.049 A 
ATOM     49  H   UNL A   1      42.358  28.097  29.041  1.00  0.00     0.167 HD
ATOM     50  C   UNL A   1      41.952  28.787  33.480  1.00  0.00     0.037 A 
ATOM     51  C   UNL A   1      43.151  26.572  26.934  1.00  0.00     0.037 A 
ATOM     52  C   UNL A   1      43.032  29.657  33.080  1.00  0.00     0.049 A 
ATOM     53  C   UNL A   1      44.080  26.806  28.075  1.00  0.00     0.074 A 
ATOM     54  C   UNL A   1      43.165  31.024  32.930  1.00  0.00     0.029 A 
ATOM     55  N   UNL A   1      44.063  29.097  32.365  1.00  0.00    -0.354 N 
ATOM     56  N   UNL A   1      44.791  27.889  28.218  1.00  0.00    -0.248 NA
ATOM     57  C   UNL A   1      43.854  26.046  29.297  1.00  0.00     0.031 C 
ATOM     58  C   UNL A   1      43.971  31.192  31.766  1.00  0.00     0.029 A 
ATOM     59  C   UNL A   1      44.342  29.927  31.309  1.00  0.00     0.049 A 
ATOM     60  H   UNL A   1      44.520  28.250  32.574  1.00  0.00     0.167 HD
ATOM     61  C   UNL A   1      44.733  28.179  29.575  1.00  0.00     0.074 A 
ATOM     62  C   UNL A   1      44.214  26.963  30.199  1.00  0.00     0.031 C 
ATOM     63  C   UNL A   1      44.825  29.466  30.026  1.00  0.00     0.037 A 
BRANCH  50  64
ATOM     64  C   UNL A   1      42.158  27.602  34.382  1.00  0.00     0.057 A 
ATOM     65  C   UNL A   1      41.823  27.714  35.740  1.00  0.00     0.134 A 
ATOM     66  C   UNL A   1      42.925  26.466  34.040  1.00  0.00     0.134 A 
ATOM     67  F   UNL A   1      41.120  28.765  36.189  1.00  0.00    -0.206 F 
ATOM     68  C   UNL A   1      42.269  26.795  36.696  1.00  0.00     0.040 A 
ATOM     69  C   UNL A   1      43.326  25.515  34.977  1.00  0.00     0.040 A 
ATOM     70  F   UNL A   1      43.417  26.270  32.811  1.00  0.00    -0.206 F 
ATOM     71  C   UNL A   1      43.026  25.693  36.316  1.00  0.00     0.006 A 
ENDBRANCH  50  64
BRANCH  51  72
ATOM     72  C   UNL A   1      43.217  25.348  26.105  1.00  0.00     0.057 A 
ATOM     73  C   UNL A   1      44.278  25.139  25.214  1.00  0.00     0.134 A 
ATOM     74  C   UNL A   1      42.407  24.231  26.373  1.00  0.00     0.134 A 
ATOM     75  F   UNL A   1      45.130  26.135  24.926  1.00  0.00    -0.206 F 
ATOM     76  C   UNL A   1      44.540  23.885  24.646  1.00  0.00     0.040 A 
ATOM     77  C   UNL A   1      42.652  22.975  25.808  1.00  0.00     0.040 A 
ATOM     78  F   UNL A   1      41.405  24.296  27.261  1.00  0.00    -0.206 F 
ATOM     79  C   UNL A   1      43.733  22.794  24.954  1.00  0.00     0.006 A 
ENDBRANCH  51  72
BRANCH  63  80
ATOM     80  C   UNL A   1      45.247  30.523  29.040  1.00  0.00     0.057 A 
ATOM     81  C   UNL A   1      44.363  31.234  28.212  1.00  0.00     0.134 A 
ATOM     82  C   UNL A   1      46.583  30.937  29.033  1.00  0.00     0.134 A 
ATOM     83  F   UNL A   1      43.049  30.980  28.221  1.00  0.00    -0.206 F 
ATOM     84  C   UNL A   1      44.798  32.274  27.385  1.00  0.00     0.040 A 
ATOM     85  C   UNL A   1      47.025  31.997  28.237  1.00  0.00     0.040 A 
ATOM     86  F   UNL A   1      47.477  30.344  29.839  1.00  0.00    -0.206 F 
ATOM     87  C   UNL A   1      46.133  32.663  27.401  1.00  0.00     0.006 A 
ENDBRANCH  63  80
ENDBRANCH  37  38
ENDBRANCH  30  32
ENDBRANCH  29  30
ENDBRANCH  28  29
ENDBRANCH   1  28
TORSDOF 13
ENDMDL
