MODEL 1
REMARK VINA RESULT:     -12.5      0.000      0.000
REMARK SMILES CC1=C(C)C[C@H](C(=O)OCCOC(=O)c2ccc(-c3c4nc(c(-c5c(F)cccc5F)c5ccc([nH]5)c(-c5c(F)cccc5F)c5nc(c(-c6c(F)cccc6F)c6ccc3[nH]6)C=C5)C=C4)cc2)[C@@H](C(=O)Nc2sc3c(c2C(=O)NC2CCCC2)CCCC3)C1
REMARK SMILES IDX 10 1 9 2 7 3 8 4 6 5 1 6 2 7 3 8 90 9 4 10 5 11 69 12 70 13
REMARK SMILES IDX 71 14 72 15 73 17 74 18 77 19 75 20 76 21 89 22 86 23 88 24
REMARK SMILES IDX 87 25 78 26 79 27 80 28 81 30 82 31 85 32 83 33 84 34 11 35
REMARK SMILES IDX 12 36 13 37 14 38 15 39 16 40 68 41 17 42 67 43 18 44 19 45
REMARK SMILES IDX 20 46 61 47 21 48 66 49 60 50 62 51 22 52 65 53 59 54 58 55
REMARK SMILES IDX 23 57 49 58 32 59 48 60 33 61 36 62 47 63 63 64 34 65 35 66
REMARK SMILES IDX 46 68 64 69 37 70 24 71 25 72 30 73 26 74 27 75 29 76 31 77
REMARK SMILES IDX 28 78 50 79 51 80 56 81 52 82 53 83 55 84 57 85 54 86 38 87
REMARK SMILES IDX 39 88 44 89 40 90 41 91 43 92 45 93 42 94
REMARK H PARENT 72 16 80 29 62 56 36 67
REMARK Flexibility Score: inf
ROOT
ATOM      1  C   UNL A   1      31.877  29.849  26.887  1.00  0.00     0.274 C 
ENDROOT
BRANCH   1   2
ATOM      2  O   UNL A   1      31.776  30.626  25.674  1.00  0.00    -0.462 OA
BRANCH   2   3
ATOM      3  C   UNL A   1      31.514  29.892  24.569  1.00  0.00     0.310 C 
ATOM      4  O   UNL A   1      32.356  29.241  23.963  1.00  0.00    -0.252 OA
BRANCH   3   5
ATOM      5  C   UNL A   1      30.071  29.885  24.132  1.00  0.00     0.116 C 
ATOM      6  C   UNL A   1      28.317  31.800  20.495  1.00  0.00     0.039 C 
ATOM      7  C   UNL A   1      28.888  31.237  21.774  1.00  0.00    -0.074 C 
ATOM      8  C   UNL A   1      28.982  31.925  22.927  1.00  0.00    -0.073 C 
ATOM      9  C   UNL A   1      29.367  29.807  21.637  1.00  0.00     0.045 C 
ATOM     10  C   UNL A   1      28.607  33.374  23.141  1.00  0.00     0.039 C 
ATOM     11  C   UNL A   1      29.512  31.302  24.179  1.00  0.00     0.046 C 
ATOM     12  C   UNL A   1      29.815  29.034  22.898  1.00  0.00     0.097 C 
BRANCH  12  13
ATOM     13  C   UNL A   1      28.759  27.974  23.229  1.00  0.00     0.229 C 
ATOM     14  O   UNL A   1      27.555  28.245  23.225  1.00  0.00    -0.274 OA
ATOM     15  N   UNL A   1      29.116  26.673  23.462  1.00  0.00    -0.317 N 
ATOM     16  H   UNL A   1      28.383  26.018  23.430  1.00  0.00     0.170 HD
BRANCH  15  17
ATOM     17  C   UNL A   1      30.359  26.161  23.737  1.00  0.00     0.108 A 
ATOM     18  S   UNL A   1      31.101  25.620  22.288  1.00  0.00    -0.122 S 
ATOM     19  C   UNL A   1      31.126  25.879  24.862  1.00  0.00     0.078 A 
ATOM     20  C   UNL A   1      32.596  25.510  23.054  1.00  0.00     0.011 A 
ATOM     21  C   UNL A   1      32.515  25.763  24.406  1.00  0.00    -0.019 A 
ATOM     22  C   UNL A   1      33.873  25.143  22.372  1.00  0.00     0.047 C 
ATOM     23  C   UNL A   1      33.804  25.805  25.182  1.00  0.00     0.037 C 
ATOM     24  C   UNL A   1      34.685  24.225  23.301  1.00  0.00     0.006 C 
ATOM     25  C   UNL A   1      34.776  24.691  24.770  1.00  0.00     0.005 C 
BRANCH  19  26
ATOM     26  C   UNL A   1      30.771  25.697  26.284  1.00  0.00     0.254 C 
ATOM     27  O   UNL A   1      30.554  26.679  27.001  1.00  0.00    -0.269 OA
ATOM     28  N   UNL A   1      30.726  24.515  26.969  1.00  0.00    -0.349 N 
ATOM     29  H   UNL A   1      30.290  24.614  27.846  1.00  0.00     0.164 HD
BRANCH  28  30
ATOM     30  C   UNL A   1      31.157  23.162  26.730  1.00  0.00     0.082 C 
ATOM     31  C   UNL A   1      31.100  22.762  25.262  1.00  0.00     0.025 C 
ATOM     32  C   UNL A   1      32.635  22.953  27.056  1.00  0.00     0.025 C 
ATOM     33  C   UNL A   1      31.947  21.494  25.227  1.00  0.00     0.002 C 
ATOM     34  C   UNL A   1      32.992  21.658  26.334  1.00  0.00     0.002 C 
ENDBRANCH  28  30
ENDBRANCH  19  26
ENDBRANCH  15  17
ENDBRANCH  12  13
ENDBRANCH   3   5
ENDBRANCH   2   3
ENDBRANCH   1   2
BRANCH   1  35
ATOM     35  C   UNL A   1      33.321  29.525  27.300  1.00  0.00     0.275 C 
BRANCH  35  36
ATOM     36  O   UNL A   1      34.205  30.657  27.166  1.00  0.00    -0.458 OA
BRANCH  36  37
ATOM     37  C   UNL A   1      34.896  30.985  28.279  1.00  0.00     0.338 C 
ATOM     38  O   UNL A   1      34.547  31.761  29.161  1.00  0.00    -0.246 OA
BRANCH  37  39
ATOM     39  C   UNL A   1      36.142  30.206  28.381  1.00  0.00     0.060 A 
ATOM     40  C   UNL A   1      36.470  29.623  29.609  1.00  0.00     0.016 A 
ATOM     41  C   UNL A   1      37.059  30.189  27.332  1.00  0.00     0.016 A 
ATOM     42  C   UNL A   1      37.724  29.067  29.823  1.00  0.00     0.010 A 
ATOM     43  C   UNL A   1      38.321  29.620  27.540  1.00  0.00     0.010 A 
ATOM     44  C   UNL A   1      38.668  29.089  28.796  1.00  0.00    -0.014 A 
BRANCH  44  45
ATOM     45  C   UNL A   1      40.055  28.664  29.082  1.00  0.00     0.031 A 
ATOM     46  C   UNL A   1      40.980  29.616  29.778  1.00  0.00     0.074 A 
ATOM     47  C   UNL A   1      40.468  27.427  28.758  1.00  0.00     0.049 A 
ATOM     48  N   UNL A   1      42.264  29.512  29.999  1.00  0.00    -0.248 NA
ATOM     49  C   UNL A   1      40.376  30.856  30.295  1.00  0.00     0.031 C 
ATOM     50  C   UNL A   1      39.634  26.388  28.154  1.00  0.00     0.029 A 
ATOM     51  N   UNL A   1      41.702  26.843  28.881  1.00  0.00    -0.354 N 
ATOM     52  C   UNL A   1      42.631  30.686  30.644  1.00  0.00     0.074 A 
ATOM     53  C   UNL A   1      41.433  31.487  30.783  1.00  0.00     0.031 C 
ATOM     54  C   UNL A   1      40.389  25.299  27.936  1.00  0.00     0.029 A 
ATOM     55  C   UNL A   1      41.763  25.585  28.338  1.00  0.00     0.049 A 
ATOM     56  H   UNL A   1      42.467  27.283  29.316  1.00  0.00     0.167 HD
ATOM     57  C   UNL A   1      43.858  31.061  31.071  1.00  0.00     0.037 A 
ATOM     58  C   UNL A   1      42.822  24.776  28.145  1.00  0.00     0.037 A 
ATOM     59  C   UNL A   1      45.038  30.247  30.950  1.00  0.00     0.049 A 
ATOM     60  C   UNL A   1      44.187  25.236  28.574  1.00  0.00     0.074 A 
ATOM     61  C   UNL A   1      46.328  30.527  31.365  1.00  0.00     0.029 A 
ATOM     62  N   UNL A   1      45.066  28.987  30.372  1.00  0.00    -0.354 N 
ATOM     63  N   UNL A   1      44.535  26.360  29.153  1.00  0.00    -0.248 NA
ATOM     64  C   UNL A   1      45.307  24.323  28.311  1.00  0.00     0.031 C 
ATOM     65  C   UNL A   1      47.144  29.448  31.005  1.00  0.00     0.029 A 
ATOM     66  C   UNL A   1      46.356  28.484  30.399  1.00  0.00     0.049 A 
ATOM     67  H   UNL A   1      44.285  28.518  29.998  1.00  0.00     0.167 HD
ATOM     68  C   UNL A   1      45.909  26.286  29.333  1.00  0.00     0.074 A 
ATOM     69  C   UNL A   1      46.330  25.000  28.813  1.00  0.00     0.031 C 
ATOM     70  C   UNL A   1      46.749  27.201  29.874  1.00  0.00     0.037 A 
BRANCH  57  71
ATOM     71  C   UNL A   1      43.989  32.432  31.661  1.00  0.00     0.057 A 
ATOM     72  C   UNL A   1      44.210  33.565  30.870  1.00  0.00     0.134 A 
ATOM     73  C   UNL A   1      43.887  32.616  33.046  1.00  0.00     0.134 A 
ATOM     74  F   UNL A   1      44.336  33.451  29.539  1.00  0.00    -0.206 F 
ATOM     75  C   UNL A   1      44.345  34.834  31.438  1.00  0.00     0.040 A 
ATOM     76  C   UNL A   1      44.001  33.881  33.623  1.00  0.00     0.040 A 
ATOM     77  F   UNL A   1      43.677  31.569  33.858  1.00  0.00    -0.206 F 
ATOM     78  C   UNL A   1      44.237  34.994  32.819  1.00  0.00     0.006 A 
ENDBRANCH  57  71
BRANCH  58  79
ATOM     79  C   UNL A   1      42.634  23.475  27.462  1.00  0.00     0.057 A 
ATOM     80  C   UNL A   1      42.297  22.320  28.175  1.00  0.00     0.134 A 
ATOM     81  C   UNL A   1      42.777  23.359  26.073  1.00  0.00     0.134 A 
ATOM     82  F   UNL A   1      42.168  22.365  29.510  1.00  0.00    -0.206 F 
ATOM     83  C   UNL A   1      42.114  21.094  27.534  1.00  0.00     0.040 A 
ATOM     84  C   UNL A   1      42.577  22.144  25.416  1.00  0.00     0.040 A 
ATOM     85  F   UNL A   1      43.100  24.431  25.334  1.00  0.00    -0.206 F 
ATOM     86  C   UNL A   1      42.247  21.006  26.148  1.00  0.00     0.006 A 
ENDBRANCH  58  79
BRANCH  70  87
ATOM     87  C   UNL A   1      48.200  26.834  29.950  1.00  0.00     0.057 A 
ATOM     88  C   UNL A   1      48.707  26.065  31.004  1.00  0.00     0.134 A 
ATOM     89  C   UNL A   1      49.087  27.217  28.938  1.00  0.00     0.134 A 
ATOM     90  F   UNL A   1      47.908  25.679  32.010  1.00  0.00    -0.206 F 
ATOM     91  C   UNL A   1      50.053  25.698  31.055  1.00  0.00     0.040 A 
ATOM     92  C   UNL A   1      50.431  26.841  28.967  1.00  0.00     0.040 A 
ATOM     93  F   UNL A   1      48.660  27.949  27.898  1.00  0.00    -0.206 F 
ATOM     94  C   UNL A   1      50.917  26.081  30.030  1.00  0.00     0.006 A 
ENDBRANCH  70  87
ENDBRANCH  44  45
ENDBRANCH  37  39
ENDBRANCH  36  37
ENDBRANCH  35  36
ENDBRANCH   1  35
TORSDOF 15
ENDMDL
MODEL 2
REMARK VINA RESULT:     -12.3      2.467      6.744
REMARK SMILES CC1=C(C)C[C@H](C(=O)OCCOC(=O)c2ccc(-c3c4nc(c(-c5c(F)cccc5F)c5ccc([nH]5)c(-c5c(F)cccc5F)c5nc(c(-c6c(F)cccc6F)c6ccc3[nH]6)C=C5)C=C4)cc2)[C@@H](C(=O)Nc2sc3c(c2C(=O)NC2CCCC2)CCCC3)C1
REMARK SMILES IDX 10 1 9 2 7 3 8 4 6 5 1 6 2 7 3 8 90 9 4 10 5 11 69 12 70 13
REMARK SMILES IDX 71 14 72 15 73 17 74 18 77 19 75 20 76 21 89 22 86 23 88 24
REMARK SMILES IDX 87 25 78 26 79 27 80 28 81 30 82 31 85 32 83 33 84 34 11 35
REMARK SMILES IDX 12 36 13 37 14 38 15 39 16 40 68 41 17 42 67 43 18 44 19 45
REMARK SMILES IDX 20 46 61 47 21 48 66 49 60 50 62 51 22 52 65 53 59 54 58 55
REMARK SMILES IDX 23 57 49 58 32 59 48 60 33 61 36 62 47 63 63 64 34 65 35 66
REMARK SMILES IDX 46 68 64 69 37 70 24 71 25 72 30 73 26 74 27 75 29 76 31 77
REMARK SMILES IDX 28 78 50 79 51 80 56 81 52 82 53 83 55 84 57 85 54 86 38 87
REMARK SMILES IDX 39 88 44 89 40 90 41 91 43 92 45 93 42 94
REMARK H PARENT 72 16 80 29 62 56 36 67
REMARK Flexibility Score: inf
ROOT
ATOM      1  C   UNL A   1      32.735  30.315  26.571  1.00  0.00     0.274 C 
ENDROOT
BRANCH   1   2
ATOM      2  O   UNL A   1      31.622  30.742  25.757  1.00  0.00    -0.462 OA
BRANCH   2   3
ATOM      3  C   UNL A   1      31.416  29.980  24.659  1.00  0.00     0.310 C 
ATOM      4  O   UNL A   1      32.291  29.325  24.105  1.00  0.00    -0.252 OA
BRANCH   3   5
ATOM      5  C   UNL A   1      29.993  29.945  24.161  1.00  0.00     0.116 C 
ATOM      6  C   UNL A   1      28.368  31.794  20.431  1.00  0.00     0.039 C 
ATOM      7  C   UNL A   1      28.892  31.254  21.739  1.00  0.00    -0.074 C 
ATOM      8  C   UNL A   1      28.925  31.955  22.888  1.00  0.00    -0.073 C 
ATOM      9  C   UNL A   1      29.399  29.831  21.639  1.00  0.00     0.045 C 
ATOM     10  C   UNL A   1      28.519  33.400  23.070  1.00  0.00     0.039 C 
ATOM     11  C   UNL A   1      29.411  31.353  24.168  1.00  0.00     0.046 C 
ATOM     12  C   UNL A   1      29.804  29.077  22.926  1.00  0.00     0.097 C 
BRANCH  12  13
ATOM     13  C   UNL A   1      28.752  28.004  23.222  1.00  0.00     0.229 C 
ATOM     14  O   UNL A   1      27.546  28.266  23.204  1.00  0.00    -0.274 OA
ATOM     15  N   UNL A   1      29.116  26.702  23.440  1.00  0.00    -0.317 N 
ATOM     16  H   UNL A   1      28.389  26.042  23.385  1.00  0.00     0.170 HD
BRANCH  15  17
ATOM     17  C   UNL A   1      30.359  26.196  23.725  1.00  0.00     0.108 A 
ATOM     18  S   UNL A   1      31.118  25.665  22.282  1.00  0.00    -0.122 S 
ATOM     19  C   UNL A   1      31.115  25.912  24.858  1.00  0.00     0.078 A 
ATOM     20  C   UNL A   1      32.605  25.559  23.064  1.00  0.00     0.011 A 
ATOM     21  C   UNL A   1      32.509  25.806  24.416  1.00  0.00    -0.019 A 
ATOM     22  C   UNL A   1      33.892  25.201  22.394  1.00  0.00     0.047 C 
ATOM     23  C   UNL A   1      33.789  25.851  25.206  1.00  0.00     0.037 C 
ATOM     24  C   UNL A   1      34.699  24.284  23.328  1.00  0.00     0.006 C 
ATOM     25  C   UNL A   1      34.772  24.744  24.800  1.00  0.00     0.005 C 
BRANCH  19  26
ATOM     26  C   UNL A   1      30.746  25.722  26.275  1.00  0.00     0.254 C 
ATOM     27  O   UNL A   1      30.521  26.700  26.995  1.00  0.00    -0.269 OA
ATOM     28  N   UNL A   1      30.695  24.537  26.953  1.00  0.00    -0.349 N 
ATOM     29  H   UNL A   1      30.250  24.631  27.826  1.00  0.00     0.164 HD
BRANCH  28  30
ATOM     30  C   UNL A   1      31.129  23.185  26.711  1.00  0.00     0.082 C 
ATOM     31  C   UNL A   1      31.102  22.799  25.239  1.00  0.00     0.025 C 
ATOM     32  C   UNL A   1      32.600  22.972  27.065  1.00  0.00     0.025 C 
ATOM     33  C   UNL A   1      31.948  21.530  25.210  1.00  0.00     0.002 C 
ATOM     34  C   UNL A   1      32.970  21.683  26.340  1.00  0.00     0.002 C 
ENDBRANCH  28  30
ENDBRANCH  19  26
ENDBRANCH  15  17
ENDBRANCH  12  13
ENDBRANCH   3   5
ENDBRANCH   2   3
ENDBRANCH   1   2
BRANCH   1  35
ATOM     35  C   UNL A   1      33.136  31.324  27.657  1.00  0.00     0.275 C 
BRANCH  35  36
ATOM     36  O   UNL A   1      33.063  32.690  27.202  1.00  0.00    -0.458 OA
BRANCH  36  37
ATOM     37  C   UNL A   1      33.252  33.628  28.155  1.00  0.00     0.338 C 
ATOM     38  O   UNL A   1      32.458  34.492  28.507  1.00  0.00    -0.246 OA
BRANCH  37  39
ATOM     39  C   UNL A   1      34.548  33.444  28.832  1.00  0.00     0.060 A 
ATOM     40  C   UNL A   1      35.718  33.786  28.147  1.00  0.00     0.016 A 
ATOM     41  C   UNL A   1      34.622  32.787  30.059  1.00  0.00     0.016 A 
ATOM     42  C   UNL A   1      36.965  33.435  28.645  1.00  0.00     0.010 A 
ATOM     43  C   UNL A   1      35.879  32.441  30.570  1.00  0.00     0.010 A 
ATOM     44  C   UNL A   1      37.051  32.733  29.848  1.00  0.00    -0.014 A 
BRANCH  44  45
ATOM     45  C   UNL A   1      38.360  32.203  30.282  1.00  0.00     0.031 A 
ATOM     46  C   UNL A   1      38.862  30.923  29.687  1.00  0.00     0.074 A 
ATOM     47  C   UNL A   1      39.108  32.882  31.169  1.00  0.00     0.049 A 
ATOM     48  N   UNL A   1      39.903  30.205  30.020  1.00  0.00    -0.248 NA
ATOM     49  C   UNL A   1      38.084  30.374  28.563  1.00  0.00     0.031 C 
ATOM     50  C   UNL A   1      38.762  34.177  31.752  1.00  0.00     0.029 A 
ATOM     51  N   UNL A   1      40.311  32.562  31.743  1.00  0.00    -0.354 N 
ATOM     52  C   UNL A   1      39.886  29.102  29.177  1.00  0.00     0.074 A 
ATOM     53  C   UNL A   1      38.733  29.246  28.313  1.00  0.00     0.031 C 
ATOM     54  C   UNL A   1      39.721  34.531  32.623  1.00  0.00     0.029 A 
ATOM     55  C   UNL A   1      40.717  33.466  32.692  1.00  0.00     0.049 A 
ATOM     56  H   UNL A   1      40.832  31.763  31.499  1.00  0.00     0.167 HD
ATOM     57  C   UNL A   1      40.749  28.062  29.137  1.00  0.00     0.037 A 
ATOM     58  C   UNL A   1      41.751  33.413  33.552  1.00  0.00     0.037 A 
ATOM     59  C   UNL A   1      41.906  27.941  29.982  1.00  0.00     0.049 A 
ATOM     60  C   UNL A   1      42.666  32.221  33.531  1.00  0.00     0.074 A 
ATOM     61  C   UNL A   1      42.855  26.934  30.011  1.00  0.00     0.029 A 
ATOM     62  N   UNL A   1      42.271  28.865  30.949  1.00  0.00    -0.354 N 
ATOM     63  N   UNL A   1      42.626  31.164  32.755  1.00  0.00    -0.248 NA
ATOM     64  C   UNL A   1      43.759  32.206  34.512  1.00  0.00     0.031 C 
ATOM     65  C   UNL A   1      43.776  27.233  31.022  1.00  0.00     0.029 A 
ATOM     66  C   UNL A   1      43.421  28.443  31.596  1.00  0.00     0.049 A 
ATOM     67  H   UNL A   1      41.787  29.700  31.146  1.00  0.00     0.167 HD
ATOM     68  C   UNL A   1      43.691  30.364  33.145  1.00  0.00     0.074 A 
ATOM     69  C   UNL A   1      44.367  31.065  34.219  1.00  0.00     0.031 C 
ATOM     70  C   UNL A   1      44.074  29.157  32.663  1.00  0.00     0.037 A 
BRANCH  57  71
ATOM     71  C   UNL A   1      40.440  26.952  28.179  1.00  0.00     0.057 A 
ATOM     72  C   UNL A   1      41.012  26.889  26.903  1.00  0.00     0.134 A 
ATOM     73  C   UNL A   1      39.558  25.928  28.546  1.00  0.00     0.134 A 
ATOM     74  F   UNL A   1      41.850  27.850  26.485  1.00  0.00    -0.206 F 
ATOM     75  C   UNL A   1      40.702  25.856  26.017  1.00  0.00     0.040 A 
ATOM     76  C   UNL A   1      39.256  24.880  27.677  1.00  0.00     0.040 A 
ATOM     77  F   UNL A   1      38.976  25.932  29.756  1.00  0.00    -0.206 F 
ATOM     78  C   UNL A   1      39.823  24.845  26.406  1.00  0.00     0.006 A 
ENDBRANCH  57  71
BRANCH  58  79
ATOM     79  C   UNL A   1      41.936  34.500  34.542  1.00  0.00     0.057 A 
ATOM     80  C   UNL A   1      42.656  35.657  34.227  1.00  0.00     0.134 A 
ATOM     81  C   UNL A   1      41.386  34.410  35.828  1.00  0.00     0.134 A 
ATOM     82  F   UNL A   1      43.224  35.790  33.020  1.00  0.00    -0.206 F 
ATOM     83  C   UNL A   1      42.828  36.685  35.156  1.00  0.00     0.040 A 
ATOM     84  C   UNL A   1      41.532  35.438  36.759  1.00  0.00     0.040 A 
ATOM     85  F   UNL A   1      40.686  33.324  36.189  1.00  0.00    -0.206 F 
ATOM     86  C   UNL A   1      42.258  36.579  36.425  1.00  0.00     0.006 A 
ENDBRANCH  58  79
BRANCH  70  87
ATOM     87  C   UNL A   1      45.287  28.530  33.279  1.00  0.00     0.057 A 
ATOM     88  C   UNL A   1      46.575  28.806  32.804  1.00  0.00     0.134 A 
ATOM     89  C   UNL A   1      45.168  27.679  34.383  1.00  0.00     0.134 A 
ATOM     90  F   UNL A   1      46.751  29.604  31.741  1.00  0.00    -0.206 F 
ATOM     91  C   UNL A   1      47.705  28.244  33.401  1.00  0.00     0.040 A 
ATOM     92  C   UNL A   1      46.292  27.126  35.000  1.00  0.00     0.040 A 
ATOM     93  F   UNL A   1      43.961  27.381  34.888  1.00  0.00    -0.206 F 
ATOM     94  C   UNL A   1      47.564  27.407  34.506  1.00  0.00     0.006 A 
ENDBRANCH  70  87
ENDBRANCH  44  45
ENDBRANCH  37  39
ENDBRANCH  36  37
ENDBRANCH  35  36
ENDBRANCH   1  35
TORSDOF 15
ENDMDL
MODEL 3
REMARK VINA RESULT:     -12.1      3.469      6.992
REMARK SMILES CC1=C(C)C[C@H](C(=O)OCCOC(=O)c2ccc(-c3c4nc(c(-c5c(F)cccc5F)c5ccc([nH]5)c(-c5c(F)cccc5F)c5nc(c(-c6c(F)cccc6F)c6ccc3[nH]6)C=C5)C=C4)cc2)[C@@H](C(=O)Nc2sc3c(c2C(=O)NC2CCCC2)CCCC3)C1
REMARK SMILES IDX 10 1 9 2 7 3 8 4 6 5 1 6 2 7 3 8 90 9 4 10 5 11 69 12 70 13
REMARK SMILES IDX 71 14 72 15 73 17 74 18 77 19 75 20 76 21 89 22 86 23 88 24
REMARK SMILES IDX 87 25 78 26 79 27 80 28 81 30 82 31 85 32 83 33 84 34 11 35
REMARK SMILES IDX 12 36 13 37 14 38 15 39 16 40 68 41 17 42 67 43 18 44 19 45
REMARK SMILES IDX 20 46 61 47 21 48 66 49 60 50 62 51 22 52 65 53 59 54 58 55
REMARK SMILES IDX 23 57 49 58 32 59 48 60 33 61 36 62 47 63 63 64 34 65 35 66
REMARK SMILES IDX 46 68 64 69 37 70 24 71 25 72 30 73 26 74 27 75 29 76 31 77
REMARK SMILES IDX 28 78 50 79 51 80 56 81 52 82 53 83 55 84 57 85 54 86 38 87
REMARK SMILES IDX 39 88 44 89 40 90 41 91 43 92 45 93 42 94
REMARK H PARENT 72 16 80 29 62 56 36 67
REMARK Flexibility Score: inf
ROOT
ATOM      1  C   UNL A   1      31.981  27.831  27.277  1.00  0.00     0.274 C 
ENDROOT
BRANCH   1   2
ATOM      2  O   UNL A   1      30.742  27.090  27.226  1.00  0.00    -0.462 OA
BRANCH   2   3
ATOM      3  C   UNL A   1      30.803  25.966  26.478  1.00  0.00     0.310 C 
ATOM      4  O   UNL A   1      31.032  24.851  26.932  1.00  0.00    -0.252 OA
BRANCH   3   5
ATOM      5  C   UNL A   1      30.522  26.159  25.009  1.00  0.00     0.116 C 
ATOM      6  C   UNL A   1      32.678  28.835  22.152  1.00  0.00     0.039 C 
ATOM      7  C   UNL A   1      31.886  28.007  23.134  1.00  0.00    -0.074 C 
ATOM      8  C   UNL A   1      30.833  28.466  23.834  1.00  0.00    -0.073 C 
ATOM      9  C   UNL A   1      32.400  26.589  23.273  1.00  0.00     0.045 C 
ATOM     10  C   UNL A   1      30.296  29.880  23.824  1.00  0.00     0.039 C 
ATOM     11  C   UNL A   1      30.052  27.586  24.758  1.00  0.00     0.046 C 
ATOM     12  C   UNL A   1      31.593  25.567  24.104  1.00  0.00     0.097 C 
BRANCH  12  13
ATOM     13  C   UNL A   1      30.943  24.558  23.151  1.00  0.00     0.229 C 
ATOM     14  O   UNL A   1      29.835  24.770  22.651  1.00  0.00    -0.274 OA
ATOM     15  N   UNL A   1      31.609  23.425  22.765  1.00  0.00    -0.317 N 
ATOM     16  H   UNL A   1      31.236  22.958  21.983  1.00  0.00     0.170 HD
BRANCH  15  17
ATOM     17  C   UNL A   1      32.725  22.854  23.323  1.00  0.00     0.108 A 
ATOM     18  S   UNL A   1      34.123  23.328  22.450  1.00  0.00    -0.122 S 
ATOM     19  C   UNL A   1      33.013  21.935  24.327  1.00  0.00     0.078 A 
ATOM     20  C   UNL A   1      35.123  22.767  23.682  1.00  0.00     0.011 A 
ATOM     21  C   UNL A   1      34.423  22.127  24.681  1.00  0.00    -0.019 A 
ATOM     22  C   UNL A   1      36.611  22.902  23.693  1.00  0.00     0.047 C 
ATOM     23  C   UNL A   1      35.195  21.679  25.892  1.00  0.00     0.037 C 
ATOM     24  C   UNL A   1      37.222  21.606  24.251  1.00  0.00     0.006 C 
ATOM     25  C   UNL A   1      36.552  21.061  25.530  1.00  0.00     0.005 C 
BRANCH  19  26
ATOM     26  C   UNL A   1      32.189  20.910  24.999  1.00  0.00     0.254 C 
ATOM     27  O   UNL A   1      31.273  21.247  25.756  1.00  0.00    -0.269 OA
ATOM     28  N   UNL A   1      32.371  19.556  24.952  1.00  0.00    -0.349 N 
ATOM     29  H   UNL A   1      31.600  19.068  25.321  1.00  0.00     0.164 HD
BRANCH  28  30
ATOM     30  C   UNL A   1      33.408  18.666  24.498  1.00  0.00     0.082 C 
ATOM     31  C   UNL A   1      33.568  17.431  25.373  1.00  0.00     0.025 C 
ATOM     32  C   UNL A   1      33.091  18.048  23.136  1.00  0.00     0.025 C 
ATOM     33  C   UNL A   1      34.401  16.503  24.495  1.00  0.00     0.002 C 
ATOM     34  C   UNL A   1      34.028  16.848  23.050  1.00  0.00     0.002 C 
ENDBRANCH  28  30
ENDBRANCH  19  26
ENDBRANCH  15  17
ENDBRANCH  12  13
ENDBRANCH   3   5
ENDBRANCH   2   3
ENDBRANCH   1   2
BRANCH   1  35
ATOM     35  C   UNL A   1      31.795  29.356  27.256  1.00  0.00     0.275 C 
BRANCH  35  36
ATOM     36  O   UNL A   1      32.834  30.033  26.518  1.00  0.00    -0.458 OA
BRANCH  36  37
ATOM     37  C   UNL A   1      33.334  31.139  27.109  1.00  0.00     0.338 C 
ATOM     38  O   UNL A   1      32.745  32.193  27.319  1.00  0.00    -0.246 OA
BRANCH  37  39
ATOM     39  C   UNL A   1      34.710  30.912  27.586  1.00  0.00     0.060 A 
ATOM     40  C   UNL A   1      35.146  29.597  27.775  1.00  0.00     0.016 A 
ATOM     41  C   UNL A   1      35.504  31.979  28.001  1.00  0.00     0.016 A 
ATOM     42  C   UNL A   1      36.344  29.328  28.422  1.00  0.00     0.010 A 
ATOM     43  C   UNL A   1      36.718  31.712  28.645  1.00  0.00     0.010 A 
ATOM     44  C   UNL A   1      37.124  30.387  28.888  1.00  0.00    -0.014 A 
BRANCH  44  45
ATOM     45  C   UNL A   1      38.302  30.098  29.733  1.00  0.00     0.031 A 
ATOM     46  C   UNL A   1      39.374  29.194  29.205  1.00  0.00     0.074 A 
ATOM     47  C   UNL A   1      38.427  30.668  30.943  1.00  0.00     0.049 A 
ATOM     48  N   UNL A   1      40.413  28.692  29.819  1.00  0.00    -0.248 NA
ATOM     49  C   UNL A   1      39.261  28.801  27.790  1.00  0.00     0.031 C 
ATOM     50  C   UNL A   1      37.490  31.627  31.527  1.00  0.00     0.029 A 
ATOM     51  N   UNL A   1      39.392  30.510  31.904  1.00  0.00    -0.354 N 
ATOM     52  C   UNL A   1      41.055  27.894  28.882  1.00  0.00     0.074 A 
ATOM     53  C   UNL A   1      40.293  27.981  27.655  1.00  0.00     0.031 C 
ATOM     54  C   UNL A   1      37.914  31.954  32.759  1.00  0.00     0.029 A 
ATOM     55  C   UNL A   1      39.121  31.189  33.064  1.00  0.00     0.049 A 
ATOM     56  H   UNL A   1      40.200  29.962  31.773  1.00  0.00     0.167 HD
ATOM     57  C   UNL A   1      42.174  27.150  29.039  1.00  0.00     0.037 A 
ATOM     58  C   UNL A   1      39.750  31.158  34.254  1.00  0.00     0.037 A 
ATOM     59  C   UNL A   1      42.940  27.091  30.255  1.00  0.00     0.049 A 
ATOM     60  C   UNL A   1      40.958  30.281  34.424  1.00  0.00     0.074 A 
ATOM     61  C   UNL A   1      44.099  26.380  30.513  1.00  0.00     0.029 A 
ATOM     62  N   UNL A   1      42.619  27.774  31.418  1.00  0.00    -0.354 N 
ATOM     63  N   UNL A   1      41.543  29.502  33.545  1.00  0.00    -0.248 NA
ATOM     64  C   UNL A   1      41.585  30.266  35.752  1.00  0.00     0.031 C 
ATOM     65  C   UNL A   1      44.460  26.607  31.846  1.00  0.00     0.029 A 
ATOM     66  C   UNL A   1      43.547  27.486  32.405  1.00  0.00     0.049 A 
ATOM     67  H   UNL A   1      41.848  28.376  31.526  1.00  0.00     0.167 HD
ATOM     68  C   UNL A   1      42.610  28.913  34.208  1.00  0.00     0.074 A 
ATOM     69  C   UNL A   1      42.601  29.436  35.561  1.00  0.00     0.031 C 
ATOM     70  C   UNL A   1      43.515  28.018  33.744  1.00  0.00     0.037 A 
BRANCH  57  71
ATOM     71  C   UNL A   1      42.603  26.306  27.878  1.00  0.00     0.057 A 
ATOM     72  C   UNL A   1      43.497  26.772  26.908  1.00  0.00     0.134 A 
ATOM     73  C   UNL A   1      42.114  25.001  27.736  1.00  0.00     0.134 A 
ATOM     74  F   UNL A   1      43.987  28.020  26.978  1.00  0.00    -0.206 F 
ATOM     75  C   UNL A   1      43.875  25.978  25.823  1.00  0.00     0.040 A 
ATOM     76  C   UNL A   1      42.499  24.191  26.668  1.00  0.00     0.040 A 
ATOM     77  F   UNL A   1      41.252  24.496  28.632  1.00  0.00    -0.206 F 
ATOM     78  C   UNL A   1      43.377  24.680  25.704  1.00  0.00     0.006 A 
ENDBRANCH  57  71
BRANCH  58  79
ATOM     79  C   UNL A   1      39.209  31.942  35.389  1.00  0.00     0.057 A 
ATOM     80  C   UNL A   1      39.564  33.281  35.583  1.00  0.00     0.134 A 
ATOM     81  C   UNL A   1      38.314  31.370  36.302  1.00  0.00     0.134 A 
ATOM     82  F   UNL A   1      40.435  33.875  34.754  1.00  0.00    -0.206 F 
ATOM     83  C   UNL A   1      39.053  34.024  36.649  1.00  0.00     0.040 A 
ATOM     84  C   UNL A   1      37.778  32.106  37.359  1.00  0.00     0.040 A 
ATOM     85  F   UNL A   1      37.936  30.090  36.168  1.00  0.00    -0.206 F 
ATOM     86  C   UNL A   1      38.150  33.437  37.537  1.00  0.00     0.006 A 
ENDBRANCH  58  79
BRANCH  70  87
ATOM     87  C   UNL A   1      44.578  27.565  34.697  1.00  0.00     0.057 A 
ATOM     88  C   UNL A   1      45.765  28.286  34.868  1.00  0.00     0.134 A 
ATOM     89  C   UNL A   1      44.392  26.422  35.483  1.00  0.00     0.134 A 
ATOM     90  F   UNL A   1      46.006  29.383  34.134  1.00  0.00    -0.206 F 
ATOM     91  C   UNL A   1      46.740  27.878  35.781  1.00  0.00     0.040 A 
ATOM     92  C   UNL A   1      45.349  26.014  36.413  1.00  0.00     0.040 A 
ATOM     93  F   UNL A   1      43.272  25.692  35.371  1.00  0.00    -0.206 F 
ATOM     94  C   UNL A   1      46.529  26.742  36.561  1.00  0.00     0.006 A 
ENDBRANCH  70  87
ENDBRANCH  44  45
ENDBRANCH  37  39
ENDBRANCH  36  37
ENDBRANCH  35  36
ENDBRANCH   1  35
TORSDOF 15
ENDMDL
