MODEL 1
REMARK VINA RESULT:     -10.9      0.000      0.000
REMARK SMILES CCN1C(=O)N(CC)[C@H]2NC(=O)N(CCCC(=O)OCCOC(=O)c3ccc(-c4c5nc(c(-c6c(F)cccc6F)c6ccc([nH]6)c(-c6c(F)cccc6F)c6nc(c(-c7c(F)cccc7F)c7ccc4[nH]7)C=C6)C=C5)cc3)[C@@H]21
REMARK SMILES IDX 20 1 19 2 17 3 18 4 16 5 15 6 14 7 13 8 3 9 4 10 79 11 5 12
REMARK SMILES IDX 6 13 9 14 10 15 11 16 12 18 2 19 1 20 7 21 8 22 21 23 22 24
REMARK SMILES IDX 23 25 24 26 25 27 26 28 78 29 27 30 77 31 28 32 29 33 30 34
REMARK SMILES IDX 71 35 31 36 76 37 70 38 72 39 32 40 75 41 69 42 68 43 33 45
REMARK SMILES IDX 59 46 42 47 58 48 43 49 46 50 57 51 73 52 44 53 45 54 56 56
REMARK SMILES IDX 74 57 47 58 34 59 35 60 40 61 36 62 37 63 39 64 41 65 38 66
REMARK SMILES IDX 60 67 61 68 66 69 62 70 63 71 65 72 67 73 64 74 48 75 49 76
REMARK SMILES IDX 54 77 50 78 51 79 53 80 55 81 52 82
REMARK H PARENT 10 17 72 44 46 55
REMARK Flexibility Score: inf
ROOT
ATOM      1  C   UNL A   1      31.593  29.364  24.522  1.00  0.00     0.274 C 
ENDROOT
BRANCH   1   2
ATOM      2  O   UNL A   1      30.244  28.974  24.212  1.00  0.00    -0.462 OA
BRANCH   2   3
ATOM      3  C   UNL A   1      30.090  28.169  23.137  1.00  0.00     0.305 C 
ATOM      4  O   UNL A   1      29.881  28.586  22.003  1.00  0.00    -0.252 OA
BRANCH   3   5
ATOM      5  C   UNL A   1      30.187  26.689  23.439  1.00  0.00     0.124 C 
BRANCH   5   6
ATOM      6  C   UNL A   1      29.492  26.203  24.687  1.00  0.00     0.033 C 
BRANCH   6   7
ATOM      7  C   UNL A   1      30.434  25.816  25.819  1.00  0.00     0.124 C 
BRANCH   7   8
ATOM      8  N   UNL A   1      31.080  24.527  25.707  1.00  0.00    -0.300 N 
ATOM      9  N   UNL A   1      33.090  24.292  23.906  1.00  0.00    -0.300 N 
ATOM     10  C   UNL A   1      33.790  23.059  23.677  1.00  0.00     0.323 C 
ATOM     11  C   UNL A   1      32.359  24.122  25.148  1.00  0.00     0.231 C 
ATOM     12  O   UNL A   1      34.727  22.895  22.913  1.00  0.00    -0.248 OA
ATOM     13  N   UNL A   1      33.210  22.083  24.499  1.00  0.00    -0.300 N 
ATOM     14  C   UNL A   1      32.004  22.638  24.962  1.00  0.00     0.228 C 
ATOM     15  N   UNL A   1      31.352  22.305  26.159  1.00  0.00    -0.314 N 
ATOM     16  C   UNL A   1      30.612  23.440  26.501  1.00  0.00     0.320 C 
ATOM     17  H   UNL A   1      31.404  21.455  26.653  1.00  0.00     0.167 HD
ATOM     18  O   UNL A   1      29.697  23.449  27.311  1.00  0.00    -0.249 OA
BRANCH   9  19
ATOM     19  C   UNL A   1      33.706  25.473  23.340  1.00  0.00     0.120 C 
ATOM     20  C   UNL A   1      33.851  26.634  24.323  1.00  0.00     0.027 C 
ENDBRANCH   9  19
BRANCH  13  21
ATOM     21  C   UNL A   1      33.520  20.677  24.453  1.00  0.00     0.120 C 
ATOM     22  C   UNL A   1      34.853  20.343  25.098  1.00  0.00     0.027 C 
ENDBRANCH  13  21
ENDBRANCH   7   8
ENDBRANCH   6   7
ENDBRANCH   5   6
ENDBRANCH   3   5
ENDBRANCH   2   3
ENDBRANCH   1   2
BRANCH   1  23
ATOM     23  C   UNL A   1      31.605  30.395  25.650  1.00  0.00     0.275 C 
BRANCH  23  24
ATOM     24  O   UNL A   1      32.783  30.281  26.472  1.00  0.00    -0.458 OA
BRANCH  24  25
ATOM     25  C   UNL A   1      33.206  31.430  27.056  1.00  0.00     0.338 C 
ATOM     26  O   UNL A   1      32.589  32.475  27.172  1.00  0.00    -0.246 OA
BRANCH  25  27
ATOM     27  C   UNL A   1      34.505  31.199  27.703  1.00  0.00     0.060 A 
ATOM     28  C   UNL A   1      34.807  29.927  28.201  1.00  0.00     0.016 A 
ATOM     29  C   UNL A   1      35.398  32.249  27.882  1.00  0.00     0.016 A 
ATOM     30  C   UNL A   1      35.995  29.675  28.856  1.00  0.00     0.010 A 
ATOM     31  C   UNL A   1      36.600  32.003  28.543  1.00  0.00     0.010 A 
ATOM     32  C   UNL A   1      36.900  30.715  29.023  1.00  0.00    -0.014 A 
BRANCH  32  33
ATOM     33  C   UNL A   1      38.147  30.451  29.754  1.00  0.00     0.031 A 
ATOM     34  C   UNL A   1      39.169  29.563  29.129  1.00  0.00     0.074 A 
ATOM     35  C   UNL A   1      38.343  31.027  30.951  1.00  0.00     0.049 A 
ATOM     36  N   UNL A   1      40.229  29.025  29.667  1.00  0.00    -0.248 NA
ATOM     37  C   UNL A   1      38.970  29.234  27.708  1.00  0.00     0.031 C 
ATOM     38  C   UNL A   1      37.448  32.000  31.582  1.00  0.00     0.029 A 
ATOM     39  N   UNL A   1      39.353  30.861  31.858  1.00  0.00    -0.354 N 
ATOM     40  C   UNL A   1      40.802  28.259  28.664  1.00  0.00     0.074 A 
ATOM     41  C   UNL A   1      39.975  28.400  27.486  1.00  0.00     0.031 C 
ATOM     42  C   UNL A   1      37.936  32.322  32.790  1.00  0.00     0.029 A 
ATOM     43  C   UNL A   1      39.130  31.523  33.040  1.00  0.00     0.049 A 
ATOM     44  H   UNL A   1      40.159  30.323  31.682  1.00  0.00     0.167 HD
ATOM     45  C   UNL A   1      41.919  27.500  28.741  1.00  0.00     0.037 A 
ATOM     46  C   UNL A   1      39.782  31.432  34.212  1.00  0.00     0.037 A 
ATOM     47  C   UNL A   1      42.719  27.390  29.931  1.00  0.00     0.049 A 
ATOM     48  C   UNL A   1      40.949  30.490  34.307  1.00  0.00     0.074 A 
ATOM     49  C   UNL A   1      43.871  26.654  30.131  1.00  0.00     0.029 A 
ATOM     50  N   UNL A   1      42.439  28.035  31.129  1.00  0.00    -0.354 N 
ATOM     51  N   UNL A   1      41.481  29.736  33.372  1.00  0.00    -0.248 NA
ATOM     52  C   UNL A   1      41.596  30.368  35.618  1.00  0.00     0.031 C 
ATOM     53  C   UNL A   1      44.254  26.807  31.467  1.00  0.00     0.029 A 
ATOM     54  C   UNL A   1      43.376  27.685  32.085  1.00  0.00     0.049 A 
ATOM     55  H   UNL A   1      41.685  28.652  31.275  1.00  0.00     0.167 HD
ATOM     56  C   UNL A   1      42.535  29.066  33.978  1.00  0.00     0.074 A 
ATOM     57  C   UNL A   1      42.578  29.519  35.354  1.00  0.00     0.031 C 
ATOM     58  C   UNL A   1      43.388  28.154  33.448  1.00  0.00     0.037 A 
BRANCH  45  59
ATOM     59  C   UNL A   1      42.292  26.695  27.533  1.00  0.00     0.057 A 
ATOM     60  C   UNL A   1      43.083  27.215  26.501  1.00  0.00     0.134 A 
ATOM     61  C   UNL A   1      41.857  25.369  27.409  1.00  0.00     0.134 A 
ATOM     62  F   UNL A   1      43.513  28.485  26.547  1.00  0.00    -0.206 F 
ATOM     63  C   UNL A   1      43.412  26.451  25.379  1.00  0.00     0.040 A 
ATOM     64  C   UNL A   1      42.202  24.587  26.306  1.00  0.00     0.040 A 
ATOM     65  F   UNL A   1      41.092  24.810  28.358  1.00  0.00    -0.206 F 
ATOM     66  C   UNL A   1      42.976  25.130  25.283  1.00  0.00     0.006 A 
ENDBRANCH  45  59
BRANCH  46  67
ATOM     67  C   UNL A   1      39.308  32.197  35.392  1.00  0.00     0.057 A 
ATOM     68  C   UNL A   1      38.417  31.630  36.309  1.00  0.00     0.134 A 
ATOM     69  C   UNL A   1      39.727  33.512  35.630  1.00  0.00     0.134 A 
ATOM     70  F   UNL A   1      37.964  30.380  36.125  1.00  0.00    -0.206 F 
ATOM     71  C   UNL A   1      37.946  32.346  37.410  1.00  0.00     0.040 A 
ATOM     72  C   UNL A   1      39.288  34.231  36.744  1.00  0.00     0.040 A 
ATOM     73  F   UNL A   1      40.583  34.115  34.792  1.00  0.00    -0.206 F 
ATOM     74  C   UNL A   1      38.387  33.650  37.633  1.00  0.00     0.006 A 
ENDBRANCH  46  67
BRANCH  58  75
ATOM     75  C   UNL A   1      44.447  27.607  34.358  1.00  0.00     0.057 A 
ATOM     76  C   UNL A   1      44.263  26.417  35.072  1.00  0.00     0.134 A 
ATOM     77  C   UNL A   1      45.683  28.255  34.483  1.00  0.00     0.134 A 
ATOM     78  F   UNL A   1      43.095  25.759  35.008  1.00  0.00    -0.206 F 
ATOM     79  C   UNL A   1      45.265  25.899  35.892  1.00  0.00     0.040 A 
ATOM     80  C   UNL A   1      46.704  27.730  35.274  1.00  0.00     0.040 A 
ATOM     81  F   UNL A   1      45.927  29.394  33.818  1.00  0.00    -0.206 F 
ATOM     82  C   UNL A   1      46.493  26.551  35.987  1.00  0.00     0.006 A 
ENDBRANCH  58  75
ENDBRANCH  32  33
ENDBRANCH  25  27
ENDBRANCH  24  25
ENDBRANCH  23  24
ENDBRANCH   1  23
TORSDOF 16
ENDMDL
MODEL 2
REMARK VINA RESULT:     -10.8      3.784      8.879
REMARK SMILES CCN1C(=O)N(CC)[C@H]2NC(=O)N(CCCC(=O)OCCOC(=O)c3ccc(-c4c5nc(c(-c6c(F)cccc6F)c6ccc([nH]6)c(-c6c(F)cccc6F)c6nc(c(-c7c(F)cccc7F)c7ccc4[nH]7)C=C6)C=C5)cc3)[C@@H]21
REMARK SMILES IDX 20 1 19 2 17 3 18 4 16 5 15 6 14 7 13 8 3 9 4 10 79 11 5 12
REMARK SMILES IDX 6 13 9 14 10 15 11 16 12 18 2 19 1 20 7 21 8 22 21 23 22 24
REMARK SMILES IDX 23 25 24 26 25 27 26 28 78 29 27 30 77 31 28 32 29 33 30 34
REMARK SMILES IDX 71 35 31 36 76 37 70 38 72 39 32 40 75 41 69 42 68 43 33 45
REMARK SMILES IDX 59 46 42 47 58 48 43 49 46 50 57 51 73 52 44 53 45 54 56 56
REMARK SMILES IDX 74 57 47 58 34 59 35 60 40 61 36 62 37 63 39 64 41 65 38 66
REMARK SMILES IDX 60 67 61 68 66 69 62 70 63 71 65 72 67 73 64 74 48 75 49 76
REMARK SMILES IDX 54 77 50 78 51 79 53 80 55 81 52 82
REMARK H PARENT 10 17 72 44 46 55
REMARK Flexibility Score: inf
ROOT
ATOM      1  C   UNL A   1      35.099  21.296  24.626  1.00  0.00     0.274 C 
ENDROOT
BRANCH   1   2
ATOM      2  O   UNL A   1      34.000  20.781  25.396  1.00  0.00    -0.462 OA
BRANCH   2   3
ATOM      3  C   UNL A   1      32.822  20.658  24.745  1.00  0.00     0.305 C 
ATOM      4  O   UNL A   1      31.782  20.297  25.287  1.00  0.00    -0.252 OA
BRANCH   3   5
ATOM      5  C   UNL A   1      32.879  20.998  23.271  1.00  0.00     0.124 C 
BRANCH   5   6
ATOM      6  C   UNL A   1      32.088  22.201  22.819  1.00  0.00     0.033 C 
BRANCH   6   7
ATOM      7  C   UNL A   1      32.922  23.284  22.150  1.00  0.00     0.124 C 
BRANCH   7   8
ATOM      8  N   UNL A   1      32.574  24.652  22.466  1.00  0.00    -0.300 N 
ATOM      9  N   UNL A   1      31.571  25.145  24.934  1.00  0.00    -0.300 N 
ATOM     10  C   UNL A   1      31.157  26.454  25.359  1.00  0.00     0.323 C 
ATOM     11  C   UNL A   1      32.358  25.337  23.729  1.00  0.00     0.231 C 
ATOM     12  O   UNL A   1      30.737  26.751  26.464  1.00  0.00    -0.248 OA
ATOM     13  N   UNL A   1      31.337  27.328  24.278  1.00  0.00    -0.300 N 
ATOM     14  C   UNL A   1      31.547  26.509  23.153  1.00  0.00     0.228 C 
ATOM     15  N   UNL A   1      32.262  26.866  21.999  1.00  0.00    -0.314 N 
ATOM     16  C   UNL A   1      32.726  25.659  21.470  1.00  0.00     0.320 C 
ATOM     17  H   UNL A   1      32.406  27.771  21.640  1.00  0.00     0.167 HD
ATOM     18  O   UNL A   1      33.138  25.520  20.328  1.00  0.00    -0.249 OA
BRANCH   9  19
ATOM     19  C   UNL A   1      31.700  24.160  25.986  1.00  0.00     0.120 C 
ATOM     20  C   UNL A   1      33.131  23.964  26.485  1.00  0.00     0.027 C 
ENDBRANCH   9  19
BRANCH  13  21
ATOM     21  C   UNL A   1      30.894  28.697  24.243  1.00  0.00     0.120 C 
ATOM     22  C   UNL A   1      29.702  28.912  23.328  1.00  0.00     0.027 C 
ENDBRANCH  13  21
ENDBRANCH   7   8
ENDBRANCH   6   7
ENDBRANCH   5   6
ENDBRANCH   3   5
ENDBRANCH   2   3
ENDBRANCH   1   2
BRANCH   1  23
ATOM     23  C   UNL A   1      36.422  20.726  25.134  1.00  0.00     0.275 C 
BRANCH  23  24
ATOM     24  O   UNL A   1      37.256  21.742  25.725  1.00  0.00    -0.458 OA
BRANCH  24  25
ATOM     25  C   UNL A   1      38.544  21.385  25.955  1.00  0.00     0.338 C 
ATOM     26  O   UNL A   1      39.087  20.333  25.663  1.00  0.00    -0.246 OA
BRANCH  25  27
ATOM     27  C   UNL A   1      39.284  22.539  26.486  1.00  0.00     0.060 A 
ATOM     28  C   UNL A   1      38.913  23.829  26.094  1.00  0.00     0.016 A 
ATOM     29  C   UNL A   1      40.384  22.348  27.313  1.00  0.00     0.016 A 
ATOM     30  C   UNL A   1      39.607  24.940  26.530  1.00  0.00     0.010 A 
ATOM     31  C   UNL A   1      41.090  23.465  27.758  1.00  0.00     0.010 A 
ATOM     32  C   UNL A   1      40.696  24.760  27.371  1.00  0.00    -0.014 A 
BRANCH  32  33
ATOM     33  C   UNL A   1      41.454  25.942  27.803  1.00  0.00     0.031 A 
ATOM     34  C   UNL A   1      40.762  26.975  28.626  1.00  0.00     0.074 A 
ATOM     35  C   UNL A   1      42.749  26.053  27.465  1.00  0.00     0.049 A 
ATOM     36  N   UNL A   1      41.157  28.179  28.935  1.00  0.00    -0.248 NA
ATOM     37  C   UNL A   1      39.446  26.603  29.172  1.00  0.00     0.031 C 
ATOM     38  C   UNL A   1      43.534  25.036  26.763  1.00  0.00     0.029 A 
ATOM     39  N   UNL A   1      43.626  27.086  27.652  1.00  0.00    -0.354 N 
ATOM     40  C   UNL A   1      40.122  28.728  29.676  1.00  0.00     0.074 A 
ATOM     41  C   UNL A   1      39.082  27.728  29.772  1.00  0.00     0.031 C 
ATOM     42  C   UNL A   1      44.772  25.509  26.552  1.00  0.00     0.029 A 
ATOM     43  C   UNL A   1      44.837  26.882  27.036  1.00  0.00     0.049 A 
ATOM     44  H   UNL A   1      43.413  27.892  28.175  1.00  0.00     0.167 HD
ATOM     45  C   UNL A   1      40.059  29.967  30.215  1.00  0.00     0.037 A 
ATOM     46  C   UNL A   1      45.851  27.740  26.829  1.00  0.00     0.037 A 
ATOM     47  C   UNL A   1      41.119  30.933  30.102  1.00  0.00     0.049 A 
ATOM     48  C   UNL A   1      45.706  29.149  27.334  1.00  0.00     0.074 A 
ATOM     49  C   UNL A   1      41.171  32.218  30.605  1.00  0.00     0.029 A 
ATOM     50  N   UNL A   1      42.314  30.713  29.429  1.00  0.00    -0.354 N 
ATOM     51  N   UNL A   1      44.717  29.688  28.010  1.00  0.00    -0.248 NA
ATOM     52  C   UNL A   1      46.804  30.075  27.033  1.00  0.00     0.031 C 
ATOM     53  C   UNL A   1      42.373  32.797  30.185  1.00  0.00     0.029 A 
ATOM     54  C   UNL A   1      43.096  31.854  29.471  1.00  0.00     0.049 A 
ATOM     55  H   UNL A   1      42.567  29.870  28.988  1.00  0.00     0.167 HD
ATOM     56  C   UNL A   1      45.082  31.008  28.230  1.00  0.00     0.074 A 
ATOM     57  C   UNL A   1      46.391  31.182  27.634  1.00  0.00     0.031 C 
ATOM     58  C   UNL A   1      44.397  31.992  28.864  1.00  0.00     0.037 A 
BRANCH  45  59
ATOM     59  C   UNL A   1      38.788  30.354  30.909  1.00  0.00     0.057 A 
ATOM     60  C   UNL A   1      38.581  30.124  32.274  1.00  0.00     0.134 A 
ATOM     61  C   UNL A   1      37.758  30.979  30.195  1.00  0.00     0.134 A 
ATOM     62  F   UNL A   1      39.518  29.509  33.012  1.00  0.00    -0.206 F 
ATOM     63  C   UNL A   1      37.386  30.484  32.901  1.00  0.00     0.040 A 
ATOM     64  C   UNL A   1      36.570  31.368  30.815  1.00  0.00     0.040 A 
ATOM     65  F   UNL A   1      37.888  31.224  28.882  1.00  0.00    -0.206 F 
ATOM     66  C   UNL A   1      36.379  31.115  32.171  1.00  0.00     0.006 A 
ENDBRANCH  45  59
BRANCH  46  67
ATOM     67  C   UNL A   1      47.046  27.313  26.061  1.00  0.00     0.057 A 
ATOM     68  C   UNL A   1      48.163  26.772  26.706  1.00  0.00     0.134 A 
ATOM     69  C   UNL A   1      47.105  27.438  24.667  1.00  0.00     0.134 A 
ATOM     70  F   UNL A   1      48.175  26.644  28.041  1.00  0.00    -0.206 F 
ATOM     71  C   UNL A   1      49.301  26.387  25.996  1.00  0.00     0.040 A 
ATOM     72  C   UNL A   1      48.225  27.030  23.941  1.00  0.00     0.040 A 
ATOM     73  F   UNL A   1      46.067  27.946  23.986  1.00  0.00    -0.206 F 
ATOM     74  C   UNL A   1      49.331  26.510  24.608  1.00  0.00     0.006 A 
ENDBRANCH  46  67
BRANCH  58  75
ATOM     75  C   UNL A   1      45.064  33.332  28.958  1.00  0.00     0.057 A 
ATOM     76  C   UNL A   1      44.833  34.338  28.012  1.00  0.00     0.134 A 
ATOM     77  C   UNL A   1      45.910  33.633  30.033  1.00  0.00     0.134 A 
ATOM     78  F   UNL A   1      44.046  34.106  26.951  1.00  0.00    -0.206 F 
ATOM     79  C   UNL A   1      45.433  35.592  28.123  1.00  0.00     0.040 A 
ATOM     80  C   UNL A   1      46.490  34.893  30.173  1.00  0.00     0.040 A 
ATOM     81  F   UNL A   1      46.165  32.716  30.978  1.00  0.00    -0.206 F 
ATOM     82  C   UNL A   1      46.257  35.875  29.212  1.00  0.00     0.006 A 
ENDBRANCH  58  75
ENDBRANCH  32  33
ENDBRANCH  25  27
ENDBRANCH  24  25
ENDBRANCH  23  24
ENDBRANCH   1  23
TORSDOF 16
ENDMDL
MODEL 3
REMARK VINA RESULT:     -10.6      4.644      8.848
REMARK SMILES CCN1C(=O)N(CC)[C@H]2NC(=O)N(CCCC(=O)OCCOC(=O)c3ccc(-c4c5nc(c(-c6c(F)cccc6F)c6ccc([nH]6)c(-c6c(F)cccc6F)c6nc(c(-c7c(F)cccc7F)c7ccc4[nH]7)C=C6)C=C5)cc3)[C@@H]21
REMARK SMILES IDX 20 1 19 2 17 3 18 4 16 5 15 6 14 7 13 8 3 9 4 10 79 11 5 12
REMARK SMILES IDX 6 13 9 14 10 15 11 16 12 18 2 19 1 20 7 21 8 22 21 23 22 24
REMARK SMILES IDX 23 25 24 26 25 27 26 28 78 29 27 30 77 31 28 32 29 33 30 34
REMARK SMILES IDX 71 35 31 36 76 37 70 38 72 39 32 40 75 41 69 42 68 43 33 45
REMARK SMILES IDX 59 46 42 47 58 48 43 49 46 50 57 51 73 52 44 53 45 54 56 56
REMARK SMILES IDX 74 57 47 58 34 59 35 60 40 61 36 62 37 63 39 64 41 65 38 66
REMARK SMILES IDX 60 67 61 68 66 69 62 70 63 71 65 72 67 73 64 74 48 75 49 76
REMARK SMILES IDX 54 77 50 78 51 79 53 80 55 81 52 82
REMARK H PARENT 10 17 72 44 46 55
REMARK Flexibility Score: inf
ROOT
ATOM      1  C   UNL A   1      37.353  20.719  25.014  1.00  0.00     0.274 C 
ENDROOT
BRANCH   1   2
ATOM      2  O   UNL A   1      37.846  22.065  24.906  1.00  0.00    -0.462 OA
BRANCH   2   3
ATOM      3  C   UNL A   1      36.942  23.003  24.545  1.00  0.00     0.305 C 
ATOM      4  O   UNL A   1      36.744  23.340  23.382  1.00  0.00    -0.252 OA
BRANCH   3   5
ATOM      5  C   UNL A   1      36.184  23.625  25.697  1.00  0.00     0.124 C 
BRANCH   5   6
ATOM      6  C   UNL A   1      34.899  24.340  25.360  1.00  0.00     0.033 C 
BRANCH   6   7
ATOM      7  C   UNL A   1      33.651  23.698  25.949  1.00  0.00     0.124 C 
BRANCH   7   8
ATOM      8  N   UNL A   1      33.519  22.268  25.776  1.00  0.00    -0.300 N 
ATOM      9  N   UNL A   1      32.551  21.384  23.405  1.00  0.00    -0.300 N 
ATOM     10  C   UNL A   1      32.343  19.991  23.120  1.00  0.00     0.323 C 
ATOM     11  C   UNL A   1      33.386  21.438  24.591  1.00  0.00     0.231 C 
ATOM     12  O   UNL A   1      31.950  19.525  22.064  1.00  0.00    -0.248 OA
ATOM     13  N   UNL A   1      32.685  19.267  24.270  1.00  0.00    -0.300 N 
ATOM     14  C   UNL A   1      32.787  20.214  25.304  1.00  0.00     0.228 C 
ATOM     15  N   UNL A   1      33.576  20.090  26.458  1.00  0.00    -0.314 N 
ATOM     16  C   UNL A   1      33.853  21.401  26.855  1.00  0.00     0.320 C 
ATOM     17  H   UNL A   1      33.871  19.258  26.894  1.00  0.00     0.167 HD
ATOM     18  O   UNL A   1      34.264  21.714  27.962  1.00  0.00    -0.249 OA
BRANCH   9  19
ATOM     19  C   UNL A   1      32.496  22.269  22.262  1.00  0.00     0.120 C 
ATOM     20  C   UNL A   1      33.544  23.382  22.283  1.00  0.00     0.027 C 
ENDBRANCH   9  19
BRANCH  13  21
ATOM     21  C   UNL A   1      32.468  17.855  24.449  1.00  0.00     0.120 C 
ATOM     22  C   UNL A   1      33.588  17.006  23.873  1.00  0.00     0.027 C 
ENDBRANCH  13  21
ENDBRANCH   7   8
ENDBRANCH   6   7
ENDBRANCH   5   6
ENDBRANCH   3   5
ENDBRANCH   2   3
ENDBRANCH   1   2
BRANCH   1  23
ATOM     23  C   UNL A   1      38.513  19.725  25.045  1.00  0.00     0.275 C 
BRANCH  23  24
ATOM     24  O   UNL A   1      39.266  19.813  26.271  1.00  0.00    -0.458 OA
BRANCH  24  25
ATOM     25  C   UNL A   1      40.613  19.736  26.140  1.00  0.00     0.338 C 
ATOM     26  O   UNL A   1      41.259  18.844  25.618  1.00  0.00    -0.246 OA
BRANCH  25  27
ATOM     27  C   UNL A   1      41.220  20.998  26.586  1.00  0.00     0.060 A 
ATOM     28  C   UNL A   1      41.366  21.243  27.955  1.00  0.00     0.016 A 
ATOM     29  C   UNL A   1      41.583  21.969  25.660  1.00  0.00     0.016 A 
ATOM     30  C   UNL A   1      41.889  22.432  28.422  1.00  0.00     0.010 A 
ATOM     31  C   UNL A   1      42.112  23.173  26.123  1.00  0.00     0.010 A 
ATOM     32  C   UNL A   1      42.271  23.400  27.503  1.00  0.00    -0.014 A 
BRANCH  32  33
ATOM     33  C   UNL A   1      42.792  24.678  28.005  1.00  0.00     0.031 A 
ATOM     34  C   UNL A   1      41.823  25.731  28.427  1.00  0.00     0.074 A 
ATOM     35  C   UNL A   1      44.119  24.861  28.089  1.00  0.00     0.049 A 
ATOM     36  N   UNL A   1      42.041  26.989  28.694  1.00  0.00    -0.248 NA
ATOM     37  C   UNL A   1      40.418  25.310  28.564  1.00  0.00     0.031 C 
ATOM     38  C   UNL A   1      45.136  23.844  27.808  1.00  0.00     0.029 A 
ATOM     39  N   UNL A   1      44.840  25.976  28.418  1.00  0.00    -0.354 N 
ATOM     40  C   UNL A   1      40.796  27.524  28.990  1.00  0.00     0.074 A 
ATOM     41  C   UNL A   1      39.828  26.456  28.870  1.00  0.00     0.031 C 
ATOM     42  C   UNL A   1      46.352  24.393  27.949  1.00  0.00     0.029 A 
ATOM     43  C   UNL A   1      46.193  25.810  28.254  1.00  0.00     0.049 A 
ATOM     44  H   UNL A   1      44.432  26.812  28.741  1.00  0.00     0.167 HD
ATOM     45  C   UNL A   1      40.505  28.802  29.321  1.00  0.00     0.037 A 
ATOM     46  C   UNL A   1      47.180  26.723  28.279  1.00  0.00     0.037 A 
ATOM     47  C   UNL A   1      41.499  29.835  29.435  1.00  0.00     0.049 A 
ATOM     48  C   UNL A   1      46.816  28.159  28.531  1.00  0.00     0.074 A 
ATOM     49  C   UNL A   1      41.327  31.165  29.765  1.00  0.00     0.029 A 
ATOM     50  N   UNL A   1      42.858  29.647  29.215  1.00  0.00    -0.354 N 
ATOM     51  N   UNL A   1      45.637  28.682  28.781  1.00  0.00    -0.248 NA
ATOM     52  C   UNL A   1      47.909  29.137  28.486  1.00  0.00     0.031 C 
ATOM     53  C   UNL A   1      42.573  31.795  29.685  1.00  0.00     0.029 A 
ATOM     54  C   UNL A   1      43.532  30.846  29.364  1.00  0.00     0.049 A 
ATOM     55  H   UNL A   1      43.279  28.786  28.987  1.00  0.00     0.167 HD
ATOM     56  C   UNL A   1      45.850  30.043  28.941  1.00  0.00     0.074 A 
ATOM     57  C   UNL A   1      47.274  30.262  28.780  1.00  0.00     0.031 C 
ATOM     58  C   UNL A   1      44.952  31.028  29.194  1.00  0.00     0.037 A 
BRANCH  45  59
ATOM     59  C   UNL A   1      39.061  29.153  29.517  1.00  0.00     0.057 A 
ATOM     60  C   UNL A   1      38.246  29.585  28.464  1.00  0.00     0.134 A 
ATOM     61  C   UNL A   1      38.476  29.044  30.785  1.00  0.00     0.134 A 
ATOM     62  F   UNL A   1      38.749  29.733  27.230  1.00  0.00    -0.206 F 
ATOM     63  C   UNL A   1      36.905  29.917  28.670  1.00  0.00     0.040 A 
ATOM     64  C   UNL A   1      37.130  29.346  30.998  1.00  0.00     0.040 A 
ATOM     65  F   UNL A   1      39.202  28.642  31.840  1.00  0.00    -0.206 F 
ATOM     66  C   UNL A   1      36.342  29.790  29.939  1.00  0.00     0.006 A 
ENDBRANCH  45  59
BRANCH  46  67
ATOM     67  C   UNL A   1      48.579  26.319  27.994  1.00  0.00     0.057 A 
ATOM     68  C   UNL A   1      49.450  25.955  29.026  1.00  0.00     0.134 A 
ATOM     69  C   UNL A   1      49.082  26.290  26.687  1.00  0.00     0.134 A 
ATOM     70  F   UNL A   1      49.032  25.982  30.301  1.00  0.00    -0.206 F 
ATOM     71  C   UNL A   1      50.774  25.595  28.773  1.00  0.00     0.040 A 
ATOM     72  C   UNL A   1      50.396  25.902  26.415  1.00  0.00     0.040 A 
ATOM     73  F   UNL A   1      48.300  26.623  25.650  1.00  0.00    -0.206 F 
ATOM     74  C   UNL A   1      51.248  25.561  27.463  1.00  0.00     0.006 A 
ENDBRANCH  46  67
BRANCH  58  75
ATOM     75  C   UNL A   1      45.492  32.420  29.330  1.00  0.00     0.057 A 
ATOM     76  C   UNL A   1      45.972  32.909  30.551  1.00  0.00     0.134 A 
ATOM     77  C   UNL A   1      45.575  33.264  28.215  1.00  0.00     0.134 A 
ATOM     78  F   UNL A   1      45.905  32.155  31.659  1.00  0.00    -0.206 F 
ATOM     79  C   UNL A   1      46.500  34.194  30.663  1.00  0.00     0.040 A 
ATOM     80  C   UNL A   1      46.130  34.540  28.307  1.00  0.00     0.040 A 
ATOM     81  F   UNL A   1      45.141  32.853  27.014  1.00  0.00    -0.206 F 
ATOM     82  C   UNL A   1      46.589  35.010  29.536  1.00  0.00     0.006 A 
ENDBRANCH  58  75
ENDBRANCH  32  33
ENDBRANCH  25  27
ENDBRANCH  24  25
ENDBRANCH  23  24
ENDBRANCH   1  23
TORSDOF 16
ENDMDL
