MODEL 1
REMARK VINA RESULT:     -13.6      0.000      0.000
REMARK SMILES NC(=O)c1ccc(NC(=O)Cc2ccccc2C(=O)OCCOC(=O)c2ccc(-c3c4nc(c(-c5c(F)cccc5F)c5ccc([nH]5)c(-c5c(F)cccc5F)c5nc(c(-c6c(F)cccc6F)c6ccc3[nH]6)C=C5)C=C4)cc2)cc1
REMARK SMILES IDX 21 1 20 2 18 3 19 4 17 5 12 6 13 7 14 8 16 9 15 10 11 11
REMARK SMILES IDX 9 12 8 13 10 15 7 16 4 17 5 18 81 19 6 20 80 21 2 22 1 23
REMARK SMILES IDX 3 26 22 27 23 28 24 29 25 30 26 31 27 32 79 33 28 34 78 35
REMARK SMILES IDX 29 36 30 37 31 38 72 39 32 40 77 41 71 42 73 43 33 44 76 45
REMARK SMILES IDX 70 46 69 47 34 49 60 50 43 51 59 52 44 53 47 54 58 55 74 56
REMARK SMILES IDX 45 57 46 58 57 60 75 61 48 62 35 63 36 64 41 65 37 66 38 67
REMARK SMILES IDX 40 68 42 69 39 70 61 71 62 72 67 73 63 74 64 75 66 76 68 77
REMARK SMILES IDX 65 78 49 79 50 80 55 81 51 82 52 83 54 84 56 85 53 86
REMARK H PARENT 8 14 1 24 1 25 73 48 47 59
REMARK Flexibility Score: inf
ROOT
ATOM      1  C   UNL A   1      36.748  21.941  24.243  1.00  0.00     0.275 C 
ENDROOT
BRANCH   1   2
ATOM      2  O   UNL A   1      35.235  21.490  24.378  1.00  0.00    -0.458 OA
BRANCH   2   3
ATOM      3  C   UNL A   1      34.439  20.763  25.265  1.00  0.00     0.338 C 
ATOM      4  O   UNL A   1      34.184  20.817  26.467  1.00  0.00    -0.246 OA
BRANCH   3   5
ATOM      5  C   UNL A   1      33.990  19.505  24.800  1.00  0.00     0.063 A 
ATOM      6  C   UNL A   1      32.810  19.566  24.087  1.00  0.00    -0.024 A 
ATOM      7  C   UNL A   1      32.421  18.368  23.478  1.00  0.00     0.005 A 
ATOM      8  C   UNL A   1      33.316  17.273  23.405  1.00  0.00     0.000 A 
ATOM      9  C   UNL A   1      34.946  18.489  24.634  1.00  0.00     0.016 A 
ATOM     10  C   UNL A   1      34.610  17.365  23.913  1.00  0.00     0.001 A 
BRANCH   6  11
ATOM     11  C   UNL A   1      32.068  20.899  24.022  1.00  0.00     0.136 C 
BRANCH  11  12
ATOM     12  C   UNL A   1      32.066  21.793  22.714  1.00  0.00     0.228 C 
ATOM     13  N   UNL A   1      32.026  23.136  22.403  1.00  0.00    -0.326 N 
ATOM     14  H   UNL A   1      31.964  23.150  21.420  1.00  0.00     0.169 HD
ATOM     15  O   UNL A   1      31.920  21.119  21.662  1.00  0.00    -0.274 OA
BRANCH  13  16
ATOM     16  C   UNL A   1      32.030  24.575  22.780  1.00  0.00     0.041 A 
ATOM     17  C   UNL A   1      31.515  27.772  24.491  1.00  0.00     0.039 A 
ATOM     18  C   UNL A   1      33.091  27.476  23.718  1.00  0.00     0.016 A 
ATOM     19  C   UNL A   1      30.230  26.515  24.489  1.00  0.00     0.016 A 
ATOM     20  C   UNL A   1      33.332  25.923  22.790  1.00  0.00     0.027 A 
ATOM     21  C   UNL A   1      30.472  24.926  23.659  1.00  0.00     0.027 A 
BRANCH  17  22
ATOM     22  C   UNL A   1      31.221  29.220  24.628  1.00  0.00     0.248 C 
ATOM     23  N   UNL A   1      30.650  29.871  23.580  1.00  0.00    -0.366 N 
ATOM     24  H   UNL A   1      30.446  30.831  23.648  1.00  0.00     0.159 HD
ATOM     25  H   UNL A   1      30.439  29.380  22.752  1.00  0.00     0.159 HD
ATOM     26  O   UNL A   1      31.567  29.842  25.624  1.00  0.00    -0.270 OA
ENDBRANCH  17  22
ENDBRANCH  13  16
ENDBRANCH  11  12
ENDBRANCH   6  11
ENDBRANCH   3   5
ENDBRANCH   2   3
ENDBRANCH   1   2
BRANCH   1  27
ATOM     27  C   UNL A   1      37.966  22.097  25.389  1.00  0.00     0.275 C 
BRANCH  27  28
ATOM     28  O   UNL A   1      38.947  20.727  25.894  1.00  0.00    -0.458 OA
BRANCH  28  29
ATOM     29  C   UNL A   1      40.704  20.069  25.992  1.00  0.00     0.338 C 
ATOM     30  O   UNL A   1      41.075  18.871  25.753  1.00  0.00    -0.246 OA
BRANCH  29  31
ATOM     31  C   UNL A   1      42.056  20.707  26.331  1.00  0.00     0.060 A 
ATOM     32  C   UNL A   1      42.239  20.832  27.727  1.00  0.00     0.016 A 
ATOM     33  C   UNL A   1      42.410  21.794  25.510  1.00  0.00     0.016 A 
ATOM     34  C   UNL A   1      42.509  22.082  28.284  1.00  0.00     0.010 A 
ATOM     35  C   UNL A   1      42.750  23.023  26.069  1.00  0.00     0.010 A 
ATOM     36  C   UNL A   1      42.735  23.191  27.458  1.00  0.00    -0.014 A 
BRANCH  36  37
ATOM     37  C   UNL A   1      43.088  24.514  28.013  1.00  0.00     0.031 A 
ATOM     38  C   UNL A   1      42.046  25.540  28.365  1.00  0.00     0.074 A 
ATOM     39  C   UNL A   1      44.397  24.811  28.033  1.00  0.00     0.049 A 
ATOM     40  N   UNL A   1      42.206  26.815  28.623  1.00  0.00    -0.248 NA
ATOM     41  C   UNL A   1      40.647  25.088  28.422  1.00  0.00     0.031 C 
ATOM     42  C   UNL A   1      45.470  23.876  27.681  1.00  0.00     0.029 A 
ATOM     43  N   UNL A   1      45.047  25.981  28.307  1.00  0.00    -0.354 N 
ATOM     44  C   UNL A   1      40.930  27.326  28.849  1.00  0.00     0.074 A 
ATOM     45  C   UNL A   1      40.006  26.221  28.690  1.00  0.00     0.031 C 
ATOM     46  C   UNL A   1      46.643  24.514  27.735  1.00  0.00     0.029 A 
ATOM     47  C   UNL A   1      46.394  25.911  28.061  1.00  0.00     0.049 A 
ATOM     48  H   UNL A   1      44.596  26.789  28.645  1.00  0.00     0.167 HD
ATOM     49  C   UNL A   1      40.581  28.603  29.149  1.00  0.00     0.037 A 
ATOM     50  C   UNL A   1      47.327  26.874  28.045  1.00  0.00     0.037 A 
ATOM     51  C   UNL A   1      41.535  29.680  29.297  1.00  0.00     0.049 A 
ATOM     52  C   UNL A   1      46.915  28.272  28.366  1.00  0.00     0.074 A 
ATOM     53  C   UNL A   1      41.306  31.000  29.647  1.00  0.00     0.029 A 
ATOM     54  N   UNL A   1      42.903  29.557  29.093  1.00  0.00    -0.354 N 
ATOM     55  N   UNL A   1      45.714  28.739  28.606  1.00  0.00    -0.248 NA
ATOM     56  C   UNL A   1      47.984  29.272  28.429  1.00  0.00     0.031 C 
ATOM     57  C   UNL A   1      42.527  31.683  29.610  1.00  0.00     0.029 A 
ATOM     58  C   UNL A   1      43.527  30.779  29.287  1.00  0.00     0.049 A 
ATOM     59  H   UNL A   1      43.364  28.722  28.845  1.00  0.00     0.167 HD
ATOM     60  C   UNL A   1      45.880  30.088  28.870  1.00  0.00     0.074 A 
ATOM     61  C   UNL A   1      47.303  30.356  28.771  1.00  0.00     0.031 C 
ATOM     62  C   UNL A   1      44.943  31.020  29.170  1.00  0.00     0.037 A 
BRANCH  49  63
ATOM     63  C   UNL A   1      39.120  28.926  29.320  1.00  0.00     0.057 A 
ATOM     64  C   UNL A   1      38.472  28.817  30.559  1.00  0.00     0.134 A 
ATOM     65  C   UNL A   1      38.367  29.433  28.251  1.00  0.00     0.134 A 
ATOM     66  F   UNL A   1      39.128  28.349  31.630  1.00  0.00    -0.206 F 
ATOM     67  C   UNL A   1      37.129  29.178  30.720  1.00  0.00     0.040 A 
ATOM     68  C   UNL A   1      37.032  29.820  28.405  1.00  0.00     0.040 A 
ATOM     69  F   UNL A   1      38.923  29.586  27.039  1.00  0.00    -0.206 F 
ATOM     70  C   UNL A   1      36.408  29.687  29.643  1.00  0.00     0.006 A 
ENDBRANCH  49  63
BRANCH  50  71
ATOM     71  C   UNL A   1      48.724  26.505  27.724  1.00  0.00     0.057 A 
ATOM     72  C   UNL A   1      49.563  25.974  28.707  1.00  0.00     0.134 A 
ATOM     73  C   UNL A   1      49.213  26.561  26.412  1.00  0.00     0.134 A 
ATOM     74  F   UNL A   1      49.145  25.895  29.979  1.00  0.00    -0.206 F 
ATOM     75  C   UNL A   1      50.842  25.512  28.399  1.00  0.00     0.040 A 
ATOM     76  C   UNL A   1      50.480  26.080  26.086  1.00  0.00     0.040 A 
ATOM     77  F   UNL A   1      48.441  27.031  25.420  1.00  0.00    -0.206 F 
ATOM     78  C   UNL A   1      51.298  25.554  27.084  1.00  0.00     0.006 A 
ENDBRANCH  50  71
BRANCH  62  79
ATOM     79  C   UNL A   1      45.450  32.404  29.435  1.00  0.00     0.057 A 
ATOM     80  C   UNL A   1      45.847  32.812  30.714  1.00  0.00     0.134 A 
ATOM     81  C   UNL A   1      45.532  33.342  28.398  1.00  0.00     0.134 A 
ATOM     82  F   UNL A   1      45.770  31.964  31.752  1.00  0.00    -0.206 F 
ATOM     83  C   UNL A   1      46.281  34.114  30.960  1.00  0.00     0.040 A 
ATOM     84  C   UNL A   1      45.987  34.640  28.626  1.00  0.00     0.040 A 
ATOM     85  F   UNL A   1      45.167  33.012  27.150  1.00  0.00    -0.206 F 
ATOM     86  C   UNL A   1      46.356  35.031  29.913  1.00  0.00     0.006 A 
ENDBRANCH  62  79
ENDBRANCH  36  37
ENDBRANCH  29  31
ENDBRANCH  28  29
ENDBRANCH  27  28
ENDBRANCH   1  27
TORSDOF 15
ENDMDL
MODEL 2
REMARK VINA RESULT:     -13.6      4.348      9.132
REMARK SMILES NC(=O)c1ccc(NC(=O)Cc2ccccc2C(=O)OCCOC(=O)c2ccc(-c3c4nc(c(-c5c(F)cccc5F)c5ccc([nH]5)c(-c5c(F)cccc5F)c5nc(c(-c6c(F)cccc6F)c6ccc3[nH]6)C=C5)C=C4)cc2)cc1
REMARK SMILES IDX 21 1 20 2 18 3 19 4 17 5 12 6 13 7 14 8 16 9 15 10 11 11
REMARK SMILES IDX 9 12 8 13 10 15 7 16 4 17 5 18 81 19 6 20 80 21 2 22 1 23
REMARK SMILES IDX 3 26 22 27 23 28 24 29 25 30 26 31 27 32 79 33 28 34 78 35
REMARK SMILES IDX 29 36 30 37 31 38 72 39 32 40 77 41 71 42 73 43 33 44 76 45
REMARK SMILES IDX 70 46 69 47 34 49 60 50 43 51 59 52 44 53 47 54 58 55 74 56
REMARK SMILES IDX 45 57 46 58 57 60 75 61 48 62 35 63 36 64 41 65 37 66 38 67
REMARK SMILES IDX 40 68 42 69 39 70 61 71 62 72 67 73 63 74 64 75 66 76 68 77
REMARK SMILES IDX 65 78 49 79 50 80 55 81 51 82 52 83 54 84 56 85 53 86
REMARK H PARENT 8 14 1 24 1 25 73 48 47 59
REMARK Flexibility Score: inf
ROOT
ATOM      1  C   UNL A   1      31.787  30.596  26.383  1.00  0.00     0.275 C 
ENDROOT
BRANCH   1   2
ATOM      2  O   UNL A   1      31.514  29.377  25.407  1.00  0.00    -0.458 OA
BRANCH   2   3
ATOM      3  C   UNL A   1      31.434  29.138  24.034  1.00  0.00     0.338 C 
ATOM      4  O   UNL A   1      32.221  29.162  23.089  1.00  0.00    -0.246 OA
BRANCH   3   5
ATOM      5  C   UNL A   1      30.129  29.103  23.491  1.00  0.00     0.063 A 
ATOM      6  C   UNL A   1      29.536  27.858  23.550  1.00  0.00    -0.024 A 
ATOM      7  C   UNL A   1      28.190  27.823  23.169  1.00  0.00     0.005 A 
ATOM      8  C   UNL A   1      27.460  29.022  22.988  1.00  0.00     0.000 A 
ATOM      9  C   UNL A   1      29.406  30.306  23.445  1.00  0.00     0.016 A 
ATOM     10  C   UNL A   1      28.051  30.265  23.207  1.00  0.00     0.001 A 
BRANCH   6  11
ATOM     11  C   UNL A   1      30.375  26.675  24.027  1.00  0.00     0.136 C 
BRANCH  11  12
ATOM     12  C   UNL A   1      31.120  25.713  23.011  1.00  0.00     0.228 C 
ATOM     13  N   UNL A   1      31.717  24.471  23.043  1.00  0.00    -0.326 N 
ATOM     14  H   UNL A   1      32.105  24.371  22.144  1.00  0.00     0.169 HD
ATOM     15  O   UNL A   1      31.370  26.266  21.910  1.00  0.00    -0.274 OA
BRANCH  13  16
ATOM     16  C   UNL A   1      32.079  23.201  23.729  1.00  0.00     0.041 A 
ATOM     17  C   UNL A   1      33.205  19.798  24.483  1.00  0.00     0.039 A 
ATOM     18  C   UNL A   1      33.625  21.097  25.627  1.00  0.00     0.016 A 
ATOM     19  C   UNL A   1      32.307  20.153  22.966  1.00  0.00     0.016 A 
ATOM     20  C   UNL A   1      32.998  22.781  25.307  1.00  0.00     0.027 A 
ATOM     21  C   UNL A   1      31.754  21.830  22.573  1.00  0.00     0.027 A 
BRANCH  17  22
ATOM     22  C   UNL A   1      33.192  18.465  25.130  1.00  0.00     0.248 C 
ATOM     23  N   UNL A   1      34.315  17.701  25.073  1.00  0.00    -0.366 N 
ATOM     24  H   UNL A   1      34.329  16.812  25.496  1.00  0.00     0.159 HD
ATOM     25  H   UNL A   1      35.116  18.038  24.608  1.00  0.00     0.159 HD
ATOM     26  O   UNL A   1      32.167  18.015  25.628  1.00  0.00    -0.270 OA
ENDBRANCH  17  22
ENDBRANCH  13  16
ENDBRANCH  11  12
ENDBRANCH   6  11
ENDBRANCH   3   5
ENDBRANCH   2   3
ENDBRANCH   1   2
BRANCH   1  27
ATOM     27  C   UNL A   1      31.062  32.106  26.500  1.00  0.00     0.275 C 
BRANCH  27  28
ATOM     28  O   UNL A   1      31.814  33.432  27.377  1.00  0.00    -0.458 OA
BRANCH  28  29
ATOM     29  C   UNL A   1      33.425  34.036  28.132  1.00  0.00     0.338 C 
ATOM     30  O   UNL A   1      33.547  34.943  29.023  1.00  0.00    -0.246 OA
BRANCH  29  31
ATOM     31  C   UNL A   1      34.896  33.652  27.935  1.00  0.00     0.060 A 
ATOM     32  C   UNL A   1      35.041  32.280  27.625  1.00  0.00     0.016 A 
ATOM     33  C   UNL A   1      35.778  34.223  28.871  1.00  0.00     0.016 A 
ATOM     34  C   UNL A   1      35.854  31.470  28.417  1.00  0.00     0.010 A 
ATOM     35  C   UNL A   1      36.641  33.420  29.612  1.00  0.00     0.010 A 
ATOM     36  C   UNL A   1      36.635  32.033  29.436  1.00  0.00    -0.014 A 
BRANCH  36  37
ATOM     37  C   UNL A   1      37.556  31.213  30.250  1.00  0.00     0.031 A 
ATOM     38  C   UNL A   1      37.802  31.491  31.708  1.00  0.00     0.074 A 
ATOM     39  C   UNL A   1      38.286  30.308  29.577  1.00  0.00     0.049 A 
ATOM     40  N   UNL A   1      38.752  31.026  32.482  1.00  0.00    -0.248 NA
ATOM     41  C   UNL A   1      36.878  32.417  32.382  1.00  0.00     0.031 C 
ATOM     42  C   UNL A   1      38.123  29.998  28.154  1.00  0.00     0.029 A 
ATOM     43  N   UNL A   1      39.333  29.526  29.975  1.00  0.00    -0.354 N 
ATOM     44  C   UNL A   1      38.559  31.618  33.727  1.00  0.00     0.074 A 
ATOM     45  C   UNL A   1      37.403  32.483  33.601  1.00  0.00     0.031 C 
ATOM     46  C   UNL A   1      39.055  29.112  27.790  1.00  0.00     0.029 A 
ATOM     47  C   UNL A   1      39.912  28.845  28.936  1.00  0.00     0.049 A 
ATOM     48  H   UNL A   1      39.640  29.460  30.910  1.00  0.00     0.167 HD
ATOM     49  C   UNL A   1      39.295  31.452  34.856  1.00  0.00     0.037 A 
ATOM     50  C   UNL A   1      41.042  28.124  28.890  1.00  0.00     0.037 A 
ATOM     51  C   UNL A   1      40.445  30.580  34.941  1.00  0.00     0.049 A 
ATOM     52  C   UNL A   1      41.839  27.967  30.142  1.00  0.00     0.074 A 
ATOM     53  C   UNL A   1      41.237  30.292  36.039  1.00  0.00     0.029 A 
ATOM     54  N   UNL A   1      40.970  29.860  33.876  1.00  0.00    -0.354 N 
ATOM     55  N   UNL A   1      41.634  28.505  31.319  1.00  0.00    -0.248 NA
ATOM     56  C   UNL A   1      43.013  27.094  30.066  1.00  0.00     0.031 C 
ATOM     57  C   UNL A   1      42.266  29.436  35.628  1.00  0.00     0.029 A 
ATOM     58  C   UNL A   1      42.087  29.148  34.284  1.00  0.00     0.049 A 
ATOM     59  H   UNL A   1      40.603  29.856  32.961  1.00  0.00     0.167 HD
ATOM     60  C   UNL A   1      42.642  28.023  32.136  1.00  0.00     0.074 A 
ATOM     61  C   UNL A   1      43.449  27.137  31.317  1.00  0.00     0.031 C 
ATOM     62  C   UNL A   1      42.878  28.284  33.444  1.00  0.00     0.037 A 
BRANCH  49  63
ATOM     63  C   UNL A   1      38.907  32.230  36.086  1.00  0.00     0.057 A 
ATOM     64  C   UNL A   1      38.118  31.675  37.103  1.00  0.00     0.134 A 
ATOM     65  C   UNL A   1      39.398  33.527  36.299  1.00  0.00     0.134 A 
ATOM     66  F   UNL A   1      37.620  30.437  36.977  1.00  0.00    -0.206 F 
ATOM     67  C   UNL A   1      37.815  32.386  38.270  1.00  0.00     0.040 A 
ATOM     68  C   UNL A   1      39.122  34.239  37.470  1.00  0.00     0.040 A 
ATOM     69  F   UNL A   1      40.177  34.119  35.380  1.00  0.00    -0.206 F 
ATOM     70  C   UNL A   1      38.324  33.669  38.458  1.00  0.00     0.006 A 
ENDBRANCH  49  63
BRANCH  50  71
ATOM     71  C   UNL A   1      41.439  27.506  27.606  1.00  0.00     0.057 A 
ATOM     72  C   UNL A   1      42.278  28.186  26.719  1.00  0.00     0.134 A 
ATOM     73  C   UNL A   1      41.092  26.185  27.290  1.00  0.00     0.134 A 
ATOM     74  F   UNL A   1      42.643  29.451  26.973  1.00  0.00    -0.206 F 
ATOM     75  C   UNL A   1      42.758  27.576  25.561  1.00  0.00     0.040 A 
ATOM     76  C   UNL A   1      41.585  25.555  26.148  1.00  0.00     0.040 A 
ATOM     77  F   UNL A   1      40.315  25.471  28.121  1.00  0.00    -0.206 F 
ATOM     78  C   UNL A   1      42.421  26.254  25.279  1.00  0.00     0.006 A 
ENDBRANCH  50  71
BRANCH  62  79
ATOM     79  C   UNL A   1      44.044  27.574  34.060  1.00  0.00     0.057 A 
ATOM     80  C   UNL A   1      45.326  28.137  34.077  1.00  0.00     0.134 A 
ATOM     81  C   UNL A   1      43.882  26.307  34.635  1.00  0.00     0.134 A 
ATOM     82  F   UNL A   1      45.548  29.338  33.521  1.00  0.00    -0.206 F 
ATOM     83  C   UNL A   1      46.414  27.452  34.617  1.00  0.00     0.040 A 
ATOM     84  C   UNL A   1      44.957  25.623  35.201  1.00  0.00     0.040 A 
ATOM     85  F   UNL A   1      42.679  25.715  34.651  1.00  0.00    -0.206 F 
ATOM     86  C   UNL A   1      46.230  26.193  35.186  1.00  0.00     0.006 A 
ENDBRANCH  62  79
ENDBRANCH  36  37
ENDBRANCH  29  31
ENDBRANCH  28  29
ENDBRANCH  27  28
ENDBRANCH   1  27
TORSDOF 15
ENDMDL
MODEL 3
REMARK VINA RESULT:     -13.5      4.327      9.631
REMARK SMILES NC(=O)c1ccc(NC(=O)Cc2ccccc2C(=O)OCCOC(=O)c2ccc(-c3c4nc(c(-c5c(F)cccc5F)c5ccc([nH]5)c(-c5c(F)cccc5F)c5nc(c(-c6c(F)cccc6F)c6ccc3[nH]6)C=C5)C=C4)cc2)cc1
REMARK SMILES IDX 21 1 20 2 18 3 19 4 17 5 12 6 13 7 14 8 16 9 15 10 11 11
REMARK SMILES IDX 9 12 8 13 10 15 7 16 4 17 5 18 81 19 6 20 80 21 2 22 1 23
REMARK SMILES IDX 3 26 22 27 23 28 24 29 25 30 26 31 27 32 79 33 28 34 78 35
REMARK SMILES IDX 29 36 30 37 31 38 72 39 32 40 77 41 71 42 73 43 33 44 76 45
REMARK SMILES IDX 70 46 69 47 34 49 60 50 43 51 59 52 44 53 47 54 58 55 74 56
REMARK SMILES IDX 45 57 46 58 57 60 75 61 48 62 35 63 36 64 41 65 37 66 38 67
REMARK SMILES IDX 40 68 42 69 39 70 61 71 62 72 67 73 63 74 64 75 66 76 68 77
REMARK SMILES IDX 65 78 49 79 50 80 55 81 51 82 52 83 54 84 56 85 53 86
REMARK H PARENT 8 14 1 24 1 25 73 48 47 59
REMARK Flexibility Score: inf
ROOT
ATOM      1  C   UNL A   1      33.746  28.992  25.575  1.00  0.00     0.275 C 
ENDROOT
BRANCH   1   2
ATOM      2  O   UNL A   1      32.829  28.536  24.366  1.00  0.00    -0.458 OA
BRANCH   2   3
ATOM      3  C   UNL A   1      31.482  28.262  24.123  1.00  0.00     0.338 C 
ATOM      4  O   UNL A   1      30.496  28.917  23.788  1.00  0.00    -0.246 OA
BRANCH   3   5
ATOM      5  C   UNL A   1      31.014  27.015  24.597  1.00  0.00     0.063 A 
ATOM      6  C   UNL A   1      31.138  25.990  23.681  1.00  0.00    -0.024 A 
ATOM      7  C   UNL A   1      30.833  24.715  24.171  1.00  0.00     0.005 A 
ATOM      8  C   UNL A   1      30.663  24.498  25.559  1.00  0.00     0.000 A 
ATOM      9  C   UNL A   1      30.978  26.814  25.987  1.00  0.00     0.016 A 
ATOM     10  C   UNL A   1      30.817  25.536  26.475  1.00  0.00     0.001 A 
BRANCH   6  11
ATOM     11  C   UNL A   1      31.596  26.333  22.265  1.00  0.00     0.136 C 
BRANCH  11  12
ATOM     12  C   UNL A   1      32.587  25.397  21.456  1.00  0.00     0.228 C 
ATOM     13  N   UNL A   1      33.067  24.108  21.547  1.00  0.00    -0.326 N 
ATOM     14  H   UNL A   1      33.732  24.051  20.822  1.00  0.00     0.169 HD
ATOM     15  O   UNL A   1      33.227  26.018  20.569  1.00  0.00    -0.274 OA
BRANCH  13  16
ATOM     16  C   UNL A   1      33.101  22.757  22.169  1.00  0.00     0.041 A 
ATOM     17  C   UNL A   1      33.382  19.967  24.525  1.00  0.00     0.039 A 
ATOM     18  C   UNL A   1      32.125  19.883  23.267  1.00  0.00     0.016 A 
ATOM     19  C   UNL A   1      34.446  21.408  24.678  1.00  0.00     0.016 A 
ATOM     20  C   UNL A   1      32.029  21.226  22.035  1.00  0.00     0.027 A 
ATOM     21  C   UNL A   1      34.312  22.801  23.530  1.00  0.00     0.027 A 
BRANCH  17  22
ATOM     22  C   UNL A   1      33.775  18.624  25.015  1.00  0.00     0.248 C 
ATOM     23  N   UNL A   1      33.079  18.077  26.047  1.00  0.00    -0.366 N 
ATOM     24  H   UNL A   1      33.322  17.187  26.389  1.00  0.00     0.159 HD
ATOM     25  H   UNL A   1      32.331  18.573  26.453  1.00  0.00     0.159 HD
ATOM     26  O   UNL A   1      34.761  18.052  24.568  1.00  0.00    -0.270 OA
ENDBRANCH  17  22
ENDBRANCH  13  16
ENDBRANCH  11  12
ENDBRANCH   6  11
ENDBRANCH   3   5
ENDBRANCH   2   3
ENDBRANCH   1   2
BRANCH   1  27
ATOM     27  C   UNL A   1      33.375  29.782  27.010  1.00  0.00     0.275 C 
BRANCH  27  28
ATOM     28  O   UNL A   1      32.771  31.434  27.031  1.00  0.00    -0.458 OA
BRANCH  28  29
ATOM     29  C   UNL A   1      32.979  33.120  27.834  1.00  0.00     0.338 C 
ATOM     30  O   UNL A   1      32.234  34.140  27.650  1.00  0.00    -0.246 OA
BRANCH  29  31
ATOM     31  C   UNL A   1      33.980  33.695  28.843  1.00  0.00     0.060 A 
ATOM     32  C   UNL A   1      35.156  34.156  28.207  1.00  0.00     0.016 A 
ATOM     33  C   UNL A   1      34.109  32.947  30.027  1.00  0.00     0.016 A 
ATOM     34  C   UNL A   1      36.399  33.659  28.598  1.00  0.00     0.010 A 
ATOM     35  C   UNL A   1      35.360  32.511  30.456  1.00  0.00     0.010 A 
ATOM     36  C   UNL A   1      36.503  32.807  29.707  1.00  0.00    -0.014 A 
BRANCH  36  37
ATOM     37  C   UNL A   1      37.810  32.315  30.187  1.00  0.00     0.031 A 
ATOM     38  C   UNL A   1      38.462  31.083  29.620  1.00  0.00     0.074 A 
ATOM     39  C   UNL A   1      38.308  32.935  31.269  1.00  0.00     0.049 A 
ATOM     40  N   UNL A   1      39.469  30.395  30.098  1.00  0.00    -0.248 NA
ATOM     41  C   UNL A   1      37.907  30.544  28.369  1.00  0.00     0.031 C 
ATOM     42  C   UNL A   1      37.720  34.123  31.894  1.00  0.00     0.029 A 
ATOM     43  N   UNL A   1      39.378  32.631  32.063  1.00  0.00    -0.354 N 
ATOM     44  C   UNL A   1      39.657  29.328  29.224  1.00  0.00     0.074 A 
ATOM     45  C   UNL A   1      38.652  29.457  28.189  1.00  0.00     0.031 C 
ATOM     46  C   UNL A   1      38.419  34.434  32.990  1.00  0.00     0.029 A 
ATOM     47  C   UNL A   1      39.459  33.432  33.174  1.00  0.00     0.049 A 
ATOM     48  H   UNL A   1      40.022  31.914  31.860  1.00  0.00     0.167 HD
ATOM     49  C   UNL A   1      40.581  28.336  29.300  1.00  0.00     0.037 A 
ATOM     50  C   UNL A   1      40.248  33.343  34.255  1.00  0.00     0.037 A 
ATOM     51  C   UNL A   1      41.568  28.241  30.352  1.00  0.00     0.049 A 
ATOM     52  C   UNL A   1      41.247  32.236  34.319  1.00  0.00     0.074 A 
ATOM     53  C   UNL A   1      42.584  27.313  30.508  1.00  0.00     0.029 A 
ATOM     54  N   UNL A   1      41.654  29.106  31.435  1.00  0.00    -0.354 N 
ATOM     55  N   UNL A   1      41.436  31.250  33.477  1.00  0.00    -0.248 NA
ATOM     56  C   UNL A   1      42.149  32.234  35.474  1.00  0.00     0.031 C 
ATOM     57  C   UNL A   1      43.254  27.590  31.706  1.00  0.00     0.029 A 
ATOM     58  C   UNL A   1      42.689  28.721  32.274  1.00  0.00     0.049 A 
ATOM     59  H   UNL A   1      41.065  29.881  31.587  1.00  0.00     0.167 HD
ATOM     60  C   UNL A   1      42.495  30.517  33.985  1.00  0.00     0.074 A 
ATOM     61  C   UNL A   1      42.911  31.184  35.205  1.00  0.00     0.031 C 
ATOM     62  C   UNL A   1      43.073  29.397  33.488  1.00  0.00     0.037 A 
BRANCH  49  63
ATOM     63  C   UNL A   1      40.571  27.263  28.243  1.00  0.00     0.057 A 
ATOM     64  C   UNL A   1      41.374  27.337  27.097  1.00  0.00     0.134 A 
ATOM     65  C   UNL A   1      39.809  26.097  28.412  1.00  0.00     0.134 A 
ATOM     66  F   UNL A   1      42.136  28.416  26.870  1.00  0.00    -0.206 F 
ATOM     67  C   UNL A   1      41.402  26.305  26.151  1.00  0.00     0.040 A 
ATOM     68  C   UNL A   1      39.847  25.050  27.487  1.00  0.00     0.040 A 
ATOM     69  F   UNL A   1      39.030  25.944  29.494  1.00  0.00    -0.206 F 
ATOM     70  C   UNL A   1      40.642  25.155  26.349  1.00  0.00     0.006 A 
ENDBRANCH  49  63
BRANCH  50  71
ATOM     71  C   UNL A   1      40.102  34.353  35.326  1.00  0.00     0.057 A 
ATOM     72  C   UNL A   1      39.316  34.088  36.451  1.00  0.00     0.134 A 
ATOM     73  C   UNL A   1      40.834  35.548  35.311  1.00  0.00     0.134 A 
ATOM     74  F   UNL A   1      38.597  32.958  36.519  1.00  0.00    -0.206 F 
ATOM     75  C   UNL A   1      39.260  34.976  37.524  1.00  0.00     0.040 A 
ATOM     76  C   UNL A   1      40.806  36.433  36.388  1.00  0.00     0.040 A 
ATOM     77  F   UNL A   1      41.631  35.841  34.271  1.00  0.00    -0.206 F 
ATOM     78  C   UNL A   1      40.015  36.146  37.499  1.00  0.00     0.006 A 
ENDBRANCH  50  71
BRANCH  62  79
ATOM     79  C   UNL A   1      44.233  28.852  34.263  1.00  0.00     0.057 A 
ATOM     80  C   UNL A   1      45.540  29.312  34.057  1.00  0.00     0.134 A 
ATOM     81  C   UNL A   1      44.040  27.850  35.221  1.00  0.00     0.134 A 
ATOM     82  F   UNL A   1      45.790  30.256  33.136  1.00  0.00    -0.206 F 
ATOM     83  C   UNL A   1      46.619  28.772  34.755  1.00  0.00     0.040 A 
ATOM     84  C   UNL A   1      45.108  27.319  35.944  1.00  0.00     0.040 A 
ATOM     85  F   UNL A   1      42.812  27.368  35.466  1.00  0.00    -0.206 F 
ATOM     86  C   UNL A   1      46.403  27.776  35.706  1.00  0.00     0.006 A 
ENDBRANCH  62  79
ENDBRANCH  36  37
ENDBRANCH  29  31
ENDBRANCH  28  29
ENDBRANCH  27  28
ENDBRANCH   1  27
TORSDOF 15
ENDMDL
