MODEL 1
REMARK VINA RESULT:     -11.5      0.000      0.000
REMARK SMILES O=C(/C=C/N[C@@H](Cc1c[nH]c2ccccc12)C(=O)OCCOC(=O)c1ccc(-c2c3nc(c(-c4c(F)cccc4F)c4ccc([nH]4)c(-c4c(F)cccc4F)c4nc(c(-c5c(F)cccc5F)c5ccc2[nH]5)C=C4)C=C3)cc1)c1ccccc1
REMARK SMILES IDX 20 1 19 2 17 3 18 4 6 5 5 6 4 8 3 9 2 10 1 11 79 12 80 13
REMARK SMILES IDX 84 14 81 15 83 16 82 17 7 18 8 19 9 20 16 21 10 22 11 23
REMARK SMILES IDX 15 24 12 26 14 27 13 28 21 29 22 30 23 31 24 32 25 33 26 34
REMARK SMILES IDX 78 35 27 36 77 37 28 38 29 39 30 40 71 41 31 42 76 43 70 44
REMARK SMILES IDX 72 45 32 46 75 47 69 48 68 49 33 51 59 52 42 53 58 54 43 55
REMARK SMILES IDX 46 56 57 57 73 58 44 59 45 60 56 62 74 63 47 64 34 65 35 66
REMARK SMILES IDX 40 67 36 68 37 69 39 70 41 71 38 72 60 73 61 74 66 75 62 76
REMARK SMILES IDX 63 77 65 78 67 79 64 80 48 81 49 82 54 83 50 84 51 85 53 86
REMARK SMILES IDX 55 87 52 88
REMARK H PARENT 5 7 10 25 72 50 46 61
REMARK Flexibility Score: inf
ROOT
ATOM      1  C   UNL A   1      31.367  31.309  26.096  1.00  0.00     0.274 C 
ENDROOT
BRANCH   1   2
ATOM      2  O   UNL A   1      31.775  30.056  26.678  1.00  0.00    -0.461 OA
BRANCH   2   3
ATOM      3  C   UNL A   1      32.776  29.358  26.092  1.00  0.00     0.329 C 
ATOM      4  O   UNL A   1      33.922  29.779  25.952  1.00  0.00    -0.250 OA
BRANCH   3   5
ATOM      5  C   UNL A   1      32.327  27.993  25.549  1.00  0.00     0.194 C 
BRANCH   5   6
ATOM      6  N   UNL A   1      31.034  27.485  26.023  1.00  0.00    -0.378 N 
ATOM      7  H   UNL A   1      30.362  28.174  26.229  1.00  0.00     0.160 HD
BRANCH   6   8
ATOM      8  C   UNL A   1      30.623  26.189  26.222  1.00  0.00     0.082 C 
ATOM      9  C   UNL A   1      31.461  25.173  26.474  1.00  0.00     0.070 C 
BRANCH   9  10
ATOM     10  C   UNL A   1      31.123  23.755  26.771  1.00  0.00     0.187 C 
ATOM     11  O   UNL A   1      30.032  23.486  27.266  1.00  0.00    -0.289 OA
BRANCH  10  12
ATOM     12  C   UNL A   1      32.049  22.661  26.420  1.00  0.00     0.022 A 
ATOM     13  C   UNL A   1      33.241  22.455  27.118  1.00  0.00     0.012 A 
ATOM     14  C   UNL A   1      31.680  21.789  25.389  1.00  0.00     0.012 A 
ATOM     15  C   UNL A   1      34.093  21.418  26.736  1.00  0.00     0.001 A 
ATOM     16  C   UNL A   1      32.530  20.747  25.020  1.00  0.00     0.001 A 
ATOM     17  C   UNL A   1      33.740  20.570  25.686  1.00  0.00     0.000 A 
ENDBRANCH  10  12
ENDBRANCH   9  10
ENDBRANCH   6   8
ENDBRANCH   5   6
BRANCH   5  18
ATOM     18  C   UNL A   1      32.370  27.999  24.023  1.00  0.00     0.074 C 
BRANCH  18  19
ATOM     19  C   UNL A   1      32.456  26.708  23.232  1.00  0.00    -0.020 A 
ATOM     20  C   UNL A   1      31.629  26.516  22.134  1.00  0.00     0.087 A 
ATOM     21  C   UNL A   1      33.279  25.515  23.321  1.00  0.00     0.003 A 
ATOM     22  N   UNL A   1      31.886  25.298  21.583  1.00  0.00    -0.361 N 
ATOM     23  C   UNL A   1      32.869  24.657  22.291  1.00  0.00     0.046 A 
ATOM     24  C   UNL A   1      34.317  25.023  24.154  1.00  0.00     0.010 A 
ATOM     25  H   UNL A   1      31.433  24.932  20.791  1.00  0.00     0.166 HD
ATOM     26  C   UNL A   1      33.412  23.380  22.081  1.00  0.00     0.026 A 
ATOM     27  C   UNL A   1      34.871  23.751  23.962  1.00  0.00     0.001 A 
ATOM     28  C   UNL A   1      34.418  22.938  22.938  1.00  0.00     0.002 A 
ENDBRANCH  18  19
ENDBRANCH   5  18
ENDBRANCH   3   5
ENDBRANCH   2   3
ENDBRANCH   1   2
BRANCH   1  29
ATOM     29  C   UNL A   1      31.505  32.426  27.130  1.00  0.00     0.275 C 
BRANCH  29  30
ATOM     30  O   UNL A   1      32.717  33.156  26.879  1.00  0.00    -0.458 OA
BRANCH  30  31
ATOM     31  C   UNL A   1      33.249  33.745  27.973  1.00  0.00     0.338 C 
ATOM     32  O   UNL A   1      32.757  34.605  28.680  1.00  0.00    -0.246 OA
BRANCH  31  33
ATOM     33  C   UNL A   1      34.499  33.051  28.304  1.00  0.00     0.060 A 
ATOM     34  C   UNL A   1      34.413  31.716  28.704  1.00  0.00     0.016 A 
ATOM     35  C   UNL A   1      35.723  33.717  28.292  1.00  0.00     0.016 A 
ATOM     36  C   UNL A   1      35.547  31.052  29.150  1.00  0.00     0.010 A 
ATOM     37  C   UNL A   1      36.864  33.048  28.739  1.00  0.00     0.010 A 
ATOM     38  C   UNL A   1      36.771  31.726  29.210  1.00  0.00    -0.014 A 
BRANCH  38  39
ATOM     39  C   UNL A   1      37.914  31.084  29.899  1.00  0.00     0.031 A 
ATOM     40  C   UNL A   1      38.161  31.392  31.350  1.00  0.00     0.074 A 
ATOM     41  C   UNL A   1      38.670  30.177  29.257  1.00  0.00     0.049 A 
ATOM     42  N   UNL A   1      39.093  30.936  32.147  1.00  0.00    -0.248 NA
ATOM     43  C   UNL A   1      37.219  32.321  31.997  1.00  0.00     0.031 C 
ATOM     44  C   UNL A   1      38.486  29.755  27.868  1.00  0.00     0.029 A 
ATOM     45  N   UNL A   1      39.740  29.440  29.694  1.00  0.00    -0.354 N 
ATOM     46  C   UNL A   1      38.858  31.530  33.380  1.00  0.00     0.074 A 
ATOM     47  C   UNL A   1      37.705  32.389  33.226  1.00  0.00     0.031 C 
ATOM     48  C   UNL A   1      39.413  28.831  27.567  1.00  0.00     0.029 A 
ATOM     49  C   UNL A   1      40.276  28.626  28.728  1.00  0.00     0.049 A 
ATOM     50  H   UNL A   1      40.091  29.491  30.613  1.00  0.00     0.167 HD
ATOM     51  C   UNL A   1      39.540  31.370  34.540  1.00  0.00     0.037 A 
ATOM     52  C   UNL A   1      41.354  27.822  28.773  1.00  0.00     0.037 A 
ATOM     53  C   UNL A   1      40.689  30.518  34.689  1.00  0.00     0.049 A 
ATOM     54  C   UNL A   1      42.140  27.720  30.052  1.00  0.00     0.074 A 
ATOM     55  C   UNL A   1      41.461  30.297  35.816  1.00  0.00     0.029 A 
ATOM     56  N   UNL A   1      41.235  29.747  33.672  1.00  0.00    -0.354 N 
ATOM     57  N   UNL A   1      41.915  28.294  31.208  1.00  0.00    -0.248 NA
ATOM     58  C   UNL A   1      43.329  26.858  30.029  1.00  0.00     0.031 C 
ATOM     59  C   UNL A   1      42.497  29.423  35.472  1.00  0.00     0.029 A 
ATOM     60  C   UNL A   1      42.344  29.063  34.141  1.00  0.00     0.049 A 
ATOM     61  H   UNL A   1      40.885  29.694  32.755  1.00  0.00     0.167 HD
ATOM     62  C   UNL A   1      42.922  27.849  32.056  1.00  0.00     0.074 A 
ATOM     63  C   UNL A   1      43.745  26.941  31.284  1.00  0.00     0.031 C 
ATOM     64  C   UNL A   1      43.148  28.164  33.355  1.00  0.00     0.037 A 
BRANCH  51  65
ATOM     65  C   UNL A   1      39.074  32.165  35.723  1.00  0.00     0.057 A 
ATOM     66  C   UNL A   1      38.217  31.622  36.688  1.00  0.00     0.134 A 
ATOM     67  C   UNL A   1      39.494  33.489  35.901  1.00  0.00     0.134 A 
ATOM     68  F   UNL A   1      37.766  30.363  36.565  1.00  0.00    -0.206 F 
ATOM     69  C   UNL A   1      37.775  32.375  37.777  1.00  0.00     0.040 A 
ATOM     70  C   UNL A   1      39.077  34.244  36.997  1.00  0.00     0.040 A 
ATOM     71  F   UNL A   1      40.314  34.068  35.012  1.00  0.00    -0.206 F 
ATOM     72  C   UNL A   1      38.209  33.690  37.936  1.00  0.00     0.006 A 
ENDBRANCH  51  65
BRANCH  52  73
ATOM     73  C   UNL A   1      41.769  27.066  27.566  1.00  0.00     0.057 A 
ATOM     74  C   UNL A   1      42.565  27.655  26.577  1.00  0.00     0.134 A 
ATOM     75  C   UNL A   1      41.363  25.741  27.360  1.00  0.00     0.134 A 
ATOM     76  F   UNL A   1      42.966  28.929  26.704  1.00  0.00    -0.206 F 
ATOM     77  C   UNL A   1      42.928  26.962  25.421  1.00  0.00     0.040 A 
ATOM     78  C   UNL A   1      41.739  25.028  26.223  1.00  0.00     0.040 A 
ATOM     79  F   UNL A   1      40.599  25.119  28.271  1.00  0.00    -0.206 F 
ATOM     80  C   UNL A   1      42.518  25.641  25.244  1.00  0.00     0.006 A 
ENDBRANCH  52  73
BRANCH  64  81
ATOM     81  C   UNL A   1      44.316  27.498  34.022  1.00  0.00     0.057 A 
ATOM     82  C   UNL A   1      45.584  28.092  34.056  1.00  0.00     0.134 A 
ATOM     83  C   UNL A   1      44.164  26.256  34.651  1.00  0.00     0.134 A 
ATOM     84  F   UNL A   1      45.797  29.275  33.460  1.00  0.00    -0.206 F 
ATOM     85  C   UNL A   1      46.668  27.459  34.666  1.00  0.00     0.040 A 
ATOM     86  C   UNL A   1      45.235  25.625  35.286  1.00  0.00     0.040 A 
ATOM     87  F   UNL A   1      42.973  25.638  34.661  1.00  0.00    -0.206 F 
ATOM     88  C   UNL A   1      46.493  26.223  35.288  1.00  0.00     0.006 A 
ENDBRANCH  64  81
ENDBRANCH  38  39
ENDBRANCH  31  33
ENDBRANCH  30  31
ENDBRANCH  29  30
ENDBRANCH   1  29
TORSDOF 17
ENDMDL
MODEL 2
REMARK VINA RESULT:     -11.4      4.272      8.081
REMARK SMILES O=C(/C=C/N[C@@H](Cc1c[nH]c2ccccc12)C(=O)OCCOC(=O)c1ccc(-c2c3nc(c(-c4c(F)cccc4F)c4ccc([nH]4)c(-c4c(F)cccc4F)c4nc(c(-c5c(F)cccc5F)c5ccc2[nH]5)C=C4)C=C3)cc1)c1ccccc1
REMARK SMILES IDX 20 1 19 2 17 3 18 4 6 5 5 6 4 8 3 9 2 10 1 11 79 12 80 13
REMARK SMILES IDX 84 14 81 15 83 16 82 17 7 18 8 19 9 20 16 21 10 22 11 23
REMARK SMILES IDX 15 24 12 26 14 27 13 28 21 29 22 30 23 31 24 32 25 33 26 34
REMARK SMILES IDX 78 35 27 36 77 37 28 38 29 39 30 40 71 41 31 42 76 43 70 44
REMARK SMILES IDX 72 45 32 46 75 47 69 48 68 49 33 51 59 52 42 53 58 54 43 55
REMARK SMILES IDX 46 56 57 57 73 58 44 59 45 60 56 62 74 63 47 64 34 65 35 66
REMARK SMILES IDX 40 67 36 68 37 69 39 70 41 71 38 72 60 73 61 74 66 75 62 76
REMARK SMILES IDX 63 77 65 78 67 79 64 80 48 81 49 82 54 83 50 84 51 85 53 86
REMARK SMILES IDX 55 87 52 88
REMARK H PARENT 5 7 10 25 72 50 46 61
REMARK Flexibility Score: inf
ROOT
ATOM      1  C   UNL A   1      37.099  20.970  24.590  1.00  0.00     0.274 C 
ENDROOT
BRANCH   1   2
ATOM      2  O   UNL A   1      35.982  20.770  25.478  1.00  0.00    -0.461 OA
BRANCH   2   3
ATOM      3  C   UNL A   1      34.764  20.512  24.948  1.00  0.00     0.329 C 
ATOM      4  O   UNL A   1      34.390  19.400  24.583  1.00  0.00    -0.250 OA
BRANCH   3   5
ATOM      5  C   UNL A   1      33.895  21.768  24.781  1.00  0.00     0.194 C 
BRANCH   5   6
ATOM      6  N   UNL A   1      32.927  21.761  23.678  1.00  0.00    -0.378 N 
ATOM      7  H   UNL A   1      32.436  20.916  23.556  1.00  0.00     0.160 HD
BRANCH   6   8
ATOM      8  C   UNL A   1      32.605  22.759  22.789  1.00  0.00     0.082 C 
ATOM      9  C   UNL A   1      33.316  23.886  22.647  1.00  0.00     0.070 C 
BRANCH   9  10
ATOM     10  C   UNL A   1      33.100  24.993  21.678  1.00  0.00     0.187 C 
ATOM     11  O   UNL A   1      33.249  24.780  20.478  1.00  0.00    -0.289 OA
BRANCH  10  12
ATOM     12  C   UNL A   1      32.647  26.324  22.127  1.00  0.00     0.022 A 
ATOM     13  C   UNL A   1      33.514  27.417  22.178  1.00  0.00     0.012 A 
ATOM     14  C   UNL A   1      31.297  26.483  22.460  1.00  0.00     0.012 A 
ATOM     15  C   UNL A   1      33.043  28.650  22.628  1.00  0.00     0.001 A 
ATOM     16  C   UNL A   1      30.829  27.721  22.899  1.00  0.00     0.001 A 
ATOM     17  C   UNL A   1      31.705  28.801  22.992  1.00  0.00     0.000 A 
ENDBRANCH  10  12
ENDBRANCH   9  10
ENDBRANCH   6   8
ENDBRANCH   5   6
BRANCH   5  18
ATOM     18  C   UNL A   1      33.198  22.100  26.099  1.00  0.00     0.074 C 
BRANCH  18  19
ATOM     19  C   UNL A   1      32.407  23.382  26.270  1.00  0.00    -0.020 A 
ATOM     20  C   UNL A   1      31.062  23.322  26.610  1.00  0.00     0.087 A 
ATOM     21  C   UNL A   1      32.732  24.794  26.188  1.00  0.00     0.003 A 
ATOM     22  N   UNL A   1      30.567  24.585  26.714  1.00  0.00    -0.361 N 
ATOM     23  C   UNL A   1      31.550  25.502  26.446  1.00  0.00     0.046 A 
ATOM     24  C   UNL A   1      33.874  25.588  25.908  1.00  0.00     0.010 A 
ATOM     25  H   UNL A   1      29.638  24.808  26.949  1.00  0.00     0.166 HD
ATOM     26  C   UNL A   1      31.459  26.903  26.416  1.00  0.00     0.026 A 
ATOM     27  C   UNL A   1      33.805  26.987  25.871  1.00  0.00     0.001 A 
ATOM     28  C   UNL A   1      32.607  27.635  26.119  1.00  0.00     0.002 A 
ENDBRANCH  18  19
ENDBRANCH   5  18
ENDBRANCH   3   5
ENDBRANCH   2   3
ENDBRANCH   1   2
BRANCH   1  29
ATOM     29  C   UNL A   1      38.189  19.944  24.896  1.00  0.00     0.275 C 
BRANCH  29  30
ATOM     30  O   UNL A   1      38.900  20.349  26.077  1.00  0.00    -0.458 OA
BRANCH  30  31
ATOM     31  C   UNL A   1      40.210  20.011  26.082  1.00  0.00     0.338 C 
ATOM     32  O   UNL A   1      40.730  19.004  25.639  1.00  0.00    -0.246 OA
BRANCH  31  33
ATOM     33  C   UNL A   1      40.977  21.162  26.573  1.00  0.00     0.060 A 
ATOM     34  C   UNL A   1      40.953  21.421  27.944  1.00  0.00     0.016 A 
ATOM     35  C   UNL A   1      41.649  22.012  25.696  1.00  0.00     0.016 A 
ATOM     36  C   UNL A   1      41.554  22.567  28.445  1.00  0.00     0.010 A 
ATOM     37  C   UNL A   1      42.256  23.164  26.200  1.00  0.00     0.010 A 
ATOM     38  C   UNL A   1      42.174  23.467  27.570  1.00  0.00    -0.014 A 
BRANCH  38  39
ATOM     39  C   UNL A   1      42.605  24.787  28.083  1.00  0.00     0.031 A 
ATOM     40  C   UNL A   1      41.574  25.860  28.302  1.00  0.00     0.074 A 
ATOM     41  C   UNL A   1      43.888  24.996  28.424  1.00  0.00     0.049 A 
ATOM     42  N   UNL A   1      41.730  27.080  28.751  1.00  0.00    -0.248 NA
ATOM     43  C   UNL A   1      40.178  25.506  27.996  1.00  0.00     0.031 C 
ATOM     44  C   UNL A   1      44.963  24.010  28.311  1.00  0.00     0.029 A 
ATOM     45  N   UNL A   1      44.502  26.107  28.943  1.00  0.00    -0.354 N 
ATOM     46  C   UNL A   1      40.458  27.639  28.768  1.00  0.00     0.074 A 
ATOM     47  C   UNL A   1      39.544  26.634  28.274  1.00  0.00     0.031 C 
ATOM     48  C   UNL A   1      46.107  24.561  28.751  1.00  0.00     0.029 A 
ATOM     49  C   UNL A   1      45.851  25.945  29.138  1.00  0.00     0.049 A 
ATOM     50  H   UNL A   1      44.021  26.940  29.154  1.00  0.00     0.167 HD
ATOM     51  C   UNL A   1      40.086  28.879  29.166  1.00  0.00     0.037 A 
ATOM     52  C   UNL A   1      46.776  26.826  29.563  1.00  0.00     0.037 A 
ATOM     53  C   UNL A   1      40.998  29.878  29.654  1.00  0.00     0.049 A 
ATOM     54  C   UNL A   1      46.348  28.221  29.927  1.00  0.00     0.074 A 
ATOM     55  C   UNL A   1      40.724  31.170  30.068  1.00  0.00     0.029 A 
ATOM     56  N   UNL A   1      42.367  29.695  29.789  1.00  0.00    -0.354 N 
ATOM     57  N   UNL A   1      45.145  28.743  29.930  1.00  0.00    -0.248 NA
ATOM     58  C   UNL A   1      47.407  29.149  30.346  1.00  0.00     0.031 C 
ATOM     59  C   UNL A   1      41.934  31.782  30.416  1.00  0.00     0.029 A 
ATOM     60  C   UNL A   1      42.954  30.856  30.263  1.00  0.00     0.049 A 
ATOM     61  H   UNL A   1      42.848  28.864  29.579  1.00  0.00     0.167 HD
ATOM     62  C   UNL A   1      45.299  30.052  30.368  1.00  0.00     0.074 A 
ATOM     63  C   UNL A   1      46.710  30.237  30.641  1.00  0.00     0.031 C 
ATOM     64  C   UNL A   1      44.360  31.017  30.528  1.00  0.00     0.037 A 
BRANCH  51  65
ATOM     65  C   UNL A   1      38.631  29.226  29.052  1.00  0.00     0.057 A 
ATOM     66  C   UNL A   1      37.762  29.138  30.146  1.00  0.00     0.134 A 
ATOM     67  C   UNL A   1      38.096  29.660  27.833  1.00  0.00     0.134 A 
ATOM     68  F   UNL A   1      38.209  28.714  31.338  1.00  0.00    -0.206 F 
ATOM     69  C   UNL A   1      36.405  29.447  30.025  1.00  0.00     0.040 A 
ATOM     70  C   UNL A   1      36.748  29.993  27.705  1.00  0.00     0.040 A 
ATOM     71  F   UNL A   1      38.876  29.765  26.746  1.00  0.00    -0.206 F 
ATOM     72  C   UNL A   1      35.896  29.880  28.802  1.00  0.00     0.006 A 
ENDBRANCH  51  65
BRANCH  52  73
ATOM     73  C   UNL A   1      48.202  26.424  29.648  1.00  0.00     0.057 A 
ATOM     74  C   UNL A   1      49.076  26.615  28.572  1.00  0.00     0.134 A 
ATOM     75  C   UNL A   1      48.721  25.820  30.800  1.00  0.00     0.134 A 
ATOM     76  F   UNL A   1      48.633  27.166  27.433  1.00  0.00    -0.206 F 
ATOM     77  C   UNL A   1      50.409  26.205  28.631  1.00  0.00     0.040 A 
ATOM     78  C   UNL A   1      50.057  25.428  30.884  1.00  0.00     0.040 A 
ATOM     79  F   UNL A   1      47.934  25.609  31.867  1.00  0.00    -0.206 F 
ATOM     80  C   UNL A   1      50.904  25.614  29.793  1.00  0.00     0.006 A 
ENDBRANCH  52  73
BRANCH  64  81
ATOM     81  C   UNL A   1      44.832  32.344  31.046  1.00  0.00     0.057 A 
ATOM     82  C   UNL A   1      44.902  32.620  32.417  1.00  0.00     0.134 A 
ATOM     83  C   UNL A   1      45.237  33.351  30.160  1.00  0.00     0.134 A 
ATOM     84  F   UNL A   1      44.515  31.702  33.316  1.00  0.00    -0.206 F 
ATOM     85  C   UNL A   1      45.328  33.862  32.889  1.00  0.00     0.040 A 
ATOM     86  C   UNL A   1      45.689  34.588  30.620  1.00  0.00     0.040 A 
ATOM     87  F   UNL A   1      45.203  33.147  28.834  1.00  0.00    -0.206 F 
ATOM     88  C   UNL A   1      45.728  34.849  31.988  1.00  0.00     0.006 A 
ENDBRANCH  64  81
ENDBRANCH  38  39
ENDBRANCH  31  33
ENDBRANCH  30  31
ENDBRANCH  29  30
ENDBRANCH   1  29
TORSDOF 17
ENDMDL
MODEL 3
REMARK VINA RESULT:     -11.3      4.179      8.916
REMARK SMILES O=C(/C=C/N[C@@H](Cc1c[nH]c2ccccc12)C(=O)OCCOC(=O)c1ccc(-c2c3nc(c(-c4c(F)cccc4F)c4ccc([nH]4)c(-c4c(F)cccc4F)c4nc(c(-c5c(F)cccc5F)c5ccc2[nH]5)C=C4)C=C3)cc1)c1ccccc1
REMARK SMILES IDX 20 1 19 2 17 3 18 4 6 5 5 6 4 8 3 9 2 10 1 11 79 12 80 13
REMARK SMILES IDX 84 14 81 15 83 16 82 17 7 18 8 19 9 20 16 21 10 22 11 23
REMARK SMILES IDX 15 24 12 26 14 27 13 28 21 29 22 30 23 31 24 32 25 33 26 34
REMARK SMILES IDX 78 35 27 36 77 37 28 38 29 39 30 40 71 41 31 42 76 43 70 44
REMARK SMILES IDX 72 45 32 46 75 47 69 48 68 49 33 51 59 52 42 53 58 54 43 55
REMARK SMILES IDX 46 56 57 57 73 58 44 59 45 60 56 62 74 63 47 64 34 65 35 66
REMARK SMILES IDX 40 67 36 68 37 69 39 70 41 71 38 72 60 73 61 74 66 75 62 76
REMARK SMILES IDX 63 77 65 78 67 79 64 80 48 81 49 82 54 83 50 84 51 85 53 86
REMARK SMILES IDX 55 87 52 88
REMARK H PARENT 5 7 10 25 72 50 46 61
REMARK Flexibility Score: inf
ROOT
ATOM      1  C   UNL A   1      37.656  20.286  24.555  1.00  0.00     0.274 C 
ENDROOT
BRANCH   1   2
ATOM      2  O   UNL A   1      36.580  20.726  25.406  1.00  0.00    -0.461 OA
BRANCH   2   3
ATOM      3  C   UNL A   1      35.304  20.523  25.002  1.00  0.00     0.329 C 
ATOM      4  O   UNL A   1      34.840  19.426  24.702  1.00  0.00    -0.250 OA
BRANCH   3   5
ATOM      5  C   UNL A   1      34.488  21.821  24.889  1.00  0.00     0.194 C 
BRANCH   5   6
ATOM      6  N   UNL A   1      33.681  21.991  23.675  1.00  0.00    -0.378 N 
ATOM      7  H   UNL A   1      33.018  21.283  23.509  1.00  0.00     0.160 HD
BRANCH   6   8
ATOM      8  C   UNL A   1      33.717  22.993  22.735  1.00  0.00     0.082 C 
ATOM      9  C   UNL A   1      32.890  24.048  22.740  1.00  0.00     0.070 C 
BRANCH   9  10
ATOM     10  C   UNL A   1      32.884  25.216  21.819  1.00  0.00     0.187 C 
ATOM     11  O   UNL A   1      33.283  25.075  20.666  1.00  0.00    -0.289 OA
BRANCH  10  12
ATOM     12  C   UNL A   1      32.345  26.522  22.245  1.00  0.00     0.022 A 
ATOM     13  C   UNL A   1      31.014  26.674  22.640  1.00  0.00     0.012 A 
ATOM     14  C   UNL A   1      33.220  27.613  22.292  1.00  0.00     0.012 A 
ATOM     15  C   UNL A   1      30.547  27.934  23.016  1.00  0.00     0.001 A 
ATOM     16  C   UNL A   1      32.750  28.867  22.680  1.00  0.00     0.001 A 
ATOM     17  C   UNL A   1      31.411  29.028  23.031  1.00  0.00     0.000 A 
ENDBRANCH  10  12
ENDBRANCH   9  10
ENDBRANCH   6   8
ENDBRANCH   5   6
BRANCH   5  18
ATOM     18  C   UNL A   1      33.622  22.002  26.134  1.00  0.00     0.074 C 
BRANCH  18  19
ATOM     19  C   UNL A   1      32.757  23.234  26.318  1.00  0.00    -0.020 A 
ATOM     20  C   UNL A   1      31.438  23.095  26.727  1.00  0.00     0.087 A 
ATOM     21  C   UNL A   1      32.982  24.662  26.188  1.00  0.00     0.003 A 
ATOM     22  N   UNL A   1      30.865  24.325  26.829  1.00  0.00    -0.361 N 
ATOM     23  C   UNL A   1      31.770  25.297  26.490  1.00  0.00     0.046 A 
ATOM     24  C   UNL A   1      34.053  25.522  25.832  1.00  0.00     0.010 A 
ATOM     25  H   UNL A   1      29.936  24.492  27.107  1.00  0.00     0.166 HD
ATOM     26  C   UNL A   1      31.585  26.687  26.435  1.00  0.00     0.026 A 
ATOM     27  C   UNL A   1      33.890  26.911  25.769  1.00  0.00     0.001 A 
ATOM     28  C   UNL A   1      32.665  27.485  26.063  1.00  0.00     0.002 A 
ENDBRANCH  18  19
ENDBRANCH   5  18
ENDBRANCH   3   5
ENDBRANCH   2   3
ENDBRANCH   1   2
BRANCH   1  29
ATOM     29  C   UNL A   1      38.515  19.265  25.300  1.00  0.00     0.275 C 
BRANCH  29  30
ATOM     30  O   UNL A   1      39.293  19.943  26.300  1.00  0.00    -0.458 OA
BRANCH  30  31
ATOM     31  C   UNL A   1      40.631  19.806  26.153  1.00  0.00     0.338 C 
ATOM     32  O   UNL A   1      41.239  18.920  25.581  1.00  0.00    -0.246 OA
BRANCH  31  33
ATOM     33  C   UNL A   1      41.273  21.024  26.660  1.00  0.00     0.060 A 
ATOM     34  C   UNL A   1      41.206  21.270  28.032  1.00  0.00     0.016 A 
ATOM     35  C   UNL A   1      41.868  21.943  25.797  1.00  0.00     0.016 A 
ATOM     36  C   UNL A   1      41.684  22.467  28.547  1.00  0.00     0.010 A 
ATOM     37  C   UNL A   1      42.351  23.147  26.315  1.00  0.00     0.010 A 
ATOM     38  C   UNL A   1      42.221  23.431  27.686  1.00  0.00    -0.014 A 
BRANCH  38  39
ATOM     39  C   UNL A   1      42.513  24.784  28.211  1.00  0.00     0.031 A 
ATOM     40  C   UNL A   1      43.932  25.147  28.550  1.00  0.00     0.074 A 
ATOM     41  C   UNL A   1      41.534  25.699  28.309  1.00  0.00     0.049 A 
ATOM     42  N   UNL A   1      44.411  26.274  29.012  1.00  0.00    -0.248 NA
ATOM     43  C   UNL A   1      44.952  24.112  28.314  1.00  0.00     0.031 C 
ATOM     44  C   UNL A   1      40.131  25.477  27.954  1.00  0.00     0.029 A 
ATOM     45  N   UNL A   1      41.572  27.004  28.729  1.00  0.00    -0.354 N 
ATOM     46  C   UNL A   1      45.781  26.078  29.134  1.00  0.00     0.074 A 
ATOM     47  C   UNL A   1      46.057  24.724  28.711  1.00  0.00     0.031 C 
ATOM     48  C   UNL A   1      39.443  26.610  28.169  1.00  0.00     0.029 A 
ATOM     49  C   UNL A   1      40.347  27.621  28.712  1.00  0.00     0.049 A 
ATOM     50  H   UNL A   1      42.400  27.453  29.015  1.00  0.00     0.167 HD
ATOM     51  C   UNL A   1      46.725  26.953  29.556  1.00  0.00     0.037 A 
ATOM     52  C   UNL A   1      39.994  28.857  29.110  1.00  0.00     0.037 A 
ATOM     53  C   UNL A   1      46.447  28.299  29.981  1.00  0.00     0.049 A 
ATOM     54  C   UNL A   1      41.051  29.784  29.648  1.00  0.00     0.074 A 
ATOM     55  C   UNL A   1      47.330  29.259  30.442  1.00  0.00     0.029 A 
ATOM     56  N   UNL A   1      45.184  28.872  29.999  1.00  0.00    -0.354 N 
ATOM     57  N   UNL A   1      42.341  29.585  29.769  1.00  0.00    -0.248 NA
ATOM     58  C   UNL A   1      40.600  31.106  30.103  1.00  0.00     0.031 C 
ATOM     59  C   UNL A   1      46.596  30.402  30.776  1.00  0.00     0.029 A 
ATOM     60  C   UNL A   1      45.262  30.169  30.480  1.00  0.00     0.049 A 
ATOM     61  H   UNL A   1      44.357  28.425  29.713  1.00  0.00     0.167 HD
ATOM     62  C   UNL A   1      42.859  30.761  30.296  1.00  0.00     0.074 A 
ATOM     63  C   UNL A   1      41.745  31.674  30.451  1.00  0.00     0.031 C 
ATOM     64  C   UNL A   1      44.140  31.060  30.625  1.00  0.00     0.037 A 
BRANCH  51  65
ATOM     65  C   UNL A   1      48.140  26.458  29.612  1.00  0.00     0.057 A 
ATOM     66  C   UNL A   1      48.651  25.804  30.739  1.00  0.00     0.134 A 
ATOM     67  C   UNL A   1      49.000  26.635  28.521  1.00  0.00     0.134 A 
ATOM     68  F   UNL A   1      47.883  25.618  31.824  1.00  0.00    -0.206 F 
ATOM     69  C   UNL A   1      49.976  25.363  30.788  1.00  0.00     0.040 A 
ATOM     70  C   UNL A   1      50.317  26.179  28.549  1.00  0.00     0.040 A 
ATOM     71  F   UNL A   1      48.572  27.256  27.411  1.00  0.00    -0.206 F 
ATOM     72  C   UNL A   1      50.811  25.547  29.688  1.00  0.00     0.006 A 
ENDBRANCH  51  65
BRANCH  52  73
ATOM     73  C   UNL A   1      38.576  29.286  29.037  1.00  0.00     0.057 A 
ATOM     74  C   UNL A   1      37.745  29.243  30.163  1.00  0.00     0.134 A 
ATOM     75  C   UNL A   1      38.010  29.730  27.836  1.00  0.00     0.134 A 
ATOM     76  F   UNL A   1      38.222  28.804  31.337  1.00  0.00    -0.206 F 
ATOM     77  C   UNL A   1      36.399  29.609  30.093  1.00  0.00     0.040 A 
ATOM     78  C   UNL A   1      36.674  30.123  27.756  1.00  0.00     0.040 A 
ATOM     79  F   UNL A   1      38.754  29.795  26.721  1.00  0.00    -0.206 F 
ATOM     80  C   UNL A   1      35.862  30.056  28.887  1.00  0.00     0.006 A 
ENDBRANCH  52  73
BRANCH  64  81
ATOM     81  C   UNL A   1      44.400  32.438  31.159  1.00  0.00     0.057 A 
ATOM     82  C   UNL A   1      44.682  33.517  30.313  1.00  0.00     0.134 A 
ATOM     83  C   UNL A   1      44.350  32.690  32.536  1.00  0.00     0.134 A 
ATOM     84  F   UNL A   1      44.757  33.338  28.985  1.00  0.00    -0.206 F 
ATOM     85  C   UNL A   1      44.936  34.793  30.819  1.00  0.00     0.040 A 
ATOM     86  C   UNL A   1      44.578  33.966  33.053  1.00  0.00     0.040 A 
ATOM     87  F   UNL A   1      44.076  31.701  33.401  1.00  0.00    -0.206 F 
ATOM     88  C   UNL A   1      44.879  35.020  32.193  1.00  0.00     0.006 A 
ENDBRANCH  64  81
ENDBRANCH  38  39
ENDBRANCH  31  33
ENDBRANCH  30  31
ENDBRANCH  29  30
ENDBRANCH   1  29
TORSDOF 17
ENDMDL
