MODEL 1
REMARK VINA RESULT:     -10.2      0.000      0.000
REMARK SMILES Cc1nc(C(F)(F)F)c(C(=O)OCCOC(=O)c2ccc(-c3c4nc(c(-c5c(F)cccc5F)c5ccc([nH]5)c(-c5c(F)cccc5F)c5nc(c(-c6c(F)cccc6F)c6ccc3[nH]6)C=C5)C=C4)cc2)s1
REMARK SMILES IDX 14 1 13 2 12 3 10 4 11 5 9 6 1 7 2 8 3 9 72 10 4 11 5 12
REMARK SMILES IDX 6 13 7 14 8 15 15 16 16 17 17 18 18 19 19 20 71 21 20 22
REMARK SMILES IDX 70 23 21 24 22 25 23 26 64 27 24 28 69 29 63 30 65 31 25 32
REMARK SMILES IDX 68 33 62 34 61 35 26 37 52 38 35 39 51 40 36 41 39 42 50 43
REMARK SMILES IDX 66 44 37 45 38 46 49 48 67 49 40 50 27 51 28 52 33 53 29 54
REMARK SMILES IDX 30 55 32 56 34 57 31 58 53 59 54 60 59 61 55 62 56 63 58 64
REMARK SMILES IDX 60 65 57 66 41 67 42 68 47 69 43 70 44 71 46 72 48 73 45 74
REMARK H PARENT 65 36 39 47
REMARK Flexibility Score: inf
ROOT
ATOM      1  C   UNL A   1      43.812  21.965  25.179  1.00  0.00     0.275 C 
ENDROOT
BRANCH   1   2
ATOM      2  C   UNL A   1      42.753  21.109  25.882  1.00  0.00     0.275 C 
BRANCH   2   3
ATOM      3  O   UNL A   1      41.424  21.632  25.681  1.00  0.00    -0.458 OA
BRANCH   3   4
ATOM      4  C   UNL A   1      40.469  21.252  26.577  1.00  0.00     0.350 C 
ATOM      5  O   UNL A   1      40.711  20.774  27.674  1.00  0.00    -0.245 OA
BRANCH   4   6
ATOM      6  C   UNL A   1      39.152  21.596  26.079  1.00  0.00     0.145 A 
ATOM      7  C   UNL A   1      35.545  20.871  24.850  1.00  0.00     0.079 C 
ATOM      8  C   UNL A   1      36.869  21.410  25.266  1.00  0.00     0.091 A 
ATOM      9  N   UNL A   1      37.075  22.622  25.733  1.00  0.00    -0.236 NA
ATOM     10  S   UNL A   1      38.266  20.429  25.172  1.00  0.00    -0.111 S 
ATOM     11  C   UNL A   1      38.402  22.760  26.179  1.00  0.00     0.170 A 
BRANCH  11  12
ATOM     12  C   UNL A   1      38.887  24.081  26.703  1.00  0.00     0.435 C 
ATOM     13  F   UNL A   1      37.931  25.044  26.675  1.00  0.00    -0.164 F 
ATOM     14  F   UNL A   1      39.310  23.980  27.994  1.00  0.00    -0.164 F 
ATOM     15  F   UNL A   1      39.948  24.562  26.000  1.00  0.00    -0.164 F 
ENDBRANCH  11  12
ENDBRANCH   4   6
ENDBRANCH   3   4
ENDBRANCH   2   3
ENDBRANCH   1   2
BRANCH   1  16
ATOM     16  O   UNL A   1      43.299  23.262  24.813  1.00  0.00    -0.458 OA
BRANCH  16  17
ATOM     17  C   UNL A   1      44.075  24.304  25.185  1.00  0.00     0.338 C 
ATOM     18  O   UNL A   1      45.111  24.678  24.659  1.00  0.00    -0.246 OA
BRANCH  17  19
ATOM     19  C   UNL A   1      43.405  25.084  26.237  1.00  0.00     0.060 A 
ATOM     20  C   UNL A   1      43.591  26.464  26.202  1.00  0.00     0.016 A 
ATOM     21  C   UNL A   1      42.713  24.494  27.293  1.00  0.00     0.016 A 
ATOM     22  C   UNL A   1      43.117  27.271  27.228  1.00  0.00     0.010 A 
ATOM     23  C   UNL A   1      42.209  25.310  28.318  1.00  0.00     0.010 A 
ATOM     24  C   UNL A   1      42.421  26.702  28.301  1.00  0.00    -0.014 A 
BRANCH  24  25
ATOM     25  C   UNL A   1      41.966  27.577  29.412  1.00  0.00     0.031 A 
ATOM     26  C   UNL A   1      42.717  27.595  30.714  1.00  0.00     0.074 A 
ATOM     27  C   UNL A   1      40.913  28.398  29.233  1.00  0.00     0.049 A 
ATOM     28  N   UNL A   1      42.433  28.225  31.826  1.00  0.00    -0.248 NA
ATOM     29  C   UNL A   1      43.952  26.797  30.775  1.00  0.00     0.031 C 
ATOM     30  C   UNL A   1      40.138  28.520  27.996  1.00  0.00     0.029 A 
ATOM     31  N   UNL A   1      40.316  29.289  30.090  1.00  0.00    -0.354 N 
ATOM     32  C   UNL A   1      43.431  27.875  32.727  1.00  0.00     0.074 A 
ATOM     33  C   UNL A   1      44.322  26.967  32.036  1.00  0.00     0.031 C 
ATOM     34  C   UNL A   1      39.178  29.443  28.170  1.00  0.00     0.029 A 
ATOM     35  C   UNL A   1      39.227  29.928  29.545  1.00  0.00     0.049 A 
ATOM     36  H   UNL A   1      40.637  29.454  31.005  1.00  0.00     0.167 HD
ATOM     37  C   UNL A   1      43.588  28.277  34.011  1.00  0.00     0.037 A 
ATOM     38  C   UNL A   1      38.346  30.780  30.101  1.00  0.00     0.037 A 
ATOM     39  C   UNL A   1      42.713  29.203  34.683  1.00  0.00     0.049 A 
ATOM     40  C   UNL A   1      38.508  31.161  31.547  1.00  0.00     0.074 A 
ATOM     41  C   UNL A   1      42.795  29.680  35.981  1.00  0.00     0.029 A 
ATOM     42  N   UNL A   1      41.600  29.797  34.109  1.00  0.00    -0.354 N 
ATOM     43  N   UNL A   1      39.442  30.807  32.396  1.00  0.00    -0.248 NA
ATOM     44  C   UNL A   1      37.488  32.054  32.116  1.00  0.00     0.031 C 
ATOM     45  C   UNL A   1      41.705  30.526  36.206  1.00  0.00     0.029 A 
ATOM     46  C   UNL A   1      40.974  30.619  35.033  1.00  0.00     0.049 A 
ATOM     47  H   UNL A   1      41.298  29.656  33.183  1.00  0.00     0.167 HD
ATOM     48  C   UNL A   1      39.137  31.449  33.588  1.00  0.00     0.074 A 
ATOM     49  C   UNL A   1      37.940  32.229  33.348  1.00  0.00     0.031 C 
ATOM     50  C   UNL A   1      39.789  31.397  34.776  1.00  0.00     0.037 A 
BRANCH  37  51
ATOM     51  C   UNL A   1      44.732  27.691  34.787  1.00  0.00     0.057 A 
ATOM     52  C   UNL A   1      45.984  28.313  34.857  1.00  0.00     0.134 A 
ATOM     53  C   UNL A   1      44.561  26.503  35.511  1.00  0.00     0.134 A 
ATOM     54  F   UNL A   1      46.219  29.446  34.178  1.00  0.00    -0.206 F 
ATOM     55  C   UNL A   1      47.032  27.764  35.600  1.00  0.00     0.040 A 
ATOM     56  C   UNL A   1      45.592  25.958  36.278  1.00  0.00     0.040 A 
ATOM     57  F   UNL A   1      43.385  25.858  35.494  1.00  0.00    -0.206 F 
ATOM     58  C   UNL A   1      46.835  26.587  36.320  1.00  0.00     0.006 A 
ENDBRANCH  37  51
BRANCH  38  59
ATOM     59  C   UNL A   1      37.207  31.301  29.303  1.00  0.00     0.057 A 
ATOM     60  C   UNL A   1      37.231  32.589  28.755  1.00  0.00     0.134 A 
ATOM     61  C   UNL A   1      36.059  30.529  29.082  1.00  0.00     0.134 A 
ATOM     62  F   UNL A   1      38.292  33.386  28.951  1.00  0.00    -0.206 F 
ATOM     63  C   UNL A   1      36.150  33.096  28.032  1.00  0.00     0.040 A 
ATOM     64  C   UNL A   1      34.984  31.012  28.335  1.00  0.00     0.040 A 
ATOM     65  F   UNL A   1      35.973  29.286  29.579  1.00  0.00    -0.206 F 
ATOM     66  C   UNL A   1      35.024  32.303  27.815  1.00  0.00     0.006 A 
ENDBRANCH  38  59
BRANCH  50  67
ATOM     67  C   UNL A   1      39.246  32.239  35.893  1.00  0.00     0.057 A 
ATOM     68  C   UNL A   1      39.634  33.573  36.074  1.00  0.00     0.134 A 
ATOM     69  C   UNL A   1      38.296  31.716  36.780  1.00  0.00     0.134 A 
ATOM     70  F   UNL A   1      40.551  34.129  35.267  1.00  0.00    -0.206 F 
ATOM     71  C   UNL A   1      39.114  34.349  37.110  1.00  0.00     0.040 A 
ATOM     72  C   UNL A   1      37.748  32.490  37.803  1.00  0.00     0.040 A 
ATOM     73  F   UNL A   1      37.875  30.448  36.657  1.00  0.00    -0.206 F 
ATOM     74  C   UNL A   1      38.161  33.810  37.974  1.00  0.00     0.006 A 
ENDBRANCH  50  67
ENDBRANCH  24  25
ENDBRANCH  17  19
ENDBRANCH  16  17
ENDBRANCH   1  16
TORSDOF 12
ENDMDL
MODEL 2
REMARK VINA RESULT:     -10.0      5.332     10.338
REMARK SMILES Cc1nc(C(F)(F)F)c(C(=O)OCCOC(=O)c2ccc(-c3c4nc(c(-c5c(F)cccc5F)c5ccc([nH]5)c(-c5c(F)cccc5F)c5nc(c(-c6c(F)cccc6F)c6ccc3[nH]6)C=C5)C=C4)cc2)s1
REMARK SMILES IDX 14 1 13 2 12 3 10 4 11 5 9 6 1 7 2 8 3 9 72 10 4 11 5 12
REMARK SMILES IDX 6 13 7 14 8 15 15 16 16 17 17 18 18 19 19 20 71 21 20 22
REMARK SMILES IDX 70 23 21 24 22 25 23 26 64 27 24 28 69 29 63 30 65 31 25 32
REMARK SMILES IDX 68 33 62 34 61 35 26 37 52 38 35 39 51 40 36 41 39 42 50 43
REMARK SMILES IDX 66 44 37 45 38 46 49 48 67 49 40 50 27 51 28 52 33 53 29 54
REMARK SMILES IDX 30 55 32 56 34 57 31 58 53 59 54 60 59 61 55 62 56 63 58 64
REMARK SMILES IDX 60 65 57 66 41 67 42 68 47 69 43 70 44 71 46 72 48 73 45 74
REMARK H PARENT 65 36 39 47
REMARK Flexibility Score: inf
ROOT
ATOM      1  C   UNL A   1      34.416  33.715  31.597  1.00  0.00     0.275 C 
ENDROOT
BRANCH   1   2
ATOM      2  C   UNL A   1      34.258  33.835  30.077  1.00  0.00     0.275 C 
BRANCH   2   3
ATOM      3  O   UNL A   1      34.120  32.543  29.451  1.00  0.00    -0.458 OA
BRANCH   3   4
ATOM      4  C   UNL A   1      34.586  32.421  28.175  1.00  0.00     0.350 C 
ATOM      5  O   UNL A   1      35.299  33.245  27.626  1.00  0.00    -0.245 OA
BRANCH   4   6
ATOM      6  C   UNL A   1      34.201  31.138  27.623  1.00  0.00     0.145 A 
ATOM      7  C   UNL A   1      32.144  28.741  25.371  1.00  0.00     0.079 C 
ATOM      8  C   UNL A   1      33.053  29.432  26.326  1.00  0.00     0.091 A 
ATOM      9  N   UNL A   1      34.231  28.985  26.702  1.00  0.00    -0.236 NA
ATOM     10  S   UNL A   1      32.604  30.933  27.009  1.00  0.00    -0.111 S 
ATOM     11  C   UNL A   1      34.899  29.945  27.482  1.00  0.00     0.170 A 
BRANCH  11  12
ATOM     12  C   UNL A   1      36.243  29.634  28.075  1.00  0.00     0.435 C 
ATOM     13  F   UNL A   1      36.220  29.567  29.430  1.00  0.00    -0.164 F 
ATOM     14  F   UNL A   1      36.720  28.439  27.626  1.00  0.00    -0.164 F 
ATOM     15  F   UNL A   1      37.184  30.558  27.744  1.00  0.00    -0.164 F 
ENDBRANCH  11  12
ENDBRANCH   4   6
ENDBRANCH   3   4
ENDBRANCH   2   3
ENDBRANCH   1   2
BRANCH   1  16
ATOM     16  O   UNL A   1      34.803  32.384  31.994  1.00  0.00    -0.458 OA
BRANCH  16  17
ATOM     17  C   UNL A   1      35.961  32.314  32.688  1.00  0.00     0.338 C 
ATOM     18  O   UNL A   1      36.121  32.523  33.879  1.00  0.00    -0.246 OA
BRANCH  17  19
ATOM     19  C   UNL A   1      37.026  31.755  31.841  1.00  0.00     0.060 A 
ATOM     20  C   UNL A   1      37.702  30.646  32.343  1.00  0.00     0.016 A 
ATOM     21  C   UNL A   1      37.438  32.351  30.651  1.00  0.00     0.016 A 
ATOM     22  C   UNL A   1      38.812  30.133  31.685  1.00  0.00     0.010 A 
ATOM     23  C   UNL A   1      38.543  31.818  29.969  1.00  0.00     0.010 A 
ATOM     24  C   UNL A   1      39.247  30.715  30.490  1.00  0.00    -0.014 A 
BRANCH  24  25
ATOM     25  C   UNL A   1      40.466  30.182  29.828  1.00  0.00     0.031 A 
ATOM     26  C   UNL A   1      41.675  31.059  29.652  1.00  0.00     0.074 A 
ATOM     27  C   UNL A   1      40.509  28.894  29.436  1.00  0.00     0.049 A 
ATOM     28  N   UNL A   1      42.799  30.806  29.032  1.00  0.00    -0.248 NA
ATOM     29  C   UNL A   1      41.610  32.399  30.255  1.00  0.00     0.031 C 
ATOM     30  C   UNL A   1      39.426  27.923  29.606  1.00  0.00     0.029 A 
ATOM     31  N   UNL A   1      41.505  28.177  28.819  1.00  0.00    -0.354 N 
ATOM     32  C   UNL A   1      43.560  31.962  29.138  1.00  0.00     0.074 A 
ATOM     33  C   UNL A   1      42.766  32.924  29.873  1.00  0.00     0.031 C 
ATOM     34  C   UNL A   1      39.821  26.736  29.119  1.00  0.00     0.029 A 
ATOM     35  C   UNL A   1      41.154  26.877  28.545  1.00  0.00     0.049 A 
ATOM     36  H   UNL A   1      42.384  28.558  28.596  1.00  0.00     0.167 HD
ATOM     37  C   UNL A   1      44.809  32.198  28.667  1.00  0.00     0.037 A 
ATOM     38  C   UNL A   1      41.818  25.917  27.874  1.00  0.00     0.037 A 
ATOM     39  C   UNL A   1      45.605  31.227  27.961  1.00  0.00     0.049 A 
ATOM     40  C   UNL A   1      43.176  26.224  27.307  1.00  0.00     0.074 A 
ATOM     41  C   UNL A   1      46.885  31.368  27.452  1.00  0.00     0.029 A 
ATOM     42  N   UNL A   1      45.199  29.934  27.668  1.00  0.00    -0.354 N 
ATOM     43  N   UNL A   1      43.878  27.329  27.394  1.00  0.00    -0.248 NA
ATOM     44  C   UNL A   1      43.833  25.156  26.540  1.00  0.00     0.031 C 
ATOM     45  C   UNL A   1      47.236  30.175  26.811  1.00  0.00     0.029 A 
ATOM     46  C   UNL A   1      46.196  29.273  26.968  1.00  0.00     0.049 A 
ATOM     47  H   UNL A   1      44.332  29.543  27.921  1.00  0.00     0.167 HD
ATOM     48  C   UNL A   1      45.064  27.081  26.716  1.00  0.00     0.074 A 
ATOM     49  C   UNL A   1      44.994  25.716  26.237  1.00  0.00     0.031 C 
ATOM     50  C   UNL A   1      46.116  27.911  26.507  1.00  0.00     0.037 A 
BRANCH  37  51
ATOM     51  C   UNL A   1      45.380  33.572  28.869  1.00  0.00     0.057 A 
ATOM     52  C   UNL A   1      45.159  34.613  27.959  1.00  0.00     0.134 A 
ATOM     53  C   UNL A   1      46.129  33.865  30.016  1.00  0.00     0.134 A 
ATOM     54  F   UNL A   1      44.461  34.397  26.834  1.00  0.00    -0.206 F 
ATOM     55  C   UNL A   1      45.682  35.891  28.172  1.00  0.00     0.040 A 
ATOM     56  C   UNL A   1      46.635  35.145  30.253  1.00  0.00     0.040 A 
ATOM     57  F   UNL A   1      46.373  32.916  30.932  1.00  0.00    -0.206 F 
ATOM     58  C   UNL A   1      46.416  36.162  29.325  1.00  0.00     0.006 A 
ENDBRANCH  37  51
BRANCH  38  59
ATOM     59  C   UNL A   1      41.193  24.586  27.664  1.00  0.00     0.057 A 
ATOM     60  C   UNL A   1      41.624  23.459  28.376  1.00  0.00     0.134 A 
ATOM     61  C   UNL A   1      40.161  24.404  26.735  1.00  0.00     0.134 A 
ATOM     62  F   UNL A   1      42.624  23.564  29.263  1.00  0.00    -0.206 F 
ATOM     63  C   UNL A   1      41.062  22.200  28.160  1.00  0.00     0.040 A 
ATOM     64  C   UNL A   1      39.570  23.156  26.531  1.00  0.00     0.040 A 
ATOM     65  F   UNL A   1      39.702  25.442  26.021  1.00  0.00    -0.206 F 
ATOM     66  C   UNL A   1      40.027  22.047  27.238  1.00  0.00     0.006 A 
ENDBRANCH  38  59
BRANCH  50  67
ATOM     67  C   UNL A   1      47.293  27.350  25.765  1.00  0.00     0.057 A 
ATOM     68  C   UNL A   1      47.413  27.458  24.373  1.00  0.00     0.134 A 
ATOM     69  C   UNL A   1      48.337  26.723  26.457  1.00  0.00     0.134 A 
ATOM     70  F   UNL A   1      46.441  28.035  23.650  1.00  0.00    -0.206 F 
ATOM     71  C   UNL A   1      48.518  26.942  23.695  1.00  0.00     0.040 A 
ATOM     72  C   UNL A   1      49.460  26.227  25.794  1.00  0.00     0.040 A 
ATOM     73  F   UNL A   1      48.288  26.593  27.791  1.00  0.00    -0.206 F 
ATOM     74  C   UNL A   1      49.550  26.331  24.407  1.00  0.00     0.006 A 
ENDBRANCH  50  67
ENDBRANCH  24  25
ENDBRANCH  17  19
ENDBRANCH  16  17
ENDBRANCH   1  16
TORSDOF 12
ENDMDL
MODEL 3
REMARK VINA RESULT:      -9.9      5.369     10.832
REMARK SMILES Cc1nc(C(F)(F)F)c(C(=O)OCCOC(=O)c2ccc(-c3c4nc(c(-c5c(F)cccc5F)c5ccc([nH]5)c(-c5c(F)cccc5F)c5nc(c(-c6c(F)cccc6F)c6ccc3[nH]6)C=C5)C=C4)cc2)s1
REMARK SMILES IDX 14 1 13 2 12 3 10 4 11 5 9 6 1 7 2 8 3 9 72 10 4 11 5 12
REMARK SMILES IDX 6 13 7 14 8 15 15 16 16 17 17 18 18 19 19 20 71 21 20 22
REMARK SMILES IDX 70 23 21 24 22 25 23 26 64 27 24 28 69 29 63 30 65 31 25 32
REMARK SMILES IDX 68 33 62 34 61 35 26 37 52 38 35 39 51 40 36 41 39 42 50 43
REMARK SMILES IDX 66 44 37 45 38 46 49 48 67 49 40 50 27 51 28 52 33 53 29 54
REMARK SMILES IDX 30 55 32 56 34 57 31 58 53 59 54 60 59 61 55 62 56 63 58 64
REMARK SMILES IDX 60 65 57 66 41 67 42 68 47 69 43 70 44 71 46 72 48 73 45 74
REMARK H PARENT 65 36 39 47
REMARK Flexibility Score: inf
ROOT
ATOM      1  C   UNL A   1      34.376  32.239  28.768  1.00  0.00     0.275 C 
ENDROOT
BRANCH   1   2
ATOM      2  C   UNL A   1      34.335  33.726  28.398  1.00  0.00     0.275 C 
BRANCH   2   3
ATOM      3  O   UNL A   1      34.697  34.564  29.514  1.00  0.00    -0.458 OA
BRANCH   3   4
ATOM      4  C   UNL A   1      33.728  34.811  30.441  1.00  0.00     0.350 C 
ATOM      5  O   UNL A   1      32.549  34.978  30.171  1.00  0.00    -0.245 OA
BRANCH   4   6
ATOM      6  C   UNL A   1      34.285  34.741  31.777  1.00  0.00     0.145 A 
ATOM      7  C   UNL A   1      36.647  33.406  34.549  1.00  0.00     0.079 C 
ATOM      8  C   UNL A   1      35.636  34.074  33.685  1.00  0.00     0.091 A 
ATOM      9  N   UNL A   1      35.160  35.284  33.881  1.00  0.00    -0.236 NA
ATOM     10  S   UNL A   1      35.019  33.274  32.306  1.00  0.00    -0.111 S 
ATOM     11  C   UNL A   1      34.348  35.677  32.802  1.00  0.00     0.170 A 
BRANCH  11  12
ATOM     12  C   UNL A   1      33.645  37.003  32.831  1.00  0.00     0.435 C 
ATOM     13  F   UNL A   1      33.835  37.726  31.698  1.00  0.00    -0.164 F 
ATOM     14  F   UNL A   1      32.300  36.851  32.985  1.00  0.00    -0.164 F 
ATOM     15  F   UNL A   1      34.052  37.785  33.867  1.00  0.00    -0.164 F 
ENDBRANCH  11  12
ENDBRANCH   4   6
ENDBRANCH   3   4
ENDBRANCH   2   3
ENDBRANCH   1   2
BRANCH   1  16
ATOM     16  O   UNL A   1      34.640  31.406  27.622  1.00  0.00    -0.458 OA
BRANCH  16  17
ATOM     17  C   UNL A   1      34.809  30.094  27.901  1.00  0.00     0.338 C 
ATOM     18  O   UNL A   1      34.007  29.192  27.722  1.00  0.00    -0.246 OA
BRANCH  17  19
ATOM     19  C   UNL A   1      36.202  29.836  28.299  1.00  0.00     0.060 A 
ATOM     20  C   UNL A   1      37.176  30.055  27.329  1.00  0.00     0.016 A 
ATOM     21  C   UNL A   1      36.548  29.290  29.534  1.00  0.00     0.016 A 
ATOM     22  C   UNL A   1      38.500  29.708  27.561  1.00  0.00     0.010 A 
ATOM     23  C   UNL A   1      37.890  28.963  29.781  1.00  0.00     0.010 A 
ATOM     24  C   UNL A   1      38.873  29.156  28.791  1.00  0.00    -0.014 A 
BRANCH  24  25
ATOM     25  C   UNL A   1      40.286  28.747  29.000  1.00  0.00     0.031 A 
ATOM     26  C   UNL A   1      41.251  29.682  29.675  1.00  0.00     0.074 A 
ATOM     27  C   UNL A   1      40.690  27.514  28.635  1.00  0.00     0.049 A 
ATOM     28  N   UNL A   1      42.537  29.543  29.875  1.00  0.00    -0.248 NA
ATOM     29  C   UNL A   1      40.695  30.942  30.193  1.00  0.00     0.031 C 
ATOM     30  C   UNL A   1      39.836  26.491  28.028  1.00  0.00     0.029 A 
ATOM     31  N   UNL A   1      41.920  26.911  28.727  1.00  0.00    -0.354 N 
ATOM     32  C   UNL A   1      42.951  30.707  30.509  1.00  0.00     0.074 A 
ATOM     33  C   UNL A   1      41.780  31.548  30.652  1.00  0.00     0.031 C 
ATOM     34  C   UNL A   1      40.564  25.383  27.815  1.00  0.00     0.029 A 
ATOM     35  C   UNL A   1      41.945  25.638  28.208  1.00  0.00     0.049 A 
ATOM     36  H   UNL A   1      42.706  27.347  29.126  1.00  0.00     0.167 HD
ATOM     37  C   UNL A   1      44.192  31.041  30.937  1.00  0.00     0.037 A 
ATOM     38  C   UNL A   1      42.974  24.786  28.034  1.00  0.00     0.037 A 
ATOM     39  C   UNL A   1      45.347  30.187  30.818  1.00  0.00     0.049 A 
ATOM     40  C   UNL A   1      44.353  25.206  28.460  1.00  0.00     0.074 A 
ATOM     41  C   UNL A   1      46.646  30.432  31.229  1.00  0.00     0.029 A 
ATOM     42  N   UNL A   1      45.339  28.923  30.250  1.00  0.00    -0.354 N 
ATOM     43  N   UNL A   1      44.737  26.319  29.039  1.00  0.00    -0.248 NA
ATOM     44  C   UNL A   1      45.445  24.258  28.200  1.00  0.00     0.031 C 
ATOM     45  C   UNL A   1      47.434  29.334  30.868  1.00  0.00     0.029 A 
ATOM     46  C   UNL A   1      46.616  28.383  30.281  1.00  0.00     0.049 A 
ATOM     47  H   UNL A   1      44.545  28.473  29.880  1.00  0.00     0.167 HD
ATOM     48  C   UNL A   1      46.106  26.194  29.234  1.00  0.00     0.074 A 
ATOM     49  C   UNL A   1      46.483  24.891  28.726  1.00  0.00     0.031 C 
ATOM     50  C   UNL A   1      46.973  27.080  29.782  1.00  0.00     0.037 A 
BRANCH  37  51
ATOM     51  C   UNL A   1      44.377  32.403  31.542  1.00  0.00     0.057 A 
ATOM     52  C   UNL A   1      44.277  32.627  32.920  1.00  0.00     0.134 A 
ATOM     53  C   UNL A   1      44.700  33.500  30.731  1.00  0.00     0.134 A 
ATOM     54  F   UNL A   1      43.959  31.623  33.751  1.00  0.00    -0.206 F 
ATOM     55  C   UNL A   1      44.471  33.897  33.469  1.00  0.00     0.040 A 
ATOM     56  C   UNL A   1      44.921  34.768  31.271  1.00  0.00     0.040 A 
ATOM     57  F   UNL A   1      44.818  33.354  29.403  1.00  0.00    -0.206 F 
ATOM     58  C   UNL A   1      44.801  34.970  32.644  1.00  0.00     0.006 A 
ENDBRANCH  37  51
BRANCH  38  59
ATOM     59  C   UNL A   1      42.748  23.466  27.393  1.00  0.00     0.057 A 
ATOM     60  C   UNL A   1      42.894  23.294  26.011  1.00  0.00     0.134 A 
ATOM     61  C   UNL A   1      42.364  22.348  28.144  1.00  0.00     0.134 A 
ATOM     62  F   UNL A   1      43.236  24.332  25.234  1.00  0.00    -0.206 F 
ATOM     63  C   UNL A   1      42.651  22.063  25.398  1.00  0.00     0.040 A 
ATOM     64  C   UNL A   1      42.148  21.104  27.549  1.00  0.00     0.040 A 
ATOM     65  F   UNL A   1      42.208  22.445  29.472  1.00  0.00    -0.206 F 
ATOM     66  C   UNL A   1      42.282  20.962  26.170  1.00  0.00     0.006 A 
ENDBRANCH  38  59
BRANCH  50  67
ATOM     67  C   UNL A   1      48.407  26.652  29.900  1.00  0.00     0.057 A 
ATOM     68  C   UNL A   1      49.366  26.998  28.939  1.00  0.00     0.134 A 
ATOM     69  C   UNL A   1      48.838  25.911  31.007  1.00  0.00     0.134 A 
ATOM     70  F   UNL A   1      49.014  27.694  27.848  1.00  0.00    -0.206 F 
ATOM     71  C   UNL A   1      50.699  26.603  29.066  1.00  0.00     0.040 A 
ATOM     72  C   UNL A   1      50.173  25.533  31.159  1.00  0.00     0.040 A 
ATOM     73  F   UNL A   1      47.972  25.553  31.967  1.00  0.00    -0.206 F 
ATOM     74  C   UNL A   1      51.107  25.875  30.182  1.00  0.00     0.006 A 
ENDBRANCH  50  67
ENDBRANCH  24  25
ENDBRANCH  17  19
ENDBRANCH  16  17
ENDBRANCH   1  16
TORSDOF 12
ENDMDL
