MODEL 1
REMARK VINA RESULT:     -11.3      0.000      0.000
REMARK SMILES O=C(CCC[NH2+][C@H]1CCOC2(CCOCC2)C1)OCCOC(=O)c1ccc(-c2c3nc(c(-c4c(F)cccc4F)c4ccc([nH]4)c(-c4c(F)cccc4F)c4nc(c(-c5c(F)cccc5F)c5ccc2[nH]5)C=C4)C=C3)cc1
REMARK SMILES IDX 19 1 18 2 2 3 1 4 3 5 4 6 5 7 6 8 7 11 8 12 17 13 9 14 11 15
REMARK SMILES IDX 10 16 12 17 16 18 13 19 15 20 14 21 20 22 21 23 22 24 23 25
REMARK SMILES IDX 24 26 25 27 77 28 26 29 76 30 27 31 28 32 29 33 70 34 30 35
REMARK SMILES IDX 75 36 69 37 71 38 31 39 74 40 68 41 67 42 32 44 58 45 41 46
REMARK SMILES IDX 57 47 42 48 45 49 56 50 72 51 43 52 44 53 55 55 73 56 46 57
REMARK SMILES IDX 33 58 34 59 39 60 35 61 36 62 38 63 40 64 37 65 59 66 60 67
REMARK SMILES IDX 65 68 61 69 62 70 64 71 66 72 63 73 47 74 48 75 53 76 49 77
REMARK SMILES IDX 50 78 52 79 54 80 51 81
REMARK H PARENT 6 9 6 10 71 43 45 54
REMARK Flexibility Score: inf
ROOT
ATOM      1  C   UNL A   1      44.172  21.437  25.486  1.00  0.00     0.274 C 
ENDROOT
BRANCH   1   2
ATOM      2  O   UNL A   1      42.825  21.426  25.991  1.00  0.00    -0.462 OA
BRANCH   2   3
ATOM      3  C   UNL A   1      42.115  20.269  25.903  1.00  0.00     0.306 C 
ATOM      4  O   UNL A   1      42.539  19.309  25.269  1.00  0.00    -0.252 OA
BRANCH   3   5
ATOM      5  C   UNL A   1      40.717  20.293  26.494  1.00  0.00     0.128 C 
BRANCH   5   6
ATOM      6  C   UNL A   1      40.360  21.619  27.159  1.00  0.00     0.073 C 
BRANCH   6   7
ATOM      7  C   UNL A   1      39.332  22.454  26.387  1.00  0.00     0.261 C 
BRANCH   7   8
ATOM      8  N   UNL A   1      38.564  21.682  25.413  1.00  0.00    -0.344 N 
ATOM      9  H   UNL A   1      38.586  20.707  25.710  1.00  0.00     0.346 HD
ATOM     10  H   UNL A   1      39.008  21.873  24.516  1.00  0.00     0.346 HD
BRANCH   8  11
ATOM     11  C   UNL A   1      37.148  22.056  25.223  1.00  0.00     0.187 C 
ATOM     12  C   UNL A   1      36.847  22.974  24.030  1.00  0.00     0.093 C 
ATOM     13  C   UNL A   1      36.249  20.804  25.138  1.00  0.00     0.100 C 
ATOM     14  C   UNL A   1      35.364  23.266  23.935  1.00  0.00     0.167 C 
ATOM     15  C   UNL A   1      34.757  21.143  24.921  1.00  0.00     0.078 C 
ATOM     16  O   UNL A   1      34.623  22.057  23.821  1.00  0.00    -0.374 OA
ATOM     17  C   UNL A   1      34.090  21.693  26.196  1.00  0.00     0.064 C 
ATOM     18  C   UNL A   1      33.989  19.873  24.497  1.00  0.00     0.064 C 
ATOM     19  C   UNL A   1      32.596  21.898  25.971  1.00  0.00     0.163 C 
ATOM     20  C   UNL A   1      32.497  20.165  24.366  1.00  0.00     0.163 C 
ATOM     21  O   UNL A   1      31.976  20.668  25.597  1.00  0.00    -0.381 OA
ENDBRANCH   8  11
ENDBRANCH   7   8
ENDBRANCH   6   7
ENDBRANCH   5   6
ENDBRANCH   3   5
ENDBRANCH   2   3
ENDBRANCH   1   2
BRANCH   1  22
ATOM     22  C   UNL A   1      44.373  22.402  24.314  1.00  0.00     0.275 C 
BRANCH  22  23
ATOM     23  O   UNL A   1      43.672  23.632  24.545  1.00  0.00    -0.458 OA
BRANCH  23  24
ATOM     24  C   UNL A   1      44.456  24.614  25.062  1.00  0.00     0.338 C 
ATOM     25  O   UNL A   1      45.562  24.944  24.676  1.00  0.00    -0.246 OA
BRANCH  24  26
ATOM     26  C   UNL A   1      43.680  25.389  26.050  1.00  0.00     0.060 A 
ATOM     27  C   UNL A   1      44.046  26.727  26.243  1.00  0.00     0.016 A 
ATOM     28  C   UNL A   1      42.612  24.838  26.767  1.00  0.00     0.016 A 
ATOM     29  C   UNL A   1      43.376  27.506  27.183  1.00  0.00     0.010 A 
ATOM     30  C   UNL A   1      41.943  25.620  27.713  1.00  0.00     0.010 A 
ATOM     31  C   UNL A   1      42.343  26.947  27.947  1.00  0.00    -0.014 A 
BRANCH  31  32
ATOM     32  C   UNL A   1      41.796  27.711  29.090  1.00  0.00     0.031 A 
ATOM     33  C   UNL A   1      42.474  27.597  30.426  1.00  0.00     0.074 A 
ATOM     34  C   UNL A   1      40.734  28.523  28.936  1.00  0.00     0.049 A 
ATOM     35  N   UNL A   1      42.201  28.205  31.551  1.00  0.00    -0.248 NA
ATOM     36  C   UNL A   1      43.618  26.672  30.505  1.00  0.00     0.031 C 
ATOM     37  C   UNL A   1      40.001  28.732  27.690  1.00  0.00     0.029 A 
ATOM     38  N   UNL A   1      40.091  29.323  29.846  1.00  0.00    -0.354 N 
ATOM     39  C   UNL A   1      43.143  27.752  32.463  1.00  0.00     0.074 A 
ATOM     40  C   UNL A   1      43.973  26.787  31.776  1.00  0.00     0.031 C 
ATOM     41  C   UNL A   1      38.997  29.598  27.917  1.00  0.00     0.029 A 
ATOM     42  C   UNL A   1      39.013  29.993  29.324  1.00  0.00     0.049 A 
ATOM     43  H   UNL A   1      40.374  29.408  30.785  1.00  0.00     0.167 HD
ATOM     44  C   UNL A   1      43.312  28.117  33.755  1.00  0.00     0.037 A 
ATOM     45  C   UNL A   1      38.136  30.825  29.920  1.00  0.00     0.037 A 
ATOM     46  C   UNL A   1      42.487  29.070  34.445  1.00  0.00     0.049 A 
ATOM     47  C   UNL A   1      38.306  31.161  31.378  1.00  0.00     0.074 A 
ATOM     48  C   UNL A   1      42.602  29.529  35.745  1.00  0.00     0.029 A 
ATOM     49  N   UNL A   1      41.385  29.702  33.891  1.00  0.00    -0.354 N 
ATOM     50  N   UNL A   1      39.239  30.775  32.214  1.00  0.00    -0.248 NA
ATOM     51  C   UNL A   1      37.302  32.056  31.974  1.00  0.00     0.031 C 
ATOM     52  C   UNL A   1      41.541  30.407  35.993  1.00  0.00     0.029 A 
ATOM     53  C   UNL A   1      40.790  30.523  34.834  1.00  0.00     0.049 A 
ATOM     54  H   UNL A   1      41.071  29.583  32.966  1.00  0.00     0.167 HD
ATOM     55  C   UNL A   1      38.951  31.396  33.422  1.00  0.00     0.074 A 
ATOM     56  C   UNL A   1      37.763  32.196  33.210  1.00  0.00     0.031 C 
ATOM     57  C   UNL A   1      39.610  31.315  34.603  1.00  0.00     0.037 A 
BRANCH  44  58
ATOM     58  C   UNL A   1      44.434  27.474  34.511  1.00  0.00     0.057 A 
ATOM     59  C   UNL A   1      44.261  26.261  35.188  1.00  0.00     0.134 A 
ATOM     60  C   UNL A   1      45.709  28.053  34.529  1.00  0.00     0.134 A 
ATOM     61  F   UNL A   1      43.059  25.665  35.220  1.00  0.00    -0.206 F 
ATOM     62  C   UNL A   1      45.316  25.649  35.868  1.00  0.00     0.040 A 
ATOM     63  C   UNL A   1      46.775  27.441  35.189  1.00  0.00     0.040 A 
ATOM     64  F   UNL A   1      45.938  29.215  33.899  1.00  0.00    -0.206 F 
ATOM     65  C   UNL A   1      46.580  26.238  35.863  1.00  0.00     0.006 A 
ENDBRANCH  44  58
BRANCH  45  66
ATOM     66  C   UNL A   1      37.005  31.398  29.149  1.00  0.00     0.057 A 
ATOM     67  C   UNL A   1      37.032  32.721  28.693  1.00  0.00     0.134 A 
ATOM     68  C   UNL A   1      35.851  30.650  28.892  1.00  0.00     0.134 A 
ATOM     69  F   UNL A   1      38.101  33.495  28.933  1.00  0.00    -0.206 F 
ATOM     70  C   UNL A   1      35.943  33.287  28.029  1.00  0.00     0.040 A 
ATOM     71  C   UNL A   1      34.763  31.197  28.210  1.00  0.00     0.040 A 
ATOM     72  F   UNL A   1      35.762  29.377  29.306  1.00  0.00    -0.206 F 
ATOM     73  C   UNL A   1      34.804  32.522  27.784  1.00  0.00     0.006 A 
ENDBRANCH  45  66
BRANCH  57  74
ATOM     74  C   UNL A   1      39.076  32.122  35.748  1.00  0.00     0.057 A 
ATOM     75  C   UNL A   1      38.218  31.565  36.703  1.00  0.00     0.134 A 
ATOM     76  C   UNL A   1      39.462  33.457  35.923  1.00  0.00     0.134 A 
ATOM     77  F   UNL A   1      37.802  30.295  36.584  1.00  0.00    -0.206 F 
ATOM     78  C   UNL A   1      37.748  32.312  37.784  1.00  0.00     0.040 A 
ATOM     79  C   UNL A   1      39.017  34.208  37.012  1.00  0.00     0.040 A 
ATOM     80  F   UNL A   1      40.290  34.048  35.048  1.00  0.00    -0.206 F 
ATOM     81  C   UNL A   1      38.153  33.636  37.944  1.00  0.00     0.006 A 
ENDBRANCH  57  74
ENDBRANCH  31  32
ENDBRANCH  24  26
ENDBRANCH  23  24
ENDBRANCH  22  23
ENDBRANCH   1  22
TORSDOF 15
ENDMDL
MODEL 2
REMARK VINA RESULT:     -10.7      0.661      6.476
REMARK SMILES O=C(CCC[NH2+][C@H]1CCOC2(CCOCC2)C1)OCCOC(=O)c1ccc(-c2c3nc(c(-c4c(F)cccc4F)c4ccc([nH]4)c(-c4c(F)cccc4F)c4nc(c(-c5c(F)cccc5F)c5ccc2[nH]5)C=C4)C=C3)cc1
REMARK SMILES IDX 19 1 18 2 2 3 1 4 3 5 4 6 5 7 6 8 7 11 8 12 17 13 9 14 11 15
REMARK SMILES IDX 10 16 12 17 16 18 13 19 15 20 14 21 20 22 21 23 22 24 23 25
REMARK SMILES IDX 24 26 25 27 77 28 26 29 76 30 27 31 28 32 29 33 70 34 30 35
REMARK SMILES IDX 75 36 69 37 71 38 31 39 74 40 68 41 67 42 32 44 58 45 41 46
REMARK SMILES IDX 57 47 42 48 45 49 56 50 72 51 43 52 44 53 55 55 73 56 46 57
REMARK SMILES IDX 33 58 34 59 39 60 35 61 36 62 38 63 40 64 37 65 59 66 60 67
REMARK SMILES IDX 65 68 61 69 62 70 64 71 66 72 63 73 47 74 48 75 53 76 49 77
REMARK SMILES IDX 50 78 52 79 54 80 51 81
REMARK H PARENT 6 9 6 10 71 43 45 54
REMARK Flexibility Score: inf
ROOT
ATOM      1  C   UNL A   1      43.776  21.394  25.682  1.00  0.00     0.274 C 
ENDROOT
BRANCH   1   2
ATOM      2  O   UNL A   1      42.490  20.753  25.623  1.00  0.00    -0.462 OA
BRANCH   2   3
ATOM      3  C   UNL A   1      41.964  20.258  26.775  1.00  0.00     0.306 C 
ATOM      4  O   UNL A   1      42.311  19.168  27.215  1.00  0.00    -0.252 OA
BRANCH   3   5
ATOM      5  C   UNL A   1      40.824  21.051  27.388  1.00  0.00     0.128 C 
BRANCH   5   6
ATOM      6  C   UNL A   1      40.293  22.155  26.479  1.00  0.00     0.073 C 
BRANCH   6   7
ATOM      7  C   UNL A   1      38.883  21.900  25.935  1.00  0.00     0.261 C 
BRANCH   7   8
ATOM      8  N   UNL A   1      37.875  22.811  26.472  1.00  0.00    -0.344 N 
ATOM      9  H   UNL A   1      38.264  23.753  26.436  1.00  0.00     0.346 HD
ATOM     10  H   UNL A   1      37.674  22.460  27.407  1.00  0.00     0.346 HD
BRANCH   8  11
ATOM     11  C   UNL A   1      36.566  22.845  25.789  1.00  0.00     0.187 C 
ATOM     12  C   UNL A   1      36.578  23.327  24.332  1.00  0.00     0.093 C 
ATOM     13  C   UNL A   1      35.866  21.470  25.861  1.00  0.00     0.100 C 
ATOM     14  C   UNL A   1      35.183  23.297  23.742  1.00  0.00     0.167 C 
ATOM     15  C   UNL A   1      34.497  21.450  25.144  1.00  0.00     0.078 C 
ATOM     16  O   UNL A   1      34.637  21.986  23.819  1.00  0.00    -0.374 OA
ATOM     17  C   UNL A   1      33.407  22.191  25.941  1.00  0.00     0.064 C 
ATOM     18  C   UNL A   1      34.030  19.991  24.952  1.00  0.00     0.064 C 
ATOM     19  C   UNL A   1      32.052  22.042  25.259  1.00  0.00     0.163 C 
ATOM     20  C   UNL A   1      32.638  19.949  24.327  1.00  0.00     0.163 C 
ATOM     21  O   UNL A   1      31.705  20.662  25.140  1.00  0.00    -0.381 OA
ENDBRANCH   8  11
ENDBRANCH   7   8
ENDBRANCH   6   7
ENDBRANCH   5   6
ENDBRANCH   3   5
ENDBRANCH   2   3
ENDBRANCH   1   2
BRANCH   1  22
ATOM     22  C   UNL A   1      43.957  22.492  24.631  1.00  0.00     0.275 C 
BRANCH  22  23
ATOM     23  O   UNL A   1      43.192  23.655  24.978  1.00  0.00    -0.458 OA
BRANCH  23  24
ATOM     24  C   UNL A   1      43.957  24.741  25.265  1.00  0.00     0.338 C 
ATOM     25  O   UNL A   1      44.933  25.130  24.651  1.00  0.00    -0.246 OA
BRANCH  24  26
ATOM     26  C   UNL A   1      43.306  25.529  26.331  1.00  0.00     0.060 A 
ATOM     27  C   UNL A   1      43.670  26.877  26.441  1.00  0.00     0.016 A 
ATOM     28  C   UNL A   1      42.355  24.980  27.197  1.00  0.00     0.016 A 
ATOM     29  C   UNL A   1      43.117  27.669  27.444  1.00  0.00     0.010 A 
ATOM     30  C   UNL A   1      41.803  25.776  28.206  1.00  0.00     0.010 A 
ATOM     31  C   UNL A   1      42.207  27.114  28.353  1.00  0.00    -0.014 A 
BRANCH  31  32
ATOM     32  C   UNL A   1      41.803  27.899  29.542  1.00  0.00     0.031 A 
ATOM     33  C   UNL A   1      40.596  28.789  29.443  1.00  0.00     0.074 A 
ATOM     34  C   UNL A   1      42.475  27.794  30.702  1.00  0.00     0.049 A 
ATOM     35  N   UNL A   1      40.033  29.529  30.363  1.00  0.00    -0.248 NA
ATOM     36  C   UNL A   1      39.934  28.854  28.130  1.00  0.00     0.031 C 
ATOM     37  C   UNL A   1      43.649  26.953  30.929  1.00  0.00     0.029 A 
ATOM     38  N   UNL A   1      42.260  28.407  31.910  1.00  0.00    -0.354 N 
ATOM     39  C   UNL A   1      38.945  30.132  29.747  1.00  0.00     0.074 A 
ATOM     40  C   UNL A   1      38.947  29.706  28.365  1.00  0.00     0.031 C 
ATOM     41  C   UNL A   1      44.058  27.112  32.200  1.00  0.00     0.029 A 
ATOM     42  C   UNL A   1      43.182  28.073  32.870  1.00  0.00     0.049 A 
ATOM     43  H   UNL A   1      41.514  29.028  32.074  1.00  0.00     0.167 HD
ATOM     44  C   UNL A   1      38.018  30.956  30.289  1.00  0.00     0.037 A 
ATOM     45  C   UNL A   1      43.307  28.501  34.141  1.00  0.00     0.037 A 
ATOM     46  C   UNL A   1      38.016  31.387  31.659  1.00  0.00     0.049 A 
ATOM     47  C   UNL A   1      42.300  29.473  34.698  1.00  0.00     0.074 A 
ATOM     48  C   UNL A   1      37.098  32.196  32.308  1.00  0.00     0.029 A 
ATOM     49  N   UNL A   1      38.986  31.054  32.590  1.00  0.00    -0.354 N 
ATOM     50  N   UNL A   1      41.240  29.987  34.124  1.00  0.00    -0.248 NA
ATOM     51  C   UNL A   1      42.507  29.920  36.084  1.00  0.00     0.031 C 
ATOM     52  C   UNL A   1      37.538  32.387  33.622  1.00  0.00     0.029 A 
ATOM     53  C   UNL A   1      38.708  31.666  33.801  1.00  0.00     0.049 A 
ATOM     54  H   UNL A   1      39.759  30.469  32.416  1.00  0.00     0.167 HD
ATOM     55  C   UNL A   1      40.640  30.794  35.082  1.00  0.00     0.074 A 
ATOM     56  C   UNL A   1      41.448  30.693  36.280  1.00  0.00     0.031 C 
ATOM     57  C   UNL A   1      39.521  31.551  34.983  1.00  0.00     0.037 A 
BRANCH  44  58
ATOM     58  C   UNL A   1      36.930  31.452  29.388  1.00  0.00     0.057 A 
ATOM     59  C   UNL A   1      36.950  32.747  28.857  1.00  0.00     0.134 A 
ATOM     60  C   UNL A   1      35.871  30.614  29.016  1.00  0.00     0.134 A 
ATOM     61  F   UNL A   1      37.929  33.603  29.189  1.00  0.00    -0.206 F 
ATOM     62  C   UNL A   1      35.948  33.198  27.996  1.00  0.00     0.040 A 
ATOM     63  C   UNL A   1      34.875  31.046  28.140  1.00  0.00     0.040 A 
ATOM     64  F   UNL A   1      35.796  29.361  29.491  1.00  0.00    -0.206 F 
ATOM     65  C   UNL A   1      34.910  32.342  27.630  1.00  0.00     0.006 A 
ENDBRANCH  44  58
BRANCH  45  66
ATOM     66  C   UNL A   1      44.433  28.028  34.983  1.00  0.00     0.057 A 
ATOM     67  C   UNL A   1      44.308  26.892  35.792  1.00  0.00     0.134 A 
ATOM     68  C   UNL A   1      45.644  28.728  35.035  1.00  0.00     0.134 A 
ATOM     69  F   UNL A   1      43.163  26.196  35.805  1.00  0.00    -0.206 F 
ATOM     70  C   UNL A   1      45.339  26.483  36.640  1.00  0.00     0.040 A 
ATOM     71  C   UNL A   1      46.690  28.317  35.862  1.00  0.00     0.040 A 
ATOM     72  F   UNL A   1      45.824  29.826  34.286  1.00  0.00    -0.206 F 
ATOM     73  C   UNL A   1      46.536  27.196  36.674  1.00  0.00     0.006 A 
ENDBRANCH  45  66
BRANCH  57  74
ATOM     74  C   UNL A   1      39.092  32.312  36.201  1.00  0.00     0.057 A 
ATOM     75  C   UNL A   1      39.517  33.625  36.435  1.00  0.00     0.134 A 
ATOM     76  C   UNL A   1      38.209  31.742  37.126  1.00  0.00     0.134 A 
ATOM     77  F   UNL A   1      40.373  34.222  35.592  1.00  0.00    -0.206 F 
ATOM     78  C   UNL A   1      39.090  34.341  37.555  1.00  0.00     0.040 A 
ATOM     79  C   UNL A   1      37.757  32.455  38.238  1.00  0.00     0.040 A 
ATOM     80  F   UNL A   1      37.757  30.490  36.956  1.00  0.00    -0.206 F 
ATOM     81  C   UNL A   1      38.203  33.756  38.457  1.00  0.00     0.006 A 
ENDBRANCH  57  74
ENDBRANCH  31  32
ENDBRANCH  24  26
ENDBRANCH  23  24
ENDBRANCH  22  23
ENDBRANCH   1  22
TORSDOF 15
ENDMDL
MODEL 3
REMARK VINA RESULT:     -10.6      5.542     10.678
REMARK SMILES O=C(CCC[NH2+][C@H]1CCOC2(CCOCC2)C1)OCCOC(=O)c1ccc(-c2c3nc(c(-c4c(F)cccc4F)c4ccc([nH]4)c(-c4c(F)cccc4F)c4nc(c(-c5c(F)cccc5F)c5ccc2[nH]5)C=C4)C=C3)cc1
REMARK SMILES IDX 19 1 18 2 2 3 1 4 3 5 4 6 5 7 6 8 7 11 8 12 17 13 9 14 11 15
REMARK SMILES IDX 10 16 12 17 16 18 13 19 15 20 14 21 20 22 21 23 22 24 23 25
REMARK SMILES IDX 24 26 25 27 77 28 26 29 76 30 27 31 28 32 29 33 70 34 30 35
REMARK SMILES IDX 75 36 69 37 71 38 31 39 74 40 68 41 67 42 32 44 58 45 41 46
REMARK SMILES IDX 57 47 42 48 45 49 56 50 72 51 43 52 44 53 55 55 73 56 46 57
REMARK SMILES IDX 33 58 34 59 39 60 35 61 36 62 38 63 40 64 37 65 59 66 60 67
REMARK SMILES IDX 65 68 61 69 62 70 64 71 66 72 63 73 47 74 48 75 53 76 49 77
REMARK SMILES IDX 50 78 52 79 54 80 51 81
REMARK H PARENT 6 9 6 10 71 43 45 54
REMARK Flexibility Score: inf
ROOT
ATOM      1  C   UNL A   1      34.120  34.999  31.442  1.00  0.00     0.274 C 
ENDROOT
BRANCH   1   2
ATOM      2  O   UNL A   1      34.662  34.453  30.228  1.00  0.00    -0.462 OA
BRANCH   2   3
ATOM      3  C   UNL A   1      33.820  34.254  29.179  1.00  0.00     0.306 C 
ATOM      4  O   UNL A   1      32.637  34.569  29.246  1.00  0.00    -0.252 OA
BRANCH   3   5
ATOM      5  C   UNL A   1      34.385  33.485  28.000  1.00  0.00     0.128 C 
BRANCH   5   6
ATOM      6  C   UNL A   1      34.624  32.007  28.294  1.00  0.00     0.073 C 
BRANCH   6   7
ATOM      7  C   UNL A   1      33.705  31.054  27.520  1.00  0.00     0.261 C 
BRANCH   7   8
ATOM      8  N   UNL A   1      34.427  30.074  26.713  1.00  0.00    -0.344 N 
ATOM      9  H   UNL A   1      35.076  29.586  27.331  1.00  0.00     0.346 HD
ATOM     10  H   UNL A   1      34.862  30.616  25.968  1.00  0.00     0.346 HD
BRANCH   8  11
ATOM     11  C   UNL A   1      33.621  29.050  26.018  1.00  0.00     0.187 C 
ATOM     12  C   UNL A   1      32.995  27.967  26.907  1.00  0.00     0.093 C 
ATOM     13  C   UNL A   1      32.515  29.702  25.160  1.00  0.00     0.100 C 
ATOM     14  C   UNL A   1      32.182  26.993  26.079  1.00  0.00     0.167 C 
ATOM     15  C   UNL A   1      31.632  28.668  24.425  1.00  0.00     0.078 C 
ATOM     16  O   UNL A   1      31.167  27.679  25.356  1.00  0.00    -0.374 OA
ATOM     17  C   UNL A   1      32.357  28.022  23.230  1.00  0.00     0.064 C 
ATOM     18  C   UNL A   1      30.359  29.358  23.887  1.00  0.00     0.064 C 
ATOM     19  C   UNL A   1      31.411  27.104  22.464  1.00  0.00     0.163 C 
ATOM     20  C   UNL A   1      29.516  28.376  23.079  1.00  0.00     0.163 C 
ATOM     21  O   UNL A   1      30.277  27.835  21.999  1.00  0.00    -0.381 OA
ENDBRANCH   8  11
ENDBRANCH   7   8
ENDBRANCH   6   7
ENDBRANCH   5   6
ENDBRANCH   3   5
ENDBRANCH   2   3
ENDBRANCH   1   2
BRANCH   1  22
ATOM     22  C   UNL A   1      34.773  34.436  32.708  1.00  0.00     0.275 C 
BRANCH  22  23
ATOM     23  O   UNL A   1      36.112  34.001  32.435  1.00  0.00    -0.458 OA
BRANCH  23  24
ATOM     24  C   UNL A   1      36.431  32.822  33.030  1.00  0.00     0.338 C 
ATOM     25  O   UNL A   1      35.900  32.330  34.008  1.00  0.00    -0.246 OA
BRANCH  24  26
ATOM     26  C   UNL A   1      37.398  32.094  32.184  1.00  0.00     0.060 A 
ATOM     27  C   UNL A   1      38.433  31.413  32.838  1.00  0.00     0.016 A 
ATOM     28  C   UNL A   1      37.300  32.059  30.789  1.00  0.00     0.016 A 
ATOM     29  C   UNL A   1      39.397  30.733  32.099  1.00  0.00     0.010 A 
ATOM     30  C   UNL A   1      38.271  31.379  30.048  1.00  0.00     0.010 A 
ATOM     31  C   UNL A   1      39.341  30.740  30.699  1.00  0.00    -0.014 A 
BRANCH  31  32
ATOM     32  C   UNL A   1      40.487  30.210  29.927  1.00  0.00     0.031 A 
ATOM     33  C   UNL A   1      41.647  31.121  29.639  1.00  0.00     0.074 A 
ATOM     34  C   UNL A   1      40.513  28.928  29.520  1.00  0.00     0.049 A 
ATOM     35  N   UNL A   1      42.772  30.863  29.024  1.00  0.00    -0.248 NA
ATOM     36  C   UNL A   1      41.522  32.511  30.108  1.00  0.00     0.031 C 
ATOM     37  C   UNL A   1      39.460  27.942  29.752  1.00  0.00     0.029 A 
ATOM     38  N   UNL A   1      41.473  28.240  28.821  1.00  0.00    -0.354 N 
ATOM     39  C   UNL A   1      43.493  32.049  29.047  1.00  0.00     0.074 A 
ATOM     40  C   UNL A   1      42.666  33.039  29.700  1.00  0.00     0.031 C 
ATOM     41  C   UNL A   1      39.827  26.775  29.193  1.00  0.00     0.029 A 
ATOM     42  C   UNL A   1      41.133  26.937  28.556  1.00  0.00     0.049 A 
ATOM     43  H   UNL A   1      42.325  28.643  28.535  1.00  0.00     0.167 HD
ATOM     44  C   UNL A   1      44.741  32.288  28.579  1.00  0.00     0.037 A 
ATOM     45  C   UNL A   1      41.800  25.987  27.872  1.00  0.00     0.037 A 
ATOM     46  C   UNL A   1      45.564  31.309  27.924  1.00  0.00     0.049 A 
ATOM     47  C   UNL A   1      43.158  26.301  27.301  1.00  0.00     0.074 A 
ATOM     48  C   UNL A   1      46.855  31.449  27.445  1.00  0.00     0.029 A 
ATOM     49  N   UNL A   1      45.170  30.010  27.645  1.00  0.00    -0.354 N 
ATOM     50  N   UNL A   1      43.857  27.407  27.384  1.00  0.00    -0.248 NA
ATOM     51  C   UNL A   1      43.823  25.228  26.545  1.00  0.00     0.031 C 
ATOM     52  C   UNL A   1      47.227  30.245  26.837  1.00  0.00     0.029 A 
ATOM     53  C   UNL A   1      46.181  29.345  26.972  1.00  0.00     0.049 A 
ATOM     54  H   UNL A   1      44.301  29.618  27.889  1.00  0.00     0.167 HD
ATOM     55  C   UNL A   1      45.049  27.158  26.717  1.00  0.00     0.074 A 
ATOM     56  C   UNL A   1      44.986  25.790  26.243  1.00  0.00     0.031 C 
ATOM     57  C   UNL A   1      46.103  27.983  26.513  1.00  0.00     0.037 A 
BRANCH  44  58
ATOM     58  C   UNL A   1      45.287  33.670  28.754  1.00  0.00     0.057 A 
ATOM     59  C   UNL A   1      46.023  34.030  29.890  1.00  0.00     0.134 A 
ATOM     60  C   UNL A   1      45.111  34.641  27.760  1.00  0.00     0.134 A 
ATOM     61  F   UNL A   1      46.212  33.148  30.884  1.00  0.00    -0.206 F 
ATOM     62  C   UNL A   1      46.555  35.311  30.038  1.00  0.00     0.040 A 
ATOM     63  C   UNL A   1      45.655  35.919  27.888  1.00  0.00     0.040 A 
ATOM     64  F   UNL A   1      44.416  34.358  26.648  1.00  0.00    -0.206 F 
ATOM     65  C   UNL A   1      46.377  36.258  29.030  1.00  0.00     0.006 A 
ENDBRANCH  44  58
BRANCH  45  66
ATOM     66  C   UNL A   1      41.198  24.646  27.673  1.00  0.00     0.057 A 
ATOM     67  C   UNL A   1      41.665  23.528  28.375  1.00  0.00     0.134 A 
ATOM     68  C   UNL A   1      40.175  24.442  26.741  1.00  0.00     0.134 A 
ATOM     69  F   UNL A   1      42.663  23.657  29.262  1.00  0.00    -0.206 F 
ATOM     70  C   UNL A   1      41.151  22.252  28.141  1.00  0.00     0.040 A 
ATOM     71  C   UNL A   1      39.637  23.174  26.513  1.00  0.00     0.040 A 
ATOM     72  F   UNL A   1      39.687  25.472  26.034  1.00  0.00    -0.206 F 
ATOM     73  C   UNL A   1      40.132  22.073  27.208  1.00  0.00     0.006 A 
ENDBRANCH  45  66
BRANCH  57  74
ATOM     74  C   UNL A   1      47.279  27.430  25.766  1.00  0.00     0.057 A 
ATOM     75  C   UNL A   1      48.307  26.741  26.420  1.00  0.00     0.134 A 
ATOM     76  C   UNL A   1      47.361  27.547  24.373  1.00  0.00     0.134 A 
ATOM     77  F   UNL A   1      48.292  26.607  27.755  1.00  0.00    -0.206 F 
ATOM     78  C   UNL A   1      49.385  26.202  25.717  1.00  0.00     0.040 A 
ATOM     79  C   UNL A   1      48.422  26.992  23.655  1.00  0.00     0.040 A 
ATOM     80  F   UNL A   1      46.404  28.188  23.685  1.00  0.00    -0.206 F 
ATOM     81  C   UNL A   1      49.441  26.322  24.329  1.00  0.00     0.006 A 
ENDBRANCH  57  74
ENDBRANCH  31  32
ENDBRANCH  24  26
ENDBRANCH  23  24
ENDBRANCH  22  23
ENDBRANCH   1  22
TORSDOF 15
ENDMDL
