MODEL 1
REMARK VINA RESULT:     -11.2      0.000      0.000
REMARK SMILES C[C@H]1[C@H](C(=O)OCCOC(=O)c2ccc(-c3c4nc(c(-c5c(F)cccc5F)c5ccc([nH]5)c(-c5c(F)cccc5F)c5nc(c(-c6c(F)cccc6F)c6ccc3[nH]6)C=C5)C=C4)cc2)CC[N@@H+]1Cc1ccc(Br)cc1F
REMARK SMILES IDX 7 1 6 2 4 3 5 4 3 5 1 6 2 7 68 8 66 9 67 10 69 12 70 13
REMARK SMILES IDX 71 14 76 15 72 16 75 17 77 18 73 19 74 20 8 21 9 22 10 23
REMARK SMILES IDX 11 24 12 25 13 26 65 27 14 28 64 29 15 30 16 31 17 32 58 33
REMARK SMILES IDX 18 34 63 35 57 36 59 37 19 38 62 39 56 40 55 41 20 43 46 44
REMARK SMILES IDX 29 45 45 46 30 47 33 48 44 49 60 50 31 51 32 52 43 54 61 55
REMARK SMILES IDX 34 56 21 57 22 58 27 59 23 60 24 61 26 62 28 63 25 64 47 65
REMARK SMILES IDX 48 66 53 67 49 68 50 69 52 70 54 71 51 72 35 73 36 74 41 75
REMARK SMILES IDX 37 76 38 77 40 78 42 79 39 80
REMARK H PARENT 68 11 59 42 33 53
REMARK Flexibility Score: inf
ROOT
ATOM      1  C   UNL A   1      35.322  20.558  24.947  1.00  0.00     0.274 C 
ENDROOT
BRANCH   1   2
ATOM      2  O   UNL A   1      34.467  21.472  24.232  1.00  0.00    -0.462 OA
BRANCH   2   3
ATOM      3  C   UNL A   1      33.131  21.339  24.402  1.00  0.00     0.315 C 
ATOM      4  O   UNL A   1      32.374  20.851  23.568  1.00  0.00    -0.252 OA
BRANCH   3   5
ATOM      5  C   UNL A   1      32.625  21.807  25.755  1.00  0.00     0.162 C 
ATOM      6  C   UNL A   1      33.853  22.965  27.629  1.00  0.00     0.076 C 
ATOM      7  C   UNL A   1      33.129  23.158  26.285  1.00  0.00     0.195 C 
ATOM      8  N   UNL A   1      31.930  23.973  26.543  1.00  0.00    -0.328 N 
ATOM      9  C   UNL A   1      31.105  21.886  25.756  1.00  0.00     0.083 C 
ATOM     10  C   UNL A   1      30.788  23.070  26.643  1.00  0.00     0.263 C 
ATOM     11  H   UNL A   1      32.056  24.454  27.434  1.00  0.00     0.348 HD
BRANCH   8  12
ATOM     12  C   UNL A   1      31.738  25.136  25.668  1.00  0.00     0.302 C 
BRANCH  12  13
ATOM     13  C   UNL A   1      32.288  26.472  26.114  1.00  0.00     0.042 A 
ATOM     14  C   UNL A   1      31.468  27.379  26.806  1.00  0.00     0.014 A 
ATOM     15  C   UNL A   1      33.601  26.857  25.832  1.00  0.00     0.133 A 
ATOM     16  C   UNL A   1      31.969  28.612  27.232  1.00  0.00     0.016 A 
ATOM     17  C   UNL A   1      34.122  28.066  26.284  1.00  0.00     0.055 A 
ATOM     18  F   UNL A   1      34.400  26.051  25.120  1.00  0.00    -0.206 F 
ATOM     19  C   UNL A   1      33.301  28.939  26.987  1.00  0.00     0.020 A 
ATOM     20  Br  UNL A   1      33.999  30.574  27.628  1.00  0.00    -0.051 Br
ENDBRANCH  12  13
ENDBRANCH   8  12
ENDBRANCH   3   5
ENDBRANCH   2   3
ENDBRANCH   1   2
BRANCH   1  21
ATOM     21  C   UNL A   1      36.790  20.877  24.669  1.00  0.00     0.275 C 
BRANCH  21  22
ATOM     22  O   UNL A   1      37.379  21.557  25.791  1.00  0.00    -0.458 OA
BRANCH  22  23
ATOM     23  C   UNL A   1      38.676  21.254  26.020  1.00  0.00     0.338 C 
ATOM     24  O   UNL A   1      39.268  20.225  25.746  1.00  0.00    -0.246 OA
BRANCH  23  25
ATOM     25  C   UNL A   1      39.343  22.441  26.560  1.00  0.00     0.060 A 
ATOM     26  C   UNL A   1      38.948  23.697  26.096  1.00  0.00     0.016 A 
ATOM     27  C   UNL A   1      40.396  22.310  27.460  1.00  0.00     0.016 A 
ATOM     28  C   UNL A   1      39.629  24.838  26.497  1.00  0.00     0.010 A 
ATOM     29  C   UNL A   1      41.056  23.459  27.893  1.00  0.00     0.010 A 
ATOM     30  C   UNL A   1      40.686  24.726  27.402  1.00  0.00    -0.014 A 
BRANCH  30  31
ATOM     31  C   UNL A   1      41.447  25.922  27.817  1.00  0.00     0.031 A 
ATOM     32  C   UNL A   1      40.754  26.986  28.611  1.00  0.00     0.074 A 
ATOM     33  C   UNL A   1      42.732  26.062  27.449  1.00  0.00     0.049 A 
ATOM     34  N   UNL A   1      41.132  28.212  28.856  1.00  0.00    -0.248 NA
ATOM     35  C   UNL A   1      39.453  26.622  29.196  1.00  0.00     0.031 C 
ATOM     36  C   UNL A   1      43.525  25.056  26.740  1.00  0.00     0.029 A 
ATOM     37  N   UNL A   1      43.589  27.121  27.598  1.00  0.00    -0.354 N 
ATOM     38  C   UNL A   1      40.094  28.783  29.582  1.00  0.00     0.074 A 
ATOM     39  C   UNL A   1      39.075  27.769  29.742  1.00  0.00     0.031 C 
ATOM     40  C   UNL A   1      44.748  25.555  26.498  1.00  0.00     0.029 A 
ATOM     41  C   UNL A   1      44.796  26.935  26.970  1.00  0.00     0.049 A 
ATOM     42  H   UNL A   1      43.361  27.935  28.104  1.00  0.00     0.167 HD
ATOM     43  C   UNL A   1      40.008  30.046  30.058  1.00  0.00     0.037 A 
ATOM     44  C   UNL A   1      45.801  27.802  26.750  1.00  0.00     0.037 A 
ATOM     45  C   UNL A   1      41.048  31.029  29.910  1.00  0.00     0.049 A 
ATOM     46  C   UNL A   1      45.658  29.216  27.235  1.00  0.00     0.074 A 
ATOM     47  C   UNL A   1      41.070  32.338  30.355  1.00  0.00     0.029 A 
ATOM     48  N   UNL A   1      42.257  30.801  29.269  1.00  0.00    -0.354 N 
ATOM     49  N   UNL A   1      44.659  29.769  27.880  1.00  0.00    -0.248 NA
ATOM     50  C   UNL A   1      46.770  30.133  26.947  1.00  0.00     0.031 C 
ATOM     51  C   UNL A   1      42.281  32.913  29.953  1.00  0.00     0.029 A 
ATOM     52  C   UNL A   1      43.028  31.949  29.296  1.00  0.00     0.049 A 
ATOM     53  H   UNL A   1      42.526  29.948  28.856  1.00  0.00     0.167 HD
ATOM     54  C   UNL A   1      45.032  31.088  28.102  1.00  0.00     0.074 A 
ATOM     55  C   UNL A   1      46.350  31.252  27.522  1.00  0.00     0.031 C 
ATOM     56  C   UNL A   1      44.348  32.074  28.730  1.00  0.00     0.037 A 
BRANCH  43  57
ATOM     57  C   UNL A   1      38.735  30.443  30.743  1.00  0.00     0.057 A 
ATOM     58  C   UNL A   1      38.554  30.292  32.123  1.00  0.00     0.134 A 
ATOM     59  C   UNL A   1      37.681  31.004  30.010  1.00  0.00     0.134 A 
ATOM     60  F   UNL A   1      39.517  29.745  32.880  1.00  0.00    -0.206 F 
ATOM     61  C   UNL A   1      37.362  30.669  32.747  1.00  0.00     0.040 A 
ATOM     62  C   UNL A   1      36.496  31.405  30.626  1.00  0.00     0.040 A 
ATOM     63  F   UNL A   1      37.791  31.176  28.684  1.00  0.00    -0.206 F 
ATOM     64  C   UNL A   1      36.331  31.232  31.998  1.00  0.00     0.006 A 
ENDBRANCH  43  57
BRANCH  44  65
ATOM     65  C   UNL A   1      47.003  27.364  25.998  1.00  0.00     0.057 A 
ATOM     66  C   UNL A   1      48.116  26.836  26.661  1.00  0.00     0.134 A 
ATOM     67  C   UNL A   1      47.063  27.447  24.601  1.00  0.00     0.134 A 
ATOM     68  F   UNL A   1      48.126  26.750  27.999  1.00  0.00    -0.206 F 
ATOM     69  C   UNL A   1      49.250  26.415  25.964  1.00  0.00     0.040 A 
ATOM     70  C   UNL A   1      48.179  27.007  23.889  1.00  0.00     0.040 A 
ATOM     71  F   UNL A   1      46.027  27.939  23.907  1.00  0.00    -0.206 F 
ATOM     72  C   UNL A   1      49.279  26.493  24.572  1.00  0.00     0.006 A 
ENDBRANCH  44  65
BRANCH  56  73
ATOM     73  C   UNL A   1      45.031  33.398  28.873  1.00  0.00     0.057 A 
ATOM     74  C   UNL A   1      45.905  33.667  29.932  1.00  0.00     0.134 A 
ATOM     75  C   UNL A   1      44.861  34.389  27.899  1.00  0.00     0.134 A 
ATOM     76  F   UNL A   1      46.096  32.762  30.902  1.00  0.00    -0.206 F 
ATOM     77  C   UNL A   1      46.585  34.883  30.019  1.00  0.00     0.040 A 
ATOM     78  C   UNL A   1      45.551  35.600  27.963  1.00  0.00     0.040 A 
ATOM     79  F   UNL A   1      44.041  34.187  26.856  1.00  0.00    -0.206 F 
ATOM     80  C   UNL A   1      46.416  35.848  29.028  1.00  0.00     0.006 A 
ENDBRANCH  56  73
ENDBRANCH  30  31
ENDBRANCH  23  25
ENDBRANCH  22  23
ENDBRANCH  21  22
ENDBRANCH   1  21
TORSDOF 13
ENDMDL
MODEL 2
REMARK VINA RESULT:     -11.1      4.308      8.691
REMARK SMILES C[C@H]1[C@H](C(=O)OCCOC(=O)c2ccc(-c3c4nc(c(-c5c(F)cccc5F)c5ccc([nH]5)c(-c5c(F)cccc5F)c5nc(c(-c6c(F)cccc6F)c6ccc3[nH]6)C=C5)C=C4)cc2)CC[N@@H+]1Cc1ccc(Br)cc1F
REMARK SMILES IDX 7 1 6 2 4 3 5 4 3 5 1 6 2 7 68 8 66 9 67 10 69 12 70 13
REMARK SMILES IDX 71 14 76 15 72 16 75 17 77 18 73 19 74 20 8 21 9 22 10 23
REMARK SMILES IDX 11 24 12 25 13 26 65 27 14 28 64 29 15 30 16 31 17 32 58 33
REMARK SMILES IDX 18 34 63 35 57 36 59 37 19 38 62 39 56 40 55 41 20 43 46 44
REMARK SMILES IDX 29 45 45 46 30 47 33 48 44 49 60 50 31 51 32 52 43 54 61 55
REMARK SMILES IDX 34 56 21 57 22 58 27 59 23 60 24 61 26 62 28 63 25 64 47 65
REMARK SMILES IDX 48 66 53 67 49 68 50 69 52 70 54 71 51 72 35 73 36 74 41 75
REMARK SMILES IDX 37 76 38 77 40 78 42 79 39 80
REMARK H PARENT 68 11 59 42 33 53
REMARK Flexibility Score: inf
ROOT
ATOM      1  C   UNL A   1      32.707  28.843  25.114  1.00  0.00     0.274 C 
ENDROOT
BRANCH   1   2
ATOM      2  O   UNL A   1      33.154  27.962  26.164  1.00  0.00    -0.462 OA
BRANCH   2   3
ATOM      3  C   UNL A   1      32.404  26.865  26.417  1.00  0.00     0.315 C 
ATOM      4  O   UNL A   1      31.245  26.900  26.821  1.00  0.00    -0.252 OA
BRANCH   3   5
ATOM      5  C   UNL A   1      33.099  25.550  26.115  1.00  0.00     0.162 C 
ATOM      6  C   UNL A   1      32.466  23.198  26.770  1.00  0.00     0.076 C 
ATOM      7  C   UNL A   1      32.225  24.336  25.763  1.00  0.00     0.195 C 
ATOM      8  N   UNL A   1      32.684  23.865  24.446  1.00  0.00    -0.328 N 
ATOM      9  C   UNL A   1      34.081  25.718  24.964  1.00  0.00     0.083 C 
ATOM     10  C   UNL A   1      34.022  24.403  24.219  1.00  0.00     0.263 C 
ATOM     11  H   UNL A   1      32.732  22.846  24.470  1.00  0.00     0.348 HD
BRANCH   8  12
ATOM     12  C   UNL A   1      31.741  24.034  23.334  1.00  0.00     0.302 C 
BRANCH  12  13
ATOM     13  C   UNL A   1      31.019  25.355  23.195  1.00  0.00     0.042 A 
ATOM     14  C   UNL A   1      29.805  25.573  23.868  1.00  0.00     0.014 A 
ATOM     15  C   UNL A   1      31.512  26.379  22.383  1.00  0.00     0.133 A 
ATOM     16  C   UNL A   1      29.135  26.794  23.755  1.00  0.00     0.016 A 
ATOM     17  C   UNL A   1      30.873  27.613  22.292  1.00  0.00     0.055 A 
ATOM     18  F   UNL A   1      32.633  26.194  21.673  1.00  0.00    -0.206 F 
ATOM     19  C   UNL A   1      29.686  27.816  22.984  1.00  0.00     0.020 A 
ATOM     20  Br  UNL A   1      28.818  29.492  22.891  1.00  0.00    -0.051 Br
ENDBRANCH  12  13
ENDBRANCH   8  12
ENDBRANCH   3   5
ENDBRANCH   2   3
ENDBRANCH   1   2
BRANCH   1  21
ATOM     21  C   UNL A   1      32.021  30.073  25.710  1.00  0.00     0.275 C 
BRANCH  21  22
ATOM     22  O   UNL A   1      32.482  30.305  27.052  1.00  0.00    -0.458 OA
BRANCH  22  23
ATOM     23  C   UNL A   1      33.090  31.496  27.244  1.00  0.00     0.338 C 
ATOM     24  O   UNL A   1      32.624  32.611  27.093  1.00  0.00    -0.246 OA
BRANCH  23  25
ATOM     25  C   UNL A   1      34.420  31.255  27.809  1.00  0.00     0.060 A 
ATOM     26  C   UNL A   1      34.736  29.966  28.243  1.00  0.00     0.016 A 
ATOM     27  C   UNL A   1      35.316  32.306  27.976  1.00  0.00     0.016 A 
ATOM     28  C   UNL A   1      35.940  29.719  28.885  1.00  0.00     0.010 A 
ATOM     29  C   UNL A   1      36.543  32.051  28.588  1.00  0.00     0.010 A 
ATOM     30  C   UNL A   1      36.854  30.761  29.059  1.00  0.00    -0.014 A 
BRANCH  30  31
ATOM     31  C   UNL A   1      38.128  30.530  29.770  1.00  0.00     0.031 A 
ATOM     32  C   UNL A   1      39.169  29.661  29.134  1.00  0.00     0.074 A 
ATOM     33  C   UNL A   1      38.324  31.064  30.987  1.00  0.00     0.049 A 
ATOM     34  N   UNL A   1      40.228  29.114  29.668  1.00  0.00    -0.248 NA
ATOM     35  C   UNL A   1      38.982  29.356  27.706  1.00  0.00     0.031 C 
ATOM     36  C   UNL A   1      37.410  31.984  31.667  1.00  0.00     0.029 A 
ATOM     37  N   UNL A   1      39.348  30.887  31.881  1.00  0.00    -0.354 N 
ATOM     38  C   UNL A   1      40.809  28.361  28.657  1.00  0.00     0.074 A 
ATOM     39  C   UNL A   1      39.988  28.524  27.476  1.00  0.00     0.031 C 
ATOM     40  C   UNL A   1      37.906  32.275  32.880  1.00  0.00     0.029 A 
ATOM     41  C   UNL A   1      39.130  31.508  33.086  1.00  0.00     0.049 A 
ATOM     42  H   UNL A   1      40.159  30.366  31.679  1.00  0.00     0.167 HD
ATOM     43  C   UNL A   1      41.923  27.596  28.722  1.00  0.00     0.037 A 
ATOM     44  C   UNL A   1      39.809  31.417  34.243  1.00  0.00     0.037 A 
ATOM     45  C   UNL A   1      42.738  27.472  29.902  1.00  0.00     0.049 A 
ATOM     46  C   UNL A   1      41.009  30.515  34.311  1.00  0.00     0.074 A 
ATOM     47  C   UNL A   1      43.890  26.728  30.081  1.00  0.00     0.029 A 
ATOM     48  N   UNL A   1      42.484  28.118  31.102  1.00  0.00    -0.354 N 
ATOM     49  N   UNL A   1      41.532  29.767  33.369  1.00  0.00    -0.248 NA
ATOM     50  C   UNL A   1      41.703  30.427  35.603  1.00  0.00     0.031 C 
ATOM     51  C   UNL A   1      44.315  26.899  31.403  1.00  0.00     0.029 A 
ATOM     52  C   UNL A   1      43.451  27.781  32.032  1.00  0.00     0.049 A 
ATOM     53  H   UNL A   1      41.728  28.726  31.268  1.00  0.00     0.167 HD
ATOM     54  C   UNL A   1      42.631  29.144  33.944  1.00  0.00     0.074 A 
ATOM     55  C   UNL A   1      42.700  29.602  35.317  1.00  0.00     0.031 C 
ATOM     56  C   UNL A   1      43.506  28.273  33.387  1.00  0.00     0.037 A 
BRANCH  43  57
ATOM     57  C   UNL A   1      42.297  26.809  27.503  1.00  0.00     0.057 A 
ATOM     58  C   UNL A   1      41.848  25.500  27.296  1.00  0.00     0.134 A 
ATOM     59  C   UNL A   1      43.104  27.381  26.511  1.00  0.00     0.134 A 
ATOM     60  F   UNL A   1      41.088  24.887  28.215  1.00  0.00    -0.206 F 
ATOM     61  C   UNL A   1      42.205  24.780  26.152  1.00  0.00     0.040 A 
ATOM     62  C   UNL A   1      43.447  26.680  25.355  1.00  0.00     0.040 A 
ATOM     63  F   UNL A   1      43.567  28.633  26.648  1.00  0.00    -0.206 F 
ATOM     64  C   UNL A   1      43.001  25.373  25.176  1.00  0.00     0.006 A 
ENDBRANCH  43  57
BRANCH  44  65
ATOM     65  C   UNL A   1      39.342  32.166  35.436  1.00  0.00     0.057 A 
ATOM     66  C   UNL A   1      39.768  33.475  35.679  1.00  0.00     0.134 A 
ATOM     67  C   UNL A   1      38.447  31.597  36.352  1.00  0.00     0.134 A 
ATOM     68  F   UNL A   1      40.640  34.065  34.849  1.00  0.00    -0.206 F 
ATOM     69  C   UNL A   1      39.329  34.192  36.794  1.00  0.00     0.040 A 
ATOM     70  C   UNL A   1      37.981  32.310  37.457  1.00  0.00     0.040 A 
ATOM     71  F   UNL A   1      37.997  30.347  36.173  1.00  0.00    -0.206 F 
ATOM     72  C   UNL A   1      38.426  33.610  37.683  1.00  0.00     0.006 A 
ENDBRANCH  44  65
BRANCH  56  73
ATOM     73  C   UNL A   1      44.642  27.802  34.239  1.00  0.00     0.057 A 
ATOM     74  C   UNL A   1      45.839  28.520  34.336  1.00  0.00     0.134 A 
ATOM     75  C   UNL A   1      44.506  26.651  35.025  1.00  0.00     0.134 A 
ATOM     76  F   UNL A   1      46.033  29.622  33.597  1.00  0.00    -0.206 F 
ATOM     77  C   UNL A   1      46.867  28.105  35.185  1.00  0.00     0.040 A 
ATOM     78  C   UNL A   1      45.517  26.238  35.892  1.00  0.00     0.040 A 
ATOM     79  F   UNL A   1      43.379  25.925  34.980  1.00  0.00    -0.206 F 
ATOM     80  C   UNL A   1      46.702  26.966  35.972  1.00  0.00     0.006 A 
ENDBRANCH  56  73
ENDBRANCH  30  31
ENDBRANCH  23  25
ENDBRANCH  22  23
ENDBRANCH  21  22
ENDBRANCH   1  21
TORSDOF 13
ENDMDL
MODEL 3
REMARK VINA RESULT:     -11.1      0.546      1.539
REMARK SMILES C[C@H]1[C@H](C(=O)OCCOC(=O)c2ccc(-c3c4nc(c(-c5c(F)cccc5F)c5ccc([nH]5)c(-c5c(F)cccc5F)c5nc(c(-c6c(F)cccc6F)c6ccc3[nH]6)C=C5)C=C4)cc2)CC[N@@H+]1Cc1ccc(Br)cc1F
REMARK SMILES IDX 7 1 6 2 4 3 5 4 3 5 1 6 2 7 68 8 66 9 67 10 69 12 70 13
REMARK SMILES IDX 71 14 76 15 72 16 75 17 77 18 73 19 74 20 8 21 9 22 10 23
REMARK SMILES IDX 11 24 12 25 13 26 65 27 14 28 64 29 15 30 16 31 17 32 58 33
REMARK SMILES IDX 18 34 63 35 57 36 59 37 19 38 62 39 56 40 55 41 20 43 46 44
REMARK SMILES IDX 29 45 45 46 30 47 33 48 44 49 60 50 31 51 32 52 43 54 61 55
REMARK SMILES IDX 34 56 21 57 22 58 27 59 23 60 24 61 26 62 28 63 25 64 47 65
REMARK SMILES IDX 48 66 53 67 49 68 50 69 52 70 54 71 51 72 35 73 36 74 41 75
REMARK SMILES IDX 37 76 38 77 40 78 42 79 39 80
REMARK H PARENT 68 11 59 42 33 53
REMARK Flexibility Score: inf
ROOT
ATOM      1  C   UNL A   1      35.266  20.517  24.996  1.00  0.00     0.274 C 
ENDROOT
BRANCH   1   2
ATOM      2  O   UNL A   1      34.419  21.395  24.228  1.00  0.00    -0.462 OA
BRANCH   2   3
ATOM      3  C   UNL A   1      33.086  21.325  24.451  1.00  0.00     0.315 C 
ATOM      4  O   UNL A   1      32.284  20.802  23.681  1.00  0.00    -0.252 OA
BRANCH   3   5
ATOM      5  C   UNL A   1      32.643  21.914  25.777  1.00  0.00     0.162 C 
ATOM      6  C   UNL A   1      34.014  22.943  27.628  1.00  0.00     0.076 C 
ATOM      7  C   UNL A   1      33.341  23.193  26.268  1.00  0.00     0.195 C 
ATOM      8  N   UNL A   1      32.278  24.189  26.477  1.00  0.00    -0.328 N 
ATOM      9  C   UNL A   1      31.153  22.223  25.752  1.00  0.00     0.083 C 
ATOM     10  C   UNL A   1      31.011  23.474  26.591  1.00  0.00     0.263 C 
ATOM     11  H   UNL A   1      32.467  24.679  27.352  1.00  0.00     0.348 HD
BRANCH   8  12
ATOM     12  C   UNL A   1      32.274  25.334  25.558  1.00  0.00     0.302 C 
BRANCH  12  13
ATOM     13  C   UNL A   1      32.668  26.691  26.095  1.00  0.00     0.042 A 
ATOM     14  C   UNL A   1      33.983  27.161  25.937  1.00  0.00     0.014 A 
ATOM     15  C   UNL A   1      31.760  27.501  26.783  1.00  0.00     0.133 A 
ATOM     16  C   UNL A   1      34.354  28.419  26.420  1.00  0.00     0.016 A 
ATOM     17  C   UNL A   1      32.108  28.770  27.236  1.00  0.00     0.055 A 
ATOM     18  F   UNL A   1      30.513  27.067  27.013  1.00  0.00    -0.206 F 
ATOM     19  C   UNL A   1      33.407  29.225  27.049  1.00  0.00     0.020 A 
ATOM     20  Br  UNL A   1      33.890  30.956  27.635  1.00  0.00    -0.051 Br
ENDBRANCH  12  13
ENDBRANCH   8  12
ENDBRANCH   3   5
ENDBRANCH   2   3
ENDBRANCH   1   2
BRANCH   1  21
ATOM     21  C   UNL A   1      36.737  20.788  24.678  1.00  0.00     0.275 C 
BRANCH  21  22
ATOM     22  O   UNL A   1      37.348  21.548  25.734  1.00  0.00    -0.458 OA
BRANCH  22  23
ATOM     23  C   UNL A   1      38.635  21.225  25.993  1.00  0.00     0.338 C 
ATOM     24  O   UNL A   1      39.217  20.188  25.732  1.00  0.00    -0.246 OA
BRANCH  23  25
ATOM     25  C   UNL A   1      39.307  22.401  26.551  1.00  0.00     0.060 A 
ATOM     26  C   UNL A   1      38.873  23.668  26.154  1.00  0.00     0.016 A 
ATOM     27  C   UNL A   1      40.400  22.252  27.399  1.00  0.00     0.016 A 
ATOM     28  C   UNL A   1      39.554  24.803  26.570  1.00  0.00     0.010 A 
ATOM     29  C   UNL A   1      41.062  23.395  27.848  1.00  0.00     0.010 A 
ATOM     30  C   UNL A   1      40.652  24.673  27.424  1.00  0.00    -0.014 A 
BRANCH  30  31
ATOM     31  C   UNL A   1      41.412  25.864  27.853  1.00  0.00     0.031 A 
ATOM     32  C   UNL A   1      40.719  26.920  28.658  1.00  0.00     0.074 A 
ATOM     33  C   UNL A   1      42.697  26.009  27.486  1.00  0.00     0.049 A 
ATOM     34  N   UNL A   1      41.096  28.143  28.917  1.00  0.00    -0.248 NA
ATOM     35  C   UNL A   1      39.418  26.549  29.237  1.00  0.00     0.031 C 
ATOM     36  C   UNL A   1      43.491  25.011  26.766  1.00  0.00     0.029 A 
ATOM     37  N   UNL A   1      43.554  27.067  27.648  1.00  0.00    -0.354 N 
ATOM     38  C   UNL A   1      40.058  28.706  29.648  1.00  0.00     0.074 A 
ATOM     39  C   UNL A   1      39.039  27.690  29.796  1.00  0.00     0.031 C 
ATOM     40  C   UNL A   1      44.714  25.513  26.531  1.00  0.00     0.029 A 
ATOM     41  C   UNL A   1      44.762  26.887  27.018  1.00  0.00     0.049 A 
ATOM     42  H   UNL A   1      43.326  27.875  28.162  1.00  0.00     0.167 HD
ATOM     43  C   UNL A   1      39.971  29.964  30.138  1.00  0.00     0.037 A 
ATOM     44  C   UNL A   1      45.766  27.757  26.808  1.00  0.00     0.037 A 
ATOM     45  C   UNL A   1      41.011  30.948  30.001  1.00  0.00     0.049 A 
ATOM     46  C   UNL A   1      45.623  29.166  27.309  1.00  0.00     0.074 A 
ATOM     47  C   UNL A   1      41.033  32.253  30.461  1.00  0.00     0.029 A 
ATOM     48  N   UNL A   1      42.220  30.727  29.358  1.00  0.00    -0.354 N 
ATOM     49  N   UNL A   1      44.624  29.711  27.960  1.00  0.00    -0.248 NA
ATOM     50  C   UNL A   1      46.735  30.085  27.032  1.00  0.00     0.031 C 
ATOM     51  C   UNL A   1      42.244  32.832  30.066  1.00  0.00     0.029 A 
ATOM     52  C   UNL A   1      42.992  31.875  29.399  1.00  0.00     0.049 A 
ATOM     53  H   UNL A   1      42.491  29.880  28.937  1.00  0.00     0.167 HD
ATOM     54  C   UNL A   1      44.997  31.028  28.196  1.00  0.00     0.074 A 
ATOM     55  C   UNL A   1      46.315  31.198  27.619  1.00  0.00     0.031 C 
ATOM     56  C   UNL A   1      44.312  32.007  28.834  1.00  0.00     0.037 A 
BRANCH  43  57
ATOM     57  C   UNL A   1      38.698  30.353  30.827  1.00  0.00     0.057 A 
ATOM     58  C   UNL A   1      38.520  30.196  32.206  1.00  0.00     0.134 A 
ATOM     59  C   UNL A   1      37.641  30.912  30.097  1.00  0.00     0.134 A 
ATOM     60  F   UNL A   1      39.486  29.650  32.960  1.00  0.00    -0.206 F 
ATOM     61  C   UNL A   1      37.327  30.566  32.833  1.00  0.00     0.040 A 
ATOM     62  C   UNL A   1      36.455  31.307  30.716  1.00  0.00     0.040 A 
ATOM     63  F   UNL A   1      37.747  31.090  28.772  1.00  0.00    -0.206 F 
ATOM     64  C   UNL A   1      36.293  31.128  32.088  1.00  0.00     0.006 A 
ENDBRANCH  43  57
BRANCH  44  65
ATOM     65  C   UNL A   1      46.969  27.327  26.053  1.00  0.00     0.057 A 
ATOM     66  C   UNL A   1      47.050  27.496  24.667  1.00  0.00     0.134 A 
ATOM     67  C   UNL A   1      48.072  26.753  26.699  1.00  0.00     0.134 A 
ATOM     68  F   UNL A   1      46.017  28.020  23.991  1.00  0.00    -0.206 F 
ATOM     69  C   UNL A   1      48.179  27.102  23.947  1.00  0.00     0.040 A 
ATOM     70  C   UNL A   1      49.218  26.378  25.996  1.00  0.00     0.040 A 
ATOM     71  F   UNL A   1      48.059  26.570  28.027  1.00  0.00    -0.206 F 
ATOM     72  C   UNL A   1      49.271  26.548  24.615  1.00  0.00     0.006 A 
ENDBRANCH  44  65
BRANCH  56  73
ATOM     73  C   UNL A   1      44.994  33.329  28.993  1.00  0.00     0.057 A 
ATOM     74  C   UNL A   1      44.809  34.370  28.076  1.00  0.00     0.134 A 
ATOM     75  C   UNL A   1      45.791  33.583  30.116  1.00  0.00     0.134 A 
ATOM     76  F   UNL A   1      44.068  34.181  26.974  1.00  0.00    -0.206 F 
ATOM     77  C   UNL A   1      45.399  35.620  28.270  1.00  0.00     0.040 A 
ATOM     78  C   UNL A   1      46.369  34.834  30.332  1.00  0.00     0.040 A 
ATOM     79  F   UNL A   1      45.999  32.627  31.034  1.00  0.00    -0.206 F 
ATOM     80  C   UNL A   1      46.173  35.856  29.405  1.00  0.00     0.006 A 
ENDBRANCH  56  73
ENDBRANCH  30  31
ENDBRANCH  23  25
ENDBRANCH  22  23
ENDBRANCH  21  22
ENDBRANCH   1  21
TORSDOF 13
ENDMDL
