MODEL 1
REMARK VINA RESULT:     -14.1      0.000      0.000
REMARK SMILES O=C(OCCOC(=O)[C@H]1[C@H]2CC[C@H](CC2)[C@@H]1C(=O)Nc1ccc(Cc2ccncc2)cc1)c1ccc(-c2c3nc(c(-c4c(F)cccc4F)c4ccc([nH]4)c(-c4c(F)cccc4F)c4nc(c(-c5c(F)cccc5F)c5ccc2[nH]5)C=C4)C=C3)cc1
REMARK SMILES IDX 5 1 4 2 3 3 2 4 1 5 33 6 34 7 86 8 35 9 85 10 36 11 37 12
REMARK SMILES IDX 38 13 79 14 39 15 84 16 78 17 80 18 40 19 83 20 77 21 76 22
REMARK SMILES IDX 41 24 67 25 50 26 66 27 51 28 54 29 65 30 81 31 52 32 53 33
REMARK SMILES IDX 64 35 82 36 55 37 42 38 43 39 48 40 44 41 45 42 47 43 49 44
REMARK SMILES IDX 46 45 68 46 69 47 74 48 70 49 71 50 73 51 75 52 72 53 56 54
REMARK SMILES IDX 57 55 62 56 58 57 59 58 61 59 63 60 60 61 6 62 7 63 8 64
REMARK SMILES IDX 9 65 10 66 16 67 15 68 11 69 13 70 14 71 12 72 17 73 18 74
REMARK SMILES IDX 19 75 20 77 21 78 32 79 22 80 31 81 23 82 24 83 25 84 26 85
REMARK SMILES IDX 30 86 27 87 29 88 28 89
REMARK H PARENT 80 23 54 34 19 76
REMARK Flexibility Score: inf
ROOT
ATOM      1  C   UNL A   1      36.136  19.581  24.606  1.00  0.00     0.274 C 
ENDROOT
BRANCH   1   2
ATOM      2  C   UNL A   1      37.547  20.214  24.690  1.00  0.00     0.275 C 
BRANCH   2   3
ATOM      3  O   UNL A   1      38.445  19.500  25.558  1.00  0.00    -0.458 OA
BRANCH   3   4
ATOM      4  C   UNL A   1      39.709  19.927  25.751  1.00  0.00     0.338 C 
ATOM      5  O   UNL A   1      40.705  19.249  25.555  1.00  0.00    -0.246 OA
BRANCH   4   6
ATOM      6  C   UNL A   1      39.816  21.219  26.409  1.00  0.00     0.060 A 
ATOM      7  C   UNL A   1      39.145  22.687  25.872  1.00  0.00     0.016 A 
ATOM      8  C   UNL A   1      40.945  21.374  27.655  1.00  0.00     0.016 A 
ATOM      9  C   UNL A   1      39.723  24.452  26.637  1.00  0.00     0.010 A 
ATOM     10  C   UNL A   1      41.519  22.957  28.455  1.00  0.00     0.010 A 
ATOM     11  C   UNL A   1      40.956  24.515  27.902  1.00  0.00    -0.014 A 
BRANCH  11  12
ATOM     12  C   UNL A   1      41.600  25.799  28.236  1.00  0.00     0.031 A 
ATOM     13  C   UNL A   1      43.004  26.114  27.777  1.00  0.00     0.074 A 
ATOM     14  C   UNL A   1      40.888  26.704  28.917  1.00  0.00     0.049 A 
ATOM     15  N   UNL A   1      43.601  27.268  27.608  1.00  0.00    -0.248 NA
ATOM     16  C   UNL A   1      43.865  24.973  27.454  1.00  0.00     0.031 C 
ATOM     17  C   UNL A   1      39.543  26.490  29.446  1.00  0.00     0.029 A 
ATOM     18  N   UNL A   1      41.188  27.996  29.247  1.00  0.00    -0.354 N 
ATOM     19  C   UNL A   1      44.856  26.977  27.070  1.00  0.00     0.074 A 
ATOM     20  C   UNL A   1      44.958  25.543  26.974  1.00  0.00     0.031 C 
ATOM     21  C   UNL A   1      39.121  27.625  30.024  1.00  0.00     0.029 A 
ATOM     22  C   UNL A   1      40.158  28.642  29.880  1.00  0.00     0.049 A 
ATOM     23  H   UNL A   1      42.054  28.419  29.051  1.00  0.00     0.167 HD
ATOM     24  C   UNL A   1      45.849  27.828  26.715  1.00  0.00     0.037 A 
ATOM     25  C   UNL A   1      40.059  29.927  30.259  1.00  0.00     0.037 A 
ATOM     26  C   UNL A   1      45.796  29.234  27.005  1.00  0.00     0.049 A 
ATOM     27  C   UNL A   1      41.175  30.864  29.889  1.00  0.00     0.074 A 
ATOM     28  C   UNL A   1      46.731  30.219  26.748  1.00  0.00     0.029 A 
ATOM     29  N   UNL A   1      44.749  29.837  27.690  1.00  0.00    -0.354 N 
ATOM     30  N   UNL A   1      42.288  30.611  29.238  1.00  0.00    -0.248 NA
ATOM     31  C   UNL A   1      41.010  32.268  30.278  1.00  0.00     0.031 C 
ATOM     32  C   UNL A   1      46.273  31.406  27.334  1.00  0.00     0.029 A 
ATOM     33  C   UNL A   1      45.025  31.173  27.894  1.00  0.00     0.049 A 
ATOM     34  H   UNL A   1      43.930  29.378  27.987  1.00  0.00     0.167 HD
ATOM     35  C   UNL A   1      42.949  31.826  29.120  1.00  0.00     0.074 A 
ATOM     36  C   UNL A   1      42.096  32.817  29.751  1.00  0.00     0.031 C 
ATOM     37  C   UNL A   1      44.146  32.111  28.548  1.00  0.00     0.037 A 
BRANCH  24  38
ATOM     38  C   UNL A   1      47.068  27.254  26.040  1.00  0.00     0.057 A 
ATOM     39  C   UNL A   1      48.133  26.720  26.782  1.00  0.00     0.134 A 
ATOM     40  C   UNL A   1      47.186  27.216  24.643  1.00  0.00     0.134 A 
ATOM     41  F   UNL A   1      48.100  26.729  28.123  1.00  0.00    -0.206 F 
ATOM     42  C   UNL A   1      49.273  26.193  26.164  1.00  0.00     0.040 A 
ATOM     43  C   UNL A   1      48.313  26.674  24.014  1.00  0.00     0.040 A 
ATOM     44  F   UNL A   1      46.211  27.706  23.864  1.00  0.00    -0.206 F 
ATOM     45  C   UNL A   1      49.363  26.166  24.775  1.00  0.00     0.006 A 
ENDBRANCH  24  38
BRANCH  25  46
ATOM     46  C   UNL A   1      38.831  30.382  30.957  1.00  0.00     0.057 A 
ATOM     47  C   UNL A   1      37.771  30.978  30.266  1.00  0.00     0.134 A 
ATOM     48  C   UNL A   1      38.661  30.163  32.331  1.00  0.00     0.134 A 
ATOM     49  F   UNL A   1      37.868  31.212  28.950  1.00  0.00    -0.206 F 
ATOM     50  C   UNL A   1      36.593  31.353  30.917  1.00  0.00     0.040 A 
ATOM     51  C   UNL A   1      37.480  30.507  32.989  1.00  0.00     0.040 A 
ATOM     52  F   UNL A   1      39.629  29.571  33.047  1.00  0.00    -0.206 F 
ATOM     53  C   UNL A   1      36.443  31.109  32.281  1.00  0.00     0.006 A 
ENDBRANCH  25  46
BRANCH  37  54
ATOM     54  C   UNL A   1      44.588  33.542  28.584  1.00  0.00     0.057 A 
ATOM     55  C   UNL A   1      44.264  34.437  27.559  1.00  0.00     0.134 A 
ATOM     56  C   UNL A   1      45.299  34.035  29.685  1.00  0.00     0.134 A 
ATOM     57  F   UNL A   1      43.589  34.020  26.477  1.00  0.00    -0.206 F 
ATOM     58  C   UNL A   1      44.659  35.773  27.613  1.00  0.00     0.040 A 
ATOM     59  C   UNL A   1      45.672  35.376  29.764  1.00  0.00     0.040 A 
ATOM     60  F   UNL A   1      45.623  33.228  30.706  1.00  0.00    -0.206 F 
ATOM     61  C   UNL A   1      45.358  36.246  28.722  1.00  0.00     0.006 A 
ENDBRANCH  37  54
ENDBRANCH  11  12
ENDBRANCH   4   6
ENDBRANCH   3   4
ENDBRANCH   2   3
ENDBRANCH   1   2
BRANCH   1  62
ATOM     62  O   UNL A   1      35.077  20.194  25.402  1.00  0.00    -0.462 OA
BRANCH  62  63
ATOM     63  C   UNL A   1      33.753  20.169  24.996  1.00  0.00     0.310 C 
ATOM     64  O   UNL A   1      33.166  19.151  24.667  1.00  0.00    -0.252 OA
BRANCH  63  65
ATOM     65  C   UNL A   1      33.086  21.618  25.113  1.00  0.00     0.115 C 
ATOM     66  C   UNL A   1      32.336  21.737  26.448  1.00  0.00     0.004 C 
ATOM     67  C   UNL A   1      34.084  22.996  24.813  1.00  0.00     0.096 C 
ATOM     68  C   UNL A   1      33.325  21.840  27.598  1.00  0.00     0.005 C 
ATOM     69  C   UNL A   1      31.495  23.021  26.385  1.00  0.00     0.005 C 
ATOM     70  C   UNL A   1      33.886  23.856  26.109  1.00  0.00     0.002 C 
ATOM     71  C   UNL A   1      34.319  22.978  27.328  1.00  0.00     0.005 C 
ATOM     72  C   UNL A   1      32.412  24.249  26.333  1.00  0.00     0.005 C 
BRANCH  67  73
ATOM     73  C   UNL A   1      34.407  23.983  23.278  1.00  0.00     0.228 C 
ATOM     74  O   UNL A   1      35.518  23.773  22.748  1.00  0.00    -0.274 OA
ATOM     75  N   UNL A   1      33.532  24.930  22.458  1.00  0.00    -0.326 N 
ATOM     76  H   UNL A   1      33.813  24.953  21.515  1.00  0.00     0.169 HD
BRANCH  75  77
ATOM     77  C   UNL A   1      32.195  25.962  22.741  1.00  0.00     0.041 A 
ATOM     78  C   UNL A   1      32.384  27.714  22.265  1.00  0.00     0.026 A 
ATOM     79  C   UNL A   1      30.388  25.464  23.501  1.00  0.00     0.026 A 
ATOM     80  C   UNL A   1      30.955  28.810  22.493  1.00  0.00     0.006 A 
ATOM     81  C   UNL A   1      29.086  26.612  23.683  1.00  0.00     0.006 A 
ATOM     82  C   UNL A   1      29.368  28.238  23.150  1.00  0.00    -0.043 A 
BRANCH  82  83
ATOM     83  C   UNL A   1      28.027  28.924  22.988  1.00  0.00     0.071 C 
BRANCH  83  84
ATOM     84  C   UNL A   1      28.127  30.362  22.596  1.00  0.00    -0.041 A 
ATOM     85  C   UNL A   1      28.020  30.671  21.246  1.00  0.00     0.024 A 
ATOM     86  C   UNL A   1      28.335  31.403  23.515  1.00  0.00     0.024 A 
ATOM     87  C   UNL A   1      28.105  31.993  20.863  1.00  0.00     0.111 A 
ATOM     88  C   UNL A   1      28.405  32.700  23.029  1.00  0.00     0.111 A 
ATOM     89  N   UNL A   1      28.287  33.018  21.723  1.00  0.00    -0.265 NA
ENDBRANCH  83  84
ENDBRANCH  82  83
ENDBRANCH  75  77
ENDBRANCH  67  73
ENDBRANCH  63  65
ENDBRANCH  62  63
ENDBRANCH   1  62
TORSDOF 15
ENDMDL
MODEL 2
REMARK VINA RESULT:     -14.0      3.891      7.493
REMARK SMILES O=C(OCCOC(=O)[C@H]1[C@H]2CC[C@H](CC2)[C@@H]1C(=O)Nc1ccc(Cc2ccncc2)cc1)c1ccc(-c2c3nc(c(-c4c(F)cccc4F)c4ccc([nH]4)c(-c4c(F)cccc4F)c4nc(c(-c5c(F)cccc5F)c5ccc2[nH]5)C=C4)C=C3)cc1
REMARK SMILES IDX 5 1 4 2 3 3 2 4 1 5 33 6 34 7 86 8 35 9 85 10 36 11 37 12
REMARK SMILES IDX 38 13 79 14 39 15 84 16 78 17 80 18 40 19 83 20 77 21 76 22
REMARK SMILES IDX 41 24 67 25 50 26 66 27 51 28 54 29 65 30 81 31 52 32 53 33
REMARK SMILES IDX 64 35 82 36 55 37 42 38 43 39 48 40 44 41 45 42 47 43 49 44
REMARK SMILES IDX 46 45 68 46 69 47 74 48 70 49 71 50 73 51 75 52 72 53 56 54
REMARK SMILES IDX 57 55 62 56 58 57 59 58 61 59 63 60 60 61 6 62 7 63 8 64
REMARK SMILES IDX 9 65 10 66 16 67 15 68 11 69 13 70 14 71 12 72 17 73 18 74
REMARK SMILES IDX 19 75 20 77 21 78 32 79 22 80 31 81 23 82 24 83 25 84 26 85
REMARK SMILES IDX 30 86 27 87 29 88 28 89
REMARK H PARENT 80 23 54 34 19 76
REMARK Flexibility Score: inf
ROOT
ATOM      1  C   UNL A   1      37.541  21.982  25.618  1.00  0.00     0.274 C 
ENDROOT
BRANCH   1   2
ATOM      2  C   UNL A   1      39.023  21.573  25.800  1.00  0.00     0.275 C 
BRANCH   2   3
ATOM      3  O   UNL A   1      39.698  22.310  26.835  1.00  0.00    -0.458 OA
BRANCH   3   4
ATOM      4  C   UNL A   1      40.701  23.161  26.539  1.00  0.00     0.338 C 
ATOM      5  O   UNL A   1      41.778  22.825  26.073  1.00  0.00    -0.246 OA
BRANCH   4   6
ATOM      6  C   UNL A   1      40.492  24.524  26.999  1.00  0.00     0.060 A 
ATOM      7  C   UNL A   1      41.448  25.878  26.618  1.00  0.00     0.016 A 
ATOM      8  C   UNL A   1      39.394  24.768  28.258  1.00  0.00     0.016 A 
ATOM      9  C   UNL A   1      41.302  27.595  27.652  1.00  0.00     0.010 A 
ATOM     10  C   UNL A   1      39.156  26.328  29.250  1.00  0.00     0.010 A 
ATOM     11  C   UNL A   1      40.160  27.734  28.994  1.00  0.00    -0.014 A 
BRANCH  11  12
ATOM     12  C   UNL A   1      40.271  28.861  29.939  1.00  0.00     0.031 A 
ATOM     13  C   UNL A   1      39.293  30.011  29.904  1.00  0.00     0.074 A 
ATOM     14  C   UNL A   1      41.236  28.816  30.865  1.00  0.00     0.049 A 
ATOM     15  N   UNL A   1      38.958  30.867  30.838  1.00  0.00    -0.248 NA
ATOM     16  C   UNL A   1      38.579  30.234  28.644  1.00  0.00     0.031 C 
ATOM     17  C   UNL A   1      42.259  27.778  30.962  1.00  0.00     0.029 A 
ATOM     18  N   UNL A   1      41.486  29.648  31.919  1.00  0.00    -0.354 N 
ATOM     19  C   UNL A   1      37.935  31.648  30.297  1.00  0.00     0.074 A 
ATOM     20  C   UNL A   1      37.724  31.198  28.945  1.00  0.00     0.031 C 
ATOM     21  C   UNL A   1      43.023  28.025  32.037  1.00  0.00     0.029 A 
ATOM     22  C   UNL A   1      42.522  29.221  32.707  1.00  0.00     0.049 A 
ATOM     23  H   UNL A   1      40.974  30.470  32.095  1.00  0.00     0.167 HD
ATOM     24  C   UNL A   1      37.251  32.670  30.866  1.00  0.00     0.037 A 
ATOM     25  C   UNL A   1      42.981  29.725  33.865  1.00  0.00     0.037 A 
ATOM     26  C   UNL A   1      37.617  33.224  32.140  1.00  0.00     0.049 A 
ATOM     27  C   UNL A   1      42.238  30.878  34.480  1.00  0.00     0.074 A 
ATOM     28  C   UNL A   1      37.054  34.278  32.833  1.00  0.00     0.029 A 
ATOM     29  N   UNL A   1      38.706  32.785  32.883  1.00  0.00    -0.354 N 
ATOM     30  N   UNL A   1      41.173  31.507  34.039  1.00  0.00    -0.248 NA
ATOM     31  C   UNL A   1      42.739  31.371  35.767  1.00  0.00     0.031 C 
ATOM     32  C   UNL A   1      37.842  34.516  33.965  1.00  0.00     0.029 A 
ATOM     33  C   UNL A   1      38.854  33.566  34.011  1.00  0.00     0.049 A 
ATOM     34  H   UNL A   1      39.287  32.029  32.640  1.00  0.00     0.167 HD
ATOM     35  C   UNL A   1      40.862  32.459  35.001  1.00  0.00     0.074 A 
ATOM     36  C   UNL A   1      41.843  32.304  36.060  1.00  0.00     0.031 C 
ATOM     37  C   UNL A   1      39.864  33.379  35.022  1.00  0.00     0.037 A 
BRANCH  24  38
ATOM     38  C   UNL A   1      36.102  33.269  30.097  1.00  0.00     0.057 A 
ATOM     39  C   UNL A   1      36.317  34.167  29.039  1.00  0.00     0.134 A 
ATOM     40  C   UNL A   1      34.770  32.948  30.396  1.00  0.00     0.134 A 
ATOM     41  F   UNL A   1      37.563  34.532  28.701  1.00  0.00    -0.206 F 
ATOM     42  C   UNL A   1      35.256  34.735  28.326  1.00  0.00     0.040 A 
ATOM     43  C   UNL A   1      33.702  33.496  29.677  1.00  0.00     0.040 A 
ATOM     44  F   UNL A   1      34.481  32.098  31.392  1.00  0.00    -0.206 F 
ATOM     45  C   UNL A   1      33.943  34.398  28.642  1.00  0.00     0.006 A 
ENDBRANCH  24  38
BRANCH  25  46
ATOM     46  C   UNL A   1      44.148  29.084  34.520  1.00  0.00     0.057 A 
ATOM     47  C   UNL A   1      43.990  28.094  35.495  1.00  0.00     0.134 A 
ATOM     48  C   UNL A   1      45.456  29.403  34.131  1.00  0.00     0.134 A 
ATOM     49  F   UNL A   1      42.766  27.741  35.909  1.00  0.00    -0.206 F 
ATOM     50  C   UNL A   1      45.091  27.452  36.068  1.00  0.00     0.040 A 
ATOM     51  C   UNL A   1      46.563  28.750  34.675  1.00  0.00     0.040 A 
ATOM     52  F   UNL A   1      45.675  30.325  33.182  1.00  0.00    -0.206 F 
ATOM     53  C   UNL A   1      46.381  27.774  35.652  1.00  0.00     0.006 A 
ENDBRANCH  25  46
BRANCH  37  54
ATOM     54  C   UNL A   1      39.796  34.274  36.221  1.00  0.00     0.057 A 
ATOM     55  C   UNL A   1      40.388  35.541  36.228  1.00  0.00     0.134 A 
ATOM     56  C   UNL A   1      39.080  33.879  37.358  1.00  0.00     0.134 A 
ATOM     57  F   UNL A   1      41.091  35.971  35.168  1.00  0.00    -0.206 F 
ATOM     58  C   UNL A   1      40.299  36.377  37.340  1.00  0.00     0.040 A 
ATOM     59  C   UNL A   1      38.958  34.719  38.465  1.00  0.00     0.040 A 
ATOM     60  F   UNL A   1      38.476  32.683  37.404  1.00  0.00    -0.206 F 
ATOM     61  C   UNL A   1      39.574  35.968  38.459  1.00  0.00     0.006 A 
ENDBRANCH  37  54
ENDBRANCH  11  12
ENDBRANCH   4   6
ENDBRANCH   3   4
ENDBRANCH   2   3
ENDBRANCH   1   2
BRANCH   1  62
ATOM     62  O   UNL A   1      36.535  20.932  25.743  1.00  0.00    -0.462 OA
BRANCH  62  63
ATOM     63  C   UNL A   1      35.204  21.224  25.995  1.00  0.00     0.310 C 
ATOM     64  O   UNL A   1      34.764  21.463  27.108  1.00  0.00    -0.252 OA
BRANCH  63  65
ATOM     65  C   UNL A   1      34.363  21.303  24.637  1.00  0.00     0.115 C 
ATOM     66  C   UNL A   1      33.323  20.174  24.605  1.00  0.00     0.004 C 
ATOM     67  C   UNL A   1      33.671  22.824  24.200  1.00  0.00     0.096 C 
ATOM     68  C   UNL A   1      32.204  20.463  25.592  1.00  0.00     0.005 C 
ATOM     69  C   UNL A   1      32.746  20.126  23.182  1.00  0.00     0.005 C 
ATOM     70  C   UNL A   1      32.158  22.470  23.991  1.00  0.00     0.002 C 
ATOM     71  C   UNL A   1      31.628  21.860  25.329  1.00  0.00     0.005 C 
ATOM     72  C   UNL A   1      31.952  21.406  22.894  1.00  0.00     0.005 C 
BRANCH  67  73
ATOM     73  C   UNL A   1      34.290  24.209  23.135  1.00  0.00     0.228 C 
ATOM     74  O   UNL A   1      35.494  24.121  22.815  1.00  0.00    -0.274 OA
ATOM     75  N   UNL A   1      33.587  25.391  22.468  1.00  0.00    -0.326 N 
ATOM     76  H   UNL A   1      34.063  25.681  21.657  1.00  0.00     0.169 HD
BRANCH  75  77
ATOM     77  C   UNL A   1      32.194  26.344  22.755  1.00  0.00     0.041 A 
ATOM     78  C   UNL A   1      32.328  28.131  22.413  1.00  0.00     0.026 A 
ATOM     79  C   UNL A   1      30.377  25.719  23.386  1.00  0.00     0.026 A 
ATOM     80  C   UNL A   1      30.842  29.150  22.645  1.00  0.00     0.006 A 
ATOM     81  C   UNL A   1      29.018  26.797  23.582  1.00  0.00     0.006 A 
ATOM     82  C   UNL A   1      29.252  28.467  23.179  1.00  0.00    -0.043 A 
BRANCH  82  83
ATOM     83  C   UNL A   1      27.891  29.107  22.998  1.00  0.00     0.071 C 
BRANCH  83  84
ATOM     84  C   UNL A   1      27.946  30.494  22.444  1.00  0.00    -0.041 A 
ATOM     85  C   UNL A   1      27.972  31.549  23.348  1.00  0.00     0.024 A 
ATOM     86  C   UNL A   1      27.958  30.780  21.070  1.00  0.00     0.024 A 
ATOM     87  C   UNL A   1      28.027  32.837  22.858  1.00  0.00     0.111 A 
ATOM     88  C   UNL A   1      28.017  32.109  20.678  1.00  0.00     0.111 A 
ATOM     89  N   UNL A   1      28.059  33.143  21.544  1.00  0.00    -0.265 NA
ENDBRANCH  83  84
ENDBRANCH  82  83
ENDBRANCH  75  77
ENDBRANCH  67  73
ENDBRANCH  63  65
ENDBRANCH  62  63
ENDBRANCH   1  62
TORSDOF 15
ENDMDL
MODEL 3
REMARK VINA RESULT:     -13.6      4.033     10.190
REMARK SMILES O=C(OCCOC(=O)[C@H]1[C@H]2CC[C@H](CC2)[C@@H]1C(=O)Nc1ccc(Cc2ccncc2)cc1)c1ccc(-c2c3nc(c(-c4c(F)cccc4F)c4ccc([nH]4)c(-c4c(F)cccc4F)c4nc(c(-c5c(F)cccc5F)c5ccc2[nH]5)C=C4)C=C3)cc1
REMARK SMILES IDX 5 1 4 2 3 3 2 4 1 5 33 6 34 7 86 8 35 9 85 10 36 11 37 12
REMARK SMILES IDX 38 13 79 14 39 15 84 16 78 17 80 18 40 19 83 20 77 21 76 22
REMARK SMILES IDX 41 24 67 25 50 26 66 27 51 28 54 29 65 30 81 31 52 32 53 33
REMARK SMILES IDX 64 35 82 36 55 37 42 38 43 39 48 40 44 41 45 42 47 43 49 44
REMARK SMILES IDX 46 45 68 46 69 47 74 48 70 49 71 50 73 51 75 52 72 53 56 54
REMARK SMILES IDX 57 55 62 56 58 57 59 58 61 59 63 60 60 61 6 62 7 63 8 64
REMARK SMILES IDX 9 65 10 66 16 67 15 68 11 69 13 70 14 71 12 72 17 73 18 74
REMARK SMILES IDX 19 75 20 77 21 78 32 79 22 80 31 81 23 82 24 83 25 84 26 85
REMARK SMILES IDX 30 86 27 87 29 88 28 89
REMARK H PARENT 80 23 54 34 19 76
REMARK Flexibility Score: inf
ROOT
ATOM      1  C   UNL A   1      32.197  27.614  24.425  1.00  0.00     0.274 C 
ENDROOT
BRANCH   1   2
ATOM      2  C   UNL A   1      31.598  28.949  24.933  1.00  0.00     0.275 C 
BRANCH   2   3
ATOM      3  O   UNL A   1      32.593  29.911  25.326  1.00  0.00    -0.458 OA
BRANCH   3   4
ATOM      4  C   UNL A   1      32.336  30.823  26.284  1.00  0.00     0.338 C 
ATOM      5  O   UNL A   1      31.418  31.628  26.245  1.00  0.00    -0.246 OA
BRANCH   4   6
ATOM      6  C   UNL A   1      33.360  30.926  27.311  1.00  0.00     0.060 A 
ATOM      7  C   UNL A   1      34.258  32.315  27.710  1.00  0.00     0.016 A 
ATOM      8  C   UNL A   1      33.947  29.491  27.980  1.00  0.00     0.016 A 
ATOM      9  C   UNL A   1      35.918  32.208  28.836  1.00  0.00     0.010 A 
ATOM     10  C   UNL A   1      35.451  29.294  29.063  1.00  0.00     0.010 A 
ATOM     11  C   UNL A   1      36.485  30.648  29.444  1.00  0.00    -0.014 A 
BRANCH  11  12
ATOM     12  C   UNL A   1      37.849  30.527  29.993  1.00  0.00     0.031 A 
ATOM     13  C   UNL A   1      38.193  31.064  31.362  1.00  0.00     0.074 A 
ATOM     14  C   UNL A   1      38.767  29.880  29.265  1.00  0.00     0.049 A 
ATOM     15  N   UNL A   1      39.161  30.736  32.182  1.00  0.00    -0.248 NA
ATOM     16  C   UNL A   1      37.324  32.117  31.895  1.00  0.00     0.031 C 
ATOM     17  C   UNL A   1      38.557  29.361  27.916  1.00  0.00     0.029 A 
ATOM     18  N   UNL A   1      40.049  29.523  29.577  1.00  0.00    -0.354 N 
ATOM     19  C   UNL A   1      38.945  31.473  33.347  1.00  0.00     0.074 A 
ATOM     20  C   UNL A   1      37.782  32.294  33.124  1.00  0.00     0.031 C 
ATOM     21  C   UNL A   1      39.671  28.730  27.518  1.00  0.00     0.029 A 
ATOM     22  C   UNL A   1      40.655  28.785  28.595  1.00  0.00     0.049 A 
ATOM     23  H   UNL A   1      40.490  29.770  30.421  1.00  0.00     0.167 HD
ATOM     24  C   UNL A   1      39.668  31.488  34.493  1.00  0.00     0.037 A 
ATOM     25  C   UNL A   1      41.859  28.188  28.594  1.00  0.00     0.037 A 
ATOM     26  C   UNL A   1      40.929  30.811  34.614  1.00  0.00     0.049 A 
ATOM     27  C   UNL A   1      42.673  28.230  29.857  1.00  0.00     0.074 A 
ATOM     28  C   UNL A   1      41.799  30.760  35.687  1.00  0.00     0.029 A 
ATOM     29  N   UNL A   1      41.526  30.111  33.573  1.00  0.00    -0.354 N 
ATOM     30  N   UNL A   1      42.388  28.795  31.008  1.00  0.00    -0.248 NA
ATOM     31  C   UNL A   1      43.960  27.527  29.833  1.00  0.00     0.031 C 
ATOM     32  C   UNL A   1      42.950  30.080  35.272  1.00  0.00     0.029 A 
ATOM     33  C   UNL A   1      42.767  29.650  33.964  1.00  0.00     0.049 A 
ATOM     34  H   UNL A   1      41.124  29.965  32.687  1.00  0.00     0.167 HD
ATOM     35  C   UNL A   1      43.448  28.501  31.854  1.00  0.00     0.074 A 
ATOM     36  C   UNL A   1      44.371  27.688  31.083  1.00  0.00     0.031 C 
ATOM     37  C   UNL A   1      43.654  28.862  33.146  1.00  0.00     0.037 A 
BRANCH  24  38
ATOM     38  C   UNL A   1      39.141  32.291  35.655  1.00  0.00     0.057 A 
ATOM     39  C   UNL A   1      39.466  33.648  35.814  1.00  0.00     0.134 A 
ATOM     40  C   UNL A   1      38.295  31.724  36.618  1.00  0.00     0.134 A 
ATOM     41  F   UNL A   1      40.279  34.259  34.940  1.00  0.00    -0.206 F 
ATOM     42  C   UNL A   1      38.989  34.399  36.894  1.00  0.00     0.040 A 
ATOM     43  C   UNL A   1      37.797  32.471  37.692  1.00  0.00     0.040 A 
ATOM     44  F   UNL A   1      37.938  30.434  36.536  1.00  0.00    -0.206 F 
ATOM     45  C   UNL A   1      38.149  33.811  37.836  1.00  0.00     0.006 A 
ENDBRANCH  24  38
BRANCH  25  46
ATOM     46  C   UNL A   1      42.302  27.456  27.381  1.00  0.00     0.057 A 
ATOM     47  C   UNL A   1      42.941  28.109  26.322  1.00  0.00     0.134 A 
ATOM     48  C   UNL A   1      42.156  26.065  27.286  1.00  0.00     0.134 A 
ATOM     49  F   UNL A   1      43.114  29.438  26.353  1.00  0.00    -0.206 F 
ATOM     50  C   UNL A   1      43.408  27.409  25.208  1.00  0.00     0.040 A 
ATOM     51  C   UNL A   1      42.643  25.349  26.192  1.00  0.00     0.040 A 
ATOM     52  F   UNL A   1      41.576  25.376  28.280  1.00  0.00    -0.206 F 
ATOM     53  C   UNL A   1      43.267  26.023  25.145  1.00  0.00     0.006 A 
ENDBRANCH  25  46
BRANCH  37  54
ATOM     54  C   UNL A   1      44.917  28.377  33.790  1.00  0.00     0.057 A 
ATOM     55  C   UNL A   1      44.986  27.133  34.428  1.00  0.00     0.134 A 
ATOM     56  C   UNL A   1      46.086  29.143  33.720  1.00  0.00     0.134 A 
ATOM     57  F   UNL A   1      43.896  26.357  34.530  1.00  0.00    -0.206 F 
ATOM     58  C   UNL A   1      46.173  26.680  35.003  1.00  0.00     0.040 A 
ATOM     59  C   UNL A   1      47.286  28.686  34.264  1.00  0.00     0.040 A 
ATOM     60  F   UNL A   1      46.085  30.336  33.106  1.00  0.00    -0.206 F 
ATOM     61  C   UNL A   1      47.328  27.454  34.914  1.00  0.00     0.006 A 
ENDBRANCH  37  54
ENDBRANCH  11  12
ENDBRANCH   4   6
ENDBRANCH   3   4
ENDBRANCH   2   3
ENDBRANCH   1   2
BRANCH   1  62
ATOM     62  O   UNL A   1      32.818  26.739  25.414  1.00  0.00    -0.462 OA
BRANCH  62  63
ATOM     63  C   UNL A   1      32.097  25.758  26.074  1.00  0.00     0.310 C 
ATOM     64  O   UNL A   1      30.957  25.917  26.482  1.00  0.00    -0.252 OA
BRANCH  63  65
ATOM     65  C   UNL A   1      32.912  24.383  26.137  1.00  0.00     0.115 C 
ATOM     66  C   UNL A   1      32.370  23.510  27.277  1.00  0.00     0.004 C 
ATOM     67  C   UNL A   1      33.098  23.485  24.673  1.00  0.00     0.096 C 
ATOM     68  C   UNL A   1      31.003  22.956  26.909  1.00  0.00     0.005 C 
ATOM     69  C   UNL A   1      33.355  22.347  27.468  1.00  0.00     0.005 C 
ATOM     70  C   UNL A   1      32.554  22.068  25.066  1.00  0.00     0.002 C 
ATOM     71  C   UNL A   1      31.079  22.246  25.550  1.00  0.00     0.005 C 
ATOM     72  C   UNL A   1      33.343  21.439  26.232  1.00  0.00     0.005 C 
BRANCH  67  73
ATOM     73  C   UNL A   1      34.435  23.467  23.389  1.00  0.00     0.228 C 
ATOM     74  O   UNL A   1      34.028  23.566  22.213  1.00  0.00    -0.274 OA
ATOM     75  N   UNL A   1      35.960  23.469  23.489  1.00  0.00    -0.326 N 
ATOM     76  H   UNL A   1      36.371  23.882  22.696  1.00  0.00     0.169 HD
BRANCH  75  77
ATOM     77  C   UNL A   1      37.143  22.946  24.611  1.00  0.00     0.041 A 
ATOM     78  C   UNL A   1      37.561  21.170  24.606  1.00  0.00     0.026 A 
ATOM     79  C   UNL A   1      38.186  24.076  25.924  1.00  0.00     0.026 A 
ATOM     80  C   UNL A   1      38.863  20.606  25.740  1.00  0.00     0.006 A 
ATOM     81  C   UNL A   1      39.414  23.418  26.977  1.00  0.00     0.006 A 
ATOM     82  C   UNL A   1      39.759  21.723  26.848  1.00  0.00    -0.043 A 
BRANCH  82  83
ATOM     83  C   UNL A   1      41.103  21.462  27.496  1.00  0.00     0.071 C 
BRANCH  83  84
ATOM     84  C   UNL A   1      42.129  20.913  26.559  1.00  0.00    -0.041 A 
ATOM     85  C   UNL A   1      42.999  21.813  25.957  1.00  0.00     0.024 A 
ATOM     86  C   UNL A   1      42.246  19.548  26.252  1.00  0.00     0.024 A 
ATOM     87  C   UNL A   1      43.957  21.326  25.092  1.00  0.00     0.111 A 
ATOM     88  C   UNL A   1      43.244  19.159  25.370  1.00  0.00     0.111 A 
ATOM     89  N   UNL A   1      44.107  20.019  24.790  1.00  0.00    -0.265 NA
ENDBRANCH  83  84
ENDBRANCH  82  83
ENDBRANCH  75  77
ENDBRANCH  67  73
ENDBRANCH  63  65
ENDBRANCH  62  63
ENDBRANCH   1  62
TORSDOF 15
ENDMDL
