MODEL 1
REMARK VINA RESULT:     -11.7      0.000      0.000
REMARK SMILES COc1ccc(-c2noc(CC(=O)OCCOC(=O)c3ccc(-c4c5nc(c(-c6c(F)cccc6F)c6ccc([nH]6)c(-c6c(F)cccc6F)c6nc(c(-c7c(F)cccc7F)c7ccc4[nH]7)C=C6)C=C5)cc3)c2-c2ccc(OC)cc2)cc1
REMARK SMILES IDX 15 1 14 2 12 3 13 4 11 5 10 6 7 7 8 8 74 9 9 10 6 11 3 12
REMARK SMILES IDX 4 13 84 14 5 15 83 16 2 17 1 18 75 19 76 20 82 21 77 22
REMARK SMILES IDX 81 23 78 24 79 25 80 26 16 27 17 28 18 29 19 30 20 31 21 32
REMARK SMILES IDX 73 33 22 34 72 35 23 36 24 37 25 38 66 39 26 40 71 41 65 42
REMARK SMILES IDX 67 43 27 44 70 45 64 46 63 47 28 49 54 50 37 51 53 52 38 53
REMARK SMILES IDX 41 54 52 55 68 56 39 57 40 58 51 60 69 61 42 62 29 63 30 64
REMARK SMILES IDX 35 65 31 66 32 67 34 68 36 69 33 70 55 71 56 72 61 73 57 74
REMARK SMILES IDX 58 75 60 76 62 77 59 78 43 79 44 80 49 81 45 82 46 83 48 84
REMARK SMILES IDX 50 85 47 86
REMARK H PARENT 67 48 41 59
REMARK Flexibility Score: inf
ROOT
ATOM      1  C   UNL A   1      31.373  28.502  24.899  1.00  0.00     0.274 C 
ENDROOT
BRANCH   1   2
ATOM      2  O   UNL A   1      32.492  28.147  24.065  1.00  0.00    -0.462 OA
BRANCH   2   3
ATOM      3  C   UNL A   1      33.172  27.033  24.440  1.00  0.00     0.313 C 
ATOM      4  O   UNL A   1      33.514  26.778  25.591  1.00  0.00    -0.252 OA
BRANCH   3   5
ATOM      5  C   UNL A   1      33.554  26.129  23.300  1.00  0.00     0.201 C 
BRANCH   5   6
ATOM      6  C   UNL A   1      33.023  24.747  23.382  1.00  0.00     0.156 A 
ATOM      7  C   UNL A   1      32.534  22.599  23.639  1.00  0.00     0.122 A 
ATOM      8  N   UNL A   1      31.448  23.179  23.101  1.00  0.00    -0.079 NA
ATOM      9  C   UNL A   1      33.550  23.570  23.861  1.00  0.00     0.053 A 
ATOM     10  O   UNL A   1      31.749  24.524  22.964  1.00  0.00    -0.359 OA
BRANCH   7  11
ATOM     11  C   UNL A   1      32.589  21.166  23.911  1.00  0.00     0.005 A 
ATOM     12  C   UNL A   1      32.522  18.411  24.494  1.00  0.00     0.118 A 
ATOM     13  C   UNL A   1      32.926  19.333  25.462  1.00  0.00     0.047 A 
ATOM     14  C   UNL A   1      32.165  18.867  23.226  1.00  0.00     0.047 A 
ATOM     15  C   UNL A   1      32.972  20.701  25.173  1.00  0.00     0.014 A 
ATOM     16  C   UNL A   1      32.199  20.237  22.936  1.00  0.00     0.014 A 
BRANCH  12  17
ATOM     17  O   UNL A   1      32.496  17.110  24.913  1.00  0.00    -0.497 OA
ATOM     18  C   UNL A   1      33.377  16.209  24.253  1.00  0.00     0.278 C 
ENDBRANCH  12  17
ENDBRANCH   7  11
BRANCH   9  19
ATOM     19  C   UNL A   1      34.895  23.472  24.375  1.00  0.00    -0.012 A 
ATOM     20  C   UNL A   1      35.195  23.938  25.655  1.00  0.00     0.013 A 
ATOM     21  C   UNL A   1      35.887  22.839  23.616  1.00  0.00     0.013 A 
ATOM     22  C   UNL A   1      36.469  23.733  26.185  1.00  0.00     0.047 A 
ATOM     23  C   UNL A   1      37.158  22.629  24.154  1.00  0.00     0.047 A 
ATOM     24  C   UNL A   1      37.448  23.060  25.448  1.00  0.00     0.118 A 
BRANCH  24  25
ATOM     25  O   UNL A   1      38.639  22.888  26.097  1.00  0.00    -0.497 OA
ATOM     26  C   UNL A   1      39.193  21.578  26.071  1.00  0.00     0.278 C 
ENDBRANCH  24  25
ENDBRANCH   9  19
ENDBRANCH   5   6
ENDBRANCH   3   5
ENDBRANCH   2   3
ENDBRANCH   1   2
BRANCH   1  27
ATOM     27  C   UNL A   1      31.478  29.958  25.347  1.00  0.00     0.275 C 
BRANCH  27  28
ATOM     28  O   UNL A   1      32.797  30.210  25.863  1.00  0.00    -0.458 OA
BRANCH  28  29
ATOM     29  C   UNL A   1      32.890  31.172  26.810  1.00  0.00     0.338 C 
ATOM     30  O   UNL A   1      32.144  32.115  26.995  1.00  0.00    -0.246 OA
BRANCH  29  31
ATOM     31  C   UNL A   1      34.118  30.944  27.588  1.00  0.00     0.060 A 
ATOM     32  C   UNL A   1      34.932  32.016  27.957  1.00  0.00     0.016 A 
ATOM     33  C   UNL A   1      34.483  29.636  27.906  1.00  0.00     0.016 A 
ATOM     34  C   UNL A   1      36.121  31.785  28.648  1.00  0.00     0.010 A 
ATOM     35  C   UNL A   1      35.654  29.407  28.630  1.00  0.00     0.010 A 
ATOM     36  C   UNL A   1      36.486  30.479  29.002  1.00  0.00    -0.014 A 
BRANCH  36  37
ATOM     37  C   UNL A   1      37.738  30.220  29.755  1.00  0.00     0.031 A 
ATOM     38  C   UNL A   1      38.801  29.338  29.168  1.00  0.00     0.074 A 
ATOM     39  C   UNL A   1      37.903  30.756  30.978  1.00  0.00     0.049 A 
ATOM     40  N   UNL A   1      39.889  28.871  29.727  1.00  0.00    -0.248 NA
ATOM     41  C   UNL A   1      38.614  28.920  27.771  1.00  0.00     0.031 C 
ATOM     42  C   UNL A   1      36.960  31.653  31.644  1.00  0.00     0.029 A 
ATOM     43  N   UNL A   1      38.923  30.610  31.885  1.00  0.00    -0.354 N 
ATOM     44  C   UNL A   1      40.502  28.084  28.761  1.00  0.00     0.074 A 
ATOM     45  C   UNL A   1      39.660  28.129  27.583  1.00  0.00     0.031 C 
ATOM     46  C   UNL A   1      37.444  31.980  32.853  1.00  0.00     0.029 A 
ATOM     47  C   UNL A   1      38.701  31.270  33.069  1.00  0.00     0.049 A 
ATOM     48  H   UNL A   1      39.735  30.083  31.706  1.00  0.00     0.167 HD
ATOM     49  C   UNL A   1      41.661  27.390  28.851  1.00  0.00     0.037 A 
ATOM     50  C   UNL A   1      39.409  31.272  34.214  1.00  0.00     0.037 A 
ATOM     51  C   UNL A   1      42.505  27.362  30.017  1.00  0.00     0.049 A 
ATOM     52  C   UNL A   1      40.661  30.446  34.308  1.00  0.00     0.074 A 
ATOM     53  C   UNL A   1      43.712  26.708  30.195  1.00  0.00     0.029 A 
ATOM     54  N   UNL A   1      42.229  28.021  31.206  1.00  0.00    -0.354 N 
ATOM     55  N   UNL A   1      41.225  29.696  33.393  1.00  0.00    -0.248 NA
ATOM     56  C   UNL A   1      41.364  30.455  35.598  1.00  0.00     0.031 C 
ATOM     57  C   UNL A   1      44.148  26.942  31.503  1.00  0.00     0.029 A 
ATOM     58  C   UNL A   1      43.231  27.771  32.128  1.00  0.00     0.049 A 
ATOM     59  H   UNL A   1      41.438  28.583  31.370  1.00  0.00     0.167 HD
ATOM     60  C   UNL A   1      42.352  29.150  33.992  1.00  0.00     0.074 A 
ATOM     61  C   UNL A   1      42.402  29.671  35.343  1.00  0.00     0.031 C 
ATOM     62  C   UNL A   1      43.261  28.291  33.471  1.00  0.00     0.037 A 
BRANCH  49  63
ATOM     63  C   UNL A   1      42.072  26.577  27.660  1.00  0.00     0.057 A 
ATOM     64  C   UNL A   1      41.679  25.243  27.503  1.00  0.00     0.134 A 
ATOM     65  C   UNL A   1      42.843  27.150  26.640  1.00  0.00     0.134 A 
ATOM     66  F   UNL A   1      40.950  24.633  28.450  1.00  0.00    -0.206 F 
ATOM     67  C   UNL A   1      42.051  24.501  26.380  1.00  0.00     0.040 A 
ATOM     68  C   UNL A   1      43.204  26.425  25.504  1.00  0.00     0.040 A 
ATOM     69  F   UNL A   1      43.249  28.425  26.728  1.00  0.00    -0.206 F 
ATOM     70  C   UNL A   1      42.811  25.095  25.373  1.00  0.00     0.006 A 
ENDBRANCH  49  63
BRANCH  50  71
ATOM     71  C   UNL A   1      38.929  32.057  35.377  1.00  0.00     0.057 A 
ATOM     72  C   UNL A   1      39.157  33.434  35.463  1.00  0.00     0.134 A 
ATOM     73  C   UNL A   1      38.231  31.449  36.427  1.00  0.00     0.134 A 
ATOM     74  F   UNL A   1      39.842  34.067  34.499  1.00  0.00    -0.206 F 
ATOM     75  C   UNL A   1      38.713  34.180  36.556  1.00  0.00     0.040 A 
ATOM     76  C   UNL A   1      37.761  32.185  37.515  1.00  0.00     0.040 A 
ATOM     77  F   UNL A   1      37.982  30.131  36.402  1.00  0.00    -0.206 F 
ATOM     78  C   UNL A   1      38.005  33.556  37.583  1.00  0.00     0.006 A 
ENDBRANCH  50  71
BRANCH  62  79
ATOM     79  C   UNL A   1      44.390  27.874  34.363  1.00  0.00     0.057 A 
ATOM     80  C   UNL A   1      44.310  26.721  35.155  1.00  0.00     0.134 A 
ATOM     81  C   UNL A   1      45.576  28.616  34.413  1.00  0.00     0.134 A 
ATOM     82  F   UNL A   1      43.194  25.977  35.163  1.00  0.00    -0.206 F 
ATOM     83  C   UNL A   1      45.366  26.330  35.979  1.00  0.00     0.040 A 
ATOM     84  C   UNL A   1      46.646  28.225  35.217  1.00  0.00     0.040 A 
ATOM     85  F   UNL A   1      45.715  29.727  33.674  1.00  0.00    -0.206 F 
ATOM     86  C   UNL A   1      46.541  27.082  36.007  1.00  0.00     0.006 A 
ENDBRANCH  62  79
ENDBRANCH  36  37
ENDBRANCH  29  31
ENDBRANCH  28  29
ENDBRANCH  27  28
ENDBRANCH   1  27
TORSDOF 16
ENDMDL
MODEL 2
REMARK VINA RESULT:     -11.7      3.644      9.089
REMARK SMILES COc1ccc(-c2noc(CC(=O)OCCOC(=O)c3ccc(-c4c5nc(c(-c6c(F)cccc6F)c6ccc([nH]6)c(-c6c(F)cccc6F)c6nc(c(-c7c(F)cccc7F)c7ccc4[nH]7)C=C6)C=C5)cc3)c2-c2ccc(OC)cc2)cc1
REMARK SMILES IDX 15 1 14 2 12 3 13 4 11 5 10 6 7 7 8 8 74 9 9 10 6 11 3 12
REMARK SMILES IDX 4 13 84 14 5 15 83 16 2 17 1 18 75 19 76 20 82 21 77 22
REMARK SMILES IDX 81 23 78 24 79 25 80 26 16 27 17 28 18 29 19 30 20 31 21 32
REMARK SMILES IDX 73 33 22 34 72 35 23 36 24 37 25 38 66 39 26 40 71 41 65 42
REMARK SMILES IDX 67 43 27 44 70 45 64 46 63 47 28 49 54 50 37 51 53 52 38 53
REMARK SMILES IDX 41 54 52 55 68 56 39 57 40 58 51 60 69 61 42 62 29 63 30 64
REMARK SMILES IDX 35 65 31 66 32 67 34 68 36 69 33 70 55 71 56 72 61 73 57 74
REMARK SMILES IDX 58 75 60 76 62 77 59 78 43 79 44 80 49 81 45 82 46 83 48 84
REMARK SMILES IDX 50 85 47 86
REMARK H PARENT 67 48 41 59
REMARK Flexibility Score: inf
ROOT
ATOM      1  C   UNL A   1      34.565  21.147  25.206  1.00  0.00     0.274 C 
ENDROOT
BRANCH   1   2
ATOM      2  O   UNL A   1      34.534  22.357  25.985  1.00  0.00    -0.462 OA
BRANCH   2   3
ATOM      3  C   UNL A   1      33.995  23.439  25.366  1.00  0.00     0.313 C 
ATOM      4  O   UNL A   1      34.487  24.003  24.392  1.00  0.00    -0.252 OA
BRANCH   3   5
ATOM      5  C   UNL A   1      32.743  23.964  26.015  1.00  0.00     0.201 C 
BRANCH   5   6
ATOM      6  C   UNL A   1      31.825  24.702  25.115  1.00  0.00     0.156 A 
ATOM      7  C   UNL A   1      30.574  26.090  23.920  1.00  0.00     0.122 A 
ATOM      8  N   UNL A   1      30.270  24.847  23.510  1.00  0.00    -0.079 NA
ATOM      9  C   UNL A   1      31.583  26.043  24.922  1.00  0.00     0.053 A 
ATOM     10  O   UNL A   1      31.069  23.986  24.242  1.00  0.00    -0.359 OA
BRANCH   7  11
ATOM     11  C   UNL A   1      29.907  27.269  23.375  1.00  0.00     0.005 A 
ATOM     12  C   UNL A   1      28.645  29.625  22.487  1.00  0.00     0.118 A 
ATOM     13  C   UNL A   1      27.902  28.595  23.070  1.00  0.00     0.047 A 
ATOM     14  C   UNL A   1      30.022  29.468  22.334  1.00  0.00     0.047 A 
ATOM     15  C   UNL A   1      28.523  27.419  23.501  1.00  0.00     0.014 A 
ATOM     16  C   UNL A   1      30.649  28.296  22.775  1.00  0.00     0.014 A 
BRANCH  12  17
ATOM     17  O   UNL A   1      27.921  30.729  22.134  1.00  0.00    -0.497 OA
ATOM     18  C   UNL A   1      28.646  31.944  21.977  1.00  0.00     0.278 C 
ENDBRANCH  12  17
ENDBRANCH   7  11
BRANCH   9  19
ATOM     19  C   UNL A   1      32.230  27.070  25.703  1.00  0.00    -0.012 A 
ATOM     20  C   UNL A   1      33.548  27.437  25.429  1.00  0.00     0.013 A 
ATOM     21  C   UNL A   1      31.509  27.754  26.689  1.00  0.00     0.013 A 
ATOM     22  C   UNL A   1      34.122  28.509  26.112  1.00  0.00     0.047 A 
ATOM     23  C   UNL A   1      32.085  28.831  27.364  1.00  0.00     0.047 A 
ATOM     24  C   UNL A   1      33.390  29.224  27.065  1.00  0.00     0.118 A 
BRANCH  24  25
ATOM     25  O   UNL A   1      34.054  30.277  27.629  1.00  0.00    -0.497 OA
ATOM     26  C   UNL A   1      33.380  31.529  27.625  1.00  0.00     0.278 C 
ENDBRANCH  24  25
ENDBRANCH   9  19
ENDBRANCH   5   6
ENDBRANCH   3   5
ENDBRANCH   2   3
ENDBRANCH   1   2
BRANCH   1  27
ATOM     27  C   UNL A   1      36.005  20.690  24.982  1.00  0.00     0.275 C 
BRANCH  27  28
ATOM     28  O   UNL A   1      36.897  21.507  25.761  1.00  0.00    -0.458 OA
BRANCH  28  29
ATOM     29  C   UNL A   1      38.209  21.183  25.695  1.00  0.00     0.338 C 
ATOM     30  O   UNL A   1      38.701  20.112  25.390  1.00  0.00    -0.246 OA
BRANCH  29  31
ATOM     31  C   UNL A   1      39.000  22.346  26.127  1.00  0.00     0.060 A 
ATOM     32  C   UNL A   1      40.123  22.178  26.939  1.00  0.00     0.016 A 
ATOM     33  C   UNL A   1      38.580  23.623  25.756  1.00  0.00     0.016 A 
ATOM     34  C   UNL A   1      40.834  23.290  27.387  1.00  0.00     0.010 A 
ATOM     35  C   UNL A   1      39.314  24.735  26.174  1.00  0.00     0.010 A 
ATOM     36  C   UNL A   1      40.443  24.578  26.997  1.00  0.00    -0.014 A 
BRANCH  36  37
ATOM     37  C   UNL A   1      41.203  25.769  27.449  1.00  0.00     0.031 A 
ATOM     38  C   UNL A   1      40.530  26.820  28.284  1.00  0.00     0.074 A 
ATOM     39  C   UNL A   1      42.489  25.918  27.084  1.00  0.00     0.049 A 
ATOM     40  N   UNL A   1      40.974  27.996  28.648  1.00  0.00    -0.248 NA
ATOM     41  C   UNL A   1      39.177  26.509  28.769  1.00  0.00     0.031 C 
ATOM     42  C   UNL A   1      43.264  24.955  26.302  1.00  0.00     0.029 A 
ATOM     43  N   UNL A   1      43.368  26.948  27.313  1.00  0.00    -0.354 N 
ATOM     44  C   UNL A   1      39.947  28.578  29.380  1.00  0.00     0.074 A 
ATOM     45  C   UNL A   1      38.854  27.628  29.402  1.00  0.00     0.031 C 
ATOM     46  C   UNL A   1      44.504  25.437  26.116  1.00  0.00     0.029 A 
ATOM     47  C   UNL A   1      44.592  26.765  26.715  1.00  0.00     0.049 A 
ATOM     48  H   UNL A   1      43.144  27.740  27.852  1.00  0.00     0.167 HD
ATOM     49  C   UNL A   1      39.922  29.792  29.979  1.00  0.00     0.037 A 
ATOM     50  C   UNL A   1      45.651  27.591  26.626  1.00  0.00     0.037 A 
ATOM     51  C   UNL A   1      41.017  30.725  29.971  1.00  0.00     0.049 A 
ATOM     52  C   UNL A   1      45.576  28.956  27.248  1.00  0.00     0.074 A 
ATOM     53  C   UNL A   1      41.096  31.970  30.572  1.00  0.00     0.029 A 
ATOM     54  N   UNL A   1      42.229  30.515  29.330  1.00  0.00    -0.354 N 
ATOM     55  N   UNL A   1      44.596  29.500  27.928  1.00  0.00    -0.248 NA
ATOM     56  C   UNL A   1      46.747  29.827  27.077  1.00  0.00     0.031 C 
ATOM     57  C   UNL A   1      42.342  32.528  30.263  1.00  0.00     0.029 A 
ATOM     58  C   UNL A   1      43.052  31.616  29.501  1.00  0.00     0.049 A 
ATOM     59  H   UNL A   1      42.468  29.704  28.827  1.00  0.00     0.167 HD
ATOM     60  C   UNL A   1      45.034  30.772  28.273  1.00  0.00     0.074 A 
ATOM     61  C   UNL A   1      46.376  30.911  27.743  1.00  0.00     0.031 C 
ATOM     62  C   UNL A   1      44.381  31.739  28.961  1.00  0.00     0.037 A 
BRANCH  49  63
ATOM     63  C   UNL A   1      38.655  30.193  30.673  1.00  0.00     0.057 A 
ATOM     64  C   UNL A   1      38.430  29.912  32.025  1.00  0.00     0.134 A 
ATOM     65  C   UNL A   1      37.662  30.901  29.984  1.00  0.00     0.134 A 
ATOM     66  F   UNL A   1      39.338  29.226  32.736  1.00  0.00    -0.206 F 
ATOM     67  C   UNL A   1      37.255  30.307  32.666  1.00  0.00     0.040 A 
ATOM     68  C   UNL A   1      36.491  31.319  30.619  1.00  0.00     0.040 A 
ATOM     69  F   UNL A   1      37.818  31.206  28.687  1.00  0.00    -0.206 F 
ATOM     70  C   UNL A   1      36.283  31.019  31.963  1.00  0.00     0.006 A 
ENDBRANCH  49  63
BRANCH  50  71
ATOM     71  C   UNL A   1      46.862  27.160  25.885  1.00  0.00     0.057 A 
ATOM     72  C   UNL A   1      47.881  26.446  26.521  1.00  0.00     0.134 A 
ATOM     73  C   UNL A   1      47.025  27.452  24.526  1.00  0.00     0.134 A 
ATOM     74  F   UNL A   1      47.791  26.160  27.829  1.00  0.00    -0.206 F 
ATOM     75  C   UNL A   1      49.026  26.041  25.834  1.00  0.00     0.040 A 
ATOM     76  C   UNL A   1      48.153  27.033  23.819  1.00  0.00     0.040 A 
ATOM     77  F   UNL A   1      46.082  28.135  23.860  1.00  0.00    -0.206 F 
ATOM     78  C   UNL A   1      49.161  26.327  24.476  1.00  0.00     0.006 A 
ENDBRANCH  50  71
BRANCH  62  79
ATOM     79  C   UNL A   1      45.117  33.025  29.189  1.00  0.00     0.057 A 
ATOM     80  C   UNL A   1      45.956  33.201  30.298  1.00  0.00     0.134 A 
ATOM     81  C   UNL A   1      45.007  34.085  28.282  1.00  0.00     0.134 A 
ATOM     82  F   UNL A   1      46.090  32.228  31.211  1.00  0.00    -0.206 F 
ATOM     83  C   UNL A   1      46.646  34.397  30.505  1.00  0.00     0.040 A 
ATOM     84  C   UNL A   1      45.708  35.277  28.467  1.00  0.00     0.040 A 
ATOM     85  F   UNL A   1      44.223  33.975  27.199  1.00  0.00    -0.206 F 
ATOM     86  C   UNL A   1      46.526  35.437  29.583  1.00  0.00     0.006 A 
ENDBRANCH  62  79
ENDBRANCH  36  37
ENDBRANCH  29  31
ENDBRANCH  28  29
ENDBRANCH  27  28
ENDBRANCH   1  27
TORSDOF 16
ENDMDL
MODEL 3
REMARK VINA RESULT:     -11.5      3.523      8.931
REMARK SMILES COc1ccc(-c2noc(CC(=O)OCCOC(=O)c3ccc(-c4c5nc(c(-c6c(F)cccc6F)c6ccc([nH]6)c(-c6c(F)cccc6F)c6nc(c(-c7c(F)cccc7F)c7ccc4[nH]7)C=C6)C=C5)cc3)c2-c2ccc(OC)cc2)cc1
REMARK SMILES IDX 15 1 14 2 12 3 13 4 11 5 10 6 7 7 8 8 74 9 9 10 6 11 3 12
REMARK SMILES IDX 4 13 84 14 5 15 83 16 2 17 1 18 75 19 76 20 82 21 77 22
REMARK SMILES IDX 81 23 78 24 79 25 80 26 16 27 17 28 18 29 19 30 20 31 21 32
REMARK SMILES IDX 73 33 22 34 72 35 23 36 24 37 25 38 66 39 26 40 71 41 65 42
REMARK SMILES IDX 67 43 27 44 70 45 64 46 63 47 28 49 54 50 37 51 53 52 38 53
REMARK SMILES IDX 41 54 52 55 68 56 39 57 40 58 51 60 69 61 42 62 29 63 30 64
REMARK SMILES IDX 35 65 31 66 32 67 34 68 36 69 33 70 55 71 56 72 61 73 57 74
REMARK SMILES IDX 58 75 60 76 62 77 59 78 43 79 44 80 49 81 45 82 46 83 48 84
REMARK SMILES IDX 50 85 47 86
REMARK H PARENT 67 48 41 59
REMARK Flexibility Score: inf
ROOT
ATOM      1  C   UNL A   1      34.735  20.462  25.036  1.00  0.00     0.274 C 
ENDROOT
BRANCH   1   2
ATOM      2  O   UNL A   1      33.627  21.301  25.412  1.00  0.00    -0.462 OA
BRANCH   2   3
ATOM      3  C   UNL A   1      32.394  20.777  25.193  1.00  0.00     0.313 C 
ATOM      4  O   UNL A   1      32.152  19.577  25.100  1.00  0.00    -0.252 OA
BRANCH   3   5
ATOM      5  C   UNL A   1      31.311  21.803  24.997  1.00  0.00     0.201 C 
BRANCH   5   6
ATOM      6  C   UNL A   1      31.542  23.104  25.670  1.00  0.00     0.156 A 
ATOM      7  C   UNL A   1      31.951  25.171  26.363  1.00  0.00     0.122 A 
ATOM      8  N   UNL A   1      31.662  24.448  27.458  1.00  0.00    -0.079 NA
ATOM      9  C   UNL A   1      31.856  24.358  25.199  1.00  0.00     0.053 A 
ATOM     10  O   UNL A   1      31.386  23.164  27.019  1.00  0.00    -0.359 OA
BRANCH   7  11
ATOM     11  C   UNL A   1      32.316  26.582  26.442  1.00  0.00     0.005 A 
ATOM     12  C   UNL A   1      33.085  29.273  26.763  1.00  0.00     0.118 A 
ATOM     13  C   UNL A   1      31.808  28.848  27.138  1.00  0.00     0.047 A 
ATOM     14  C   UNL A   1      33.974  28.352  26.211  1.00  0.00     0.047 A 
ATOM     15  C   UNL A   1      31.419  27.516  26.969  1.00  0.00     0.014 A 
ATOM     16  C   UNL A   1      33.591  27.014  26.051  1.00  0.00     0.014 A 
BRANCH  12  17
ATOM     17  O   UNL A   1      33.348  30.592  27.005  1.00  0.00    -0.497 OA
ATOM     18  C   UNL A   1      34.523  30.882  27.752  1.00  0.00     0.278 C 
ENDBRANCH  12  17
ENDBRANCH   7  11
BRANCH   9  19
ATOM     19  C   UNL A   1      32.093  24.626  23.800  1.00  0.00    -0.012 A 
ATOM     20  C   UNL A   1      31.437  25.680  23.165  1.00  0.00     0.013 A 
ATOM     21  C   UNL A   1      33.043  23.875  23.098  1.00  0.00     0.013 A 
ATOM     22  C   UNL A   1      31.761  26.002  21.848  1.00  0.00     0.047 A 
ATOM     23  C   UNL A   1      33.370  24.206  21.782  1.00  0.00     0.047 A 
ATOM     24  C   UNL A   1      32.742  25.283  21.157  1.00  0.00     0.118 A 
BRANCH  24  25
ATOM     25  O   UNL A   1      32.994  25.727  19.889  1.00  0.00    -0.497 OA
ATOM     26  C   UNL A   1      32.092  25.299  18.876  1.00  0.00     0.278 C 
ENDBRANCH  24  25
ENDBRANCH   9  19
ENDBRANCH   5   6
ENDBRANCH   3   5
ENDBRANCH   2   3
ENDBRANCH   1   2
BRANCH   1  27
ATOM     27  C   UNL A   1      35.944  21.312  24.650  1.00  0.00     0.275 C 
BRANCH  27  28
ATOM     28  O   UNL A   1      36.749  21.562  25.815  1.00  0.00    -0.458 OA
BRANCH  28  29
ATOM     29  C   UNL A   1      38.051  21.206  25.725  1.00  0.00     0.338 C 
ATOM     30  O   UNL A   1      38.512  20.133  25.383  1.00  0.00    -0.246 OA
BRANCH  29  31
ATOM     31  C   UNL A   1      38.877  22.336  26.179  1.00  0.00     0.060 A 
ATOM     32  C   UNL A   1      40.038  22.112  26.921  1.00  0.00     0.016 A 
ATOM     33  C   UNL A   1      38.454  23.636  25.903  1.00  0.00     0.016 A 
ATOM     34  C   UNL A   1      40.785  23.191  27.393  1.00  0.00     0.010 A 
ATOM     35  C   UNL A   1      39.222  24.716  26.343  1.00  0.00     0.010 A 
ATOM     36  C   UNL A   1      40.390  24.502  27.097  1.00  0.00    -0.014 A 
BRANCH  36  37
ATOM     37  C   UNL A   1      41.186  25.659  27.575  1.00  0.00     0.031 A 
ATOM     38  C   UNL A   1      40.549  26.704  28.444  1.00  0.00     0.074 A 
ATOM     39  C   UNL A   1      42.473  25.783  27.203  1.00  0.00     0.049 A 
ATOM     40  N   UNL A   1      41.029  27.857  28.836  1.00  0.00    -0.248 NA
ATOM     41  C   UNL A   1      39.192  26.418  28.932  1.00  0.00     0.031 C 
ATOM     42  C   UNL A   1      43.215  24.821  26.388  1.00  0.00     0.029 A 
ATOM     43  N   UNL A   1      43.382  26.781  27.452  1.00  0.00    -0.354 N 
ATOM     44  C   UNL A   1      40.024  28.447  29.593  1.00  0.00     0.074 A 
ATOM     45  C   UNL A   1      38.905  27.527  29.598  1.00  0.00     0.031 C 
ATOM     46  C   UNL A   1      44.466  25.273  26.205  1.00  0.00     0.029 A 
ATOM     47  C   UNL A   1      44.596  26.581  26.840  1.00  0.00     0.049 A 
ATOM     48  H   UNL A   1      43.185  27.564  28.015  1.00  0.00     0.167 HD
ATOM     49  C   UNL A   1      40.038  29.644  30.225  1.00  0.00     0.037 A 
ATOM     50  C   UNL A   1      45.677  27.380  26.764  1.00  0.00     0.037 A 
ATOM     51  C   UNL A   1      41.159  30.547  30.234  1.00  0.00     0.049 A 
ATOM     52  C   UNL A   1      45.645  28.729  27.424  1.00  0.00     0.074 A 
ATOM     53  C   UNL A   1      41.277  31.772  30.868  1.00  0.00     0.029 A 
ATOM     54  N   UNL A   1      42.359  30.321  29.577  1.00  0.00    -0.354 N 
ATOM     55  N   UNL A   1      44.686  29.281  28.127  1.00  0.00    -0.248 NA
ATOM     56  C   UNL A   1      46.839  29.572  27.267  1.00  0.00     0.031 C 
ATOM     57  C   UNL A   1      42.535  32.304  30.564  1.00  0.00     0.029 A 
ATOM     58  C   UNL A   1      43.214  31.393  29.771  1.00  0.00     0.049 A 
ATOM     59  H   UNL A   1      42.571  29.518  29.049  1.00  0.00     0.167 HD
ATOM     60  C   UNL A   1      45.161  30.530  28.503  1.00  0.00     0.074 A 
ATOM     61  C   UNL A   1      46.502  30.646  27.966  1.00  0.00     0.031 C 
ATOM     62  C   UNL A   1      44.542  31.495  29.223  1.00  0.00     0.037 A 
BRANCH  49  63
ATOM     63  C   UNL A   1      38.788  30.060  30.940  1.00  0.00     0.057 A 
ATOM     64  C   UNL A   1      38.555  29.727  32.279  1.00  0.00     0.134 A 
ATOM     65  C   UNL A   1      37.821  30.837  30.288  1.00  0.00     0.134 A 
ATOM     66  F   UNL A   1      39.436  28.975  32.956  1.00  0.00    -0.206 F 
ATOM     67  C   UNL A   1      37.396  30.137  32.941  1.00  0.00     0.040 A 
ATOM     68  C   UNL A   1      36.668  31.269  30.945  1.00  0.00     0.040 A 
ATOM     69  F   UNL A   1      37.986  31.194  29.006  1.00  0.00    -0.206 F 
ATOM     70  C   UNL A   1      36.451  30.916  32.274  1.00  0.00     0.006 A 
ENDBRANCH  49  63
BRANCH  50  71
ATOM     71  C   UNL A   1      46.869  26.936  26.001  1.00  0.00     0.057 A 
ATOM     72  C   UNL A   1      47.860  26.154  26.601  1.00  0.00     0.134 A 
ATOM     73  C   UNL A   1      47.043  27.283  24.656  1.00  0.00     0.134 A 
ATOM     74  F   UNL A   1      47.760  25.812  27.895  1.00  0.00    -0.206 F 
ATOM     75  C   UNL A   1      48.988  25.736  25.893  1.00  0.00     0.040 A 
ATOM     76  C   UNL A   1      48.154  26.853  23.929  1.00  0.00     0.040 A 
ATOM     77  F   UNL A   1      46.127  28.033  24.025  1.00  0.00    -0.206 F 
ATOM     78  C   UNL A   1      49.133  26.079  24.550  1.00  0.00     0.006 A 
ENDBRANCH  50  71
BRANCH  62  79
ATOM     79  C   UNL A   1      45.315  32.753  29.480  1.00  0.00     0.057 A 
ATOM     80  C   UNL A   1      46.172  32.873  30.582  1.00  0.00     0.134 A 
ATOM     81  C   UNL A   1      45.221  33.843  28.607  1.00  0.00     0.134 A 
ATOM     82  F   UNL A   1      46.292  31.869  31.463  1.00  0.00    -0.206 F 
ATOM     83  C   UNL A   1      46.896  34.043  30.815  1.00  0.00     0.040 A 
ATOM     84  C   UNL A   1      45.956  35.010  28.819  1.00  0.00     0.040 A 
ATOM     85  F   UNL A   1      44.421  33.787  27.532  1.00  0.00    -0.206 F 
ATOM     86  C   UNL A   1      46.793  35.114  29.928  1.00  0.00     0.006 A 
ENDBRANCH  62  79
ENDBRANCH  36  37
ENDBRANCH  29  31
ENDBRANCH  28  29
ENDBRANCH  27  28
ENDBRANCH   1  27
TORSDOF 16
ENDMDL
