MODEL 1
REMARK VINA RESULT:     -10.7      0.000      0.000
REMARK SMILES C[NH2+]C[C@@H](C)C(=O)Nc1ccc(Cl)cc1C(=O)OCCOC(=O)c1ccc(-c2c3nc(c(-c4c(F)cccc4F)c4ccc([nH]4)c(-c4c(F)cccc4F)c4nc(c(-c5c(F)cccc5F)c5ccc2[nH]5)C=C4)C=C3)cc1
REMARK SMILES IDX 19 1 18 2 16 3 17 4 15 5 9 6 10 7 11 8 14 9 12 10 13 11 8 12
REMARK SMILES IDX 6 13 7 14 4 16 5 17 3 18 2 19 1 20 20 23 21 24 22 25 23 26
REMARK SMILES IDX 24 27 25 28 77 29 26 30 76 31 27 32 28 33 29 34 70 35 30 36
REMARK SMILES IDX 75 37 69 38 71 39 31 40 74 41 68 42 67 43 32 45 58 46 41 47
REMARK SMILES IDX 57 48 42 49 45 50 56 51 72 52 43 53 44 54 55 56 73 57 46 58
REMARK SMILES IDX 33 59 34 60 39 61 35 62 36 63 38 64 40 65 37 66 59 67 60 68
REMARK SMILES IDX 65 69 61 70 62 71 64 72 66 73 63 74 47 75 48 76 53 77 49 78
REMARK SMILES IDX 50 79 52 80 54 81 51 82
REMARK H PARENT 8 15 2 21 2 22 71 44 45 55
REMARK Flexibility Score: inf
ROOT
ATOM      1  C   UNL A   1      31.398  30.490  25.434  1.00  0.00     0.275 C 
ENDROOT
BRANCH   1   2
ATOM      2  O   UNL A   1      32.329  29.406  25.664  1.00  0.00    -0.458 OA
BRANCH   2   3
ATOM      3  C   UNL A   1      32.626  28.656  24.579  1.00  0.00     0.340 C 
ATOM      4  O   UNL A   1      33.580  28.825  23.831  1.00  0.00    -0.246 OA
BRANCH   3   5
ATOM      5  C   UNL A   1      31.661  27.560  24.328  1.00  0.00     0.085 A 
ATOM      6  C   UNL A   1      30.988  27.385  23.120  1.00  0.00     0.055 A 
ATOM      7  C   UNL A   1      30.479  26.117  22.819  1.00  0.00     0.028 A 
ATOM      8  C   UNL A   1      30.359  25.135  23.804  1.00  0.00     0.023 A 
ATOM      9  C   UNL A   1      31.513  26.581  25.324  1.00  0.00     0.038 A 
ATOM     10  C   UNL A   1      30.813  25.406  25.081  1.00  0.00     0.042 A 
ATOM     11  Cl  UNL A   1      30.551  24.285  26.356  1.00  0.00    -0.084 Cl
BRANCH   6  12
ATOM     12  N   UNL A   1      30.820  28.427  22.203  1.00  0.00    -0.325 N 
ATOM     13  C   UNL A   1      29.807  29.349  22.136  1.00  0.00     0.232 C 
ATOM     14  O   UNL A   1      29.875  30.174  21.215  1.00  0.00    -0.274 OA
ATOM     15  H   UNL A   1      31.521  28.509  21.515  1.00  0.00     0.169 HD
BRANCH  13  16
ATOM     16  C   UNL A   1      28.705  29.515  23.209  1.00  0.00     0.130 C 
ATOM     17  C   UNL A   1      27.580  28.498  23.011  1.00  0.00     0.024 C 
BRANCH  16  18
ATOM     18  C   UNL A   1      28.191  30.946  23.415  1.00  0.00     0.273 C 
BRANCH  18  19
ATOM     19  N   UNL A   1      29.175  32.024  23.543  1.00  0.00    -0.348 N 
ATOM     20  C   UNL A   1      28.815  33.230  22.826  1.00  0.00     0.330 C 
ATOM     21  H   UNL A   1      29.273  32.254  24.533  1.00  0.00     0.346 HD
ATOM     22  H   UNL A   1      30.046  31.682  23.137  1.00  0.00     0.346 HD
ENDBRANCH  18  19
ENDBRANCH  16  18
ENDBRANCH  13  16
ENDBRANCH   6  12
ENDBRANCH   3   5
ENDBRANCH   2   3
ENDBRANCH   1   2
BRANCH   1  23
ATOM     23  C   UNL A   1      31.501  31.581  26.502  1.00  0.00     0.275 C 
BRANCH  23  24
ATOM     24  O   UNL A   1      32.606  31.343  27.394  1.00  0.00    -0.458 OA
BRANCH  24  25
ATOM     25  C   UNL A   1      33.424  32.404  27.565  1.00  0.00     0.338 C 
ATOM     26  O   UNL A   1      33.118  33.585  27.575  1.00  0.00    -0.246 OA
BRANCH  25  27
ATOM     27  C   UNL A   1      34.790  31.963  27.882  1.00  0.00     0.060 A 
ATOM     28  C   UNL A   1      34.961  30.626  28.205  1.00  0.00     0.016 A 
ATOM     29  C   UNL A   1      35.815  32.871  28.118  1.00  0.00     0.016 A 
ATOM     30  C   UNL A   1      36.063  30.217  28.941  1.00  0.00     0.010 A 
ATOM     31  C   UNL A   1      37.006  32.420  28.704  1.00  0.00     0.010 A 
ATOM     32  C   UNL A   1      37.124  31.096  29.175  1.00  0.00    -0.014 A 
BRANCH  32  33
ATOM     33  C   UNL A   1      38.327  30.628  29.926  1.00  0.00     0.031 A 
ATOM     34  C   UNL A   1      39.324  29.705  29.272  1.00  0.00     0.074 A 
ATOM     35  C   UNL A   1      38.545  31.048  31.190  1.00  0.00     0.049 A 
ATOM     36  N   UNL A   1      40.314  29.039  29.812  1.00  0.00    -0.248 NA
ATOM     37  C   UNL A   1      39.178  29.487  27.824  1.00  0.00     0.031 C 
ATOM     38  C   UNL A   1      37.702  31.988  31.935  1.00  0.00     0.029 A 
ATOM     39  N   UNL A   1      39.552  30.747  32.074  1.00  0.00    -0.354 N 
ATOM     40  C   UNL A   1      40.865  28.276  28.787  1.00  0.00     0.074 A 
ATOM     41  C   UNL A   1      40.090  28.553  27.596  1.00  0.00     0.031 C 
ATOM     42  C   UNL A   1      38.253  32.228  33.131  1.00  0.00     0.029 A 
ATOM     43  C   UNL A   1      39.415  31.368  33.293  1.00  0.00     0.049 A 
ATOM     44  H   UNL A   1      40.299  30.143  31.856  1.00  0.00     0.167 HD
ATOM     45  C   UNL A   1      41.918  27.425  28.837  1.00  0.00     0.037 A 
ATOM     46  C   UNL A   1      40.107  31.225  34.438  1.00  0.00     0.037 A 
ATOM     47  C   UNL A   1      42.716  27.197  30.017  1.00  0.00     0.049 A 
ATOM     48  C   UNL A   1      41.228  30.232  34.489  1.00  0.00     0.074 A 
ATOM     49  C   UNL A   1      43.810  26.365  30.171  1.00  0.00     0.029 A 
ATOM     50  N   UNL A   1      42.509  27.816  31.241  1.00  0.00    -0.354 N 
ATOM     51  N   UNL A   1      41.700  29.470  33.532  1.00  0.00    -0.248 NA
ATOM     52  C   UNL A   1      41.900  30.060  35.783  1.00  0.00     0.031 C 
ATOM     53  C   UNL A   1      44.236  26.442  31.502  1.00  0.00     0.029 A 
ATOM     54  C   UNL A   1      43.444  27.367  32.163  1.00  0.00     0.049 A 
ATOM     55  H   UNL A   1      41.804  28.475  31.430  1.00  0.00     0.167 HD
ATOM     56  C   UNL A   1      42.737  28.744  34.102  1.00  0.00     0.074 A 
ATOM     57  C   UNL A   1      42.835  29.171  35.482  1.00  0.00     0.031 C 
ATOM     58  C   UNL A   1      43.533  27.806  33.532  1.00  0.00     0.037 A 
BRANCH  45  59
ATOM     59  C   UNL A   1      42.242  26.643  27.595  1.00  0.00     0.057 A 
ATOM     60  C   UNL A   1      41.710  25.371  27.344  1.00  0.00     0.134 A 
ATOM     61  C   UNL A   1      43.090  27.186  26.618  1.00  0.00     0.134 A 
ATOM     62  F   UNL A   1      40.901  24.785  28.239  1.00  0.00    -0.206 F 
ATOM     63  C   UNL A   1      42.037  24.656  26.189  1.00  0.00     0.040 A 
ATOM     64  C   UNL A   1      43.398  26.493  25.446  1.00  0.00     0.040 A 
ATOM     65  F   UNL A   1      43.629  28.403  26.785  1.00  0.00    -0.206 F 
ATOM     66  C   UNL A   1      42.878  25.220  25.233  1.00  0.00     0.006 A 
ENDBRANCH  45  59
BRANCH  46  67
ATOM     67  C   UNL A   1      39.720  32.006  35.642  1.00  0.00     0.057 A 
ATOM     68  C   UNL A   1      40.357  33.212  35.957  1.00  0.00     0.134 A 
ATOM     69  C   UNL A   1      38.696  31.577  36.497  1.00  0.00     0.134 A 
ATOM     70  F   UNL A   1      41.358  33.666  35.190  1.00  0.00    -0.206 F 
ATOM     71  C   UNL A   1      39.998  33.956  37.083  1.00  0.00     0.040 A 
ATOM     72  C   UNL A   1      38.305  32.326  37.607  1.00  0.00     0.040 A 
ATOM     73  F   UNL A   1      38.041  30.432  36.250  1.00  0.00    -0.206 F 
ATOM     74  C   UNL A   1      38.962  33.517  37.906  1.00  0.00     0.006 A 
ENDBRANCH  46  67
BRANCH  58  75
ATOM     75  C   UNL A   1      44.609  27.215  34.393  1.00  0.00     0.057 A 
ATOM     76  C   UNL A   1      44.414  26.037  35.125  1.00  0.00     0.134 A 
ATOM     77  C   UNL A   1      45.869  27.826  34.473  1.00  0.00     0.134 A 
ATOM     78  F   UNL A   1      43.226  25.414  35.105  1.00  0.00    -0.206 F 
ATOM     79  C   UNL A   1      45.423  25.500  35.925  1.00  0.00     0.040 A 
ATOM     80  C   UNL A   1      46.895  27.282  35.245  1.00  0.00     0.040 A 
ATOM     81  F   UNL A   1      46.125  28.953  33.792  1.00  0.00    -0.206 F 
ATOM     82  C   UNL A   1      46.670  26.120  35.981  1.00  0.00     0.006 A 
ENDBRANCH  58  75
ENDBRANCH  32  33
ENDBRANCH  25  27
ENDBRANCH  24  25
ENDBRANCH  23  24
ENDBRANCH   1  23
TORSDOF 15
ENDMDL
MODEL 2
REMARK VINA RESULT:     -10.6      4.526      8.979
REMARK SMILES C[NH2+]C[C@@H](C)C(=O)Nc1ccc(Cl)cc1C(=O)OCCOC(=O)c1ccc(-c2c3nc(c(-c4c(F)cccc4F)c4ccc([nH]4)c(-c4c(F)cccc4F)c4nc(c(-c5c(F)cccc5F)c5ccc2[nH]5)C=C4)C=C3)cc1
REMARK SMILES IDX 19 1 18 2 16 3 17 4 15 5 9 6 10 7 11 8 14 9 12 10 13 11 8 12
REMARK SMILES IDX 6 13 7 14 4 16 5 17 3 18 2 19 1 20 20 23 21 24 22 25 23 26
REMARK SMILES IDX 24 27 25 28 77 29 26 30 76 31 27 32 28 33 29 34 70 35 30 36
REMARK SMILES IDX 75 37 69 38 71 39 31 40 74 41 68 42 67 43 32 45 58 46 41 47
REMARK SMILES IDX 57 48 42 49 45 50 56 51 72 52 43 53 44 54 55 56 73 57 46 58
REMARK SMILES IDX 33 59 34 60 39 61 35 62 36 63 38 64 40 65 37 66 59 67 60 68
REMARK SMILES IDX 65 69 61 70 62 71 64 72 66 73 63 74 47 75 48 76 53 77 49 78
REMARK SMILES IDX 50 79 52 80 54 81 51 82
REMARK H PARENT 8 15 2 21 2 22 71 44 45 55
REMARK Flexibility Score: inf
ROOT
ATOM      1  C   UNL A   1      35.015  21.748  24.644  1.00  0.00     0.275 C 
ENDROOT
BRANCH   1   2
ATOM      2  O   UNL A   1      35.094  23.180  24.842  1.00  0.00    -0.458 OA
BRANCH   2   3
ATOM      3  C   UNL A   1      34.526  23.932  23.872  1.00  0.00     0.340 C 
ATOM      4  O   UNL A   1      34.465  23.641  22.685  1.00  0.00    -0.246 OA
BRANCH   3   5
ATOM      5  C   UNL A   1      33.960  25.211  24.362  1.00  0.00     0.085 A 
ATOM      6  C   UNL A   1      33.572  25.429  25.683  1.00  0.00     0.055 A 
ATOM      7  C   UNL A   1      33.494  26.746  26.145  1.00  0.00     0.028 A 
ATOM      8  C   UNL A   1      33.493  27.824  25.258  1.00  0.00     0.023 A 
ATOM      9  C   UNL A   1      33.929  26.294  23.469  1.00  0.00     0.038 A 
ATOM     10  C   UNL A   1      33.636  27.580  23.905  1.00  0.00     0.042 A 
ATOM     11  Cl  UNL A   1      33.491  28.858  22.767  1.00  0.00    -0.084 Cl
BRANCH   6  12
ATOM     12  N   UNL A   1      33.273  24.377  26.554  1.00  0.00    -0.325 N 
ATOM     13  C   UNL A   1      32.075  23.735  26.738  1.00  0.00     0.232 C 
ATOM     14  O   UNL A   1      32.059  22.833  27.586  1.00  0.00    -0.274 OA
ATOM     15  H   UNL A   1      34.021  24.055  27.109  1.00  0.00     0.169 HD
BRANCH  13  16
ATOM     16  C   UNL A   1      30.822  23.956  25.856  1.00  0.00     0.130 C 
ATOM     17  C   UNL A   1      31.001  23.328  24.472  1.00  0.00     0.024 C 
BRANCH  16  18
ATOM     18  C   UNL A   1      30.299  25.397  25.799  1.00  0.00     0.273 C 
BRANCH  18  19
ATOM     19  N   UNL A   1      29.495  25.796  24.642  1.00  0.00    -0.348 N 
ATOM     20  C   UNL A   1      29.980  26.992  23.982  1.00  0.00     0.330 C 
ATOM     21  H   UNL A   1      29.501  25.031  23.966  1.00  0.00     0.346 HD
ATOM     22  H   UNL A   1      28.558  26.003  24.986  1.00  0.00     0.346 HD
ENDBRANCH  18  19
ENDBRANCH  16  18
ENDBRANCH  13  16
ENDBRANCH   6  12
ENDBRANCH   3   5
ENDBRANCH   2   3
ENDBRANCH   1   2
BRANCH   1  23
ATOM     23  C   UNL A   1      36.219  21.013  25.236  1.00  0.00     0.275 C 
BRANCH  23  24
ATOM     24  O   UNL A   1      37.454  21.689  24.930  1.00  0.00    -0.458 OA
BRANCH  24  25
ATOM     25  C   UNL A   1      38.515  21.272  25.654  1.00  0.00     0.338 C 
ATOM     26  O   UNL A   1      39.047  20.174  25.626  1.00  0.00    -0.246 OA
BRANCH  25  27
ATOM     27  C   UNL A   1      39.079  22.378  26.438  1.00  0.00     0.060 A 
ATOM     28  C   UNL A   1      38.585  23.648  26.182  1.00  0.00     0.016 A 
ATOM     29  C   UNL A   1      40.230  22.222  27.201  1.00  0.00     0.016 A 
ATOM     30  C   UNL A   1      39.332  24.771  26.505  1.00  0.00     0.010 A 
ATOM     31  C   UNL A   1      40.890  23.361  27.682  1.00  0.00     0.010 A 
ATOM     32  C   UNL A   1      40.482  24.653  27.292  1.00  0.00    -0.014 A 
BRANCH  32  33
ATOM     33  C   UNL A   1      41.249  25.875  27.676  1.00  0.00     0.031 A 
ATOM     34  C   UNL A   1      40.617  26.932  28.546  1.00  0.00     0.074 A 
ATOM     35  C   UNL A   1      42.526  26.032  27.268  1.00  0.00     0.049 A 
ATOM     36  N   UNL A   1      41.042  28.140  28.823  1.00  0.00    -0.248 NA
ATOM     37  C   UNL A   1      39.328  26.595  29.171  1.00  0.00     0.031 C 
ATOM     38  C   UNL A   1      43.292  25.069  26.473  1.00  0.00     0.029 A 
ATOM     39  N   UNL A   1      43.414  27.060  27.474  1.00  0.00    -0.354 N 
ATOM     40  C   UNL A   1      40.046  28.726  29.598  1.00  0.00     0.074 A 
ATOM     41  C   UNL A   1      38.991  27.746  29.736  1.00  0.00     0.031 C 
ATOM     42  C   UNL A   1      44.542  25.520  26.308  1.00  0.00     0.029 A 
ATOM     43  C   UNL A   1      44.634  26.858  26.873  1.00  0.00     0.049 A 
ATOM     44  H   UNL A   1      43.197  27.863  28.001  1.00  0.00     0.167 HD
ATOM     45  C   UNL A   1      40.017  29.967  30.142  1.00  0.00     0.037 A 
ATOM     46  C   UNL A   1      45.694  27.675  26.735  1.00  0.00     0.037 A 
ATOM     47  C   UNL A   1      41.098  30.917  30.043  1.00  0.00     0.049 A 
ATOM     48  C   UNL A   1      45.616  29.065  27.290  1.00  0.00     0.074 A 
ATOM     49  C   UNL A   1      41.175  32.195  30.567  1.00  0.00     0.029 A 
ATOM     50  N   UNL A   1      42.296  30.684  29.383  1.00  0.00    -0.354 N 
ATOM     51  N   UNL A   1      44.646  29.631  27.966  1.00  0.00    -0.248 NA
ATOM     52  C   UNL A   1      46.770  29.939  27.045  1.00  0.00     0.031 C 
ATOM     53  C   UNL A   1      42.399  32.754  30.183  1.00  0.00     0.029 A 
ATOM     54  C   UNL A   1      43.111  31.803  29.470  1.00  0.00     0.049 A 
ATOM     55  H   UNL A   1      42.534  29.848  28.922  1.00  0.00     0.167 HD
ATOM     56  C   UNL A   1      45.079  30.919  28.246  1.00  0.00     0.074 A 
ATOM     57  C   UNL A   1      46.407  31.044  27.681  1.00  0.00     0.031 C 
ATOM     58  C   UNL A   1      44.433  31.910  28.907  1.00  0.00     0.037 A 
BRANCH  45  59
ATOM     59  C   UNL A   1      38.762  30.386  30.855  1.00  0.00     0.057 A 
ATOM     60  C   UNL A   1      37.706  31.036  30.203  1.00  0.00     0.134 A 
ATOM     61  C   UNL A   1      38.600  30.115  32.222  1.00  0.00     0.134 A 
ATOM     62  F   UNL A   1      37.796  31.338  28.899  1.00  0.00    -0.206 F 
ATOM     63  C   UNL A   1      36.554  31.431  30.888  1.00  0.00     0.040 A 
ATOM     64  C   UNL A   1      37.441  30.477  32.910  1.00  0.00     0.040 A 
ATOM     65  F   UNL A   1      39.566  29.488  32.910  1.00  0.00    -0.206 F 
ATOM     66  C   UNL A   1      36.417  31.145  32.245  1.00  0.00     0.006 A 
ENDBRANCH  45  59
BRANCH  46  67
ATOM     67  C   UNL A   1      46.897  27.212  25.994  1.00  0.00     0.057 A 
ATOM     68  C   UNL A   1      47.934  26.538  26.648  1.00  0.00     0.134 A 
ATOM     69  C   UNL A   1      47.032  27.417  24.615  1.00  0.00     0.134 A 
ATOM     70  F   UNL A   1      47.874  26.328  27.971  1.00  0.00    -0.206 F 
ATOM     71  C   UNL A   1      49.066  26.094  25.961  1.00  0.00     0.040 A 
ATOM     72  C   UNL A   1      48.142  26.951  23.909  1.00  0.00     0.040 A 
ATOM     73  F   UNL A   1      46.072  28.052  23.925  1.00  0.00    -0.206 F 
ATOM     74  C   UNL A   1      49.167  26.293  24.585  1.00  0.00     0.006 A 
ENDBRANCH  46  67
BRANCH  58  75
ATOM     75  C   UNL A   1      45.177  33.198  29.096  1.00  0.00     0.057 A 
ATOM     76  C   UNL A   1      46.025  33.414  30.190  1.00  0.00     0.134 A 
ATOM     77  C   UNL A   1      45.057  34.231  28.156  1.00  0.00     0.134 A 
ATOM     78  F   UNL A   1      46.169  32.472  31.134  1.00  0.00    -0.206 F 
ATOM     79  C   UNL A   1      46.708  34.619  30.356  1.00  0.00     0.040 A 
ATOM     80  C   UNL A   1      45.759  35.429  28.295  1.00  0.00     0.040 A 
ATOM     81  F   UNL A   1      44.267  34.087  27.082  1.00  0.00    -0.206 F 
ATOM     82  C   UNL A   1      46.581  35.628  29.403  1.00  0.00     0.006 A 
ENDBRANCH  58  75
ENDBRANCH  32  33
ENDBRANCH  25  27
ENDBRANCH  24  25
ENDBRANCH  23  24
ENDBRANCH   1  23
TORSDOF 15
ENDMDL
MODEL 3
REMARK VINA RESULT:     -10.6      4.787      9.370
REMARK SMILES C[NH2+]C[C@@H](C)C(=O)Nc1ccc(Cl)cc1C(=O)OCCOC(=O)c1ccc(-c2c3nc(c(-c4c(F)cccc4F)c4ccc([nH]4)c(-c4c(F)cccc4F)c4nc(c(-c5c(F)cccc5F)c5ccc2[nH]5)C=C4)C=C3)cc1
REMARK SMILES IDX 19 1 18 2 16 3 17 4 15 5 9 6 10 7 11 8 14 9 12 10 13 11 8 12
REMARK SMILES IDX 6 13 7 14 4 16 5 17 3 18 2 19 1 20 20 23 21 24 22 25 23 26
REMARK SMILES IDX 24 27 25 28 77 29 26 30 76 31 27 32 28 33 29 34 70 35 30 36
REMARK SMILES IDX 75 37 69 38 71 39 31 40 74 41 68 42 67 43 32 45 58 46 41 47
REMARK SMILES IDX 57 48 42 49 45 50 56 51 72 52 43 53 44 54 55 56 73 57 46 58
REMARK SMILES IDX 33 59 34 60 39 61 35 62 36 63 38 64 40 65 37 66 59 67 60 68
REMARK SMILES IDX 65 69 61 70 62 71 64 72 66 73 63 74 47 75 48 76 53 77 49 78
REMARK SMILES IDX 50 79 52 80 54 81 51 82
REMARK H PARENT 8 15 2 21 2 22 71 44 45 55
REMARK Flexibility Score: inf
ROOT
ATOM      1  C   UNL A   1      36.715  22.549  23.582  1.00  0.00     0.275 C 
ENDROOT
BRANCH   1   2
ATOM      2  O   UNL A   1      35.779  23.397  24.287  1.00  0.00    -0.458 OA
BRANCH   2   3
ATOM      3  C   UNL A   1      34.737  23.848  23.552  1.00  0.00     0.340 C 
ATOM      4  O   UNL A   1      34.348  23.370  22.495  1.00  0.00    -0.246 OA
BRANCH   3   5
ATOM      5  C   UNL A   1      34.064  25.033  24.133  1.00  0.00     0.085 A 
ATOM      6  C   UNL A   1      33.916  25.244  25.503  1.00  0.00     0.055 A 
ATOM      7  C   UNL A   1      33.701  26.550  25.956  1.00  0.00     0.028 A 
ATOM      8  C   UNL A   1      33.330  27.567  25.076  1.00  0.00     0.023 A 
ATOM      9  C   UNL A   1      33.662  26.051  23.253  1.00  0.00     0.038 A 
ATOM     10  C   UNL A   1      33.239  27.287  23.725  1.00  0.00     0.042 A 
ATOM     11  Cl  UNL A   1      32.644  28.466  22.627  1.00  0.00    -0.084 Cl
BRANCH   6  12
ATOM     12  N   UNL A   1      33.991  24.200  26.429  1.00  0.00    -0.325 N 
ATOM     13  C   UNL A   1      33.054  23.236  26.705  1.00  0.00     0.232 C 
ATOM     14  O   UNL A   1      33.350  22.418  27.587  1.00  0.00    -0.274 OA
ATOM     15  H   UNL A   1      34.823  24.149  26.952  1.00  0.00     0.169 HD
BRANCH  13  16
ATOM     16  C   UNL A   1      31.757  23.019  25.889  1.00  0.00     0.130 C 
ATOM     17  C   UNL A   1      30.519  23.087  26.786  1.00  0.00     0.024 C 
BRANCH  16  18
ATOM     18  C   UNL A   1      31.758  21.801  24.956  1.00  0.00     0.273 C 
BRANCH  18  19
ATOM     19  N   UNL A   1      32.333  20.549  25.453  1.00  0.00    -0.348 N 
ATOM     20  C   UNL A   1      33.516  20.126  24.732  1.00  0.00     0.330 C 
ATOM     21  H   UNL A   1      32.582  20.676  26.434  1.00  0.00     0.346 HD
ATOM     22  H   UNL A   1      31.628  19.824  25.322  1.00  0.00     0.346 HD
ENDBRANCH  18  19
ENDBRANCH  16  18
ENDBRANCH  13  16
ENDBRANCH   6  12
ENDBRANCH   3   5
ENDBRANCH   2   3
ENDBRANCH   1   2
BRANCH   1  23
ATOM     23  C   UNL A   1      37.134  21.332  24.409  1.00  0.00     0.275 C 
BRANCH  23  24
ATOM     24  O   UNL A   1      37.499  21.706  25.751  1.00  0.00    -0.458 OA
BRANCH  24  25
ATOM     25  C   UNL A   1      38.799  21.500  26.056  1.00  0.00     0.338 C 
ATOM     26  O   UNL A   1      39.496  20.553  25.733  1.00  0.00    -0.246 OA
BRANCH  25  27
ATOM     27  C   UNL A   1      39.361  22.664  26.754  1.00  0.00     0.060 A 
ATOM     28  C   UNL A   1      38.939  23.916  26.334  1.00  0.00     0.016 A 
ATOM     29  C   UNL A   1      40.456  22.549  27.602  1.00  0.00     0.016 A 
ATOM     30  C   UNL A   1      39.713  25.039  26.585  1.00  0.00     0.010 A 
ATOM     31  C   UNL A   1      41.135  23.709  28.002  1.00  0.00     0.010 A 
ATOM     32  C   UNL A   1      40.806  24.965  27.453  1.00  0.00    -0.014 A 
BRANCH  32  33
ATOM     33  C   UNL A   1      41.601  26.192  27.755  1.00  0.00     0.031 A 
ATOM     34  C   UNL A   1      41.016  27.291  28.606  1.00  0.00     0.074 A 
ATOM     35  C   UNL A   1      42.861  26.318  27.288  1.00  0.00     0.049 A 
ATOM     36  N   UNL A   1      41.464  28.504  28.817  1.00  0.00    -0.248 NA
ATOM     37  C   UNL A   1      39.751  26.994  29.298  1.00  0.00     0.031 C 
ATOM     38  C   UNL A   1      43.584  25.315  26.502  1.00  0.00     0.029 A 
ATOM     39  N   UNL A   1      43.767  27.343  27.415  1.00  0.00    -0.354 N 
ATOM     40  C   UNL A   1      40.507  29.132  29.608  1.00  0.00     0.074 A 
ATOM     41  C   UNL A   1      39.449  28.171  29.829  1.00  0.00     0.031 C 
ATOM     42  C   UNL A   1      44.830  25.746  26.267  1.00  0.00     0.029 A 
ATOM     43  C   UNL A   1      44.959  27.104  26.773  1.00  0.00     0.049 A 
ATOM     44  H   UNL A   1      43.580  28.169  27.917  1.00  0.00     0.167 HD
ATOM     45  C   UNL A   1      40.514  30.394  30.101  1.00  0.00     0.037 A 
ATOM     46  C   UNL A   1      46.020  27.902  26.558  1.00  0.00     0.037 A 
ATOM     47  C   UNL A   1      41.598  31.327  29.919  1.00  0.00     0.049 A 
ATOM     48  C   UNL A   1      45.979  29.314  27.059  1.00  0.00     0.074 A 
ATOM     49  C   UNL A   1      41.709  32.624  30.387  1.00  0.00     0.029 A 
ATOM     50  N   UNL A   1      42.765  31.054  29.221  1.00  0.00    -0.354 N 
ATOM     51  N   UNL A   1      45.044  29.918  27.751  1.00  0.00    -0.248 NA
ATOM     52  C   UNL A   1      47.130  30.165  26.732  1.00  0.00     0.031 C 
ATOM     53  C   UNL A   1      42.922  33.153  29.931  1.00  0.00     0.029 A 
ATOM     54  C   UNL A   1      43.594  32.166  29.228  1.00  0.00     0.049 A 
ATOM     55  H   UNL A   1      42.976  30.197  28.784  1.00  0.00     0.167 HD
ATOM     56  C   UNL A   1      45.501  31.212  27.960  1.00  0.00     0.074 A 
ATOM     57  C   UNL A   1      46.805  31.298  27.336  1.00  0.00     0.031 C 
ATOM     58  C   UNL A   1      44.893  32.235  28.607  1.00  0.00     0.037 A 
BRANCH  45  59
ATOM     59  C   UNL A   1      39.293  30.856  30.848  1.00  0.00     0.057 A 
ATOM     60  C   UNL A   1      39.177  30.752  32.240  1.00  0.00     0.134 A 
ATOM     61  C   UNL A   1      38.219  31.437  30.158  1.00  0.00     0.134 A 
ATOM     62  F   UNL A   1      40.161  30.197  32.964  1.00  0.00    -0.206 F 
ATOM     63  C   UNL A   1      38.028  31.174  32.913  1.00  0.00     0.040 A 
ATOM     64  C   UNL A   1      37.078  31.891  30.823  1.00  0.00     0.040 A 
ATOM     65  F   UNL A   1      38.263  31.578  28.824  1.00  0.00    -0.206 F 
ATOM     66  C   UNL A   1      36.977  31.751  32.204  1.00  0.00     0.006 A 
ENDBRANCH  45  59
BRANCH  46  67
ATOM     67  C   UNL A   1      47.186  27.396  25.787  1.00  0.00     0.057 A 
ATOM     68  C   UNL A   1      47.267  27.571  24.401  1.00  0.00     0.134 A 
ATOM     69  C   UNL A   1      48.252  26.740  26.417  1.00  0.00     0.134 A 
ATOM     70  F   UNL A   1      46.270  28.172  23.737  1.00  0.00    -0.206 F 
ATOM     71  C   UNL A   1      48.360  27.103  23.668  1.00  0.00     0.040 A 
ATOM     72  C   UNL A   1      49.365  26.297  25.702  1.00  0.00     0.040 A 
ATOM     73  F   UNL A   1      48.240  26.544  27.744  1.00  0.00    -0.206 F 
ATOM     74  C   UNL A   1      49.418  26.472  24.322  1.00  0.00     0.006 A 
ENDBRANCH  46  67
BRANCH  58  75
ATOM     75  C   UNL A   1      45.656  33.521  28.713  1.00  0.00     0.057 A 
ATOM     76  C   UNL A   1      45.533  34.540  27.759  1.00  0.00     0.134 A 
ATOM     77  C   UNL A   1      46.513  33.752  29.798  1.00  0.00     0.134 A 
ATOM     78  F   UNL A   1      44.743  34.375  26.687  1.00  0.00    -0.206 F 
ATOM     79  C   UNL A   1      46.252  35.730  27.867  1.00  0.00     0.040 A 
ATOM     80  C   UNL A   1      47.214  34.950  29.933  1.00  0.00     0.040 A 
ATOM     81  F   UNL A   1      46.672  32.820  30.750  1.00  0.00    -0.206 F 
ATOM     82  C   UNL A   1      47.090  35.940  28.960  1.00  0.00     0.006 A 
ENDBRANCH  58  75
ENDBRANCH  32  33
ENDBRANCH  25  27
ENDBRANCH  24  25
ENDBRANCH  23  24
ENDBRANCH   1  23
TORSDOF 15
ENDMDL
