MODEL 1
REMARK VINA RESULT:     -10.6      0.000      0.000
REMARK SMILES CC(C)[C@@H](NC(=O)[C@@](C)([NH3+])C(F)(F)F)C(=O)OCCOC(=O)c1ccc(-c2c3nc(c(-c4c(F)cccc4F)c4ccc([nH]4)c(-c4c(F)cccc4F)c4nc(c(-c5c(F)cccc5F)c5ccc2[nH]5)C=C4)C=C3)cc1
REMARK SMILES IDX 18 1 17 2 15 3 16 4 4 5 2 6 1 7 3 8 5 9 6 10 7 12 8 13 9 14
REMARK SMILES IDX 10 15 11 19 12 20 13 21 14 22 19 23 20 24 21 25 22 26 23 27
REMARK SMILES IDX 24 28 76 29 25 30 75 31 26 32 27 33 28 34 69 35 29 36 74 37
REMARK SMILES IDX 68 38 70 39 30 40 73 41 67 42 66 43 31 45 57 46 40 47 56 48
REMARK SMILES IDX 41 49 44 50 55 51 71 52 42 53 43 54 54 56 72 57 45 58 32 59
REMARK SMILES IDX 33 60 38 61 34 62 35 63 37 64 39 65 36 66 58 67 59 68 64 69
REMARK SMILES IDX 60 70 61 71 63 72 65 73 62 74 46 75 47 76 52 77 48 78 49 79
REMARK SMILES IDX 51 80 53 81 50 82
REMARK H PARENT 5 11 10 16 10 17 10 18 70 44 44 55
REMARK Flexibility Score: inf
ROOT
ATOM      1  C   UNL A   1      35.154  21.039  25.223  1.00  0.00     0.274 C 
ENDROOT
BRANCH   1   2
ATOM      2  O   UNL A   1      34.191  20.157  24.606  1.00  0.00    -0.461 OA
BRANCH   2   3
ATOM      3  C   UNL A   1      32.892  20.359  24.943  1.00  0.00     0.329 C 
ATOM      4  O   UNL A   1      32.151  19.477  25.368  1.00  0.00    -0.250 OA
BRANCH   3   5
ATOM      5  C   UNL A   1      32.359  21.761  24.597  1.00  0.00     0.195 C 
BRANCH   5   6
ATOM      6  C   UNL A   1      32.090  22.109  23.106  1.00  0.00     0.017 C 
ATOM      7  C   UNL A   1      33.327  22.776  22.471  1.00  0.00     0.010 C 
ATOM      8  C   UNL A   1      31.778  20.866  22.257  1.00  0.00     0.010 C 
ENDBRANCH   5   6
BRANCH   5   9
ATOM      9  N   UNL A   1      31.333  22.305  25.530  1.00  0.00    -0.337 N 
ATOM     10  C   UNL A   1      31.133  23.446  26.261  1.00  0.00     0.291 C 
ATOM     11  H   UNL A   1      30.593  21.667  25.656  1.00  0.00     0.164 HD
ATOM     12  O   UNL A   1      30.414  23.295  27.254  1.00  0.00    -0.267 OA
BRANCH  10  13
ATOM     13  C   UNL A   1      31.676  24.831  25.851  1.00  0.00     0.267 C 
ATOM     14  C   UNL A   1      31.368  25.128  24.378  1.00  0.00     0.100 C 
BRANCH  13  15
ATOM     15  N   UNL A   1      31.104  25.869  26.768  1.00  0.00    -0.337 N 
ATOM     16  H   UNL A   1      30.866  26.703  26.231  1.00  0.00     0.345 HD
ATOM     17  H   UNL A   1      31.791  26.108  27.482  1.00  0.00     0.345 HD
ATOM     18  H   UNL A   1      30.264  25.500  27.214  1.00  0.00     0.345 HD
ENDBRANCH  13  15
BRANCH  13  19
ATOM     19  C   UNL A   1      33.230  24.808  26.001  1.00  0.00     0.453 C 
ATOM     20  F   UNL A   1      33.674  23.861  26.856  1.00  0.00    -0.164 F 
ATOM     21  F   UNL A   1      33.870  24.651  24.821  1.00  0.00    -0.164 F 
ATOM     22  F   UNL A   1      33.649  26.008  26.501  1.00  0.00    -0.164 F 
ENDBRANCH  13  19
ENDBRANCH  10  13
ENDBRANCH   5   9
ENDBRANCH   3   5
ENDBRANCH   2   3
ENDBRANCH   1   2
BRANCH   1  23
ATOM     23  C   UNL A   1      36.604  20.601  25.014  1.00  0.00     0.275 C 
BRANCH  23  24
ATOM     24  O   UNL A   1      37.517  21.678  25.269  1.00  0.00    -0.458 OA
BRANCH  24  25
ATOM     25  C   UNL A   1      38.686  21.302  25.832  1.00  0.00     0.338 C 
ATOM     26  O   UNL A   1      39.235  20.218  25.753  1.00  0.00    -0.246 OA
BRANCH  25  27
ATOM     27  C   UNL A   1      39.329  22.472  26.438  1.00  0.00     0.060 A 
ATOM     28  C   UNL A   1      38.878  23.737  26.050  1.00  0.00     0.016 A 
ATOM     29  C   UNL A   1      40.403  22.330  27.315  1.00  0.00     0.016 A 
ATOM     30  C   UNL A   1      39.493  24.878  26.538  1.00  0.00     0.010 A 
ATOM     31  C   UNL A   1      41.038  23.477  27.789  1.00  0.00     0.010 A 
ATOM     32  C   UNL A   1      40.592  24.750  27.390  1.00  0.00    -0.014 A 
BRANCH  32  33
ATOM     33  C   UNL A   1      41.354  25.950  27.775  1.00  0.00     0.031 A 
ATOM     34  C   UNL A   1      40.666  27.016  28.569  1.00  0.00     0.074 A 
ATOM     35  C   UNL A   1      42.643  26.067  27.416  1.00  0.00     0.049 A 
ATOM     36  N   UNL A   1      41.077  28.215  28.875  1.00  0.00    -0.248 NA
ATOM     37  C   UNL A   1      39.326  26.683  29.083  1.00  0.00     0.031 C 
ATOM     38  C   UNL A   1      43.420  25.048  26.711  1.00  0.00     0.029 A 
ATOM     39  N   UNL A   1      43.517  27.108  27.581  1.00  0.00    -0.354 N 
ATOM     40  C   UNL A   1      40.040  28.793  29.595  1.00  0.00     0.074 A 
ATOM     41  C   UNL A   1      38.979  27.814  29.679  1.00  0.00     0.031 C 
ATOM     42  C   UNL A   1      44.653  25.526  26.478  1.00  0.00     0.029 A 
ATOM     43  C   UNL A   1      44.730  26.898  26.973  1.00  0.00     0.049 A 
ATOM     44  H   UNL A   1      43.299  27.925  28.085  1.00  0.00     0.167 HD
ATOM     45  C   UNL A   1      39.983  30.036  30.126  1.00  0.00     0.037 A 
ATOM     46  C   UNL A   1      45.762  27.743  26.797  1.00  0.00     0.037 A 
ATOM     47  C   UNL A   1      41.052  30.994  30.028  1.00  0.00     0.049 A 
ATOM     48  C   UNL A   1      45.647  29.143  27.332  1.00  0.00     0.074 A 
ATOM     49  C   UNL A   1      41.107  32.284  30.519  1.00  0.00     0.029 A 
ATOM     50  N   UNL A   1      42.260  30.755  29.386  1.00  0.00    -0.354 N 
ATOM     51  N   UNL A   1      44.654  29.700  27.985  1.00  0.00    -0.248 NA
ATOM     52  C   UNL A   1      46.787  30.038  27.094  1.00  0.00     0.031 C 
ATOM     53  C   UNL A   1      42.334  32.841  30.142  1.00  0.00     0.029 A 
ATOM     54  C   UNL A   1      43.060  31.882  29.452  1.00  0.00     0.049 A 
ATOM     55  H   UNL A   1      42.510  29.910  28.948  1.00  0.00     0.167 HD
ATOM     56  C   UNL A   1      45.055  31.002  28.252  1.00  0.00     0.074 A 
ATOM     57  C   UNL A   1      46.388  31.147  27.701  1.00  0.00     0.031 C 
ATOM     58  C   UNL A   1      44.383  31.991  28.891  1.00  0.00     0.037 A 
BRANCH  45  59
ATOM     59  C   UNL A   1      38.711  30.433  30.810  1.00  0.00     0.057 A 
ATOM     60  C   UNL A   1      37.663  31.062  30.125  1.00  0.00     0.134 A 
ATOM     61  C   UNL A   1      38.532  30.184  32.177  1.00  0.00     0.134 A 
ATOM     62  F   UNL A   1      37.780  31.351  28.820  1.00  0.00    -0.206 F 
ATOM     63  C   UNL A   1      36.491  31.448  30.779  1.00  0.00     0.040 A 
ATOM     64  C   UNL A   1      37.356  30.544  32.838  1.00  0.00     0.040 A 
ATOM     65  F   UNL A   1      39.498  29.590  32.892  1.00  0.00    -0.206 F 
ATOM     66  C   UNL A   1      36.334  31.184  32.140  1.00  0.00     0.006 A 
ENDBRANCH  45  59
BRANCH  46  67
ATOM     67  C   UNL A   1      46.963  27.300  26.050  1.00  0.00     0.057 A 
ATOM     68  C   UNL A   1      48.057  26.728  26.708  1.00  0.00     0.134 A 
ATOM     69  C   UNL A   1      47.045  27.432  24.657  1.00  0.00     0.134 A 
ATOM     70  F   UNL A   1      48.046  26.596  28.042  1.00  0.00    -0.206 F 
ATOM     71  C   UNL A   1      49.192  26.310  26.010  1.00  0.00     0.040 A 
ATOM     72  C   UNL A   1      48.163  26.997  23.945  1.00  0.00     0.040 A 
ATOM     73  F   UNL A   1      46.029  27.972  23.967  1.00  0.00    -0.206 F 
ATOM     74  C   UNL A   1      49.243  26.439  24.623  1.00  0.00     0.006 A 
ENDBRANCH  46  67
BRANCH  58  75
ATOM     75  C   UNL A   1      45.095  33.301  29.046  1.00  0.00     0.057 A 
ATOM     76  C   UNL A   1      45.938  33.555  30.134  1.00  0.00     0.134 A 
ATOM     77  C   UNL A   1      44.962  34.301  28.075  1.00  0.00     0.134 A 
ATOM     78  F   UNL A   1      46.094  32.640  31.102  1.00  0.00    -0.206 F 
ATOM     79  C   UNL A   1      46.612  34.770  30.261  1.00  0.00     0.040 A 
ATOM     80  C   UNL A   1      45.648  35.510  28.180  1.00  0.00     0.040 A 
ATOM     81  F   UNL A   1      44.175  34.113  27.006  1.00  0.00    -0.206 F 
ATOM     82  C   UNL A   1      46.472  35.749  29.279  1.00  0.00     0.006 A 
ENDBRANCH  58  75
ENDBRANCH  32  33
ENDBRANCH  25  27
ENDBRANCH  24  25
ENDBRANCH  23  24
ENDBRANCH   1  23
TORSDOF 16
ENDMDL
MODEL 2
REMARK VINA RESULT:     -10.4      4.833      9.098
REMARK SMILES CC(C)[C@@H](NC(=O)[C@@](C)([NH3+])C(F)(F)F)C(=O)OCCOC(=O)c1ccc(-c2c3nc(c(-c4c(F)cccc4F)c4ccc([nH]4)c(-c4c(F)cccc4F)c4nc(c(-c5c(F)cccc5F)c5ccc2[nH]5)C=C4)C=C3)cc1
REMARK SMILES IDX 18 1 17 2 15 3 16 4 4 5 2 6 1 7 3 8 5 9 6 10 7 12 8 13 9 14
REMARK SMILES IDX 10 15 11 19 12 20 13 21 14 22 19 23 20 24 21 25 22 26 23 27
REMARK SMILES IDX 24 28 76 29 25 30 75 31 26 32 27 33 28 34 69 35 29 36 74 37
REMARK SMILES IDX 68 38 70 39 30 40 73 41 67 42 66 43 31 45 57 46 40 47 56 48
REMARK SMILES IDX 41 49 44 50 55 51 71 52 42 53 43 54 54 56 72 57 45 58 32 59
REMARK SMILES IDX 33 60 38 61 34 62 35 63 37 64 39 65 36 66 58 67 59 68 64 69
REMARK SMILES IDX 60 70 61 71 63 72 65 73 62 74 46 75 47 76 52 77 48 78 49 79
REMARK SMILES IDX 51 80 53 81 50 82
REMARK H PARENT 5 11 10 16 10 17 10 18 70 44 44 55
REMARK Flexibility Score: inf
ROOT
ATOM      1  C   UNL A   1      31.781  28.790  27.196  1.00  0.00     0.274 C 
ENDROOT
BRANCH   1   2
ATOM      2  O   UNL A   1      31.122  28.011  26.174  1.00  0.00    -0.461 OA
BRANCH   2   3
ATOM      3  C   UNL A   1      31.930  27.275  25.368  1.00  0.00     0.329 C 
ATOM      4  O   UNL A   1      32.809  26.525  25.782  1.00  0.00    -0.250 OA
BRANCH   3   5
ATOM      5  C   UNL A   1      31.769  27.575  23.867  1.00  0.00     0.195 C 
BRANCH   5   6
ATOM      6  C   UNL A   1      32.811  26.986  22.874  1.00  0.00     0.017 C 
ATOM      7  C   UNL A   1      32.104  26.285  21.695  1.00  0.00     0.010 C 
ATOM      8  C   UNL A   1      33.717  28.066  22.260  1.00  0.00     0.010 C 
ENDBRANCH   5   6
BRANCH   5   9
ATOM      9  N   UNL A   1      30.372  27.543  23.352  1.00  0.00    -0.337 N 
ATOM     10  C   UNL A   1      29.360  28.435  23.116  1.00  0.00     0.291 C 
ATOM     11  H   UNL A   1      30.101  26.626  23.116  1.00  0.00     0.164 HD
ATOM     12  O   UNL A   1      28.228  27.941  23.145  1.00  0.00    -0.267 OA
BRANCH  10  13
ATOM     13  C   UNL A   1      29.592  29.918  22.753  1.00  0.00     0.267 C 
ATOM     14  C   UNL A   1      29.885  30.751  24.008  1.00  0.00     0.100 C 
BRANCH  13  15
ATOM     15  N   UNL A   1      30.698  30.005  21.747  1.00  0.00    -0.337 N 
ATOM     16  H   UNL A   1      31.474  29.411  22.041  1.00  0.00     0.345 HD
ATOM     17  H   UNL A   1      31.017  30.971  21.675  1.00  0.00     0.345 HD
ATOM     18  H   UNL A   1      30.355  29.692  20.839  1.00  0.00     0.345 HD
ENDBRANCH  13  15
BRANCH  13  19
ATOM     19  C   UNL A   1      28.276  30.477  22.127  1.00  0.00     0.453 C 
ATOM     20  F   UNL A   1      27.787  29.710  21.128  1.00  0.00    -0.164 F 
ATOM     21  F   UNL A   1      27.297  30.664  23.040  1.00  0.00    -0.164 F 
ATOM     22  F   UNL A   1      28.526  31.705  21.584  1.00  0.00    -0.164 F 
ENDBRANCH  13  19
ENDBRANCH  10  13
ENDBRANCH   5   9
ENDBRANCH   3   5
ENDBRANCH   2   3
ENDBRANCH   1   2
BRANCH   1  23
ATOM     23  C   UNL A   1      31.819  30.287  26.891  1.00  0.00     0.275 C 
BRANCH  23  24
ATOM     24  O   UNL A   1      33.146  30.719  26.558  1.00  0.00    -0.458 OA
BRANCH  24  25
ATOM     25  C   UNL A   1      33.605  31.750  27.302  1.00  0.00     0.338 C 
ATOM     26  O   UNL A   1      33.008  32.762  27.619  1.00  0.00    -0.246 OA
BRANCH  25  27
ATOM     27  C   UNL A   1      34.919  31.401  27.852  1.00  0.00     0.060 A 
ATOM     28  C   UNL A   1      35.112  30.088  28.293  1.00  0.00     0.016 A 
ATOM     29  C   UNL A   1      35.916  32.363  27.998  1.00  0.00     0.016 A 
ATOM     30  C   UNL A   1      36.310  29.719  28.883  1.00  0.00     0.010 A 
ATOM     31  C   UNL A   1      37.113  31.999  28.614  1.00  0.00     0.010 A 
ATOM     32  C   UNL A   1      37.305  30.682  29.068  1.00  0.00    -0.014 A 
BRANCH  32  33
ATOM     33  C   UNL A   1      38.509  30.341  29.845  1.00  0.00     0.031 A 
ATOM     34  C   UNL A   1      39.506  29.398  29.249  1.00  0.00     0.074 A 
ATOM     35  C   UNL A   1      38.694  30.877  31.062  1.00  0.00     0.049 A 
ATOM     36  N   UNL A   1      40.542  28.830  29.802  1.00  0.00    -0.248 NA
ATOM     37  C   UNL A   1      39.305  29.044  27.833  1.00  0.00     0.031 C 
ATOM     38  C   UNL A   1      37.817  31.865  31.692  1.00  0.00     0.029 A 
ATOM     39  N   UNL A   1      39.672  30.649  31.991  1.00  0.00    -0.354 N 
ATOM     40  C   UNL A   1      41.102  28.031  28.816  1.00  0.00     0.074 A 
ATOM     41  C   UNL A   1      40.292  28.186  27.628  1.00  0.00     0.031 C 
ATOM     42  C   UNL A   1      38.284  32.138  32.921  1.00  0.00     0.029 A 
ATOM     43  C   UNL A   1      39.459  31.308  33.176  1.00  0.00     0.049 A 
ATOM     44  H   UNL A   1      40.452  30.071  31.827  1.00  0.00     0.167 HD
ATOM     45  C   UNL A   1      42.191  27.233  28.905  1.00  0.00     0.037 A 
ATOM     46  C   UNL A   1      40.114  31.209  34.347  1.00  0.00     0.037 A 
ATOM     47  C   UNL A   1      42.982  27.095  30.099  1.00  0.00     0.049 A 
ATOM     48  C   UNL A   1      41.277  30.261  34.444  1.00  0.00     0.074 A 
ATOM     49  C   UNL A   1      44.101  26.313  30.311  1.00  0.00     0.029 A 
ATOM     50  N   UNL A   1      42.724  27.761  31.289  1.00  0.00    -0.354 N 
ATOM     51  N   UNL A   1      41.788  29.481  33.520  1.00  0.00    -0.248 NA
ATOM     52  C   UNL A   1      41.947  30.166  35.748  1.00  0.00     0.031 C 
ATOM     53  C   UNL A   1      44.500  26.477  31.642  1.00  0.00     0.029 A 
ATOM     54  C   UNL A   1      43.653  27.394  32.247  1.00  0.00     0.049 A 
ATOM     55  H   UNL A   1      41.989  28.401  31.432  1.00  0.00     0.167 HD
ATOM     56  C   UNL A   1      42.847  28.817  34.123  1.00  0.00     0.074 A 
ATOM     57  C   UNL A   1      42.913  29.296  35.489  1.00  0.00     0.031 C 
ATOM     58  C   UNL A   1      43.688  27.893  33.598  1.00  0.00     0.037 A 
BRANCH  45  59
ATOM     59  C   UNL A   1      42.550  26.423  27.697  1.00  0.00     0.057 A 
ATOM     60  C   UNL A   1      42.054  25.128  27.495  1.00  0.00     0.134 A 
ATOM     61  C   UNL A   1      43.408  26.946  26.720  1.00  0.00     0.134 A 
ATOM     62  F   UNL A   1      41.248  24.560  28.404  1.00  0.00    -0.206 F 
ATOM     63  C   UNL A   1      42.415  24.375  26.376  1.00  0.00     0.040 A 
ATOM     64  C   UNL A   1      43.759  26.212  25.586  1.00  0.00     0.040 A 
ATOM     65  F   UNL A   1      43.922  28.177  26.856  1.00  0.00    -0.206 F 
ATOM     66  C   UNL A   1      43.266  24.920  25.414  1.00  0.00     0.006 A 
ENDBRANCH  45  59
BRANCH  46  67
ATOM     67  C   UNL A   1      39.659  31.992  35.520  1.00  0.00     0.057 A 
ATOM     68  C   UNL A   1      38.661  31.509  36.372  1.00  0.00     0.134 A 
ATOM     69  C   UNL A   1      40.218  33.241  35.823  1.00  0.00     0.134 A 
ATOM     70  F   UNL A   1      38.074  30.330  36.121  1.00  0.00    -0.206 F 
ATOM     71  C   UNL A   1      38.227  32.242  37.478  1.00  0.00     0.040 A 
ATOM     72  C   UNL A   1      39.810  33.974  36.939  1.00  0.00     0.040 A 
ATOM     73  F   UNL A   1      41.180  33.759  35.046  1.00  0.00    -0.206 F 
ATOM     74  C   UNL A   1      38.808  33.476  37.767  1.00  0.00     0.006 A 
ENDBRANCH  46  67
BRANCH  58  75
ATOM     75  C   UNL A   1      44.761  27.365  34.503  1.00  0.00     0.057 A 
ATOM     76  C   UNL A   1      44.576  26.206  35.265  1.00  0.00     0.134 A 
ATOM     77  C   UNL A   1      46.004  28.006  34.580  1.00  0.00     0.134 A 
ATOM     78  F   UNL A   1      43.402  25.558  35.242  1.00  0.00    -0.206 F 
ATOM     79  C   UNL A   1      45.586  25.711  36.090  1.00  0.00     0.040 A 
ATOM     80  C   UNL A   1      47.029  27.508  35.384  1.00  0.00     0.040 A 
ATOM     81  F   UNL A   1      46.244  29.116  33.867  1.00  0.00    -0.206 F 
ATOM     82  C   UNL A   1      46.819  26.360  36.146  1.00  0.00     0.006 A 
ENDBRANCH  58  75
ENDBRANCH  32  33
ENDBRANCH  25  27
ENDBRANCH  24  25
ENDBRANCH  23  24
ENDBRANCH   1  23
TORSDOF 16
ENDMDL
MODEL 3
REMARK VINA RESULT:     -10.3      4.340      8.734
REMARK SMILES CC(C)[C@@H](NC(=O)[C@@](C)([NH3+])C(F)(F)F)C(=O)OCCOC(=O)c1ccc(-c2c3nc(c(-c4c(F)cccc4F)c4ccc([nH]4)c(-c4c(F)cccc4F)c4nc(c(-c5c(F)cccc5F)c5ccc2[nH]5)C=C4)C=C3)cc1
REMARK SMILES IDX 18 1 17 2 15 3 16 4 4 5 2 6 1 7 3 8 5 9 6 10 7 12 8 13 9 14
REMARK SMILES IDX 10 15 11 19 12 20 13 21 14 22 19 23 20 24 21 25 22 26 23 27
REMARK SMILES IDX 24 28 76 29 25 30 75 31 26 32 27 33 28 34 69 35 29 36 74 37
REMARK SMILES IDX 68 38 70 39 30 40 73 41 67 42 66 43 31 45 57 46 40 47 56 48
REMARK SMILES IDX 41 49 44 50 55 51 71 52 42 53 43 54 54 56 72 57 45 58 32 59
REMARK SMILES IDX 33 60 38 61 34 62 35 63 37 64 39 65 36 66 58 67 59 68 64 69
REMARK SMILES IDX 60 70 61 71 63 72 65 73 62 74 46 75 47 76 52 77 48 78 49 79
REMARK SMILES IDX 51 80 53 81 50 82
REMARK H PARENT 5 11 10 16 10 17 10 18 70 44 44 55
REMARK Flexibility Score: inf
ROOT
ATOM      1  C   UNL A   1      33.036  29.310  24.393  1.00  0.00     0.274 C 
ENDROOT
BRANCH   1   2
ATOM      2  O   UNL A   1      32.467  28.372  23.454  1.00  0.00    -0.461 OA
BRANCH   2   3
ATOM      3  C   UNL A   1      33.296  27.393  23.008  1.00  0.00     0.329 C 
ATOM      4  O   UNL A   1      34.000  27.496  22.008  1.00  0.00    -0.250 OA
BRANCH   3   5
ATOM      5  C   UNL A   1      33.170  26.061  23.769  1.00  0.00     0.195 C 
BRANCH   5   6
ATOM      6  C   UNL A   1      34.272  24.983  23.571  1.00  0.00     0.017 C 
ATOM      7  C   UNL A   1      34.711  24.396  24.928  1.00  0.00     0.010 C 
ATOM      8  C   UNL A   1      33.791  23.798  22.718  1.00  0.00     0.010 C 
ENDBRANCH   5   6
BRANCH   5   9
ATOM      9  N   UNL A   1      32.688  26.168  25.175  1.00  0.00    -0.337 N 
ATOM     10  C   UNL A   1      31.491  26.144  25.838  1.00  0.00     0.291 C 
ATOM     11  H   UNL A   1      33.439  26.291  25.800  1.00  0.00     0.164 HD
ATOM     12  O   UNL A   1      31.495  26.739  26.920  1.00  0.00    -0.267 OA
BRANCH  10  13
ATOM     13  C   UNL A   1      30.251  25.369  25.340  1.00  0.00     0.267 C 
ATOM     14  C   UNL A   1      30.664  24.080  24.616  1.00  0.00     0.100 C 
BRANCH  13  15
ATOM     15  N   UNL A   1      29.347  25.098  26.504  1.00  0.00    -0.337 N 
ATOM     16  H   UNL A   1      29.709  25.570  27.333  1.00  0.00     0.345 HD
ATOM     17  H   UNL A   1      29.305  24.094  26.675  1.00  0.00     0.345 HD
ATOM     18  H   UNL A   1      28.412  25.447  26.294  1.00  0.00     0.345 HD
ENDBRANCH  13  15
BRANCH  13  19
ATOM     19  C   UNL A   1      29.506  26.263  24.300  1.00  0.00     0.453 C 
ATOM     20  F   UNL A   1      29.706  25.880  23.020  1.00  0.00    -0.164 F 
ATOM     21  F   UNL A   1      28.174  26.330  24.523  1.00  0.00    -0.164 F 
ATOM     22  F   UNL A   1      29.970  27.544  24.398  1.00  0.00    -0.164 F 
ENDBRANCH  13  19
ENDBRANCH  10  13
ENDBRANCH   5   9
ENDBRANCH   3   5
ENDBRANCH   2   3
ENDBRANCH   1   2
BRANCH   1  23
ATOM     23  C   UNL A   1      32.012  29.894  25.366  1.00  0.00     0.275 C 
BRANCH  23  24
ATOM     24  O   UNL A   1      32.532  29.947  26.702  1.00  0.00    -0.458 OA
BRANCH  24  25
ATOM     25  C   UNL A   1      33.068  31.137  27.050  1.00  0.00     0.338 C 
ATOM     26  O   UNL A   1      32.524  32.227  27.051  1.00  0.00    -0.246 OA
BRANCH  25  27
ATOM     27  C   UNL A   1      34.401  30.919  27.620  1.00  0.00     0.060 A 
ATOM     28  C   UNL A   1      34.765  29.607  27.940  1.00  0.00     0.016 A 
ATOM     29  C   UNL A   1      35.248  31.989  27.902  1.00  0.00     0.016 A 
ATOM     30  C   UNL A   1      35.985  29.348  28.543  1.00  0.00     0.010 A 
ATOM     31  C   UNL A   1      36.466  31.733  28.530  1.00  0.00     0.010 A 
ATOM     32  C   UNL A   1      36.828  30.415  28.863  1.00  0.00    -0.014 A 
BRANCH  32  33
ATOM     33  C   UNL A   1      38.045  30.165  29.654  1.00  0.00     0.031 A 
ATOM     34  C   UNL A   1      39.104  29.275  29.084  1.00  0.00     0.074 A 
ATOM     35  C   UNL A   1      38.187  30.737  30.861  1.00  0.00     0.049 A 
ATOM     36  N   UNL A   1      40.169  28.784  29.656  1.00  0.00    -0.248 NA
ATOM     37  C   UNL A   1      38.936  28.881  27.674  1.00  0.00     0.031 C 
ATOM     38  C   UNL A   1      37.246  31.680  31.465  1.00  0.00     0.029 A 
ATOM     39  N   UNL A   1      39.171  30.589  31.801  1.00  0.00    -0.354 N 
ATOM     40  C   UNL A   1      40.785  28.002  28.690  1.00  0.00     0.074 A 
ATOM     41  C   UNL A   1      39.976  28.081  27.494  1.00  0.00     0.031 C 
ATOM     42  C   UNL A   1      37.686  32.007  32.691  1.00  0.00     0.029 A 
ATOM     43  C   UNL A   1      38.907  31.257  32.971  1.00  0.00     0.049 A 
ATOM     44  H   UNL A   1      39.986  30.057  31.654  1.00  0.00     0.167 HD
ATOM     45  C   UNL A   1      41.921  27.275  28.802  1.00  0.00     0.037 A 
ATOM     46  C   UNL A   1      39.559  31.222  34.148  1.00  0.00     0.037 A 
ATOM     47  C   UNL A   1      42.709  27.211  30.004  1.00  0.00     0.049 A 
ATOM     48  C   UNL A   1      40.777  30.351  34.272  1.00  0.00     0.074 A 
ATOM     49  C   UNL A   1      43.874  26.504  30.239  1.00  0.00     0.029 A 
ATOM     50  N   UNL A   1      42.401  27.884  31.179  1.00  0.00    -0.354 N 
ATOM     51  N   UNL A   1      41.343  29.586  33.367  1.00  0.00    -0.248 NA
ATOM     52  C   UNL A   1      41.441  30.324  35.582  1.00  0.00     0.031 C 
ATOM     53  C   UNL A   1      44.251  26.720  31.570  1.00  0.00     0.029 A 
ATOM     54  C   UNL A   1      43.344  27.595  32.150  1.00  0.00     0.049 A 
ATOM     55  H   UNL A   1      41.627  28.479  31.303  1.00  0.00     0.167 HD
ATOM     56  C   UNL A   1      42.436  29.002  33.991  1.00  0.00     0.074 A 
ATOM     57  C   UNL A   1      42.462  29.512  35.347  1.00  0.00     0.031 C 
ATOM     58  C   UNL A   1      43.338  28.121  33.491  1.00  0.00     0.037 A 
BRANCH  45  59
ATOM     59  C   UNL A   1      42.339  26.465  27.613  1.00  0.00     0.057 A 
ATOM     60  C   UNL A   1      41.938  25.134  27.442  1.00  0.00     0.134 A 
ATOM     61  C   UNL A   1      43.159  27.025  26.625  1.00  0.00     0.134 A 
ATOM     62  F   UNL A   1      41.172  24.531  28.364  1.00  0.00    -0.206 F 
ATOM     63  C   UNL A   1      42.353  24.383  26.340  1.00  0.00     0.040 A 
ATOM     64  C   UNL A   1      43.563  26.292  25.508  1.00  0.00     0.040 A 
ATOM     65  F   UNL A   1      43.583  28.293  26.731  1.00  0.00    -0.206 F 
ATOM     66  C   UNL A   1      43.165  24.964  25.366  1.00  0.00     0.006 A 
ENDBRANCH  45  59
BRANCH  46  67
ATOM     67  C   UNL A   1      39.047  31.999  35.302  1.00  0.00     0.057 A 
ATOM     68  C   UNL A   1      38.241  31.403  36.277  1.00  0.00     0.134 A 
ATOM     69  C   UNL A   1      39.357  33.356  35.462  1.00  0.00     0.134 A 
ATOM     70  F   UNL A   1      37.892  30.113  36.167  1.00  0.00    -0.206 F 
ATOM     71  C   UNL A   1      37.754  32.129  37.366  1.00  0.00     0.040 A 
ATOM     72  C   UNL A   1      38.898  34.088  36.557  1.00  0.00     0.040 A 
ATOM     73  F   UNL A   1      40.127  33.986  34.562  1.00  0.00    -0.206 F 
ATOM     74  C   UNL A   1      38.089  33.474  37.511  1.00  0.00     0.006 A 
ENDBRANCH  46  67
BRANCH  58  75
ATOM     75  C   UNL A   1      44.435  27.680  34.412  1.00  0.00     0.057 A 
ATOM     76  C   UNL A   1      45.627  28.404  34.536  1.00  0.00     0.134 A 
ATOM     77  C   UNL A   1      44.277  26.540  35.210  1.00  0.00     0.134 A 
ATOM     78  F   UNL A   1      45.840  29.496  33.788  1.00  0.00    -0.206 F 
ATOM     79  C   UNL A   1      46.635  27.997  35.410  1.00  0.00     0.040 A 
ATOM     80  C   UNL A   1      45.269  26.137  36.104  1.00  0.00     0.040 A 
ATOM     81  F   UNL A   1      43.154  25.810  35.142  1.00  0.00    -0.206 F 
ATOM     82  C   UNL A   1      46.454  26.863  36.201  1.00  0.00     0.006 A 
ENDBRANCH  58  75
ENDBRANCH  32  33
ENDBRANCH  25  27
ENDBRANCH  24  25
ENDBRANCH  23  24
ENDBRANCH   1  23
TORSDOF 16
ENDMDL
