MODEL 1
REMARK VINA RESULT:     -12.0      0.000      0.000
REMARK SMILES O=C(OCCOC(=O)c1nnn(-c2cccc(OC(F)(F)F)c2)c1-c1ccncc1)c1ccc(-c2c3nc(c(-c4c(F)cccc4F)c4ccc([nH]4)c(-c4c(F)cccc4F)c4nc(c(-c5c(F)cccc5F)c5ccc2[nH]5)C=C4)C=C3)cc1
REMARK SMILES IDX 5 1 4 2 3 3 2 4 1 5 31 6 32 7 84 8 33 9 83 10 34 11 35 12
REMARK SMILES IDX 36 13 77 14 37 15 82 16 76 17 78 18 38 19 81 20 75 21 74 22
REMARK SMILES IDX 39 24 65 25 48 26 64 27 49 28 52 29 63 30 79 31 50 32 51 33
REMARK SMILES IDX 62 35 80 36 53 37 40 38 41 39 46 40 42 41 43 42 45 43 47 44
REMARK SMILES IDX 44 45 66 46 67 47 72 48 68 49 69 50 71 51 73 52 70 53 54 54
REMARK SMILES IDX 55 55 60 56 56 57 57 58 59 59 61 60 58 61 6 62 7 63 8 64
REMARK SMILES IDX 9 65 10 66 24 67 11 68 12 69 25 70 26 71 30 72 27 73 29 74
REMARK SMILES IDX 28 75 13 76 14 77 23 78 15 79 17 80 16 81 18 82 19 83 20 84
REMARK SMILES IDX 21 85 22 86
REMARK H PARENT 78 23 52 34
REMARK Flexibility Score: inf
ROOT
ATOM      1  C   UNL A   1      33.236  29.517  26.575  1.00  0.00     0.275 C 
ENDROOT
BRANCH   1   2
ATOM      2  C   UNL A   1      33.419  30.940  27.095  1.00  0.00     0.275 C 
BRANCH   2   3
ATOM      3  O   UNL A   1      34.328  31.139  28.200  1.00  0.00    -0.458 OA
BRANCH   3   4
ATOM      4  C   UNL A   1      35.538  31.703  27.994  1.00  0.00     0.338 C 
ATOM      5  O   UNL A   1      35.693  32.864  27.652  1.00  0.00    -0.246 OA
BRANCH   4   6
ATOM      6  C   UNL A   1      36.660  30.847  28.455  1.00  0.00     0.060 A 
ATOM      7  C   UNL A   1      37.875  31.376  28.905  1.00  0.00     0.016 A 
ATOM      8  C   UNL A   1      36.475  29.460  28.415  1.00  0.00     0.016 A 
ATOM      9  C   UNL A   1      38.929  30.530  29.208  1.00  0.00     0.010 A 
ATOM     10  C   UNL A   1      37.528  28.609  28.724  1.00  0.00     0.010 A 
ATOM     11  C   UNL A   1      38.767  29.151  29.068  1.00  0.00    -0.014 A 
BRANCH  11  12
ATOM     12  C   UNL A   1      39.914  28.300  29.362  1.00  0.00     0.031 A 
ATOM     13  C   UNL A   1      40.315  28.241  30.798  1.00  0.00     0.074 A 
ATOM     14  C   UNL A   1      40.496  27.527  28.423  1.00  0.00     0.049 A 
ATOM     15  N   UNL A   1      41.460  28.527  31.329  1.00  0.00    -0.248 NA
ATOM     16  C   UNL A   1      39.273  27.892  31.779  1.00  0.00     0.031 C 
ATOM     17  C   UNL A   1      40.041  27.267  27.054  1.00  0.00     0.029 A 
ATOM     18  N   UNL A   1      41.589  26.724  28.536  1.00  0.00    -0.354 N 
ATOM     19  C   UNL A   1      41.342  28.230  32.688  1.00  0.00     0.074 A 
ATOM     20  C   UNL A   1      39.950  27.952  32.927  1.00  0.00     0.031 C 
ATOM     21  C   UNL A   1      40.717  26.209  26.551  1.00  0.00     0.029 A 
ATOM     22  C   UNL A   1      41.741  25.811  27.501  1.00  0.00     0.049 A 
ATOM     23  H   UNL A   1      42.219  26.785  29.289  1.00  0.00     0.167 HD
ATOM     24  C   UNL A   1      42.430  28.052  33.487  1.00  0.00     0.037 A 
ATOM     25  C   UNL A   1      42.610  24.771  27.460  1.00  0.00     0.037 A 
ATOM     26  C   UNL A   1      43.607  28.661  32.928  1.00  0.00     0.049 A 
ATOM     27  C   UNL A   1      43.669  25.028  28.465  1.00  0.00     0.074 A 
ATOM     28  C   UNL A   1      43.962  29.955  32.600  1.00  0.00     0.029 A 
ATOM     29  N   UNL A   1      44.521  27.859  32.292  1.00  0.00    -0.354 N 
ATOM     30  N   UNL A   1      44.558  25.975  28.359  1.00  0.00    -0.248 NA
ATOM     31  C   UNL A   1      43.460  24.513  29.809  1.00  0.00     0.031 C 
ATOM     32  C   UNL A   1      44.715  29.833  31.396  1.00  0.00     0.029 A 
ATOM     33  C   UNL A   1      44.826  28.474  31.104  1.00  0.00     0.049 A 
ATOM     34  H   UNL A   1      44.886  27.008  32.624  1.00  0.00     0.167 HD
ATOM     35  C   UNL A   1      44.703  26.468  29.647  1.00  0.00     0.074 A 
ATOM     36  C   UNL A   1      44.065  25.476  30.509  1.00  0.00     0.031 C 
ATOM     37  C   UNL A   1      45.073  27.763  29.872  1.00  0.00     0.037 A 
BRANCH  24  38
ATOM     38  C   UNL A   1      42.492  27.061  34.621  1.00  0.00     0.057 A 
ATOM     39  C   UNL A   1      42.868  25.728  34.372  1.00  0.00     0.134 A 
ATOM     40  C   UNL A   1      41.924  27.294  35.890  1.00  0.00     0.134 A 
ATOM     41  F   UNL A   1      43.400  25.371  33.194  1.00  0.00    -0.206 F 
ATOM     42  C   UNL A   1      42.642  24.698  35.295  1.00  0.00     0.040 A 
ATOM     43  C   UNL A   1      41.737  26.282  36.837  1.00  0.00     0.040 A 
ATOM     44  F   UNL A   1      41.435  28.489  36.245  1.00  0.00    -0.206 F 
ATOM     45  C   UNL A   1      42.068  24.973  36.530  1.00  0.00     0.006 A 
ENDBRANCH  24  38
BRANCH  25  46
ATOM     46  C   UNL A   1      42.411  23.434  26.854  1.00  0.00     0.057 A 
ATOM     47  C   UNL A   1      43.431  22.802  26.130  1.00  0.00     0.134 A 
ATOM     48  C   UNL A   1      41.315  22.627  27.208  1.00  0.00     0.134 A 
ATOM     49  F   UNL A   1      44.539  23.475  25.785  1.00  0.00    -0.206 F 
ATOM     50  C   UNL A   1      43.374  21.442  25.794  1.00  0.00     0.040 A 
ATOM     51  C   UNL A   1      41.243  21.272  26.874  1.00  0.00     0.040 A 
ATOM     52  F   UNL A   1      40.321  23.107  27.969  1.00  0.00    -0.206 F 
ATOM     53  C   UNL A   1      42.282  20.669  26.176  1.00  0.00     0.006 A 
ENDBRANCH  25  46
BRANCH  37  54
ATOM     54  C   UNL A   1      45.528  28.581  28.692  1.00  0.00     0.057 A 
ATOM     55  C   UNL A   1      44.666  29.347  27.891  1.00  0.00     0.134 A 
ATOM     56  C   UNL A   1      46.898  28.720  28.451  1.00  0.00     0.134 A 
ATOM     57  F   UNL A   1      43.347  29.365  28.112  1.00  0.00    -0.206 F 
ATOM     58  C   UNL A   1      45.143  30.172  26.869  1.00  0.00     0.040 A 
ATOM     59  C   UNL A   1      47.391  29.570  27.457  1.00  0.00     0.040 A 
ATOM     60  F   UNL A   1      47.789  28.070  29.216  1.00  0.00    -0.206 F 
ATOM     61  C   UNL A   1      46.511  30.292  26.654  1.00  0.00     0.006 A 
ENDBRANCH  37  54
ENDBRANCH  11  12
ENDBRANCH   4   6
ENDBRANCH   3   4
ENDBRANCH   2   3
ENDBRANCH   1   2
BRANCH   1  62
ATOM     62  O   UNL A   1      31.844  29.168  26.586  1.00  0.00    -0.457 OA
BRANCH  62  63
ATOM     63  C   UNL A   1      31.396  28.413  25.541  1.00  0.00     0.361 C 
ATOM     64  O   UNL A   1      30.860  28.846  24.529  1.00  0.00    -0.244 OA
BRANCH  63  65
ATOM     65  C   UNL A   1      31.506  27.005  25.839  1.00  0.00     0.198 A 
ATOM     66  N   UNL A   1      31.049  26.397  26.980  1.00  0.00    -0.122 NA
ATOM     67  C   UNL A   1      32.021  26.053  24.981  1.00  0.00     0.109 A 
ATOM     68  N   UNL A   1      31.266  25.090  26.865  1.00  0.00    -0.061 NA
ATOM     69  N   UNL A   1      32.013  24.905  25.755  1.00  0.00    -0.212 N 
BRANCH  67  70
ATOM     70  C   UNL A   1      32.464  26.154  23.594  1.00  0.00     0.006 A 
ATOM     71  C   UNL A   1      33.635  26.835  23.265  1.00  0.00     0.030 A 
ATOM     72  C   UNL A   1      31.702  25.585  22.569  1.00  0.00     0.030 A 
ATOM     73  C   UNL A   1      33.999  26.909  21.930  1.00  0.00     0.111 A 
ATOM     74  C   UNL A   1      32.150  25.711  21.266  1.00  0.00     0.111 A 
ATOM     75  N   UNL A   1      33.281  26.362  20.927  1.00  0.00    -0.265 NA
ENDBRANCH  67  70
BRANCH  69  76
ATOM     76  C   UNL A   1      32.768  23.737  25.535  1.00  0.00     0.071 A 
ATOM     77  C   UNL A   1      32.249  22.678  24.796  1.00  0.00     0.029 A 
ATOM     78  C   UNL A   1      34.075  23.695  26.047  1.00  0.00     0.075 A 
ATOM     79  C   UNL A   1      33.095  21.613  24.486  1.00  0.00     0.006 A 
ATOM     80  C   UNL A   1      34.902  22.614  25.776  1.00  0.00     0.131 A 
ATOM     81  C   UNL A   1      34.412  21.588  24.965  1.00  0.00     0.047 A 
BRANCH  80  82
ATOM     82  O   UNL A   1      36.181  22.461  26.228  1.00  0.00    -0.406 OA
BRANCH  82  83
ATOM     83  C   UNL A   1      37.196  23.225  25.586  1.00  0.00     0.573 C 
ATOM     84  F   UNL A   1      37.501  24.330  26.303  1.00  0.00    -0.132 F 
ATOM     85  F   UNL A   1      38.316  22.492  25.402  1.00  0.00    -0.132 F 
ATOM     86  F   UNL A   1      36.749  23.622  24.375  1.00  0.00    -0.132 F 
ENDBRANCH  82  83
ENDBRANCH  80  82
ENDBRANCH  69  76
ENDBRANCH  63  65
ENDBRANCH  62  63
ENDBRANCH   1  62
TORSDOF 15
ENDMDL
MODEL 2
REMARK VINA RESULT:     -11.7      0.601      1.271
REMARK SMILES O=C(OCCOC(=O)c1nnn(-c2cccc(OC(F)(F)F)c2)c1-c1ccncc1)c1ccc(-c2c3nc(c(-c4c(F)cccc4F)c4ccc([nH]4)c(-c4c(F)cccc4F)c4nc(c(-c5c(F)cccc5F)c5ccc2[nH]5)C=C4)C=C3)cc1
REMARK SMILES IDX 5 1 4 2 3 3 2 4 1 5 31 6 32 7 84 8 33 9 83 10 34 11 35 12
REMARK SMILES IDX 36 13 77 14 37 15 82 16 76 17 78 18 38 19 81 20 75 21 74 22
REMARK SMILES IDX 39 24 65 25 48 26 64 27 49 28 52 29 63 30 79 31 50 32 51 33
REMARK SMILES IDX 62 35 80 36 53 37 40 38 41 39 46 40 42 41 43 42 45 43 47 44
REMARK SMILES IDX 44 45 66 46 67 47 72 48 68 49 69 50 71 51 73 52 70 53 54 54
REMARK SMILES IDX 55 55 60 56 56 57 57 58 59 59 61 60 58 61 6 62 7 63 8 64
REMARK SMILES IDX 9 65 10 66 24 67 11 68 12 69 25 70 26 71 30 72 27 73 29 74
REMARK SMILES IDX 28 75 13 76 14 77 23 78 15 79 17 80 16 81 18 82 19 83 20 84
REMARK SMILES IDX 21 85 22 86
REMARK H PARENT 78 23 52 34
REMARK Flexibility Score: inf
ROOT
ATOM      1  C   UNL A   1      33.229  29.672  26.572  1.00  0.00     0.275 C 
ENDROOT
BRANCH   1   2
ATOM      2  C   UNL A   1      33.244  31.044  27.241  1.00  0.00     0.275 C 
BRANCH   2   3
ATOM      3  O   UNL A   1      34.208  31.266  28.293  1.00  0.00    -0.458 OA
BRANCH   3   4
ATOM      4  C   UNL A   1      35.393  31.854  28.018  1.00  0.00     0.338 C 
ATOM      5  O   UNL A   1      35.503  33.005  27.630  1.00  0.00    -0.246 OA
BRANCH   4   6
ATOM      6  C   UNL A   1      36.555  31.045  28.464  1.00  0.00     0.060 A 
ATOM      7  C   UNL A   1      37.679  31.614  29.073  1.00  0.00     0.016 A 
ATOM      8  C   UNL A   1      36.506  29.663  28.242  1.00  0.00     0.016 A 
ATOM      9  C   UNL A   1      38.785  30.829  29.358  1.00  0.00     0.010 A 
ATOM     10  C   UNL A   1      37.610  28.873  28.532  1.00  0.00     0.010 A 
ATOM     11  C   UNL A   1      38.764  29.470  29.039  1.00  0.00    -0.014 A 
BRANCH  11  12
ATOM     12  C   UNL A   1      39.962  28.689  29.322  1.00  0.00     0.031 A 
ATOM     13  C   UNL A   1      40.337  28.591  30.764  1.00  0.00     0.074 A 
ATOM     14  C   UNL A   1      40.618  28.004  28.364  1.00  0.00     0.049 A 
ATOM     15  N   UNL A   1      41.448  28.932  31.335  1.00  0.00    -0.248 NA
ATOM     16  C   UNL A   1      39.303  28.124  31.702  1.00  0.00     0.031 C 
ATOM     17  C   UNL A   1      40.212  27.777  26.974  1.00  0.00     0.029 A 
ATOM     18  N   UNL A   1      41.763  27.275  28.466  1.00  0.00    -0.354 N 
ATOM     19  C   UNL A   1      41.323  28.564  32.675  1.00  0.00     0.074 A 
ATOM     20  C   UNL A   1      39.950  28.178  32.868  1.00  0.00     0.031 C 
ATOM     21  C   UNL A   1      40.972  26.794  26.440  1.00  0.00     0.029 A 
ATOM     22  C   UNL A   1      42.002  26.425  27.396  1.00  0.00     0.049 A 
ATOM     23  H   UNL A   1      42.372  27.345  29.237  1.00  0.00     0.167 HD
ATOM     24  C   UNL A   1      42.404  28.426  33.492  1.00  0.00     0.037 A 
ATOM     25  C   UNL A   1      42.943  25.451  27.328  1.00  0.00     0.037 A 
ATOM     26  C   UNL A   1      43.545  29.142  32.990  1.00  0.00     0.049 A 
ATOM     27  C   UNL A   1      43.960  25.736  28.369  1.00  0.00     0.074 A 
ATOM     28  C   UNL A   1      43.814  30.472  32.729  1.00  0.00     0.029 A 
ATOM     29  N   UNL A   1      44.527  28.437  32.340  1.00  0.00    -0.354 N 
ATOM     30  N   UNL A   1      44.782  26.747  28.327  1.00  0.00    -0.248 NA
ATOM     31  C   UNL A   1      43.761  25.144  29.683  1.00  0.00     0.031 C 
ATOM     32  C   UNL A   1      44.599  30.460  31.539  1.00  0.00     0.029 A 
ATOM     33  C   UNL A   1      44.812  29.127  31.188  1.00  0.00     0.049 A 
ATOM     34  H   UNL A   1      44.946  27.599  32.642  1.00  0.00     0.167 HD
ATOM     35  C   UNL A   1      44.864  27.188  29.640  1.00  0.00     0.074 A 
ATOM     36  C   UNL A   1      44.281  26.114  30.441  1.00  0.00     0.031 C 
ATOM     37  C   UNL A   1      45.136  28.494  29.932  1.00  0.00     0.037 A 
BRANCH  24  38
ATOM     38  C   UNL A   1      42.512  27.389  34.581  1.00  0.00     0.057 A 
ATOM     39  C   UNL A   1      42.979  26.097  34.279  1.00  0.00     0.134 A 
ATOM     40  C   UNL A   1      41.911  27.526  35.849  1.00  0.00     0.134 A 
ATOM     41  F   UNL A   1      43.551  25.830  33.096  1.00  0.00    -0.206 F 
ATOM     42  C   UNL A   1      42.806  25.013  35.151  1.00  0.00     0.040 A 
ATOM     43  C   UNL A   1      41.775  26.462  36.745  1.00  0.00     0.040 A 
ATOM     44  F   UNL A   1      41.339  28.670  36.247  1.00  0.00    -0.206 F 
ATOM     45  C   UNL A   1      42.197  25.193  36.386  1.00  0.00     0.006 A 
ENDBRANCH  24  38
BRANCH  25  46
ATOM     46  C   UNL A   1      42.854  24.134  26.658  1.00  0.00     0.057 A 
ATOM     47  C   UNL A   1      43.697  23.800  25.590  1.00  0.00     0.134 A 
ATOM     48  C   UNL A   1      42.131  23.071  27.230  1.00  0.00     0.134 A 
ATOM     49  F   UNL A   1      44.462  24.735  25.008  1.00  0.00    -0.206 F 
ATOM     50  C   UNL A   1      43.830  22.482  25.130  1.00  0.00     0.040 A 
ATOM     51  C   UNL A   1      42.250  21.754  26.776  1.00  0.00     0.040 A 
ATOM     52  F   UNL A   1      41.356  23.263  28.307  1.00  0.00    -0.206 F 
ATOM     53  C   UNL A   1      43.113  21.452  25.731  1.00  0.00     0.006 A 
ENDBRANCH  25  46
BRANCH  37  54
ATOM     54  C   UNL A   1      45.555  29.396  28.802  1.00  0.00     0.057 A 
ATOM     55  C   UNL A   1      46.873  29.499  28.330  1.00  0.00     0.134 A 
ATOM     56  C   UNL A   1      44.571  30.064  28.066  1.00  0.00     0.134 A 
ATOM     57  F   UNL A   1      47.870  28.812  28.899  1.00  0.00    -0.206 F 
ATOM     58  C   UNL A   1      47.201  30.271  27.211  1.00  0.00     0.040 A 
ATOM     59  C   UNL A   1      44.879  30.809  26.925  1.00  0.00     0.040 A 
ATOM     60  F   UNL A   1      43.279  29.963  28.417  1.00  0.00    -0.206 F 
ATOM     61  C   UNL A   1      46.201  30.923  26.499  1.00  0.00     0.006 A 
ENDBRANCH  37  54
ENDBRANCH  11  12
ENDBRANCH   4   6
ENDBRANCH   3   4
ENDBRANCH   2   3
ENDBRANCH   1   2
BRANCH   1  62
ATOM     62  O   UNL A   1      31.929  29.080  26.699  1.00  0.00    -0.457 OA
BRANCH  62  63
ATOM     63  C   UNL A   1      31.461  28.394  25.615  1.00  0.00     0.361 C 
ATOM     64  O   UNL A   1      31.003  28.898  24.598  1.00  0.00    -0.244 OA
BRANCH  63  65
ATOM     65  C   UNL A   1      31.444  26.974  25.873  1.00  0.00     0.198 A 
ATOM     66  N   UNL A   1      30.923  26.376  26.992  1.00  0.00    -0.122 NA
ATOM     67  C   UNL A   1      31.885  26.005  24.993  1.00  0.00     0.109 A 
ATOM     68  N   UNL A   1      31.026  25.059  26.841  1.00  0.00    -0.061 NA
ATOM     69  N   UNL A   1      31.768  24.841  25.732  1.00  0.00    -0.212 N 
BRANCH  67  70
ATOM     70  C   UNL A   1      32.351  26.105  23.613  1.00  0.00     0.006 A 
ATOM     71  C   UNL A   1      31.642  25.506  22.573  1.00  0.00     0.030 A 
ATOM     72  C   UNL A   1      33.536  26.788  23.319  1.00  0.00     0.030 A 
ATOM     73  C   UNL A   1      32.140  25.624  21.286  1.00  0.00     0.111 A 
ATOM     74  C   UNL A   1      33.950  26.851  22.001  1.00  0.00     0.111 A 
ATOM     75  N   UNL A   1      33.278  26.282  20.980  1.00  0.00    -0.265 NA
ENDBRANCH  67  70
BRANCH  69  76
ATOM     76  C   UNL A   1      32.420  23.618  25.486  1.00  0.00     0.071 A 
ATOM     77  C   UNL A   1      31.719  22.518  24.999  1.00  0.00     0.029 A 
ATOM     78  C   UNL A   1      33.806  23.559  25.704  1.00  0.00     0.075 A 
ATOM     79  C   UNL A   1      32.443  21.384  24.633  1.00  0.00     0.006 A 
ATOM     80  C   UNL A   1      34.520  22.413  25.383  1.00  0.00     0.131 A 
ATOM     81  C   UNL A   1      33.833  21.337  24.816  1.00  0.00     0.047 A 
BRANCH  80  82
ATOM     82  O   UNL A   1      35.863  22.239  25.561  1.00  0.00    -0.406 OA
BRANCH  82  83
ATOM     83  C   UNL A   1      36.735  22.999  24.734  1.00  0.00     0.573 C 
ATOM     84  F   UNL A   1      36.108  23.406  23.607  1.00  0.00    -0.132 F 
ATOM     85  F   UNL A   1      37.212  24.079  25.390  1.00  0.00    -0.132 F 
ATOM     86  F   UNL A   1      37.784  22.229  24.374  1.00  0.00    -0.132 F 
ENDBRANCH  82  83
ENDBRANCH  80  82
ENDBRANCH  69  76
ENDBRANCH  63  65
ENDBRANCH  62  63
ENDBRANCH   1  62
TORSDOF 15
ENDMDL
MODEL 3
REMARK VINA RESULT:     -11.4      2.851      7.980
REMARK SMILES O=C(OCCOC(=O)c1nnn(-c2cccc(OC(F)(F)F)c2)c1-c1ccncc1)c1ccc(-c2c3nc(c(-c4c(F)cccc4F)c4ccc([nH]4)c(-c4c(F)cccc4F)c4nc(c(-c5c(F)cccc5F)c5ccc2[nH]5)C=C4)C=C3)cc1
REMARK SMILES IDX 5 1 4 2 3 3 2 4 1 5 31 6 32 7 84 8 33 9 83 10 34 11 35 12
REMARK SMILES IDX 36 13 77 14 37 15 82 16 76 17 78 18 38 19 81 20 75 21 74 22
REMARK SMILES IDX 39 24 65 25 48 26 64 27 49 28 52 29 63 30 79 31 50 32 51 33
REMARK SMILES IDX 62 35 80 36 53 37 40 38 41 39 46 40 42 41 43 42 45 43 47 44
REMARK SMILES IDX 44 45 66 46 67 47 72 48 68 49 69 50 71 51 73 52 70 53 54 54
REMARK SMILES IDX 55 55 60 56 56 57 57 58 59 59 61 60 58 61 6 62 7 63 8 64
REMARK SMILES IDX 9 65 10 66 24 67 11 68 12 69 25 70 26 71 30 72 27 73 29 74
REMARK SMILES IDX 28 75 13 76 14 77 23 78 15 79 17 80 16 81 18 82 19 83 20 84
REMARK SMILES IDX 21 85 22 86
REMARK H PARENT 78 23 52 34
REMARK Flexibility Score: inf
ROOT
ATOM      1  C   UNL A   1      36.944  20.799  25.119  1.00  0.00     0.275 C 
ENDROOT
BRANCH   1   2
ATOM      2  C   UNL A   1      38.412  21.133  25.369  1.00  0.00     0.275 C 
BRANCH   2   3
ATOM      3  O   UNL A   1      38.708  22.318  26.140  1.00  0.00    -0.458 OA
BRANCH   3   4
ATOM      4  C   UNL A   1      39.858  22.403  26.844  1.00  0.00     0.338 C 
ATOM      5  O   UNL A   1      40.680  21.504  26.907  1.00  0.00    -0.246 OA
BRANCH   4   6
ATOM      6  C   UNL A   1      40.135  23.777  27.333  1.00  0.00     0.060 A 
ATOM      7  C   UNL A   1      41.310  24.111  28.015  1.00  0.00     0.016 A 
ATOM      8  C   UNL A   1      39.159  24.756  27.103  1.00  0.00     0.016 A 
ATOM      9  C   UNL A   1      41.462  25.378  28.555  1.00  0.00     0.010 A 
ATOM     10  C   UNL A   1      39.311  26.027  27.638  1.00  0.00     0.010 A 
ATOM     11  C   UNL A   1      40.439  26.316  28.407  1.00  0.00    -0.014 A 
BRANCH  11  12
ATOM     12  C   UNL A   1      40.624  27.625  29.023  1.00  0.00     0.031 A 
ATOM     13  C   UNL A   1      41.710  28.461  28.432  1.00  0.00     0.074 A 
ATOM     14  C   UNL A   1      39.797  28.094  29.978  1.00  0.00     0.049 A 
ATOM     15  N   UNL A   1      42.743  28.977  29.018  1.00  0.00    -0.248 NA
ATOM     16  C   UNL A   1      41.677  28.685  26.977  1.00  0.00     0.031 C 
ATOM     17  C   UNL A   1      38.537  27.513  30.452  1.00  0.00     0.029 A 
ATOM     18  N   UNL A   1      39.869  29.264  30.670  1.00  0.00    -0.354 N 
ATOM     19  C   UNL A   1      43.400  29.735  28.049  1.00  0.00     0.074 A 
ATOM     20  C   UNL A   1      42.768  29.430  26.792  1.00  0.00     0.031 C 
ATOM     21  C   UNL A   1      37.864  28.434  31.178  1.00  0.00     0.029 A 
ATOM     22  C   UNL A   1      38.702  29.610  31.338  1.00  0.00     0.049 A 
ATOM     23  H   UNL A   1      40.682  29.819  30.695  1.00  0.00     0.167 HD
ATOM     24  C   UNL A   1      44.302  30.702  28.374  1.00  0.00     0.037 A 
ATOM     25  C   UNL A   1      38.428  30.800  31.927  1.00  0.00     0.037 A 
ATOM     26  C   UNL A   1      44.830  30.514  29.698  1.00  0.00     0.049 A 
ATOM     27  C   UNL A   1      39.717  31.501  32.148  1.00  0.00     0.074 A 
ATOM     28  C   UNL A   1      45.561  29.516  30.314  1.00  0.00     0.029 A 
ATOM     29  N   UNL A   1      44.331  31.284  30.719  1.00  0.00    -0.354 N 
ATOM     30  N   UNL A   1      40.619  31.110  33.003  1.00  0.00    -0.248 NA
ATOM     31  C   UNL A   1      40.191  32.383  31.094  1.00  0.00     0.031 C 
ATOM     32  C   UNL A   1      45.033  29.438  31.636  1.00  0.00     0.029 A 
ATOM     33  C   UNL A   1      44.062  30.431  31.761  1.00  0.00     0.049 A 
ATOM     34  H   UNL A   1      44.194  32.258  30.706  1.00  0.00     0.167 HD
ATOM     35  C   UNL A   1      41.830  31.335  32.364  1.00  0.00     0.074 A 
ATOM     36  C   UNL A   1      41.507  32.195  31.227  1.00  0.00     0.031 C 
ATOM     37  C   UNL A   1      42.931  30.578  32.646  1.00  0.00     0.037 A 
BRANCH  24  38
ATOM     38  C   UNL A   1      44.469  31.991  27.611  1.00  0.00     0.057 A 
ATOM     39  C   UNL A   1      45.505  32.121  26.668  1.00  0.00     0.134 A 
ATOM     40  C   UNL A   1      43.833  33.197  27.970  1.00  0.00     0.134 A 
ATOM     41  F   UNL A   1      46.204  31.052  26.260  1.00  0.00    -0.206 F 
ATOM     42  C   UNL A   1      45.913  33.365  26.167  1.00  0.00     0.040 A 
ATOM     43  C   UNL A   1      44.201  34.438  27.441  1.00  0.00     0.040 A 
ATOM     44  F   UNL A   1      42.890  33.250  28.919  1.00  0.00    -0.206 F 
ATOM     45  C   UNL A   1      45.264  34.529  26.559  1.00  0.00     0.006 A 
ENDBRANCH  24  38
BRANCH  25  46
ATOM     46  C   UNL A   1      37.128  31.504  32.011  1.00  0.00     0.057 A 
ATOM     47  C   UNL A   1      36.615  31.947  33.238  1.00  0.00     0.134 A 
ATOM     48  C   UNL A   1      36.494  32.006  30.860  1.00  0.00     0.134 A 
ATOM     49  F   UNL A   1      37.182  31.562  34.390  1.00  0.00    -0.206 F 
ATOM     50  C   UNL A   1      35.547  32.852  33.316  1.00  0.00     0.040 A 
ATOM     51  C   UNL A   1      35.424  32.903  30.924  1.00  0.00     0.040 A 
ATOM     52  F   UNL A   1      36.952  31.713  29.634  1.00  0.00    -0.206 F 
ATOM     53  C   UNL A   1      34.954  33.342  32.156  1.00  0.00     0.006 A 
ENDBRANCH  25  46
BRANCH  37  54
ATOM     54  C   UNL A   1      42.857  29.638  33.819  1.00  0.00     0.057 A 
ATOM     55  C   UNL A   1      43.112  30.019  35.147  1.00  0.00     0.134 A 
ATOM     56  C   UNL A   1      42.362  28.345  33.622  1.00  0.00     0.134 A 
ATOM     57  F   UNL A   1      43.486  31.267  35.450  1.00  0.00    -0.206 F 
ATOM     58  C   UNL A   1      42.932  29.140  36.218  1.00  0.00     0.040 A 
ATOM     59  C   UNL A   1      42.142  27.467  34.688  1.00  0.00     0.040 A 
ATOM     60  F   UNL A   1      42.034  27.927  32.390  1.00  0.00    -0.206 F 
ATOM     61  C   UNL A   1      42.437  27.860  35.991  1.00  0.00     0.006 A 
ENDBRANCH  37  54
ENDBRANCH  11  12
ENDBRANCH   4   6
ENDBRANCH   3   4
ENDBRANCH   2   3
ENDBRANCH   1   2
BRANCH   1  62
ATOM     62  O   UNL A   1      36.314  21.870  24.401  1.00  0.00    -0.457 OA
BRANCH  62  63
ATOM     63  C   UNL A   1      34.955  21.814  24.288  1.00  0.00     0.361 C 
ATOM     64  O   UNL A   1      34.264  20.827  24.508  1.00  0.00    -0.244 OA
BRANCH  63  65
ATOM     65  C   UNL A   1      34.434  23.041  23.736  1.00  0.00     0.198 A 
ATOM     66  N   UNL A   1      34.840  23.619  22.561  1.00  0.00    -0.122 NA
ATOM     67  C   UNL A   1      33.393  23.771  24.276  1.00  0.00     0.109 A 
ATOM     68  N   UNL A   1      34.087  24.694  22.349  1.00  0.00    -0.061 NA
ATOM     69  N   UNL A   1      33.349  24.891  23.464  1.00  0.00    -0.212 N 
BRANCH  67  70
ATOM     70  C   UNL A   1      32.509  23.490  25.403  1.00  0.00     0.006 A 
ATOM     71  C   UNL A   1      33.013  23.383  26.699  1.00  0.00     0.030 A 
ATOM     72  C   UNL A   1      31.140  23.299  25.192  1.00  0.00     0.030 A 
ATOM     73  C   UNL A   1      32.128  23.101  27.726  1.00  0.00     0.111 A 
ATOM     74  C   UNL A   1      30.337  23.024  26.284  1.00  0.00     0.111 A 
ATOM     75  N   UNL A   1      30.803  22.919  27.545  1.00  0.00    -0.265 NA
ENDBRANCH  67  70
BRANCH  69  76
ATOM     76  C   UNL A   1      32.754  26.130  23.769  1.00  0.00     0.071 A 
ATOM     77  C   UNL A   1      31.448  26.412  23.380  1.00  0.00     0.029 A 
ATOM     78  C   UNL A   1      33.505  27.051  24.518  1.00  0.00     0.075 A 
ATOM     79  C   UNL A   1      30.862  27.592  23.839  1.00  0.00     0.006 A 
ATOM     80  C   UNL A   1      32.936  28.247  24.936  1.00  0.00     0.131 A 
ATOM     81  C   UNL A   1      31.600  28.495  24.618  1.00  0.00     0.047 A 
BRANCH  80  82
ATOM     82  O   UNL A   1      33.571  29.217  25.656  1.00  0.00    -0.406 OA
BRANCH  82  83
ATOM     83  C   UNL A   1      33.574  29.083  27.073  1.00  0.00     0.573 C 
ATOM     84  F   UNL A   1      33.057  30.181  27.668  1.00  0.00    -0.132 F 
ATOM     85  F   UNL A   1      32.872  27.996  27.462  1.00  0.00    -0.132 F 
ATOM     86  F   UNL A   1      34.847  28.936  27.499  1.00  0.00    -0.132 F 
ENDBRANCH  82  83
ENDBRANCH  80  82
ENDBRANCH  69  76
ENDBRANCH  63  65
ENDBRANCH  62  63
ENDBRANCH   1  62
TORSDOF 15
ENDMDL
