MODEL 1
REMARK VINA RESULT:     -12.0      0.000      0.000
REMARK SMILES CCCc1cc(OC(F)(F)F)cc2c1O[C@H](C(F)(F)F)C(C(=O)OCCOC(=O)c1ccc(-c3c4nc(c(-c5c(F)cccc5F)c5ccc([nH]5)c(-c5c(F)cccc5F)c5nc(c(-c6c(F)cccc6F)c6ccc3[nH]6)C=C5)C=C4)cc1)=C2
REMARK SMILES IDX 25 1 24 2 22 3 23 4 21 5 4 6 5 7 14 8 6 9 13 10 15 11 12 12
REMARK SMILES IDX 84 13 16 14 3 15 2 16 1 17 7 18 8 19 9 20 10 21 11 22 17 23
REMARK SMILES IDX 18 24 19 25 20 26 26 27 27 28 28 29 29 30 30 31 31 32 83 33
REMARK SMILES IDX 32 34 82 35 33 36 34 37 35 38 76 39 36 40 81 41 75 42 77 43
REMARK SMILES IDX 37 44 80 45 74 46 73 47 38 49 64 50 47 51 63 52 48 53 51 54
REMARK SMILES IDX 62 55 78 56 49 57 50 58 61 60 79 61 52 62 39 63 40 64 45 65
REMARK SMILES IDX 41 66 42 67 44 68 46 69 43 70 65 71 66 72 71 73 67 74 68 75
REMARK SMILES IDX 70 76 72 77 69 78 53 79 54 80 59 81 55 82 56 83 58 84 60 85
REMARK SMILES IDX 57 86
REMARK H PARENT 77 48 51 59
REMARK Flexibility Score: inf
ROOT
ATOM      1  C   UNL A   1      34.677  20.759  25.351  1.00  0.00     0.275 C 
ENDROOT
BRANCH   1   2
ATOM      2  O   UNL A   1      33.991  21.538  24.347  1.00  0.00    -0.459 OA
BRANCH   2   3
ATOM      3  C   UNL A   1      32.721  21.894  24.656  1.00  0.00     0.338 C 
ATOM      4  O   UNL A   1      31.814  21.134  24.944  1.00  0.00    -0.246 OA
BRANCH   3   5
ATOM      5  C   UNL A   1      32.530  23.354  24.635  1.00  0.00     0.087 C 
ATOM      6  C   UNL A   1      31.333  27.192  25.695  1.00  0.00    -0.002 A 
ATOM      7  C   UNL A   1      30.791  28.010  24.696  1.00  0.00     0.054 A 
ATOM      8  C   UNL A   1      31.621  25.867  25.348  1.00  0.00     0.131 A 
ATOM      9  C   UNL A   1      30.466  27.496  23.432  1.00  0.00     0.130 A 
ATOM     10  C   UNL A   1      31.334  25.336  24.075  1.00  0.00     0.021 A 
ATOM     11  O   UNL A   1      32.217  25.084  26.309  1.00  0.00    -0.475 OA
ATOM     12  C   UNL A   1      30.742  26.159  23.125  1.00  0.00     0.058 A 
ATOM     13  C   UNL A   1      31.638  23.926  23.812  1.00  0.00     0.027 C 
ATOM     14  C   UNL A   1      33.178  24.164  25.733  1.00  0.00     0.316 C 
BRANCH   6  15
ATOM     15  C   UNL A   1      31.681  27.677  27.089  1.00  0.00     0.039 C 
BRANCH  15  16
ATOM     16  C   UNL A   1      32.308  29.066  27.251  1.00  0.00     0.001 C 
ATOM     17  C   UNL A   1      33.828  29.055  27.174  1.00  0.00     0.004 C 
ENDBRANCH  15  16
ENDBRANCH   6  15
BRANCH   9  18
ATOM     18  O   UNL A   1      29.890  28.201  22.413  1.00  0.00    -0.406 OA
BRANCH  18  19
ATOM     19  C   UNL A   1      28.733  28.960  22.727  1.00  0.00     0.573 C 
ATOM     20  F   UNL A   1      27.805  28.208  23.356  1.00  0.00    -0.132 F 
ATOM     21  F   UNL A   1      29.049  30.023  23.496  1.00  0.00    -0.132 F 
ATOM     22  F   UNL A   1      28.191  29.418  21.577  1.00  0.00    -0.132 F 
ENDBRANCH  18  19
ENDBRANCH   9  18
BRANCH  14  23
ATOM     23  C   UNL A   1      34.459  24.914  25.302  1.00  0.00     0.430 C 
ATOM     24  F   UNL A   1      34.392  26.225  25.647  1.00  0.00    -0.167 F 
ATOM     25  F   UNL A   1      35.558  24.418  25.905  1.00  0.00    -0.167 F 
ATOM     26  F   UNL A   1      34.684  24.866  23.969  1.00  0.00    -0.167 F 
ENDBRANCH  14  23
ENDBRANCH   3   5
ENDBRANCH   2   3
ENDBRANCH   1   2
BRANCH   1  27
ATOM     27  C   UNL A   1      36.143  20.524  24.984  1.00  0.00     0.275 C 
BRANCH  27  28
ATOM     28  O   UNL A   1      36.954  21.654  25.359  1.00  0.00    -0.458 OA
BRANCH  28  29
ATOM     29  C   UNL A   1      38.230  21.350  25.683  1.00  0.00     0.338 C 
ATOM     30  O   UNL A   1      38.847  20.341  25.374  1.00  0.00    -0.246 OA
BRANCH  29  31
ATOM     31  C   UNL A   1      38.859  22.460  26.415  1.00  0.00     0.060 A 
ATOM     32  C   UNL A   1      38.421  23.755  26.158  1.00  0.00     0.016 A 
ATOM     33  C   UNL A   1      40.018  22.250  27.155  1.00  0.00     0.016 A 
ATOM     34  C   UNL A   1      39.217  24.843  26.500  1.00  0.00     0.010 A 
ATOM     35  C   UNL A   1      40.736  23.354  27.632  1.00  0.00     0.010 A 
ATOM     36  C   UNL A   1      40.369  24.665  27.274  1.00  0.00    -0.014 A 
BRANCH  36  37
ATOM     37  C   UNL A   1      41.184  25.841  27.699  1.00  0.00     0.031 A 
ATOM     38  C   UNL A   1      40.574  26.930  28.543  1.00  0.00     0.074 A 
ATOM     39  C   UNL A   1      42.475  25.946  27.322  1.00  0.00     0.049 A 
ATOM     40  N   UNL A   1      41.025  28.134  28.795  1.00  0.00    -0.248 NA
ATOM     41  C   UNL A   1      39.277  26.634  29.174  1.00  0.00     0.031 C 
ATOM     42  C   UNL A   1      43.225  24.946  26.556  1.00  0.00     0.029 A 
ATOM     43  N   UNL A   1      43.392  26.948  27.529  1.00  0.00    -0.354 N 
ATOM     44  C   UNL A   1      40.040  28.760  29.551  1.00  0.00     0.074 A 
ATOM     45  C   UNL A   1      38.968  27.802  29.723  1.00  0.00     0.031 C 
ATOM     46  C   UNL A   1      44.485  25.365  26.391  1.00  0.00     0.029 A 
ATOM     47  C   UNL A   1      44.605  26.712  26.928  1.00  0.00     0.049 A 
ATOM     48  H   UNL A   1      43.198  27.758  28.056  1.00  0.00     0.167 HD
ATOM     49  C   UNL A   1      40.033  30.021  30.050  1.00  0.00     0.037 A 
ATOM     50  C   UNL A   1      45.678  27.508  26.759  1.00  0.00     0.037 A 
ATOM     51  C   UNL A   1      41.132  30.945  29.927  1.00  0.00     0.049 A 
ATOM     52  C   UNL A   1      45.629  28.916  27.274  1.00  0.00     0.074 A 
ATOM     53  C   UNL A   1      41.231  32.238  30.411  1.00  0.00     0.029 A 
ATOM     54  N   UNL A   1      42.331  30.667  29.286  1.00  0.00    -0.354 N 
ATOM     55  N   UNL A   1      44.666  29.523  27.923  1.00  0.00    -0.248 NA
ATOM     56  C   UNL A   1      46.802  29.758  27.011  1.00  0.00     0.031 C 
ATOM     57  C   UNL A   1      42.472  32.756  30.028  1.00  0.00     0.029 A 
ATOM     58  C   UNL A   1      43.168  31.769  29.350  1.00  0.00     0.049 A 
ATOM     59  H   UNL A   1      42.553  29.812  28.850  1.00  0.00     0.167 HD
ATOM     60  C   UNL A   1      45.125  30.809  28.167  1.00  0.00     0.074 A 
ATOM     61  C   UNL A   1      46.457  30.891  27.604  1.00  0.00     0.031 C 
ATOM     62  C   UNL A   1      44.496  31.830  28.798  1.00  0.00     0.037 A 
BRANCH  49  63
ATOM     63  C   UNL A   1      38.786  30.496  30.740  1.00  0.00     0.057 A 
ATOM     64  C   UNL A   1      37.740  31.124  30.054  1.00  0.00     0.134 A 
ATOM     65  C   UNL A   1      38.611  30.271  32.114  1.00  0.00     0.134 A 
ATOM     66  F   UNL A   1      37.843  31.379  28.742  1.00  0.00    -0.206 F 
ATOM     67  C   UNL A   1      36.576  31.534  30.712  1.00  0.00     0.040 A 
ATOM     68  C   UNL A   1      37.442  30.650  32.776  1.00  0.00     0.040 A 
ATOM     69  F   UNL A   1      39.567  29.664  32.831  1.00  0.00    -0.206 F 
ATOM     70  C   UNL A   1      36.422  31.289  32.076  1.00  0.00     0.006 A 
ENDBRANCH  49  63
BRANCH  50  71
ATOM     71  C   UNL A   1      46.860  27.005  26.015  1.00  0.00     0.057 A 
ATOM     72  C   UNL A   1      46.989  27.206  24.638  1.00  0.00     0.134 A 
ATOM     73  C   UNL A   1      47.899  26.326  26.668  1.00  0.00     0.134 A 
ATOM     74  F   UNL A   1      46.019  27.829  23.954  1.00  0.00    -0.206 F 
ATOM     75  C   UNL A   1      48.104  26.749  23.934  1.00  0.00     0.040 A 
ATOM     76  C   UNL A   1      49.033  25.891  25.982  1.00  0.00     0.040 A 
ATOM     77  F   UNL A   1      47.840  26.105  27.990  1.00  0.00    -0.206 F 
ATOM     78  C   UNL A   1      49.135  26.099  24.609  1.00  0.00     0.006 A 
ENDBRANCH  50  71
BRANCH  62  79
ATOM     79  C   UNL A   1      45.265  33.107  28.958  1.00  0.00     0.057 A 
ATOM     80  C   UNL A   1      46.137  33.318  30.032  1.00  0.00     0.134 A 
ATOM     81  C   UNL A   1      45.154  34.125  28.002  1.00  0.00     0.134 A 
ATOM     82  F   UNL A   1      46.274  32.388  30.990  1.00  0.00    -0.206 F 
ATOM     83  C   UNL A   1      46.860  34.505  30.160  1.00  0.00     0.040 A 
ATOM     84  C   UNL A   1      45.890  35.306  28.105  1.00  0.00     0.040 A 
ATOM     85  F   UNL A   1      44.338  33.983  26.947  1.00  0.00    -0.206 F 
ATOM     86  C   UNL A   1      46.743  35.500  29.191  1.00  0.00     0.006 A 
ENDBRANCH  62  79
ENDBRANCH  36  37
ENDBRANCH  29  31
ENDBRANCH  28  29
ENDBRANCH  27  28
ENDBRANCH   1  27
TORSDOF 16
ENDMDL
MODEL 2
REMARK VINA RESULT:     -11.9      1.448      3.157
REMARK SMILES CCCc1cc(OC(F)(F)F)cc2c1O[C@H](C(F)(F)F)C(C(=O)OCCOC(=O)c1ccc(-c3c4nc(c(-c5c(F)cccc5F)c5ccc([nH]5)c(-c5c(F)cccc5F)c5nc(c(-c6c(F)cccc6F)c6ccc3[nH]6)C=C5)C=C4)cc1)=C2
REMARK SMILES IDX 25 1 24 2 22 3 23 4 21 5 4 6 5 7 14 8 6 9 13 10 15 11 12 12
REMARK SMILES IDX 84 13 16 14 3 15 2 16 1 17 7 18 8 19 9 20 10 21 11 22 17 23
REMARK SMILES IDX 18 24 19 25 20 26 26 27 27 28 28 29 29 30 30 31 31 32 83 33
REMARK SMILES IDX 32 34 82 35 33 36 34 37 35 38 76 39 36 40 81 41 75 42 77 43
REMARK SMILES IDX 37 44 80 45 74 46 73 47 38 49 64 50 47 51 63 52 48 53 51 54
REMARK SMILES IDX 62 55 78 56 49 57 50 58 61 60 79 61 52 62 39 63 40 64 45 65
REMARK SMILES IDX 41 66 42 67 44 68 46 69 43 70 65 71 66 72 71 73 67 74 68 75
REMARK SMILES IDX 70 76 72 77 69 78 53 79 54 80 59 81 55 82 56 83 58 84 60 85
REMARK SMILES IDX 57 86
REMARK H PARENT 77 48 51 59
REMARK Flexibility Score: inf
ROOT
ATOM      1  C   UNL A   1      34.984  21.081  24.617  1.00  0.00     0.275 C 
ENDROOT
BRANCH   1   2
ATOM      2  O   UNL A   1      34.042  22.175  24.577  1.00  0.00    -0.459 OA
BRANCH   2   3
ATOM      3  C   UNL A   1      34.355  23.179  23.723  1.00  0.00     0.338 C 
ATOM      4  O   UNL A   1      35.051  23.083  22.729  1.00  0.00    -0.246 OA
BRANCH   3   5
ATOM      5  C   UNL A   1      33.729  24.454  24.110  1.00  0.00     0.087 C 
ATOM      6  C   UNL A   1      32.509  28.429  24.050  1.00  0.00    -0.002 A 
ATOM      7  C   UNL A   1      32.656  29.178  25.224  1.00  0.00     0.054 A 
ATOM      8  C   UNL A   1      33.032  27.130  24.053  1.00  0.00     0.131 A 
ATOM      9  C   UNL A   1      33.376  28.680  26.320  1.00  0.00     0.130 A 
ATOM     10  C   UNL A   1      33.731  26.596  25.153  1.00  0.00     0.021 A 
ATOM     11  O   UNL A   1      32.827  26.371  22.925  1.00  0.00    -0.475 OA
ATOM     12  C   UNL A   1      33.910  27.387  26.281  1.00  0.00     0.058 A 
ATOM     13  C   UNL A   1      34.275  25.238  25.053  1.00  0.00     0.027 C 
ATOM     14  C   UNL A   1      32.604  24.976  23.248  1.00  0.00     0.316 C 
BRANCH   6  15
ATOM     15  C   UNL A   1      31.767  28.918  22.822  1.00  0.00     0.039 C 
BRANCH  15  16
ATOM     16  C   UNL A   1      30.246  29.082  22.897  1.00  0.00     0.001 C 
ATOM     17  C   UNL A   1      29.694  30.068  21.876  1.00  0.00     0.004 C 
ENDBRANCH  15  16
ENDBRANCH   6  15
BRANCH   9  18
ATOM     18  O   UNL A   1      33.615  29.354  27.485  1.00  0.00    -0.406 OA
BRANCH  18  19
ATOM     19  C   UNL A   1      34.914  29.896  27.663  1.00  0.00     0.573 C 
ATOM     20  F   UNL A   1      35.693  29.675  26.582  1.00  0.00    -0.132 F 
ATOM     21  F   UNL A   1      34.852  31.221  27.911  1.00  0.00    -0.132 F 
ATOM     22  F   UNL A   1      35.492  29.294  28.725  1.00  0.00    -0.132 F 
ENDBRANCH  18  19
ENDBRANCH   9  18
BRANCH  14  23
ATOM     23  C   UNL A   1      31.194  24.776  23.850  1.00  0.00     0.430 C 
ATOM     24  F   UNL A   1      31.265  24.563  25.189  1.00  0.00    -0.167 F 
ATOM     25  F   UNL A   1      30.416  25.863  23.679  1.00  0.00    -0.167 F 
ATOM     26  F   UNL A   1      30.529  23.726  23.317  1.00  0.00    -0.167 F 
ENDBRANCH  14  23
ENDBRANCH   3   5
ENDBRANCH   2   3
ENDBRANCH   1   2
BRANCH   1  27
ATOM     27  C   UNL A   1      36.086  21.318  25.651  1.00  0.00     0.275 C 
BRANCH  27  28
ATOM     28  O   UNL A   1      37.315  21.712  25.011  1.00  0.00    -0.458 OA
BRANCH  28  29
ATOM     29  C   UNL A   1      38.437  21.321  25.654  1.00  0.00     0.338 C 
ATOM     30  O   UNL A   1      38.971  20.223  25.599  1.00  0.00    -0.246 OA
BRANCH  29  31
ATOM     31  C   UNL A   1      39.024  22.442  26.402  1.00  0.00     0.060 A 
ATOM     32  C   UNL A   1      38.570  23.729  26.133  1.00  0.00     0.016 A 
ATOM     33  C   UNL A   1      40.167  22.255  27.174  1.00  0.00     0.016 A 
ATOM     34  C   UNL A   1      39.336  24.831  26.495  1.00  0.00     0.010 A 
ATOM     35  C   UNL A   1      40.851  23.371  27.669  1.00  0.00     0.010 A 
ATOM     36  C   UNL A   1      40.469  24.676  27.300  1.00  0.00    -0.014 A 
BRANCH  36  37
ATOM     37  C   UNL A   1      41.251  25.866  27.746  1.00  0.00     0.031 A 
ATOM     38  C   UNL A   1      40.606  26.929  28.599  1.00  0.00     0.074 A 
ATOM     39  C   UNL A   1      42.542  26.009  27.381  1.00  0.00     0.049 A 
ATOM     40  N   UNL A   1      41.024  28.141  28.869  1.00  0.00    -0.248 NA
ATOM     41  C   UNL A   1      39.312  26.592  29.215  1.00  0.00     0.031 C 
ATOM     42  C   UNL A   1      43.323  25.038  26.609  1.00  0.00     0.029 A 
ATOM     43  N   UNL A   1      43.431  27.032  27.608  1.00  0.00    -0.354 N 
ATOM     44  C   UNL A   1      40.017  28.732  29.625  1.00  0.00     0.074 A 
ATOM     45  C   UNL A   1      38.969  27.744  29.776  1.00  0.00     0.031 C 
ATOM     46  C   UNL A   1      44.573  25.491  26.460  1.00  0.00     0.029 A 
ATOM     47  C   UNL A   1      44.654  26.835  27.015  1.00  0.00     0.049 A 
ATOM     48  H   UNL A   1      43.212  27.829  28.144  1.00  0.00     0.167 HD
ATOM     49  C   UNL A   1      39.974  29.986  30.139  1.00  0.00     0.037 A 
ATOM     50  C   UNL A   1      45.707  27.660  26.864  1.00  0.00     0.037 A 
ATOM     51  C   UNL A   1      41.050  30.939  30.036  1.00  0.00     0.049 A 
ATOM     52  C   UNL A   1      45.618  29.059  27.396  1.00  0.00     0.074 A 
ATOM     53  C   UNL A   1      41.111  32.228  30.538  1.00  0.00     0.029 A 
ATOM     54  N   UNL A   1      42.260  30.700  29.402  1.00  0.00    -0.354 N 
ATOM     55  N   UNL A   1      44.635  29.633  28.045  1.00  0.00    -0.248 NA
ATOM     56  C   UNL A   1      46.772  29.934  27.154  1.00  0.00     0.031 C 
ATOM     57  C   UNL A   1      42.341  32.783  30.172  1.00  0.00     0.029 A 
ATOM     58  C   UNL A   1      43.068  31.822  29.487  1.00  0.00     0.049 A 
ATOM     59  H   UNL A   1      42.508  29.857  28.958  1.00  0.00     0.167 HD
ATOM     60  C   UNL A   1      45.059  30.928  28.308  1.00  0.00     0.074 A 
ATOM     61  C   UNL A   1      46.393  31.050  27.758  1.00  0.00     0.031 C 
ATOM     62  C   UNL A   1      44.399  31.924  28.946  1.00  0.00     0.037 A 
BRANCH  49  63
ATOM     63  C   UNL A   1      38.709  30.420  30.825  1.00  0.00     0.057 A 
ATOM     64  C   UNL A   1      38.451  30.141  32.172  1.00  0.00     0.134 A 
ATOM     65  C   UNL A   1      37.755  31.177  30.130  1.00  0.00     0.134 A 
ATOM     66  F   UNL A   1      39.317  29.414  32.894  1.00  0.00    -0.206 F 
ATOM     67  C   UNL A   1      37.280  30.578  32.797  1.00  0.00     0.040 A 
ATOM     68  C   UNL A   1      36.594  31.644  30.752  1.00  0.00     0.040 A 
ATOM     69  F   UNL A   1      37.942  31.490  28.840  1.00  0.00    -0.206 F 
ATOM     70  C   UNL A   1      36.351  31.339  32.088  1.00  0.00     0.006 A 
ENDBRANCH  49  63
BRANCH  50  71
ATOM     71  C   UNL A   1      46.908  27.196  26.124  1.00  0.00     0.057 A 
ATOM     72  C   UNL A   1      47.947  26.527  26.777  1.00  0.00     0.134 A 
ATOM     73  C   UNL A   1      47.038  27.396  24.742  1.00  0.00     0.134 A 
ATOM     74  F   UNL A   1      47.893  26.325  28.102  1.00  0.00    -0.206 F 
ATOM     75  C   UNL A   1      49.073  26.075  26.087  1.00  0.00     0.040 A 
ATOM     76  C   UNL A   1      48.142  26.922  24.035  1.00  0.00     0.040 A 
ATOM     77  F   UNL A   1      46.073  28.027  24.055  1.00  0.00    -0.206 F 
ATOM     78  C   UNL A   1      49.167  26.264  24.709  1.00  0.00     0.006 A 
ENDBRANCH  50  71
BRANCH  62  79
ATOM     79  C   UNL A   1      45.134  33.219  29.129  1.00  0.00     0.057 A 
ATOM     80  C   UNL A   1      45.024  34.269  28.212  1.00  0.00     0.134 A 
ATOM     81  C   UNL A   1      45.934  33.424  30.261  1.00  0.00     0.134 A 
ATOM     82  F   UNL A   1      44.286  34.127  27.100  1.00  0.00    -0.206 F 
ATOM     83  C   UNL A   1      45.700  35.475  28.403  1.00  0.00     0.040 A 
ATOM     84  C   UNL A   1      46.594  34.634  30.476  1.00  0.00     0.040 A 
ATOM     85  F   UNL A   1      46.076  32.458  31.180  1.00  0.00    -0.206 F 
ATOM     86  C   UNL A   1      46.481  35.663  29.542  1.00  0.00     0.006 A 
ENDBRANCH  62  79
ENDBRANCH  36  37
ENDBRANCH  29  31
ENDBRANCH  28  29
ENDBRANCH  27  28
ENDBRANCH   1  27
TORSDOF 16
ENDMDL
MODEL 3
REMARK VINA RESULT:     -11.9      3.758      8.801
REMARK SMILES CCCc1cc(OC(F)(F)F)cc2c1O[C@H](C(F)(F)F)C(C(=O)OCCOC(=O)c1ccc(-c3c4nc(c(-c5c(F)cccc5F)c5ccc([nH]5)c(-c5c(F)cccc5F)c5nc(c(-c6c(F)cccc6F)c6ccc3[nH]6)C=C5)C=C4)cc1)=C2
REMARK SMILES IDX 25 1 24 2 22 3 23 4 21 5 4 6 5 7 14 8 6 9 13 10 15 11 12 12
REMARK SMILES IDX 84 13 16 14 3 15 2 16 1 17 7 18 8 19 9 20 10 21 11 22 17 23
REMARK SMILES IDX 18 24 19 25 20 26 26 27 27 28 28 29 29 30 30 31 31 32 83 33
REMARK SMILES IDX 32 34 82 35 33 36 34 37 35 38 76 39 36 40 81 41 75 42 77 43
REMARK SMILES IDX 37 44 80 45 74 46 73 47 38 49 64 50 47 51 63 52 48 53 51 54
REMARK SMILES IDX 62 55 78 56 49 57 50 58 61 60 79 61 52 62 39 63 40 64 45 65
REMARK SMILES IDX 41 66 42 67 44 68 46 69 43 70 65 71 66 72 71 73 67 74 68 75
REMARK SMILES IDX 70 76 72 77 69 78 53 79 54 80 59 81 55 82 56 83 58 84 60 85
REMARK SMILES IDX 57 86
REMARK H PARENT 77 48 51 59
REMARK Flexibility Score: inf
ROOT
ATOM      1  C   UNL A   1      31.300  29.151  24.220  1.00  0.00     0.275 C 
ENDROOT
BRANCH   1   2
ATOM      2  O   UNL A   1      30.788  27.806  24.351  1.00  0.00    -0.459 OA
BRANCH   2   3
ATOM      3  C   UNL A   1      31.083  26.971  23.326  1.00  0.00     0.338 C 
ATOM      4  O   UNL A   1      30.795  27.144  22.155  1.00  0.00    -0.246 OA
BRANCH   3   5
ATOM      5  C   UNL A   1      31.839  25.789  23.769  1.00  0.00     0.087 C 
ATOM      6  C   UNL A   1      34.531  22.620  23.829  1.00  0.00    -0.002 A 
ATOM      7  C   UNL A   1      34.068  21.373  24.265  1.00  0.00     0.054 A 
ATOM      8  C   UNL A   1      33.585  23.644  23.704  1.00  0.00     0.131 A 
ATOM      9  C   UNL A   1      32.701  21.139  24.479  1.00  0.00     0.130 A 
ATOM     10  C   UNL A   1      32.212  23.442  23.943  1.00  0.00     0.021 A 
ATOM     11  O   UNL A   1      34.052  24.886  23.342  1.00  0.00    -0.475 OA
ATOM     12  C   UNL A   1      31.777  22.178  24.319  1.00  0.00     0.058 A 
ATOM     13  C   UNL A   1      31.288  24.565  23.753  1.00  0.00     0.027 C 
ATOM     14  C   UNL A   1      33.323  25.950  24.004  1.00  0.00     0.316 C 
BRANCH   6  15
ATOM     15  C   UNL A   1      35.990  22.932  23.554  1.00  0.00     0.039 C 
BRANCH  15  16
ATOM     16  C   UNL A   1      36.948  23.075  24.740  1.00  0.00     0.001 C 
ATOM     17  C   UNL A   1      37.771  21.822  25.006  1.00  0.00     0.004 C 
ENDBRANCH  15  16
ENDBRANCH   6  15
BRANCH   9  18
ATOM     18  O   UNL A   1      32.150  19.947  24.856  1.00  0.00    -0.406 OA
BRANCH  18  19
ATOM     19  C   UNL A   1      32.569  18.790  24.150  1.00  0.00     0.573 C 
ATOM     20  F   UNL A   1      33.903  18.604  24.254  1.00  0.00    -0.132 F 
ATOM     21  F   UNL A   1      31.925  17.692  24.598  1.00  0.00    -0.132 F 
ATOM     22  F   UNL A   1      32.271  18.950  22.842  1.00  0.00    -0.132 F 
ENDBRANCH  18  19
ENDBRANCH   9  18
BRANCH  14  23
ATOM     23  C   UNL A   1      33.727  26.041  25.493  1.00  0.00     0.430 C 
ATOM     24  F   UNL A   1      34.868  25.343  25.729  1.00  0.00    -0.167 F 
ATOM     25  F   UNL A   1      33.974  27.311  25.870  1.00  0.00    -0.167 F 
ATOM     26  F   UNL A   1      32.785  25.556  26.334  1.00  0.00    -0.167 F 
ENDBRANCH  14  23
ENDBRANCH   3   5
ENDBRANCH   2   3
ENDBRANCH   1   2
BRANCH   1  27
ATOM     27  C   UNL A   1      31.555  29.796  25.583  1.00  0.00     0.275 C 
BRANCH  27  28
ATOM     28  O   UNL A   1      32.945  30.142  25.736  1.00  0.00    -0.458 OA
BRANCH  28  29
ATOM     29  C   UNL A   1      33.211  30.966  26.773  1.00  0.00     0.338 C 
ATOM     30  O   UNL A   1      32.435  31.736  27.318  1.00  0.00    -0.246 OA
BRANCH  29  31
ATOM     31  C   UNL A   1      34.586  30.765  27.256  1.00  0.00     0.060 A 
ATOM     32  C   UNL A   1      35.002  29.472  27.555  1.00  0.00     0.016 A 
ATOM     33  C   UNL A   1      35.366  31.853  27.636  1.00  0.00     0.016 A 
ATOM     34  C   UNL A   1      36.110  29.264  28.369  1.00  0.00     0.010 A 
ATOM     35  C   UNL A   1      36.566  31.630  28.323  1.00  0.00     0.010 A 
ATOM     36  C   UNL A   1      36.932  30.335  28.737  1.00  0.00    -0.014 A 
BRANCH  36  37
ATOM     37  C   UNL A   1      38.160  30.101  29.553  1.00  0.00     0.031 A 
ATOM     38  C   UNL A   1      39.280  29.244  29.021  1.00  0.00     0.074 A 
ATOM     39  C   UNL A   1      38.275  30.646  30.781  1.00  0.00     0.049 A 
ATOM     40  N   UNL A   1      40.294  28.715  29.660  1.00  0.00    -0.248 NA
ATOM     41  C   UNL A   1      39.247  28.924  27.584  1.00  0.00     0.031 C 
ATOM     42  C   UNL A   1      37.304  31.547  31.410  1.00  0.00     0.029 A 
ATOM     43  N   UNL A   1      39.262  30.522  31.730  1.00  0.00    -0.354 N 
ATOM     44  C   UNL A   1      40.977  27.948  28.723  1.00  0.00     0.074 A 
ATOM     45  C   UNL A   1      40.265  28.082  27.469  1.00  0.00     0.031 C 
ATOM     46  C   UNL A   1      37.757  31.919  32.613  1.00  0.00     0.029 A 
ATOM     47  C   UNL A   1      38.986  31.193  32.897  1.00  0.00     0.049 A 
ATOM     48  H   UNL A   1      40.086  30.001  31.587  1.00  0.00     0.167 HD
ATOM     49  C   UNL A   1      42.092  27.196  28.899  1.00  0.00     0.037 A 
ATOM     50  C   UNL A   1      39.605  31.178  34.092  1.00  0.00     0.037 A 
ATOM     51  C   UNL A   1      42.827  27.120  30.136  1.00  0.00     0.049 A 
ATOM     52  C   UNL A   1      40.806  30.301  34.280  1.00  0.00     0.074 A 
ATOM     53  C   UNL A   1      43.978  26.402  30.412  1.00  0.00     0.029 A 
ATOM     54  N   UNL A   1      42.492  27.799  31.299  1.00  0.00    -0.354 N 
ATOM     55  N   UNL A   1      41.402  29.522  33.410  1.00  0.00    -0.248 NA
ATOM     56  C   UNL A   1      41.407  30.279  35.619  1.00  0.00     0.031 C 
ATOM     57  C   UNL A   1      44.317  26.614  31.753  1.00  0.00     0.029 A 
ATOM     58  C   UNL A   1      43.406  27.505  32.298  1.00  0.00     0.049 A 
ATOM     59  H   UNL A   1      41.720  28.401  31.398  1.00  0.00     0.167 HD
ATOM     60  C   UNL A   1      42.460  28.935  34.089  1.00  0.00     0.074 A 
ATOM     61  C   UNL A   1      42.430  29.457  35.440  1.00  0.00     0.031 C 
ATOM     62  C   UNL A   1      43.371  28.042  33.633  1.00  0.00     0.037 A 
BRANCH  49  63
ATOM     63  C   UNL A   1      42.566  26.362  27.743  1.00  0.00     0.057 A 
ATOM     64  C   UNL A   1      42.112  25.057  27.521  1.00  0.00     0.134 A 
ATOM     65  C   UNL A   1      43.460  26.900  26.805  1.00  0.00     0.134 A 
ATOM     66  F   UNL A   1      41.263  24.477  28.382  1.00  0.00    -0.206 F 
ATOM     67  C   UNL A   1      42.546  24.309  26.423  1.00  0.00     0.040 A 
ATOM     68  C   UNL A   1      43.879  26.173  25.689  1.00  0.00     0.040 A 
ATOM     69  F   UNL A   1      43.928  28.149  26.950  1.00  0.00    -0.206 F 
ATOM     70  C   UNL A   1      43.426  24.870  25.499  1.00  0.00     0.006 A 
ENDBRANCH  49  63
BRANCH  50  71
ATOM     71  C   UNL A   1      39.055  31.976  35.217  1.00  0.00     0.057 A 
ATOM     72  C   UNL A   1      39.301  33.349  35.319  1.00  0.00     0.134 A 
ATOM     73  C   UNL A   1      38.256  31.389  36.208  1.00  0.00     0.134 A 
ATOM     74  F   UNL A   1      40.077  33.964  34.415  1.00  0.00    -0.206 F 
ATOM     75  C   UNL A   1      38.777  34.109  36.366  1.00  0.00     0.040 A 
ATOM     76  C   UNL A   1      37.699  32.142  37.241  1.00  0.00     0.040 A 
ATOM     77  F   UNL A   1      37.977  30.078  36.165  1.00  0.00    -0.206 F 
ATOM     78  C   UNL A   1      37.965  33.507  37.325  1.00  0.00     0.006 A 
ENDBRANCH  50  71
BRANCH  62  79
ATOM     79  C   UNL A   1      44.443  27.614  34.591  1.00  0.00     0.057 A 
ATOM     80  C   UNL A   1      45.638  28.327  34.734  1.00  0.00     0.134 A 
ATOM     81  C   UNL A   1      44.255  26.490  35.406  1.00  0.00     0.134 A 
ATOM     82  F   UNL A   1      45.884  29.403  33.969  1.00  0.00    -0.206 F 
ATOM     83  C   UNL A   1      46.620  27.927  35.641  1.00  0.00     0.040 A 
ATOM     84  C   UNL A   1      45.218  26.095  36.334  1.00  0.00     0.040 A 
ATOM     85  F   UNL A   1      43.129  25.766  35.320  1.00  0.00    -0.206 F 
ATOM     86  C   UNL A   1      46.408  26.812  36.450  1.00  0.00     0.006 A 
ENDBRANCH  62  79
ENDBRANCH  36  37
ENDBRANCH  29  31
ENDBRANCH  28  29
ENDBRANCH  27  28
ENDBRANCH   1  27
TORSDOF 16
ENDMDL
