MODEL 1
REMARK VINA RESULT:     -11.9      0.000      0.000
REMARK SMILES O=C(OCCOC(=O)c1ccc(S(=O)(=O)N[C@@H]2CC[N@H+]3CCC[C@H]23)cc1)c1ccc(-c2c3nc(c(-c4c(F)cccc4F)c4ccc([nH]4)c(-c4c(F)cccc4F)c4nc(c(-c5c(F)cccc5F)c5ccc2[nH]5)C=C4)C=C3)cc1
REMARK SMILES IDX 5 1 4 2 3 3 2 4 1 5 27 6 28 7 80 8 29 9 79 10 30 11 31 12
REMARK SMILES IDX 32 13 73 14 33 15 78 16 72 17 74 18 34 19 77 20 71 21 70 22
REMARK SMILES IDX 35 24 61 25 44 26 60 27 45 28 48 29 59 30 75 31 46 32 47 33
REMARK SMILES IDX 58 35 76 36 49 37 36 38 37 39 42 40 38 41 39 42 41 43 43 44
REMARK SMILES IDX 40 45 62 46 63 47 68 48 64 49 65 50 67 51 69 52 66 53 50 54
REMARK SMILES IDX 51 55 56 56 52 57 53 58 55 59 57 60 54 61 6 62 7 63 8 64
REMARK SMILES IDX 9 65 10 66 26 67 11 68 25 69 12 70 13 71 14 72 15 73 16 74
REMARK SMILES IDX 17 76 18 77 24 78 19 79 20 80 23 81 21 82 22 84
REMARK H PARENT 74 23 48 34 16 75 20 83
REMARK Flexibility Score: inf
ROOT
ATOM      1  C   UNL A   1      42.491  20.343  26.167  1.00  0.00     0.275 C 
ENDROOT
BRANCH   1   2
ATOM      2  C   UNL A   1      43.617  21.146  25.503  1.00  0.00     0.275 C 
BRANCH   2   3
ATOM      3  O   UNL A   1      43.193  22.341  24.824  1.00  0.00    -0.458 OA
BRANCH   3   4
ATOM      4  C   UNL A   1      43.595  23.625  24.986  1.00  0.00     0.338 C 
ATOM      5  O   UNL A   1      44.581  24.016  24.362  1.00  0.00    -0.246 OA
BRANCH   4   6
ATOM      6  C   UNL A   1      43.003  24.554  26.002  1.00  0.00     0.060 A 
ATOM      7  C   UNL A   1      42.098  24.212  27.008  1.00  0.00     0.016 A 
ATOM      8  C   UNL A   1      43.434  25.890  25.943  1.00  0.00     0.016 A 
ATOM      9  C   UNL A   1      41.733  25.125  28.000  1.00  0.00     0.010 A 
ATOM     10  C   UNL A   1      43.075  26.809  26.933  1.00  0.00     0.010 A 
ATOM     11  C   UNL A   1      42.244  26.420  27.992  1.00  0.00    -0.014 A 
BRANCH  11  12
ATOM     12  C   UNL A   1      41.778  27.418  28.982  1.00  0.00     0.031 A 
ATOM     13  C   UNL A   1      42.522  27.472  30.284  1.00  0.00     0.074 A 
ATOM     14  C   UNL A   1      40.792  28.296  28.697  1.00  0.00     0.049 A 
ATOM     15  N   UNL A   1      42.275  28.181  31.347  1.00  0.00    -0.248 NA
ATOM     16  C   UNL A   1      43.754  26.660  30.374  1.00  0.00     0.031 C 
ATOM     17  C   UNL A   1      40.210  28.508  27.373  1.00  0.00     0.029 A 
ATOM     18  N   UNL A   1      40.105  29.187  29.486  1.00  0.00    -0.354 N 
ATOM     19  C   UNL A   1      43.342  27.942  32.205  1.00  0.00     0.074 A 
ATOM     20  C   UNL A   1      44.200  26.967  31.581  1.00  0.00     0.031 C 
ATOM     21  C   UNL A   1      39.234  29.429  27.450  1.00  0.00     0.029 A 
ATOM     22  C   UNL A   1      39.061  29.827  28.838  1.00  0.00     0.049 A 
ATOM     23  H   UNL A   1      40.334  29.357  30.429  1.00  0.00     0.167 HD
ATOM     24  C   UNL A   1      43.598  28.537  33.391  1.00  0.00     0.037 A 
ATOM     25  C   UNL A   1      38.059  30.583  29.347  1.00  0.00     0.037 A 
ATOM     26  C   UNL A   1      42.713  29.501  33.977  1.00  0.00     0.049 A 
ATOM     27  C   UNL A   1      38.134  30.786  30.861  1.00  0.00     0.074 A 
ATOM     28  C   UNL A   1      42.847  30.199  35.159  1.00  0.00     0.029 A 
ATOM     29  N   UNL A   1      41.503  29.878  33.412  1.00  0.00    -0.354 N 
ATOM     30  N   UNL A   1      39.166  30.624  31.660  1.00  0.00    -0.248 NA
ATOM     31  C   UNL A   1      36.922  31.234  31.562  1.00  0.00     0.031 C 
ATOM     32  C   UNL A   1      41.679  30.945  35.343  1.00  0.00     0.029 A 
ATOM     33  C   UNL A   1      40.843  30.749  34.253  1.00  0.00     0.049 A 
ATOM     34  H   UNL A   1      41.166  29.569  32.540  1.00  0.00     0.167 HD
ATOM     35  C   UNL A   1      38.777  31.108  32.903  1.00  0.00     0.074 A 
ATOM     36  C   UNL A   1      37.390  31.498  32.775  1.00  0.00     0.031 C 
ATOM     37  C   UNL A   1      39.508  31.252  34.037  1.00  0.00     0.037 A 
BRANCH  24  38
ATOM     38  C   UNL A   1      44.855  28.154  34.108  1.00  0.00     0.057 A 
ATOM     39  C   UNL A   1      46.056  28.850  33.913  1.00  0.00     0.134 A 
ATOM     40  C   UNL A   1      44.864  27.092  35.018  1.00  0.00     0.134 A 
ATOM     41  F   UNL A   1      46.121  29.865  33.038  1.00  0.00    -0.206 F 
ATOM     42  C   UNL A   1      47.224  28.493  34.589  1.00  0.00     0.040 A 
ATOM     43  C   UNL A   1      46.021  26.737  35.714  1.00  0.00     0.040 A 
ATOM     44  F   UNL A   1      43.750  26.381  35.246  1.00  0.00    -0.206 F 
ATOM     45  C   UNL A   1      47.207  27.437  35.498  1.00  0.00     0.006 A 
ENDBRANCH  24  38
BRANCH  25  46
ATOM     46  C   UNL A   1      36.862  31.091  28.558  1.00  0.00     0.057 A 
ATOM     47  C   UNL A   1      36.634  32.468  28.404  1.00  0.00     0.134 A 
ATOM     48  C   UNL A   1      35.812  30.269  28.100  1.00  0.00     0.134 A 
ATOM     49  F   UNL A   1      37.593  33.351  28.724  1.00  0.00    -0.206 F 
ATOM     50  C   UNL A   1      35.394  32.993  28.006  1.00  0.00     0.040 A 
ATOM     51  C   UNL A   1      34.577  30.777  27.672  1.00  0.00     0.040 A 
ATOM     52  F   UNL A   1      35.907  28.932  28.110  1.00  0.00    -0.206 F 
ATOM     53  C   UNL A   1      34.348  32.144  27.670  1.00  0.00     0.006 A 
ENDBRANCH  25  46
BRANCH  37  54
ATOM     54  C   UNL A   1      38.916  32.063  35.149  1.00  0.00     0.057 A 
ATOM     55  C   UNL A   1      38.306  31.488  36.265  1.00  0.00     0.134 A 
ATOM     56  C   UNL A   1      39.068  33.459  35.134  1.00  0.00     0.134 A 
ATOM     57  F   UNL A   1      38.118  30.162  36.330  1.00  0.00    -0.206 F 
ATOM     58  C   UNL A   1      37.862  32.273  37.330  1.00  0.00     0.040 A 
ATOM     59  C   UNL A   1      38.661  34.248  36.206  1.00  0.00     0.040 A 
ATOM     60  F   UNL A   1      39.661  34.069  34.095  1.00  0.00    -0.206 F 
ATOM     61  C   UNL A   1      38.054  33.655  37.309  1.00  0.00     0.006 A 
ENDBRANCH  37  54
ENDBRANCH  11  12
ENDBRANCH   4   6
ENDBRANCH   3   4
ENDBRANCH   2   3
ENDBRANCH   1   2
BRANCH   1  62
ATOM     62  O   UNL A   1      41.173  20.744  25.760  1.00  0.00    -0.458 OA
BRANCH  62  63
ATOM     63  C   UNL A   1      40.364  21.184  26.762  1.00  0.00     0.338 C 
ATOM     64  O   UNL A   1      40.593  21.129  27.957  1.00  0.00    -0.246 OA
BRANCH  63  65
ATOM     65  C   UNL A   1      39.210  21.907  26.182  1.00  0.00     0.060 A 
ATOM     66  C   UNL A   1      38.357  21.203  25.327  1.00  0.00     0.017 A 
ATOM     67  C   UNL A   1      38.922  23.235  26.515  1.00  0.00     0.017 A 
ATOM     68  C   UNL A   1      37.189  21.806  24.855  1.00  0.00     0.022 A 
ATOM     69  C   UNL A   1      37.747  23.841  26.042  1.00  0.00     0.022 A 
ATOM     70  C   UNL A   1      36.875  23.123  25.223  1.00  0.00     0.082 A 
BRANCH  70  71
ATOM     71  S   UNL A   1      35.326  23.763  24.621  1.00  0.00     0.241 S 
ATOM     72  O   UNL A   1      35.013  24.908  25.439  1.00  0.00    -0.207 OA
ATOM     73  O   UNL A   1      35.474  23.868  23.182  1.00  0.00    -0.207 OA
BRANCH  71  74
ATOM     74  N   UNL A   1      34.149  22.617  24.858  1.00  0.00    -0.202 NA
ATOM     75  H   UNL A   1      33.277  23.133  24.966  1.00  0.00     0.141 HD
BRANCH  74  76
ATOM     76  C   UNL A   1      33.865  21.550  23.917  1.00  0.00     0.133 C 
ATOM     77  C   UNL A   1      32.543  21.825  23.192  1.00  0.00     0.087 C 
ATOM     78  C   UNL A   1      33.700  20.112  24.396  1.00  0.00     0.202 C 
ATOM     79  C   UNL A   1      32.141  20.452  22.659  1.00  0.00     0.264 C 
ATOM     80  N   UNL A   1      32.370  19.753  23.884  1.00  0.00    -0.331 N 
ATOM     81  C   UNL A   1      33.476  19.609  25.800  1.00  0.00     0.072 C 
ATOM     82  C   UNL A   1      32.207  18.348  24.093  1.00  0.00     0.262 C 
ATOM     83  H   UNL A   1      31.533  20.084  24.364  1.00  0.00     0.348 HD
ATOM     84  C   UNL A   1      32.676  18.298  25.558  1.00  0.00     0.068 C 
ENDBRANCH  74  76
ENDBRANCH  71  74
ENDBRANCH  70  71
ENDBRANCH  63  65
ENDBRANCH  62  63
ENDBRANCH   1  62
TORSDOF 14
ENDMDL
MODEL 2
REMARK VINA RESULT:     -11.9      1.538      2.474
REMARK SMILES O=C(OCCOC(=O)c1ccc(S(=O)(=O)N[C@@H]2CC[N@H+]3CCC[C@H]23)cc1)c1ccc(-c2c3nc(c(-c4c(F)cccc4F)c4ccc([nH]4)c(-c4c(F)cccc4F)c4nc(c(-c5c(F)cccc5F)c5ccc2[nH]5)C=C4)C=C3)cc1
REMARK SMILES IDX 5 1 4 2 3 3 2 4 1 5 27 6 28 7 80 8 29 9 79 10 30 11 31 12
REMARK SMILES IDX 32 13 73 14 33 15 78 16 72 17 74 18 34 19 77 20 71 21 70 22
REMARK SMILES IDX 35 24 61 25 44 26 60 27 45 28 48 29 59 30 75 31 46 32 47 33
REMARK SMILES IDX 58 35 76 36 49 37 36 38 37 39 42 40 38 41 39 42 41 43 43 44
REMARK SMILES IDX 40 45 62 46 63 47 68 48 64 49 65 50 67 51 69 52 66 53 50 54
REMARK SMILES IDX 51 55 56 56 52 57 53 58 55 59 57 60 54 61 6 62 7 63 8 64
REMARK SMILES IDX 9 65 10 66 26 67 11 68 25 69 12 70 13 71 14 72 15 73 16 74
REMARK SMILES IDX 17 76 18 77 24 78 19 79 20 80 23 81 21 82 22 84
REMARK H PARENT 74 23 48 34 16 75 20 83
REMARK Flexibility Score: inf
ROOT
ATOM      1  C   UNL A   1      42.294  20.168  26.131  1.00  0.00     0.275 C 
ENDROOT
BRANCH   1   2
ATOM      2  C   UNL A   1      43.427  21.103  25.690  1.00  0.00     0.275 C 
BRANCH   2   3
ATOM      3  O   UNL A   1      43.000  22.299  25.013  1.00  0.00    -0.458 OA
BRANCH   3   4
ATOM      4  C   UNL A   1      43.542  23.540  25.012  1.00  0.00     0.338 C 
ATOM      5  O   UNL A   1      44.466  23.778  24.234  1.00  0.00    -0.246 OA
BRANCH   4   6
ATOM      6  C   UNL A   1      43.189  24.598  26.014  1.00  0.00     0.060 A 
ATOM      7  C   UNL A   1      43.675  25.907  26.040  1.00  0.00     0.016 A 
ATOM      8  C   UNL A   1      42.257  24.230  26.999  1.00  0.00     0.016 A 
ATOM      9  C   UNL A   1      43.158  26.856  26.925  1.00  0.00     0.010 A 
ATOM     10  C   UNL A   1      41.734  25.175  27.886  1.00  0.00     0.010 A 
ATOM     11  C   UNL A   1      42.160  26.509  27.831  1.00  0.00    -0.014 A 
BRANCH  11  12
ATOM     12  C   UNL A   1      41.686  27.487  28.838  1.00  0.00     0.031 A 
ATOM     13  C   UNL A   1      42.438  27.535  30.135  1.00  0.00     0.074 A 
ATOM     14  C   UNL A   1      40.684  28.352  28.572  1.00  0.00     0.049 A 
ATOM     15  N   UNL A   1      42.188  28.227  31.210  1.00  0.00    -0.248 NA
ATOM     16  C   UNL A   1      43.683  26.742  30.205  1.00  0.00     0.031 C 
ATOM     17  C   UNL A   1      40.089  28.573  27.255  1.00  0.00     0.029 A 
ATOM     18  N   UNL A   1      39.989  29.223  29.377  1.00  0.00    -0.354 N 
ATOM     19  C   UNL A   1      43.265  27.994  32.056  1.00  0.00     0.074 A 
ATOM     20  C   UNL A   1      44.133  27.040  31.413  1.00  0.00     0.031 C 
ATOM     21  C   UNL A   1      39.099  29.478  27.350  1.00  0.00     0.029 A 
ATOM     22  C   UNL A   1      38.931  29.854  28.745  1.00  0.00     0.049 A 
ATOM     23  H   UNL A   1      40.222  29.384  30.320  1.00  0.00     0.167 HD
ATOM     24  C   UNL A   1      43.520  28.577  33.248  1.00  0.00     0.037 A 
ATOM     25  C   UNL A   1      37.921  30.588  29.271  1.00  0.00     0.037 A 
ATOM     26  C   UNL A   1      42.625  29.520  33.853  1.00  0.00     0.049 A 
ATOM     27  C   UNL A   1      38.004  30.773  30.787  1.00  0.00     0.074 A 
ATOM     28  C   UNL A   1      42.756  30.204  35.043  1.00  0.00     0.029 A 
ATOM     29  N   UNL A   1      41.405  29.885  33.301  1.00  0.00    -0.354 N 
ATOM     30  N   UNL A   1      39.044  30.617  31.576  1.00  0.00    -0.248 NA
ATOM     31  C   UNL A   1      36.790  31.193  31.502  1.00  0.00     0.031 C 
ATOM     32  C   UNL A   1      41.578  30.930  35.245  1.00  0.00     0.029 A 
ATOM     33  C   UNL A   1      40.737  30.734  34.159  1.00  0.00     0.049 A 
ATOM     34  H   UNL A   1      41.067  29.582  32.428  1.00  0.00     0.167 HD
ATOM     35  C   UNL A   1      38.656  31.078  32.828  1.00  0.00     0.074 A 
ATOM     36  C   UNL A   1      37.262  31.448  32.715  1.00  0.00     0.031 C 
ATOM     37  C   UNL A   1      39.393  31.219  33.958  1.00  0.00     0.037 A 
BRANCH  24  38
ATOM     38  C   UNL A   1      44.788  28.205  33.951  1.00  0.00     0.057 A 
ATOM     39  C   UNL A   1      44.845  27.132  34.851  1.00  0.00     0.134 A 
ATOM     40  C   UNL A   1      45.972  28.913  33.715  1.00  0.00     0.134 A 
ATOM     41  F   UNL A   1      43.741  26.426  35.139  1.00  0.00    -0.206 F 
ATOM     42  C   UNL A   1      46.031  26.785  35.500  1.00  0.00     0.040 A 
ATOM     43  C   UNL A   1      47.168  28.565  34.343  1.00  0.00     0.040 A 
ATOM     44  F   UNL A   1      45.985  29.954  32.870  1.00  0.00    -0.206 F 
ATOM     45  C   UNL A   1      47.200  27.499  35.241  1.00  0.00     0.006 A 
ENDBRANCH  24  38
BRANCH  25  46
ATOM     46  C   UNL A   1      36.710  31.087  28.497  1.00  0.00     0.057 A 
ATOM     47  C   UNL A   1      36.454  32.463  28.372  1.00  0.00     0.134 A 
ATOM     48  C   UNL A   1      35.675  30.254  28.026  1.00  0.00     0.134 A 
ATOM     49  F   UNL A   1      37.395  33.358  28.706  1.00  0.00    -0.206 F 
ATOM     50  C   UNL A   1      35.202  32.969  27.990  1.00  0.00     0.040 A 
ATOM     51  C   UNL A   1      34.428  30.745  27.614  1.00  0.00     0.040 A 
ATOM     52  F   UNL A   1      35.798  28.918  28.008  1.00  0.00    -0.206 F 
ATOM     53  C   UNL A   1      34.172  32.107  27.640  1.00  0.00     0.006 A 
ENDBRANCH  25  46
BRANCH  37  54
ATOM     54  C   UNL A   1      38.797  32.006  35.086  1.00  0.00     0.057 A 
ATOM     55  C   UNL A   1      38.232  31.407  36.213  1.00  0.00     0.134 A 
ATOM     56  C   UNL A   1      38.898  33.406  35.071  1.00  0.00     0.134 A 
ATOM     57  F   UNL A   1      38.093  30.075  36.278  1.00  0.00    -0.206 F 
ATOM     58  C   UNL A   1      37.783  32.174  37.289  1.00  0.00     0.040 A 
ATOM     59  C   UNL A   1      38.487  34.179  36.154  1.00  0.00     0.040 A 
ATOM     60  F   UNL A   1      39.446  34.039  34.021  1.00  0.00    -0.206 F 
ATOM     61  C   UNL A   1      37.925  33.562  37.268  1.00  0.00     0.006 A 
ENDBRANCH  37  54
ENDBRANCH  11  12
ENDBRANCH   4   6
ENDBRANCH   3   4
ENDBRANCH   2   3
ENDBRANCH   1   2
BRANCH   1  62
ATOM     62  O   UNL A   1      40.986  20.610  25.732  1.00  0.00    -0.458 OA
BRANCH  62  63
ATOM     63  C   UNL A   1      40.245  21.191  26.714  1.00  0.00     0.338 C 
ATOM     64  O   UNL A   1      40.549  21.294  27.889  1.00  0.00    -0.246 OA
BRANCH  63  65
ATOM     65  C   UNL A   1      39.059  21.843  26.114  1.00  0.00     0.060 A 
ATOM     66  C   UNL A   1      38.258  21.086  25.254  1.00  0.00     0.017 A 
ATOM     67  C   UNL A   1      38.691  23.154  26.434  1.00  0.00     0.017 A 
ATOM     68  C   UNL A   1      37.064  21.619  24.763  1.00  0.00     0.022 A 
ATOM     69  C   UNL A   1      37.490  23.690  25.944  1.00  0.00     0.022 A 
ATOM     70  C   UNL A   1      36.670  22.917  25.118  1.00  0.00     0.082 A 
BRANCH  70  71
ATOM     71  S   UNL A   1      35.095  23.464  24.492  1.00  0.00     0.241 S 
ATOM     72  O   UNL A   1      35.312  23.841  23.118  1.00  0.00    -0.207 OA
ATOM     73  O   UNL A   1      34.144  22.435  24.863  1.00  0.00    -0.207 OA
BRANCH  71  74
ATOM     74  N   UNL A   1      34.629  24.816  25.335  1.00  0.00    -0.202 NA
ATOM     75  H   UNL A   1      35.478  25.180  25.767  1.00  0.00     0.141 HD
BRANCH  74  76
ATOM     76  C   UNL A   1      33.974  25.957  24.724  1.00  0.00     0.133 C 
ATOM     77  C   UNL A   1      33.869  27.107  25.732  1.00  0.00     0.087 C 
ATOM     78  C   UNL A   1      32.552  25.844  24.186  1.00  0.00     0.202 C 
ATOM     79  C   UNL A   1      32.763  27.985  25.153  1.00  0.00     0.264 C 
ATOM     80  N   UNL A   1      31.850  26.915  24.906  1.00  0.00    -0.331 N 
ATOM     81  C   UNL A   1      31.530  24.768  24.453  1.00  0.00     0.072 C 
ATOM     82  C   UNL A   1      30.554  27.035  24.314  1.00  0.00     0.262 C 
ATOM     83  H   UNL A   1      31.569  26.777  25.877  1.00  0.00     0.348 HD
ATOM     84  C   UNL A   1      30.189  25.541  24.299  1.00  0.00     0.068 C 
ENDBRANCH  74  76
ENDBRANCH  71  74
ENDBRANCH  70  71
ENDBRANCH  63  65
ENDBRANCH  62  63
ENDBRANCH   1  62
TORSDOF 14
ENDMDL
MODEL 3
REMARK VINA RESULT:     -11.6      4.534      9.493
REMARK SMILES O=C(OCCOC(=O)c1ccc(S(=O)(=O)N[C@@H]2CC[N@H+]3CCC[C@H]23)cc1)c1ccc(-c2c3nc(c(-c4c(F)cccc4F)c4ccc([nH]4)c(-c4c(F)cccc4F)c4nc(c(-c5c(F)cccc5F)c5ccc2[nH]5)C=C4)C=C3)cc1
REMARK SMILES IDX 5 1 4 2 3 3 2 4 1 5 27 6 28 7 80 8 29 9 79 10 30 11 31 12
REMARK SMILES IDX 32 13 73 14 33 15 78 16 72 17 74 18 34 19 77 20 71 21 70 22
REMARK SMILES IDX 35 24 61 25 44 26 60 27 45 28 48 29 59 30 75 31 46 32 47 33
REMARK SMILES IDX 58 35 76 36 49 37 36 38 37 39 42 40 38 41 39 42 41 43 43 44
REMARK SMILES IDX 40 45 62 46 63 47 68 48 64 49 65 50 67 51 69 52 66 53 50 54
REMARK SMILES IDX 51 55 56 56 52 57 53 58 55 59 57 60 54 61 6 62 7 63 8 64
REMARK SMILES IDX 9 65 10 66 26 67 11 68 25 69 12 70 13 71 14 72 15 73 16 74
REMARK SMILES IDX 17 76 18 77 24 78 19 79 20 80 23 81 21 82 22 84
REMARK H PARENT 74 23 48 34 16 75 20 83
REMARK Flexibility Score: inf
ROOT
ATOM      1  C   UNL A   1      34.075  33.639  28.277  1.00  0.00     0.275 C 
ENDROOT
BRANCH   1   2
ATOM      2  C   UNL A   1      34.174  33.926  29.780  1.00  0.00     0.275 C 
BRANCH   2   3
ATOM      3  O   UNL A   1      34.211  32.758  30.621  1.00  0.00    -0.458 OA
BRANCH   3   4
ATOM      4  C   UNL A   1      35.141  32.364  31.524  1.00  0.00     0.338 C 
ATOM      5  O   UNL A   1      34.959  32.633  32.711  1.00  0.00    -0.246 OA
BRANCH   4   6
ATOM      6  C   UNL A   1      36.458  31.756  31.144  1.00  0.00     0.060 A 
ATOM      7  C   UNL A   1      37.442  31.301  32.023  1.00  0.00     0.016 A 
ATOM      8  C   UNL A   1      36.697  31.611  29.767  1.00  0.00     0.016 A 
ATOM      9  C   UNL A   1      38.563  30.606  31.562  1.00  0.00     0.010 A 
ATOM     10  C   UNL A   1      37.815  30.915  29.299  1.00  0.00     0.010 A 
ATOM     11  C   UNL A   1      38.743  30.377  30.201  1.00  0.00    -0.014 A 
BRANCH  11  12
ATOM     12  C   UNL A   1      39.981  29.732  29.705  1.00  0.00     0.031 A 
ATOM     13  C   UNL A   1      41.194  30.607  29.588  1.00  0.00     0.074 A 
ATOM     14  C   UNL A   1      40.041  28.406  29.453  1.00  0.00     0.049 A 
ATOM     15  N   UNL A   1      42.371  30.326  29.106  1.00  0.00    -0.248 NA
ATOM     16  C   UNL A   1      41.083  31.967  30.154  1.00  0.00     0.031 C 
ATOM     17  C   UNL A   1      39.007  27.435  29.806  1.00  0.00     0.029 A 
ATOM     18  N   UNL A   1      41.007  27.631  28.858  1.00  0.00    -0.354 N 
ATOM     19  C   UNL A   1      43.149  31.450  29.358  1.00  0.00     0.074 A 
ATOM     20  C   UNL A   1      42.301  32.447  29.962  1.00  0.00     0.031 C 
ATOM     21  C   UNL A   1      39.373  26.211  29.385  1.00  0.00     0.029 A 
ATOM     22  C   UNL A   1      40.633  26.312  28.665  1.00  0.00     0.049 A 
ATOM     23  H   UNL A   1      41.887  27.982  28.590  1.00  0.00     0.167 HD
ATOM     24  C   UNL A   1      44.474  31.602  29.144  1.00  0.00     0.037 A 
ATOM     25  C   UNL A   1      41.227  25.341  27.931  1.00  0.00     0.037 A 
ATOM     26  C   UNL A   1      45.279  30.583  28.537  1.00  0.00     0.049 A 
ATOM     27  C   UNL A   1      42.529  25.775  27.255  1.00  0.00     0.074 A 
ATOM     28  C   UNL A   1      46.633  30.586  28.272  1.00  0.00     0.029 A 
ATOM     29  N   UNL A   1      44.773  29.377  28.074  1.00  0.00    -0.354 N 
ATOM     30  N   UNL A   1      43.298  26.802  27.541  1.00  0.00    -0.248 NA
ATOM     31  C   UNL A   1      43.037  24.961  26.140  1.00  0.00     0.031 C 
ATOM     32  C   UNL A   1      46.931  29.407  27.583  1.00  0.00     0.029 A 
ATOM     33  C   UNL A   1      45.773  28.651  27.462  1.00  0.00     0.049 A 
ATOM     34  H   UNL A   1      43.838  29.083  28.168  1.00  0.00     0.167 HD
ATOM     35  C   UNL A   1      44.445  26.657  26.769  1.00  0.00     0.074 A 
ATOM     36  C   UNL A   1      44.238  25.487  25.945  1.00  0.00     0.031 C 
ATOM     37  C   UNL A   1      45.579  27.402  26.768  1.00  0.00     0.037 A 
BRANCH  24  38
ATOM     38  C   UNL A   1      45.106  32.895  29.559  1.00  0.00     0.057 A 
ATOM     39  C   UNL A   1      45.187  33.988  28.686  1.00  0.00     0.134 A 
ATOM     40  C   UNL A   1      45.622  33.058  30.849  1.00  0.00     0.134 A 
ATOM     41  F   UNL A   1      44.730  33.891  27.428  1.00  0.00    -0.206 F 
ATOM     42  C   UNL A   1      45.771  35.194  29.079  1.00  0.00     0.040 A 
ATOM     43  C   UNL A   1      46.192  34.263  31.260  1.00  0.00     0.040 A 
ATOM     44  F   UNL A   1      45.581  32.048  31.731  1.00  0.00    -0.206 F 
ATOM     45  C   UNL A   1      46.270  35.336  30.372  1.00  0.00     0.006 A 
ENDBRANCH  24  38
BRANCH  25  46
ATOM     46  C   UNL A   1      40.629  23.971  27.648  1.00  0.00     0.057 A 
ATOM     47  C   UNL A   1      41.232  22.806  28.149  1.00  0.00     0.134 A 
ATOM     48  C   UNL A   1      39.580  23.741  26.735  1.00  0.00     0.134 A 
ATOM     49  F   UNL A   1      42.186  22.891  29.089  1.00  0.00    -0.206 F 
ATOM     50  C   UNL A   1      40.948  21.527  27.646  1.00  0.00     0.040 A 
ATOM     51  C   UNL A   1      39.263  22.466  26.243  1.00  0.00     0.040 A 
ATOM     52  F   UNL A   1      38.855  24.747  26.224  1.00  0.00    -0.206 F 
ATOM     53  C   UNL A   1      39.981  21.358  26.664  1.00  0.00     0.006 A 
ENDBRANCH  25  46
BRANCH  37  54
ATOM     54  C   UNL A   1      46.770  26.855  26.039  1.00  0.00     0.057 A 
ATOM     55  C   UNL A   1      47.065  27.184  24.715  1.00  0.00     0.134 A 
ATOM     56  C   UNL A   1      47.694  26.061  26.737  1.00  0.00     0.134 A 
ATOM     57  F   UNL A   1      46.212  27.925  23.992  1.00  0.00    -0.206 F 
ATOM     58  C   UNL A   1      48.238  26.740  24.105  1.00  0.00     0.040 A 
ATOM     59  C   UNL A   1      48.885  25.643  26.150  1.00  0.00     0.040 A 
ATOM     60  F   UNL A   1      47.473  25.725  28.018  1.00  0.00    -0.206 F 
ATOM     61  C   UNL A   1      49.160  25.981  24.828  1.00  0.00     0.006 A 
ENDBRANCH  37  54
ENDBRANCH  11  12
ENDBRANCH   4   6
ENDBRANCH   3   4
ENDBRANCH   2   3
ENDBRANCH   1   2
BRANCH   1  62
ATOM     62  O   UNL A   1      33.716  32.283  27.965  1.00  0.00    -0.458 OA
BRANCH  62  63
ATOM     63  C   UNL A   1      32.541  32.133  27.297  1.00  0.00     0.338 C 
ATOM     64  O   UNL A   1      31.737  33.011  27.034  1.00  0.00    -0.246 OA
BRANCH  63  65
ATOM     65  C   UNL A   1      32.444  30.751  26.775  1.00  0.00     0.060 A 
ATOM     66  C   UNL A   1      33.202  29.758  27.403  1.00  0.00     0.017 A 
ATOM     67  C   UNL A   1      31.578  30.411  25.730  1.00  0.00     0.017 A 
ATOM     68  C   UNL A   1      33.050  28.422  27.025  1.00  0.00     0.022 A 
ATOM     69  C   UNL A   1      31.422  29.068  25.352  1.00  0.00     0.022 A 
ATOM     70  C   UNL A   1      32.149  28.073  26.008  1.00  0.00     0.082 A 
BRANCH  70  71
ATOM     71  S   UNL A   1      31.985  26.333  25.662  1.00  0.00     0.241 S 
ATOM     72  O   UNL A   1      31.460  25.728  26.860  1.00  0.00    -0.207 OA
ATOM     73  O   UNL A   1      31.289  26.247  24.393  1.00  0.00    -0.207 OA
BRANCH  71  74
ATOM     74  N   UNL A   1      33.494  25.703  25.379  1.00  0.00    -0.202 NA
ATOM     75  H   UNL A   1      34.154  26.397  25.728  1.00  0.00     0.141 HD
BRANCH  74  76
ATOM     76  C   UNL A   1      33.944  24.428  25.905  1.00  0.00     0.133 C 
ATOM     77  C   UNL A   1      35.434  24.230  25.606  1.00  0.00     0.087 C 
ATOM     78  C   UNL A   1      33.322  23.122  25.421  1.00  0.00     0.202 C 
ATOM     79  C   UNL A   1      35.624  22.722  25.742  1.00  0.00     0.264 C 
ATOM     80  N   UNL A   1      34.490  22.365  24.950  1.00  0.00    -0.331 N 
ATOM     81  C   UNL A   1      32.468  22.884  24.202  1.00  0.00     0.072 C 
ATOM     82  C   UNL A   1      34.041  21.036  24.674  1.00  0.00     0.262 C 
ATOM     83  H   UNL A   1      34.907  22.584  24.046  1.00  0.00     0.348 HD
ATOM     84  C   UNL A   1      32.789  21.402  23.859  1.00  0.00     0.068 C 
ENDBRANCH  74  76
ENDBRANCH  71  74
ENDBRANCH  70  71
ENDBRANCH  63  65
ENDBRANCH  62  63
ENDBRANCH   1  62
TORSDOF 14
ENDMDL
