MODEL 1
REMARK VINA RESULT:     -10.6      0.000      0.000
REMARK SMILES CC(C)[C@H](NC(=O)[C@H](C)NC(=O)CNC(=O)OCc1ccccc1)C(=O)OCCOC(=O)c1ccc(-c2c3nc(c(-c4c(F)cccc4F)c4ccc([nH]4)c(-c4c(F)cccc4F)c4nc(c(-c5c(F)cccc5F)c5ccc2[nH]5)C=C4)C=C3)cc1
REMARK SMILES IDX 4 1 2 2 1 3 3 4 25 5 26 6 27 7 28 8 29 9 30 10 31 11 32 12
REMARK SMILES IDX 33 13 34 14 86 15 35 16 85 17 36 18 37 19 38 20 79 21 39 22
REMARK SMILES IDX 84 23 78 24 80 25 40 26 83 27 77 28 76 29 41 31 67 32 50 33
REMARK SMILES IDX 66 34 51 35 54 36 65 37 81 38 52 39 53 40 64 42 82 43 55 44
REMARK SMILES IDX 42 45 43 46 48 47 44 48 45 49 47 50 49 51 46 52 68 53 69 54
REMARK SMILES IDX 74 55 70 56 71 57 73 58 75 59 72 60 56 61 57 62 62 63 58 64
REMARK SMILES IDX 59 65 61 66 63 67 60 68 5 69 6 70 7 72 8 73 9 74 10 75 11 76
REMARK SMILES IDX 12 78 13 79 14 80 15 81 16 83 17 84 18 85 19 86 20 87 24 88
REMARK SMILES IDX 21 89 23 90 22 91
REMARK H PARENT 80 30 54 41 5 71 10 77 14 82
REMARK Flexibility Score: inf
ROOT
ATOM      1  C   UNL A   1      34.961  21.614  24.494  1.00  0.00     0.194 C 
ENDROOT
BRANCH   1   2
ATOM      2  C   UNL A   1      35.921  22.818  24.595  1.00  0.00     0.017 C 
ATOM      3  C   UNL A   1      36.609  23.281  23.304  1.00  0.00     0.010 C 
ATOM      4  C   UNL A   1      35.206  24.015  25.238  1.00  0.00     0.010 C 
ENDBRANCH   1   2
BRANCH   1   5
ATOM      5  C   UNL A   1      35.677  20.349  25.000  1.00  0.00     0.329 C 
ATOM      6  O   UNL A   1      35.153  19.240  24.992  1.00  0.00    -0.250 OA
BRANCH   5   7
ATOM      7  O   UNL A   1      36.951  20.590  25.416  1.00  0.00    -0.461 OA
BRANCH   7   8
ATOM      8  C   UNL A   1      37.970  19.962  24.618  1.00  0.00     0.274 C 
BRANCH   8   9
ATOM      9  C   UNL A   1      38.902  19.067  25.447  1.00  0.00     0.275 C 
BRANCH   9  10
ATOM     10  O   UNL A   1      39.742  19.801  26.362  1.00  0.00    -0.458 OA
BRANCH  10  11
ATOM     11  C   UNL A   1      41.074  19.611  26.203  1.00  0.00     0.338 C 
ATOM     12  O   UNL A   1      41.621  18.616  25.751  1.00  0.00    -0.246 OA
BRANCH  11  13
ATOM     13  C   UNL A   1      41.812  20.858  26.471  1.00  0.00     0.060 A 
ATOM     14  C   UNL A   1      42.096  21.176  27.803  1.00  0.00     0.016 A 
ATOM     15  C   UNL A   1      42.136  21.754  25.456  1.00  0.00     0.016 A 
ATOM     16  C   UNL A   1      42.685  22.384  28.141  1.00  0.00     0.010 A 
ATOM     17  C   UNL A   1      42.734  22.974  25.792  1.00  0.00     0.010 A 
ATOM     18  C   UNL A   1      42.999  23.298  27.138  1.00  0.00    -0.014 A 
BRANCH  18  19
ATOM     19  C   UNL A   1      43.523  24.630  27.510  1.00  0.00     0.031 A 
ATOM     20  C   UNL A   1      42.566  25.687  27.972  1.00  0.00     0.074 A 
ATOM     21  C   UNL A   1      44.845  24.874  27.462  1.00  0.00     0.049 A 
ATOM     22  N   UNL A   1      42.776  26.960  28.176  1.00  0.00    -0.248 NA
ATOM     23  C   UNL A   1      41.186  25.250  28.235  1.00  0.00     0.031 C 
ATOM     24  C   UNL A   1      45.876  23.893  27.121  1.00  0.00     0.029 A 
ATOM     25  N   UNL A   1      45.545  26.030  27.692  1.00  0.00    -0.354 N 
ATOM     26  C   UNL A   1      41.546  27.486  28.551  1.00  0.00     0.074 A 
ATOM     27  C   UNL A   1      40.595  26.396  28.542  1.00  0.00     0.031 C 
ATOM     28  C   UNL A   1      47.077  24.494  27.150  1.00  0.00     0.029 A 
ATOM     29  C   UNL A   1      46.890  25.911  27.444  1.00  0.00     0.049 A 
ATOM     30  H   UNL A   1      45.124  26.864  28.005  1.00  0.00     0.167 HD
ATOM     31  C   UNL A   1      41.245  28.768  28.868  1.00  0.00     0.037 A 
ATOM     32  C   UNL A   1      47.851  26.853  27.406  1.00  0.00     0.037 A 
ATOM     33  C   UNL A   1      42.212  29.834  28.893  1.00  0.00     0.049 A 
ATOM     34  C   UNL A   1      47.476  28.283  27.678  1.00  0.00     0.074 A 
ATOM     35  C   UNL A   1      42.016  31.168  29.200  1.00  0.00     0.029 A 
ATOM     36  N   UNL A   1      43.560  29.682  28.602  1.00  0.00    -0.354 N 
ATOM     37  N   UNL A   1      46.306  28.786  27.991  1.00  0.00    -0.248 NA
ATOM     38  C   UNL A   1      48.552  29.279  27.580  1.00  0.00     0.031 C 
ATOM     39  C   UNL A   1      43.238  31.833  29.048  1.00  0.00     0.029 A 
ATOM     40  C   UNL A   1      44.205  30.903  28.700  1.00  0.00     0.049 A 
ATOM     41  H   UNL A   1      43.993  28.831  28.362  1.00  0.00     0.167 HD
ATOM     42  C   UNL A   1      46.509  30.151  28.153  1.00  0.00     0.074 A 
ATOM     43  C   UNL A   1      47.917  30.394  27.914  1.00  0.00     0.031 C 
ATOM     44  C   UNL A   1      45.612  31.116  28.470  1.00  0.00     0.037 A 
BRANCH  31  45
ATOM     45  C   UNL A   1      39.809  29.089  29.162  1.00  0.00     0.057 A 
ATOM     46  C   UNL A   1      38.899  29.434  28.154  1.00  0.00     0.134 A 
ATOM     47  C   UNL A   1      39.327  29.032  30.476  1.00  0.00     0.134 A 
ATOM     48  F   UNL A   1      39.300  29.524  26.877  1.00  0.00    -0.206 F 
ATOM     49  C   UNL A   1      37.568  29.733  28.447  1.00  0.00     0.040 A 
ATOM     50  C   UNL A   1      37.992  29.303  30.777  1.00  0.00     0.040 A 
ATOM     51  F   UNL A   1      40.145  28.707  31.488  1.00  0.00    -0.206 F 
ATOM     52  C   UNL A   1      37.108  29.663  29.762  1.00  0.00     0.006 A 
ENDBRANCH  31  45
BRANCH  32  53
ATOM     53  C   UNL A   1      49.244  26.480  27.051  1.00  0.00     0.057 A 
ATOM     54  C   UNL A   1      49.636  26.329  25.717  1.00  0.00     0.134 A 
ATOM     55  C   UNL A   1      50.214  26.255  28.037  1.00  0.00     0.134 A 
ATOM     56  F   UNL A   1      48.749  26.507  24.728  1.00  0.00    -0.206 F 
ATOM     57  C   UNL A   1      50.937  25.954  25.375  1.00  0.00     0.040 A 
ATOM     58  C   UNL A   1      51.525  25.908  27.709  1.00  0.00     0.040 A 
ATOM     59  F   UNL A   1      49.903  26.385  29.335  1.00  0.00    -0.206 F 
ATOM     60  C   UNL A   1      51.888  25.747  26.374  1.00  0.00     0.006 A 
ENDBRANCH  32  53
BRANCH  44  61
ATOM     61  C   UNL A   1      46.135  32.513  28.623  1.00  0.00     0.057 A 
ATOM     62  C   UNL A   1      46.642  32.985  29.840  1.00  0.00     0.134 A 
ATOM     63  C   UNL A   1      46.176  33.380  27.523  1.00  0.00     0.134 A 
ATOM     64  F   UNL A   1      46.619  32.209  30.934  1.00  0.00    -0.206 F 
ATOM     65  C   UNL A   1      47.154  34.278  29.963  1.00  0.00     0.040 A 
ATOM     66  C   UNL A   1      46.709  34.665  27.627  1.00  0.00     0.040 A 
ATOM     67  F   UNL A   1      45.714  32.985  26.327  1.00  0.00    -0.206 F 
ATOM     68  C   UNL A   1      47.196  35.118  28.852  1.00  0.00     0.006 A 
ENDBRANCH  44  61
ENDBRANCH  18  19
ENDBRANCH  11  13
ENDBRANCH  10  11
ENDBRANCH   9  10
ENDBRANCH   8   9
ENDBRANCH   7   8
ENDBRANCH   5   7
ENDBRANCH   1   5
BRANCH   1  69
ATOM     69  N   UNL A   1      33.592  21.768  25.042  1.00  0.00    -0.341 N 
ATOM     70  C   UNL A   1      32.415  21.296  24.503  1.00  0.00     0.242 C 
ATOM     71  H   UNL A   1      33.514  22.264  25.889  1.00  0.00     0.164 HD
ATOM     72  O   UNL A   1      31.778  20.444  25.122  1.00  0.00    -0.273 OA
BRANCH  70  73
ATOM     73  C   UNL A   1      31.890  21.925  23.193  1.00  0.00     0.168 C 
ATOM     74  C   UNL A   1      32.153  20.996  22.010  1.00  0.00     0.041 C 
BRANCH  73  75
ATOM     75  N   UNL A   1      32.417  23.247  22.886  1.00  0.00    -0.343 N 
ATOM     76  C   UNL A   1      31.843  24.479  23.033  1.00  0.00     0.240 C 
ATOM     77  H   UNL A   1      33.329  23.255  22.515  1.00  0.00     0.164 HD
ATOM     78  O   UNL A   1      32.542  25.450  22.723  1.00  0.00    -0.273 OA
BRANCH  76  79
ATOM     79  C   UNL A   1      30.487  24.714  23.753  1.00  0.00     0.219 C 
BRANCH  79  80
ATOM     80  N   UNL A   1      30.278  24.072  25.034  1.00  0.00    -0.312 N 
ATOM     81  C   UNL A   1      30.499  24.553  26.293  1.00  0.00     0.407 C 
ATOM     82  H   UNL A   1      29.925  23.154  24.992  1.00  0.00     0.167 HD
ATOM     83  O   UNL A   1      30.415  23.806  27.251  1.00  0.00    -0.225 OA
BRANCH  81  84
ATOM     84  O   UNL A   1      30.926  25.845  26.332  1.00  0.00    -0.445 OA
BRANCH  84  85
ATOM     85  C   UNL A   1      32.348  26.010  26.501  1.00  0.00     0.270 C 
BRANCH  85  86
ATOM     86  C   UNL A   1      32.734  27.452  26.685  1.00  0.00    -0.011 A 
ATOM     87  C   UNL A   1      34.027  27.900  26.393  1.00  0.00     0.007 A 
ATOM     88  C   UNL A   1      31.780  28.379  27.131  1.00  0.00     0.007 A 
ATOM     89  C   UNL A   1      34.351  29.253  26.526  1.00  0.00     0.000 A 
ATOM     90  C   UNL A   1      32.100  29.729  27.251  1.00  0.00     0.000 A 
ATOM     91  C   UNL A   1      33.386  30.167  26.944  1.00  0.00     0.000 A 
ENDBRANCH  85  86
ENDBRANCH  84  85
ENDBRANCH  81  84
ENDBRANCH  79  80
ENDBRANCH  76  79
ENDBRANCH  73  75
ENDBRANCH  70  73
ENDBRANCH   1  69
TORSDOF 20
ENDMDL
MODEL 2
REMARK VINA RESULT:     -10.5      2.141      2.718
REMARK SMILES CC(C)[C@H](NC(=O)[C@H](C)NC(=O)CNC(=O)OCc1ccccc1)C(=O)OCCOC(=O)c1ccc(-c2c3nc(c(-c4c(F)cccc4F)c4ccc([nH]4)c(-c4c(F)cccc4F)c4nc(c(-c5c(F)cccc5F)c5ccc2[nH]5)C=C4)C=C3)cc1
REMARK SMILES IDX 4 1 2 2 1 3 3 4 25 5 26 6 27 7 28 8 29 9 30 10 31 11 32 12
REMARK SMILES IDX 33 13 34 14 86 15 35 16 85 17 36 18 37 19 38 20 79 21 39 22
REMARK SMILES IDX 84 23 78 24 80 25 40 26 83 27 77 28 76 29 41 31 67 32 50 33
REMARK SMILES IDX 66 34 51 35 54 36 65 37 81 38 52 39 53 40 64 42 82 43 55 44
REMARK SMILES IDX 42 45 43 46 48 47 44 48 45 49 47 50 49 51 46 52 68 53 69 54
REMARK SMILES IDX 74 55 70 56 71 57 73 58 75 59 72 60 56 61 57 62 62 63 58 64
REMARK SMILES IDX 59 65 61 66 63 67 60 68 5 69 6 70 7 72 8 73 9 74 10 75 11 76
REMARK SMILES IDX 12 78 13 79 14 80 15 81 16 83 17 84 18 85 19 86 20 87 24 88
REMARK SMILES IDX 21 89 23 90 22 91
REMARK H PARENT 80 30 54 41 5 71 10 77 14 82
REMARK Flexibility Score: inf
ROOT
ATOM      1  C   UNL A   1      34.710  22.345  25.409  1.00  0.00     0.194 C 
ENDROOT
BRANCH   1   2
ATOM      2  C   UNL A   1      34.098  21.513  26.556  1.00  0.00     0.017 C 
ATOM      3  C   UNL A   1      33.334  22.273  27.648  1.00  0.00     0.010 C 
ATOM      4  C   UNL A   1      33.194  20.409  25.989  1.00  0.00     0.010 C 
ENDBRANCH   1   2
BRANCH   1   5
ATOM      5  C   UNL A   1      36.245  22.251  25.475  1.00  0.00     0.329 C 
ATOM      6  O   UNL A   1      36.972  23.239  25.496  1.00  0.00    -0.250 OA
BRANCH   5   7
ATOM      7  O   UNL A   1      36.696  20.968  25.544  1.00  0.00    -0.461 OA
BRANCH   7   8
ATOM      8  C   UNL A   1      37.918  20.724  24.825  1.00  0.00     0.274 C 
BRANCH   8   9
ATOM      9  C   UNL A   1      38.686  19.507  25.360  1.00  0.00     0.275 C 
BRANCH   9  10
ATOM     10  O   UNL A   1      39.563  19.818  26.463  1.00  0.00    -0.458 OA
BRANCH  10  11
ATOM     11  C   UNL A   1      40.886  19.689  26.203  1.00  0.00     0.338 C 
ATOM     12  O   UNL A   1      41.431  18.756  25.632  1.00  0.00    -0.246 OA
BRANCH  11  13
ATOM     13  C   UNL A   1      41.603  20.934  26.530  1.00  0.00     0.060 A 
ATOM     14  C   UNL A   1      41.948  21.158  27.866  1.00  0.00     0.016 A 
ATOM     15  C   UNL A   1      41.849  21.915  25.573  1.00  0.00     0.016 A 
ATOM     16  C   UNL A   1      42.522  22.353  28.268  1.00  0.00     0.010 A 
ATOM     17  C   UNL A   1      42.431  23.123  25.973  1.00  0.00     0.010 A 
ATOM     18  C   UNL A   1      42.758  23.351  27.325  1.00  0.00    -0.014 A 
BRANCH  18  19
ATOM     19  C   UNL A   1      43.265  24.666  27.774  1.00  0.00     0.031 A 
ATOM     20  C   UNL A   1      42.289  25.706  28.234  1.00  0.00     0.074 A 
ATOM     21  C   UNL A   1      44.587  24.909  27.795  1.00  0.00     0.049 A 
ATOM     22  N   UNL A   1      42.489  26.969  28.498  1.00  0.00    -0.248 NA
ATOM     23  C   UNL A   1      40.898  25.261  28.417  1.00  0.00     0.031 C 
ATOM     24  C   UNL A   1      45.632  23.940  27.461  1.00  0.00     0.029 A 
ATOM     25  N   UNL A   1      45.277  26.054  28.102  1.00  0.00    -0.354 N 
ATOM     26  C   UNL A   1      41.244  27.482  28.838  1.00  0.00     0.074 A 
ATOM     27  C   UNL A   1      40.294  26.395  28.743  1.00  0.00     0.031 C 
ATOM     28  C   UNL A   1      46.831  24.538  27.568  1.00  0.00     0.029 A 
ATOM     29  C   UNL A   1      46.632  25.942  27.909  1.00  0.00     0.049 A 
ATOM     30  H   UNL A   1      44.842  26.875  28.429  1.00  0.00     0.167 HD
ATOM     31  C   UNL A   1      40.929  28.750  29.193  1.00  0.00     0.037 A 
ATOM     32  C   UNL A   1      47.594  26.883  27.952  1.00  0.00     0.037 A 
ATOM     33  C   UNL A   1      41.894  29.813  29.304  1.00  0.00     0.049 A 
ATOM     34  C   UNL A   1      47.207  28.302  28.264  1.00  0.00     0.074 A 
ATOM     35  C   UNL A   1      41.685  31.134  29.654  1.00  0.00     0.029 A 
ATOM     36  N   UNL A   1      43.253  29.670  29.068  1.00  0.00    -0.354 N 
ATOM     37  N   UNL A   1      46.024  28.794  28.544  1.00  0.00    -0.248 NA
ATOM     38  C   UNL A   1      48.286  29.298  28.254  1.00  0.00     0.031 C 
ATOM     39  C   UNL A   1      42.912  31.802  29.585  1.00  0.00     0.029 A 
ATOM     40  C   UNL A   1      43.894  30.885  29.243  1.00  0.00     0.049 A 
ATOM     41  H   UNL A   1      43.697  28.829  28.814  1.00  0.00     0.167 HD
ATOM     42  C   UNL A   1      46.220  30.151  28.770  1.00  0.00     0.074 A 
ATOM     43  C   UNL A   1      47.637  30.401  28.605  1.00  0.00     0.031 C 
ATOM     44  C   UNL A   1      45.310  31.105  29.085  1.00  0.00     0.037 A 
BRANCH  31  45
ATOM     45  C   UNL A   1      39.482  29.063  29.435  1.00  0.00     0.057 A 
ATOM     46  C   UNL A   1      38.910  29.018  30.713  1.00  0.00     0.134 A 
ATOM     47  C   UNL A   1      38.652  29.434  28.369  1.00  0.00     0.134 A 
ATOM     48  F   UNL A   1      39.645  28.652  31.774  1.00  0.00    -0.206 F 
ATOM     49  C   UNL A   1      37.561  29.308  30.918  1.00  0.00     0.040 A 
ATOM     50  C   UNL A   1      37.307  29.752  28.566  1.00  0.00     0.040 A 
ATOM     51  F   UNL A   1      39.135  29.498  27.119  1.00  0.00    -0.206 F 
ATOM     52  C   UNL A   1      36.756  29.683  29.843  1.00  0.00     0.006 A 
ENDBRANCH  31  45
BRANCH  32  53
ATOM     53  C   UNL A   1      49.001  26.522  27.645  1.00  0.00     0.057 A 
ATOM     54  C   UNL A   1      49.464  26.468  26.327  1.00  0.00     0.134 A 
ATOM     55  C   UNL A   1      49.914  26.211  28.662  1.00  0.00     0.134 A 
ATOM     56  F   UNL A   1      48.634  26.732  25.308  1.00  0.00    -0.206 F 
ATOM     57  C   UNL A   1      50.779  26.105  26.028  1.00  0.00     0.040 A 
ATOM     58  C   UNL A   1      51.238  25.874  28.380  1.00  0.00     0.040 A 
ATOM     59  F   UNL A   1      49.534  26.245  29.948  1.00  0.00    -0.206 F 
ATOM     60  C   UNL A   1      51.672  25.812  27.058  1.00  0.00     0.006 A 
ENDBRANCH  32  53
BRANCH  44  61
ATOM     61  C   UNL A   1      45.826  32.493  29.317  1.00  0.00     0.057 A 
ATOM     62  C   UNL A   1      46.261  32.921  30.578  1.00  0.00     0.134 A 
ATOM     63  C   UNL A   1      45.933  33.397  28.253  1.00  0.00     0.134 A 
ATOM     64  F   UNL A   1      46.170  32.107  31.641  1.00  0.00    -0.206 F 
ATOM     65  C   UNL A   1      46.766  34.207  30.775  1.00  0.00     0.040 A 
ATOM     66  C   UNL A   1      46.463  34.675  28.432  1.00  0.00     0.040 A 
ATOM     67  F   UNL A   1      45.543  33.046  27.018  1.00  0.00    -0.206 F 
ATOM     68  C   UNL A   1      46.876  35.084  29.698  1.00  0.00     0.006 A 
ENDBRANCH  44  61
ENDBRANCH  18  19
ENDBRANCH  11  13
ENDBRANCH  10  11
ENDBRANCH   9  10
ENDBRANCH   8   9
ENDBRANCH   7   8
ENDBRANCH   5   7
ENDBRANCH   1   5
BRANCH   1  69
ATOM     69  N   UNL A   1      34.172  22.146  24.042  1.00  0.00    -0.341 N 
ATOM     70  C   UNL A   1      33.706  23.111  23.175  1.00  0.00     0.242 C 
ATOM     71  H   UNL A   1      34.144  21.218  23.715  1.00  0.00     0.164 HD
ATOM     72  O   UNL A   1      34.310  23.302  22.120  1.00  0.00    -0.273 OA
BRANCH  70  73
ATOM     73  C   UNL A   1      32.390  23.845  23.515  1.00  0.00     0.168 C 
ATOM     74  C   UNL A   1      31.339  22.859  24.018  1.00  0.00     0.041 C 
BRANCH  73  75
ATOM     75  N   UNL A   1      31.822  24.632  22.429  1.00  0.00    -0.343 N 
ATOM     76  C   UNL A   1      31.896  25.975  22.184  1.00  0.00     0.240 C 
ATOM     77  H   UNL A   1      31.304  24.118  21.769  1.00  0.00     0.164 HD
ATOM     78  O   UNL A   1      31.343  26.376  21.153  1.00  0.00    -0.273 OA
BRANCH  76  79
ATOM     79  C   UNL A   1      32.797  26.948  22.994  1.00  0.00     0.219 C 
BRANCH  79  80
ATOM     80  N   UNL A   1      32.366  27.325  24.324  1.00  0.00    -0.312 N 
ATOM     81  C   UNL A   1      31.626  28.400  24.726  1.00  0.00     0.407 C 
ATOM     82  H   UNL A   1      32.648  26.717  25.045  1.00  0.00     0.167 HD
ATOM     83  O   UNL A   1      31.497  28.638  25.912  1.00  0.00    -0.225 OA
BRANCH  81  84
ATOM     84  O   UNL A   1      31.192  29.193  23.707  1.00  0.00    -0.445 OA
BRANCH  84  85
ATOM     85  C   UNL A   1      29.792  29.062  23.390  1.00  0.00     0.270 C 
BRANCH  85  86
ATOM     86  C   UNL A   1      29.225  30.321  22.794  1.00  0.00    -0.011 A 
ATOM     87  C   UNL A   1      28.806  30.367  21.459  1.00  0.00     0.007 A 
ATOM     88  C   UNL A   1      29.084  31.468  23.589  1.00  0.00     0.007 A 
ATOM     89  C   UNL A   1      28.239  31.533  20.939  1.00  0.00     0.000 A 
ATOM     90  C   UNL A   1      28.507  32.626  23.073  1.00  0.00     0.000 A 
ATOM     91  C   UNL A   1      28.080  32.657  21.748  1.00  0.00     0.000 A 
ENDBRANCH  85  86
ENDBRANCH  84  85
ENDBRANCH  81  84
ENDBRANCH  79  80
ENDBRANCH  76  79
ENDBRANCH  73  75
ENDBRANCH  70  73
ENDBRANCH   1  69
TORSDOF 20
ENDMDL
MODEL 3
REMARK VINA RESULT:     -10.4      4.620      8.972
REMARK SMILES CC(C)[C@H](NC(=O)[C@H](C)NC(=O)CNC(=O)OCc1ccccc1)C(=O)OCCOC(=O)c1ccc(-c2c3nc(c(-c4c(F)cccc4F)c4ccc([nH]4)c(-c4c(F)cccc4F)c4nc(c(-c5c(F)cccc5F)c5ccc2[nH]5)C=C4)C=C3)cc1
REMARK SMILES IDX 4 1 2 2 1 3 3 4 25 5 26 6 27 7 28 8 29 9 30 10 31 11 32 12
REMARK SMILES IDX 33 13 34 14 86 15 35 16 85 17 36 18 37 19 38 20 79 21 39 22
REMARK SMILES IDX 84 23 78 24 80 25 40 26 83 27 77 28 76 29 41 31 67 32 50 33
REMARK SMILES IDX 66 34 51 35 54 36 65 37 81 38 52 39 53 40 64 42 82 43 55 44
REMARK SMILES IDX 42 45 43 46 48 47 44 48 45 49 47 50 49 51 46 52 68 53 69 54
REMARK SMILES IDX 74 55 70 56 71 57 73 58 75 59 72 60 56 61 57 62 62 63 58 64
REMARK SMILES IDX 59 65 61 66 63 67 60 68 5 69 6 70 7 72 8 73 9 74 10 75 11 76
REMARK SMILES IDX 12 78 13 79 14 80 15 81 16 83 17 84 18 85 19 86 20 87 24 88
REMARK SMILES IDX 21 89 23 90 22 91
REMARK H PARENT 80 30 54 41 5 71 10 77 14 82
REMARK Flexibility Score: inf
ROOT
ATOM      1  C   UNL A   1      32.753  28.745  25.743  1.00  0.00     0.194 C 
ENDROOT
BRANCH   1   2
ATOM      2  C   UNL A   1      32.487  27.821  26.949  1.00  0.00     0.017 C 
ATOM      3  C   UNL A   1      31.368  28.231  27.917  1.00  0.00     0.010 C 
ATOM      4  C   UNL A   1      32.235  26.383  26.473  1.00  0.00     0.010 C 
ENDBRANCH   1   2
BRANCH   1   5
ATOM      5  C   UNL A   1      32.950  30.188  26.240  1.00  0.00     0.329 C 
ATOM      6  O   UNL A   1      33.932  30.541  26.885  1.00  0.00    -0.250 OA
BRANCH   5   7
ATOM      7  O   UNL A   1      31.946  31.023  25.858  1.00  0.00    -0.461 OA
BRANCH   7   8
ATOM      8  C   UNL A   1      31.473  31.904  26.893  1.00  0.00     0.274 C 
BRANCH   8   9
ATOM      9  C   UNL A   1      32.155  33.280  26.856  1.00  0.00     0.275 C 
BRANCH   9  10
ATOM     10  O   UNL A   1      32.229  33.921  28.146  1.00  0.00    -0.458 OA
BRANCH  10  11
ATOM     11  C   UNL A   1      33.344  34.660  28.361  1.00  0.00     0.338 C 
ATOM     12  O   UNL A   1      33.421  35.879  28.376  1.00  0.00    -0.246 OA
BRANCH  11  13
ATOM     13  C   UNL A   1      34.466  33.798  28.776  1.00  0.00     0.060 A 
ATOM     14  C   UNL A   1      34.165  32.622  29.469  1.00  0.00     0.016 A 
ATOM     15  C   UNL A   1      35.793  34.174  28.583  1.00  0.00     0.016 A 
ATOM     16  C   UNL A   1      35.167  31.820  29.989  1.00  0.00     0.010 A 
ATOM     17  C   UNL A   1      36.810  33.365  29.104  1.00  0.00     0.010 A 
ATOM     18  C   UNL A   1      36.500  32.192  29.820  1.00  0.00    -0.014 A 
BRANCH  18  19
ATOM     19  C   UNL A   1      37.562  31.395  30.471  1.00  0.00     0.031 A 
ATOM     20  C   UNL A   1      37.883  31.648  31.913  1.00  0.00     0.074 A 
ATOM     21  C   UNL A   1      38.207  30.437  29.782  1.00  0.00     0.049 A 
ATOM     22  N   UNL A   1      38.880  31.201  32.629  1.00  0.00    -0.248 NA
ATOM     23  C   UNL A   1      36.957  32.527  32.644  1.00  0.00     0.031 C 
ATOM     24  C   UNL A   1      37.912  30.039  28.405  1.00  0.00     0.029 A 
ATOM     25  N   UNL A   1      39.253  29.630  30.147  1.00  0.00    -0.354 N 
ATOM     26  C   UNL A   1      38.726  31.777  33.883  1.00  0.00     0.074 A 
ATOM     27  C   UNL A   1      37.544  32.608  33.830  1.00  0.00     0.031 C 
ATOM     28  C   UNL A   1      38.769  29.072  28.037  1.00  0.00     0.029 A 
ATOM     29  C   UNL A   1      39.711  28.835  29.126  1.00  0.00     0.049 A 
ATOM     30  H   UNL A   1      39.639  29.622  31.054  1.00  0.00     0.167 HD
ATOM     31  C   UNL A   1      39.510  31.624  34.977  1.00  0.00     0.037 A 
ATOM     32  C   UNL A   1      40.800  28.046  29.062  1.00  0.00     0.037 A 
ATOM     33  C   UNL A   1      40.671  30.773  35.016  1.00  0.00     0.049 A 
ATOM     34  C   UNL A   1      41.703  27.958  30.261  1.00  0.00     0.074 A 
ATOM     35  C   UNL A   1      41.537  30.544  36.070  1.00  0.00     0.029 A 
ATOM     36  N   UNL A   1      41.124  30.009  33.951  1.00  0.00    -0.354 N 
ATOM     37  N   UNL A   1      41.581  28.536  31.432  1.00  0.00    -0.248 NA
ATOM     38  C   UNL A   1      42.902  27.121  30.126  1.00  0.00     0.031 C 
ATOM     39  C   UNL A   1      42.541  29.676  35.627  1.00  0.00     0.029 A 
ATOM     40  C   UNL A   1      42.270  29.323  34.314  1.00  0.00     0.049 A 
ATOM     41  H   UNL A   1      40.692  29.960  33.067  1.00  0.00     0.167 HD
ATOM     42  C   UNL A   1      42.670  28.111  32.182  1.00  0.00     0.074 A 
ATOM     43  C   UNL A   1      43.436  27.219  31.336  1.00  0.00     0.031 C 
ATOM     44  C   UNL A   1      43.007  28.430  33.456  1.00  0.00     0.037 A 
BRANCH  31  45
ATOM     45  C   UNL A   1      39.165  32.429  36.195  1.00  0.00     0.057 A 
ATOM     46  C   UNL A   1      38.290  31.956  37.181  1.00  0.00     0.134 A 
ATOM     47  C   UNL A   1      39.737  33.693  36.390  1.00  0.00     0.134 A 
ATOM     48  F   UNL A   1      37.695  30.762  37.046  1.00  0.00    -0.206 F 
ATOM     49  C   UNL A   1      37.978  32.722  38.306  1.00  0.00     0.040 A 
ATOM     50  C   UNL A   1      39.453  34.456  37.524  1.00  0.00     0.040 A 
ATOM     51  F   UNL A   1      40.584  34.205  35.485  1.00  0.00    -0.206 F 
ATOM     52  C   UNL A   1      38.565  33.974  38.483  1.00  0.00     0.006 A 
ENDBRANCH  31  45
BRANCH  32  53
ATOM     53  C   UNL A   1      41.120  27.320  27.808  1.00  0.00     0.057 A 
ATOM     54  C   UNL A   1      41.915  27.902  26.815  1.00  0.00     0.134 A 
ATOM     55  C   UNL A   1      40.630  26.029  27.565  1.00  0.00     0.134 A 
ATOM     56  F   UNL A   1      42.395  29.143  26.977  1.00  0.00    -0.206 F 
ATOM     57  C   UNL A   1      42.199  27.236  25.621  1.00  0.00     0.040 A 
ATOM     58  C   UNL A   1      40.929  25.341  26.389  1.00  0.00     0.040 A 
ATOM     59  F   UNL A   1      39.862  25.413  28.476  1.00  0.00    -0.206 F 
ATOM     60  C   UNL A   1      41.710  25.948  25.409  1.00  0.00     0.006 A 
ENDBRANCH  32  53
BRANCH  44  61
ATOM     61  C   UNL A   1      44.230  27.774  34.024  1.00  0.00     0.057 A 
ATOM     62  C   UNL A   1      45.488  28.388  33.984  1.00  0.00     0.134 A 
ATOM     63  C   UNL A   1      44.135  26.530  34.663  1.00  0.00     0.134 A 
ATOM     64  F   UNL A   1      45.647  29.572  33.374  1.00  0.00    -0.206 F 
ATOM     65  C   UNL A   1      46.613  27.779  34.543  1.00  0.00     0.040 A 
ATOM     66  C   UNL A   1      45.247  25.926  35.249  1.00  0.00     0.040 A 
ATOM     67  F   UNL A   1      42.957  25.894  34.744  1.00  0.00    -0.206 F 
ATOM     68  C   UNL A   1      46.491  26.549  35.185  1.00  0.00     0.006 A 
ENDBRANCH  44  61
ENDBRANCH  18  19
ENDBRANCH  11  13
ENDBRANCH  10  11
ENDBRANCH   9  10
ENDBRANCH   8   9
ENDBRANCH   7   8
ENDBRANCH   5   7
ENDBRANCH   1   5
BRANCH   1  69
ATOM     69  N   UNL A   1      33.778  28.323  24.757  1.00  0.00    -0.341 N 
ATOM     70  C   UNL A   1      33.598  28.075  23.413  1.00  0.00     0.242 C 
ATOM     71  H   UNL A   1      34.693  28.207  25.101  1.00  0.00     0.164 HD
ATOM     72  O   UNL A   1      34.162  28.800  22.595  1.00  0.00    -0.273 OA
BRANCH  70  73
ATOM     73  C   UNL A   1      32.774  26.839  22.987  1.00  0.00     0.168 C 
ATOM     74  C   UNL A   1      33.008  26.521  21.513  1.00  0.00     0.041 C 
BRANCH  73  75
ATOM     75  N   UNL A   1      31.342  26.936  23.231  1.00  0.00    -0.343 N 
ATOM     76  C   UNL A   1      30.392  25.954  23.296  1.00  0.00     0.240 C 
ATOM     77  H   UNL A   1      31.004  27.850  23.370  1.00  0.00     0.164 HD
ATOM     78  O   UNL A   1      29.241  26.322  23.558  1.00  0.00    -0.273 OA
BRANCH  76  79
ATOM     79  C   UNL A   1      30.724  24.437  23.277  1.00  0.00     0.219 C 
BRANCH  79  80
ATOM     80  N   UNL A   1      30.378  23.651  24.444  1.00  0.00    -0.312 N 
ATOM     81  C   UNL A   1      31.193  23.053  25.362  1.00  0.00     0.407 C 
ATOM     82  H   UNL A   1      29.413  23.530  24.597  1.00  0.00     0.167 HD
ATOM     83  O   UNL A   1      30.721  22.297  26.190  1.00  0.00    -0.225 OA
BRANCH  81  84
ATOM     84  O   UNL A   1      32.521  23.286  25.167  1.00  0.00    -0.445 OA
BRANCH  84  85
ATOM     85  C   UNL A   1      33.381  22.162  25.440  1.00  0.00     0.270 C 
BRANCH  85  86
ATOM     86  C   UNL A   1      34.835  22.507  25.272  1.00  0.00    -0.011 A 
ATOM     87  C   UNL A   1      35.562  22.059  24.162  1.00  0.00     0.007 A 
ATOM     88  C   UNL A   1      35.476  23.313  26.223  1.00  0.00     0.007 A 
ATOM     89  C   UNL A   1      36.899  22.431  24.001  1.00  0.00     0.000 A 
ATOM     90  C   UNL A   1      36.806  23.693  26.054  1.00  0.00     0.000 A 
ATOM     91  C   UNL A   1      37.517  23.255  24.940  1.00  0.00     0.000 A 
ENDBRANCH  85  86
ENDBRANCH  84  85
ENDBRANCH  81  84
ENDBRANCH  79  80
ENDBRANCH  76  79
ENDBRANCH  73  75
ENDBRANCH  70  73
ENDBRANCH   1  69
TORSDOF 20
ENDMDL
