MODEL 1
REMARK VINA RESULT:     -11.1      0.000      0.000
REMARK SMILES Nc1ccc(O)c(C(=O)OCCOC(=O)c2ccc(-c3c4nc(c(-c5c(F)cccc5F)c5ccc([nH]5)c(-c5c(F)cccc5F)c5nc(c(-c6c(F)cccc6F)c6ccc3[nH]6)C=C5)C=C4)cc2)c1
REMARK SMILES IDX 12 1 11 2 10 3 8 4 9 5 7 6 2 7 3 8 70 9 4 10 5 11 1 12 6 15
REMARK SMILES IDX 13 17 14 18 15 19 16 20 17 21 69 22 18 23 68 24 19 25 20 26
REMARK SMILES IDX 21 27 62 28 22 29 67 30 61 31 63 32 23 33 66 34 60 35 59 36
REMARK SMILES IDX 24 38 50 39 33 40 49 41 34 42 37 43 48 44 64 45 35 46 36 47
REMARK SMILES IDX 47 49 65 50 38 51 25 52 26 53 31 54 27 55 28 56 30 57 32 58
REMARK SMILES IDX 29 59 51 60 52 61 57 62 53 63 54 64 56 65 58 66 55 67 39 68
REMARK SMILES IDX 40 69 45 70 41 71 42 72 44 73 46 74 43 75
REMARK H PARENT 1 13 1 14 6 16 63 37 37 48
REMARK Flexibility Score: inf
ROOT
ATOM      1  C   UNL A   1      31.823  29.823  25.620  1.00  0.00     0.275 C 
ENDROOT
BRANCH   1   2
ATOM      2  C   UNL A   1      32.384  28.535  25.010  1.00  0.00     0.275 C 
BRANCH   2   3
ATOM      3  O   UNL A   1      31.338  27.646  24.557  1.00  0.00    -0.458 OA
BRANCH   3   4
ATOM      4  C   UNL A   1      31.141  27.608  23.218  1.00  0.00     0.342 C 
ATOM      5  O   UNL A   1      31.856  27.043  22.402  1.00  0.00    -0.246 OA
BRANCH   4   6
ATOM      6  C   UNL A   1      29.923  28.353  22.839  1.00  0.00     0.103 A 
ATOM      7  C   UNL A   1      27.524  28.651  23.059  1.00  0.00     0.032 A 
ATOM      8  C   UNL A   1      27.653  29.947  22.550  1.00  0.00     0.029 A 
ATOM      9  C   UNL A   1      28.674  27.877  23.255  1.00  0.00     0.045 A 
ATOM     10  C   UNL A   1      28.887  30.419  22.115  1.00  0.00     0.049 A 
ATOM     11  C   UNL A   1      30.004  29.602  22.218  1.00  0.00     0.130 A 
BRANCH   7  12
ATOM     12  N   UNL A   1      26.288  28.203  23.501  1.00  0.00    -0.399 N 
ATOM     13  H   UNL A   1      26.074  27.243  23.472  1.00  0.00     0.156 HD
ATOM     14  H   UNL A   1      25.626  28.846  23.844  1.00  0.00     0.156 HD
ENDBRANCH   7  12
BRANCH  11  15
ATOM     15  O   UNL A   1      31.133  30.078  21.626  1.00  0.00    -0.507 OA
ATOM     16  H   UNL A   1      31.974  29.852  21.971  1.00  0.00     0.293 HD
ENDBRANCH  11  15
ENDBRANCH   4   6
ENDBRANCH   3   4
ENDBRANCH   2   3
ENDBRANCH   1   2
BRANCH   1  17
ATOM     17  O   UNL A   1      32.278  30.025  26.973  1.00  0.00    -0.458 OA
BRANCH  17  18
ATOM     18  C   UNL A   1      32.928  31.187  27.184  1.00  0.00     0.338 C 
ATOM     19  O   UNL A   1      32.452  32.308  27.251  1.00  0.00    -0.246 OA
BRANCH  18  20
ATOM     20  C   UNL A   1      34.347  30.961  27.488  1.00  0.00     0.060 A 
ATOM     21  C   UNL A   1      34.734  29.645  27.708  1.00  0.00     0.016 A 
ATOM     22  C   UNL A   1      35.176  32.012  27.879  1.00  0.00     0.016 A 
ATOM     23  C   UNL A   1      35.861  29.380  28.474  1.00  0.00     0.010 A 
ATOM     24  C   UNL A   1      36.393  31.729  28.517  1.00  0.00     0.010 A 
ATOM     25  C   UNL A   1      36.727  30.408  28.871  1.00  0.00    -0.014 A 
BRANCH  25  26
ATOM     26  C   UNL A   1      37.943  30.079  29.672  1.00  0.00     0.031 A 
ATOM     27  C   UNL A   1      39.060  29.250  29.090  1.00  0.00     0.074 A 
ATOM     28  C   UNL A   1      38.079  30.571  30.922  1.00  0.00     0.049 A 
ATOM     29  N   UNL A   1      40.098  28.720  29.693  1.00  0.00    -0.248 NA
ATOM     30  C   UNL A   1      39.002  28.964  27.648  1.00  0.00     0.031 C 
ATOM     31  C   UNL A   1      37.110  31.434  31.605  1.00  0.00     0.029 A 
ATOM     32  N   UNL A   1      39.097  30.441  31.835  1.00  0.00    -0.354 N 
ATOM     33  C   UNL A   1      40.773  27.988  28.724  1.00  0.00     0.074 A 
ATOM     34  C   UNL A   1      40.036  28.147  27.488  1.00  0.00     0.031 C 
ATOM     35  C   UNL A   1      37.609  31.813  32.789  1.00  0.00     0.029 A 
ATOM     36  C   UNL A   1      38.874  31.124  33.007  1.00  0.00     0.049 A 
ATOM     37  H   UNL A   1      39.908  29.909  31.667  1.00  0.00     0.167 HD
ATOM     38  C   UNL A   1      41.900  27.246  28.857  1.00  0.00     0.037 A 
ATOM     39  C   UNL A   1      39.572  31.156  34.157  1.00  0.00     0.037 A 
ATOM     40  C   UNL A   1      42.673  27.151  30.071  1.00  0.00     0.049 A 
ATOM     41  C   UNL A   1      40.806  30.316  34.285  1.00  0.00     0.074 A 
ATOM     42  C   UNL A   1      43.829  26.424  30.304  1.00  0.00     0.029 A 
ATOM     43  N   UNL A   1      42.385  27.828  31.246  1.00  0.00    -0.354 N 
ATOM     44  N   UNL A   1      41.374  29.545  33.392  1.00  0.00    -0.248 NA
ATOM     45  C   UNL A   1      41.475  30.323  35.592  1.00  0.00     0.031 C 
ATOM     46  C   UNL A   1      44.225  26.641  31.629  1.00  0.00     0.029 A 
ATOM     47  C   UNL A   1      43.337  27.531  32.209  1.00  0.00     0.049 A 
ATOM     48  H   UNL A   1      41.618  28.430  31.378  1.00  0.00     0.167 HD
ATOM     49  C   UNL A   1      42.465  28.972  34.027  1.00  0.00     0.074 A 
ATOM     50  C   UNL A   1      42.497  29.507  35.372  1.00  0.00     0.031 C 
ATOM     51  C   UNL A   1      43.353  28.071  33.543  1.00  0.00     0.037 A 
BRANCH  38  52
ATOM     52  C   UNL A   1      42.357  26.443  27.674  1.00  0.00     0.057 A 
ATOM     53  C   UNL A   1      41.928  25.130  27.449  1.00  0.00     0.134 A 
ATOM     54  C   UNL A   1      43.194  27.023  26.710  1.00  0.00     0.134 A 
ATOM     55  F   UNL A   1      41.134  24.513  28.337  1.00  0.00    -0.206 F 
ATOM     56  C   UNL A   1      42.325  24.417  26.314  1.00  0.00     0.040 A 
ATOM     57  C   UNL A   1      43.579  26.329  25.562  1.00  0.00     0.040 A 
ATOM     58  F   UNL A   1      43.635  28.281  26.860  1.00  0.00    -0.206 F 
ATOM     59  C   UNL A   1      43.147  25.020  25.363  1.00  0.00     0.006 A 
ENDBRANCH  38  52
BRANCH  39  60
ATOM     60  C   UNL A   1      39.073  31.963  35.299  1.00  0.00     0.057 A 
ATOM     61  C   UNL A   1      39.343  33.331  35.395  1.00  0.00     0.134 A 
ATOM     62  C   UNL A   1      38.293  31.386  36.311  1.00  0.00     0.134 A 
ATOM     63  F   UNL A   1      40.106  33.935  34.471  1.00  0.00    -0.206 F 
ATOM     64  C   UNL A   1      38.861  34.098  36.456  1.00  0.00     0.040 A 
ATOM     65  C   UNL A   1      37.778  32.146  37.360  1.00  0.00     0.040 A 
ATOM     66  F   UNL A   1      37.996  30.078  36.276  1.00  0.00    -0.206 F 
ATOM     67  C   UNL A   1      38.066  33.507  37.437  1.00  0.00     0.006 A 
ENDBRANCH  39  60
BRANCH  51  68
ATOM     68  C   UNL A   1      44.440  27.630  34.473  1.00  0.00     0.057 A 
ATOM     69  C   UNL A   1      45.649  28.331  34.574  1.00  0.00     0.134 A 
ATOM     70  C   UNL A   1      44.274  26.500  35.281  1.00  0.00     0.134 A 
ATOM     71  F   UNL A   1      45.873  29.412  33.813  1.00  0.00    -0.206 F 
ATOM     72  C   UNL A   1      46.664  27.908  35.432  1.00  0.00     0.040 A 
ATOM     73  C   UNL A   1      45.275  26.079  36.158  1.00  0.00     0.040 A 
ATOM     74  F   UNL A   1      43.138  25.787  35.233  1.00  0.00    -0.206 F 
ATOM     75  C   UNL A   1      46.477  26.781  36.229  1.00  0.00     0.006 A 
ENDBRANCH  51  68
ENDBRANCH  25  26
ENDBRANCH  18  20
ENDBRANCH  17  18
ENDBRANCH   1  17
TORSDOF 13
ENDMDL
MODEL 2
REMARK VINA RESULT:     -11.0      5.500      9.714
REMARK SMILES Nc1ccc(O)c(C(=O)OCCOC(=O)c2ccc(-c3c4nc(c(-c5c(F)cccc5F)c5ccc([nH]5)c(-c5c(F)cccc5F)c5nc(c(-c6c(F)cccc6F)c6ccc3[nH]6)C=C5)C=C4)cc2)c1
REMARK SMILES IDX 12 1 11 2 10 3 8 4 9 5 7 6 2 7 3 8 70 9 4 10 5 11 1 12 6 15
REMARK SMILES IDX 13 17 14 18 15 19 16 20 17 21 69 22 18 23 68 24 19 25 20 26
REMARK SMILES IDX 21 27 62 28 22 29 67 30 61 31 63 32 23 33 66 34 60 35 59 36
REMARK SMILES IDX 24 38 50 39 33 40 49 41 34 42 37 43 48 44 64 45 35 46 36 47
REMARK SMILES IDX 47 49 65 50 38 51 25 52 26 53 31 54 27 55 28 56 30 57 32 58
REMARK SMILES IDX 29 59 51 60 52 61 57 62 53 63 54 64 56 65 58 66 55 67 39 68
REMARK SMILES IDX 40 69 45 70 41 71 42 72 44 73 46 74 43 75
REMARK H PARENT 1 13 1 14 6 16 63 37 37 48
REMARK Flexibility Score: inf
ROOT
ATOM      1  C   UNL A   1      36.497  20.675  25.012  1.00  0.00     0.275 C 
ENDROOT
BRANCH   1   2
ATOM      2  C   UNL A   1      35.413  21.500  25.712  1.00  0.00     0.275 C 
BRANCH   2   3
ATOM      3  O   UNL A   1      34.270  21.733  24.859  1.00  0.00    -0.458 OA
BRANCH   3   4
ATOM      4  C   UNL A   1      33.084  21.282  25.332  1.00  0.00     0.342 C 
ATOM      5  O   UNL A   1      32.362  21.860  26.133  1.00  0.00    -0.246 OA
BRANCH   4   6
ATOM      6  C   UNL A   1      32.746  19.967  24.751  1.00  0.00     0.103 A 
ATOM      7  C   UNL A   1      32.323  18.621  22.775  1.00  0.00     0.032 A 
ATOM      8  C   UNL A   1      32.558  17.467  23.529  1.00  0.00     0.029 A 
ATOM      9  C   UNL A   1      32.475  19.874  23.381  1.00  0.00     0.045 A 
ATOM     10  C   UNL A   1      32.807  17.550  24.894  1.00  0.00     0.049 A 
ATOM     11  C   UNL A   1      32.852  18.796  25.505  1.00  0.00     0.130 A 
BRANCH   7  12
ATOM     12  N   UNL A   1      32.091  18.520  21.412  1.00  0.00    -0.399 N 
ATOM     13  H   UNL A   1      31.325  18.986  21.007  1.00  0.00     0.156 HD
ATOM     14  H   UNL A   1      32.693  17.981  20.849  1.00  0.00     0.156 HD
ENDBRANCH   7  12
BRANCH  11  15
ATOM     15  O   UNL A   1      32.941  18.778  26.863  1.00  0.00    -0.507 OA
ATOM     16  H   UNL A   1      33.779  18.718  27.277  1.00  0.00     0.293 HD
ENDBRANCH  11  15
ENDBRANCH   4   6
ENDBRANCH   3   4
ENDBRANCH   2   3
ENDBRANCH   1   2
BRANCH   1  17
ATOM     17  O   UNL A   1      37.720  21.419  24.843  1.00  0.00    -0.458 OA
BRANCH  17  18
ATOM     18  C   UNL A   1      38.723  21.051  25.665  1.00  0.00     0.338 C 
ATOM     19  O   UNL A   1      39.303  19.978  25.703  1.00  0.00    -0.246 OA
BRANCH  18  20
ATOM     20  C   UNL A   1      39.192  22.180  26.478  1.00  0.00     0.060 A 
ATOM     21  C   UNL A   1      38.675  23.430  26.164  1.00  0.00     0.016 A 
ATOM     22  C   UNL A   1      40.333  22.071  27.272  1.00  0.00     0.016 A 
ATOM     23  C   UNL A   1      39.394  24.572  26.491  1.00  0.00     0.010 A 
ATOM     24  C   UNL A   1      40.968  23.235  27.730  1.00  0.00     0.010 A 
ATOM     25  C   UNL A   1      40.537  24.504  27.300  1.00  0.00    -0.014 A 
BRANCH  25  26
ATOM     26  C   UNL A   1      41.267  25.757  27.651  1.00  0.00     0.031 A 
ATOM     27  C   UNL A   1      40.637  26.808  28.531  1.00  0.00     0.074 A 
ATOM     28  C   UNL A   1      42.534  25.941  27.221  1.00  0.00     0.049 A 
ATOM     29  N   UNL A   1      41.049  28.026  28.790  1.00  0.00    -0.248 NA
ATOM     30  C   UNL A   1      39.374  26.455  29.198  1.00  0.00     0.031 C 
ATOM     31  C   UNL A   1      43.300  24.992  26.408  1.00  0.00     0.029 A 
ATOM     32  N   UNL A   1      43.414  26.974  27.429  1.00  0.00    -0.354 N 
ATOM     33  C   UNL A   1      40.069  28.602  29.588  1.00  0.00     0.074 A 
ATOM     34  C   UNL A   1      39.042  27.599  29.782  1.00  0.00     0.031 C 
ATOM     35  C   UNL A   1      44.549  25.450  26.249  1.00  0.00     0.029 A 
ATOM     36  C   UNL A   1      44.640  26.778  26.840  1.00  0.00     0.049 A 
ATOM     37  H   UNL A   1      43.189  27.779  27.949  1.00  0.00     0.167 HD
ATOM     38  C   UNL A   1      40.026  29.855  30.104  1.00  0.00     0.037 A 
ATOM     39  C   UNL A   1      45.708  27.590  26.730  1.00  0.00     0.037 A 
ATOM     40  C   UNL A   1      41.084  30.826  29.971  1.00  0.00     0.049 A 
ATOM     41  C   UNL A   1      45.632  28.975  27.295  1.00  0.00     0.074 A 
ATOM     42  C   UNL A   1      41.134  32.122  30.458  1.00  0.00     0.029 A 
ATOM     43  N   UNL A   1      42.291  30.596  29.329  1.00  0.00    -0.354 N 
ATOM     44  N   UNL A   1      44.654  29.543  27.957  1.00  0.00    -0.248 NA
ATOM     45  C   UNL A   1      46.793  29.845  27.067  1.00  0.00     0.031 C 
ATOM     46  C   UNL A   1      42.360  32.685  30.086  1.00  0.00     0.029 A 
ATOM     47  C   UNL A   1      43.089  31.728  29.401  1.00  0.00     0.049 A 
ATOM     48  H   UNL A   1      42.544  29.754  28.886  1.00  0.00     0.167 HD
ATOM     49  C   UNL A   1      45.078  30.835  28.223  1.00  0.00     0.074 A 
ATOM     50  C   UNL A   1      46.414  30.960  27.677  1.00  0.00     0.031 C 
ATOM     51  C   UNL A   1      44.414  31.835  28.851  1.00  0.00     0.037 A 
BRANCH  38  52
ATOM     52  C   UNL A   1      38.783  30.273  30.834  1.00  0.00     0.057 A 
ATOM     53  C   UNL A   1      37.699  30.876  30.185  1.00  0.00     0.134 A 
ATOM     54  C   UNL A   1      38.648  30.007  32.204  1.00  0.00     0.134 A 
ATOM     55  F   UNL A   1      37.767  31.167  28.877  1.00  0.00    -0.206 F 
ATOM     56  C   UNL A   1      36.531  31.212  30.874  1.00  0.00     0.040 A 
ATOM     57  C   UNL A   1      37.477  30.317  32.899  1.00  0.00     0.040 A 
ATOM     58  F   UNL A   1      39.644  29.423  32.885  1.00  0.00    -0.206 F 
ATOM     59  C   UNL A   1      36.415  30.925  32.233  1.00  0.00     0.006 A 
ENDBRANCH  38  52
BRANCH  39  60
ATOM     60  C   UNL A   1      46.911  27.129  25.992  1.00  0.00     0.057 A 
ATOM     61  C   UNL A   1      47.052  27.355  24.620  1.00  0.00     0.134 A 
ATOM     62  C   UNL A   1      47.959  26.472  26.649  1.00  0.00     0.134 A 
ATOM     63  F   UNL A   1      46.071  27.957  23.930  1.00  0.00    -0.206 F 
ATOM     64  C   UNL A   1      48.190  26.941  23.925  1.00  0.00     0.040 A 
ATOM     65  C   UNL A   1      49.114  26.080  25.975  1.00  0.00     0.040 A 
ATOM     66  F   UNL A   1      47.885  26.226  27.967  1.00  0.00    -0.206 F 
ATOM     67  C   UNL A   1      49.230  26.311  24.606  1.00  0.00     0.006 A 
ENDBRANCH  39  60
BRANCH  51  68
ATOM     68  C   UNL A   1      45.137  33.139  28.994  1.00  0.00     0.057 A 
ATOM     69  C   UNL A   1      44.982  34.170  28.059  1.00  0.00     0.134 A 
ATOM     70  C   UNL A   1      45.990  33.368  30.079  1.00  0.00     0.134 A 
ATOM     71  F   UNL A   1      44.191  34.003  26.988  1.00  0.00    -0.206 F 
ATOM     72  C   UNL A   1      45.668  35.378  28.188  1.00  0.00     0.040 A 
ATOM     73  C   UNL A   1      46.667  34.579  30.230  1.00  0.00     0.040 A 
ATOM     74  F   UNL A   1      46.179  32.420  31.010  1.00  0.00    -0.206 F 
ATOM     75  C   UNL A   1      46.511  35.585  29.279  1.00  0.00     0.006 A 
ENDBRANCH  51  68
ENDBRANCH  25  26
ENDBRANCH  18  20
ENDBRANCH  17  18
ENDBRANCH   1  17
TORSDOF 13
ENDMDL
MODEL 3
REMARK VINA RESULT:     -10.9      5.405      9.112
REMARK SMILES Nc1ccc(O)c(C(=O)OCCOC(=O)c2ccc(-c3c4nc(c(-c5c(F)cccc5F)c5ccc([nH]5)c(-c5c(F)cccc5F)c5nc(c(-c6c(F)cccc6F)c6ccc3[nH]6)C=C5)C=C4)cc2)c1
REMARK SMILES IDX 12 1 11 2 10 3 8 4 9 5 7 6 2 7 3 8 70 9 4 10 5 11 1 12 6 15
REMARK SMILES IDX 13 17 14 18 15 19 16 20 17 21 69 22 18 23 68 24 19 25 20 26
REMARK SMILES IDX 21 27 62 28 22 29 67 30 61 31 63 32 23 33 66 34 60 35 59 36
REMARK SMILES IDX 24 38 50 39 33 40 49 41 34 42 37 43 48 44 64 45 35 46 36 47
REMARK SMILES IDX 47 49 65 50 38 51 25 52 26 53 31 54 27 55 28 56 30 57 32 58
REMARK SMILES IDX 29 59 51 60 52 61 57 62 53 63 54 64 56 65 58 66 55 67 39 68
REMARK SMILES IDX 40 69 45 70 41 71 42 72 44 73 46 74 43 75
REMARK H PARENT 1 13 1 14 6 16 63 37 37 48
REMARK Flexibility Score: inf
ROOT
ATOM      1  C   UNL A   1      34.734  33.393  28.641  1.00  0.00     0.275 C 
ENDROOT
BRANCH   1   2
ATOM      2  C   UNL A   1      33.362  33.897  28.183  1.00  0.00     0.275 C 
BRANCH   2   3
ATOM      3  O   UNL A   1      32.634  34.544  29.250  1.00  0.00    -0.458 OA
BRANCH   3   4
ATOM      4  C   UNL A   1      33.039  35.798  29.560  1.00  0.00     0.342 C 
ATOM      5  O   UNL A   1      33.176  36.725  28.773  1.00  0.00    -0.246 OA
BRANCH   4   6
ATOM      6  C   UNL A   1      33.307  35.928  31.006  1.00  0.00     0.103 A 
ATOM      7  C   UNL A   1      34.017  34.891  33.084  1.00  0.00     0.032 A 
ATOM      8  C   UNL A   1      34.263  36.161  33.616  1.00  0.00     0.029 A 
ATOM      9  C   UNL A   1      33.592  34.780  31.755  1.00  0.00     0.045 A 
ATOM     10  C   UNL A   1      33.962  37.306  32.888  1.00  0.00     0.049 A 
ATOM     11  C   UNL A   1      33.441  37.182  31.606  1.00  0.00     0.130 A 
BRANCH   7  12
ATOM     12  N   UNL A   1      34.337  33.760  33.820  1.00  0.00    -0.399 N 
ATOM     13  H   UNL A   1      35.158  33.743  34.362  1.00  0.00     0.156 HD
ATOM     14  H   UNL A   1      33.743  32.976  33.800  1.00  0.00     0.156 HD
ENDBRANCH   7  12
BRANCH  11  15
ATOM     15  O   UNL A   1      33.028  38.343  31.028  1.00  0.00    -0.507 OA
ATOM     16  H   UNL A   1      32.729  38.344  30.141  1.00  0.00     0.293 HD
ENDBRANCH  11  15
ENDBRANCH   4   6
ENDBRANCH   3   4
ENDBRANCH   2   3
ENDBRANCH   1   2
BRANCH   1  17
ATOM     17  O   UNL A   1      34.718  31.986  28.955  1.00  0.00    -0.458 OA
BRANCH  17  18
ATOM     18  C   UNL A   1      35.437  31.642  30.042  1.00  0.00     0.338 C 
ATOM     19  O   UNL A   1      35.206  31.916  31.209  1.00  0.00    -0.246 OA
BRANCH  18  20
ATOM     20  C   UNL A   1      36.527  30.722  29.696  1.00  0.00     0.060 A 
ATOM     21  C   UNL A   1      37.205  30.133  30.756  1.00  0.00     0.016 A 
ATOM     22  C   UNL A   1      37.078  30.707  28.415  1.00  0.00     0.016 A 
ATOM     23  C   UNL A   1      38.507  29.689  30.576  1.00  0.00     0.010 A 
ATOM     24  C   UNL A   1      38.334  30.114  28.212  1.00  0.00     0.010 A 
ATOM     25  C   UNL A   1      39.090  29.644  29.302  1.00  0.00    -0.014 A 
BRANCH  25  26
ATOM     26  C   UNL A   1      40.484  29.134  29.146  1.00  0.00     0.031 A 
ATOM     27  C   UNL A   1      41.674  30.019  29.426  1.00  0.00     0.074 A 
ATOM     28  C   UNL A   1      40.696  27.847  28.800  1.00  0.00     0.049 A 
ATOM     29  N   UNL A   1      42.943  29.803  29.173  1.00  0.00    -0.248 NA
ATOM     30  C   UNL A   1      41.409  31.320  30.059  1.00  0.00     0.031 C 
ATOM     31  C   UNL A   1      39.648  26.852  28.549  1.00  0.00     0.029 A 
ATOM     32  N   UNL A   1      41.861  27.142  28.625  1.00  0.00    -0.354 N 
ATOM     33  C   UNL A   1      43.613  30.959  29.551  1.00  0.00     0.074 A 
ATOM     34  C   UNL A   1      42.614  31.875  30.061  1.00  0.00     0.031 C 
ATOM     35  C   UNL A   1      40.213  25.659  28.326  1.00  0.00     0.029 A 
ATOM     36  C   UNL A   1      41.660  25.823  28.294  1.00  0.00     0.049 A 
ATOM     37  H   UNL A   1      42.754  27.542  28.725  1.00  0.00     0.167 HD
ATOM     38  C   UNL A   1      44.938  31.234  29.472  1.00  0.00     0.037 A 
ATOM     39  C   UNL A   1      42.530  24.857  27.946  1.00  0.00     0.037 A 
ATOM     40  C   UNL A   1      45.939  30.292  29.034  1.00  0.00     0.049 A 
ATOM     41  C   UNL A   1      43.988  25.187  27.851  1.00  0.00     0.074 A 
ATOM     42  C   UNL A   1      47.307  30.477  28.919  1.00  0.00     0.029 A 
ATOM     43  N   UNL A   1      45.683  28.980  28.669  1.00  0.00    -0.354 N 
ATOM     44  N   UNL A   1      44.595  26.319  28.110  1.00  0.00    -0.248 NA
ATOM     45  C   UNL A   1      44.878  24.118  27.381  1.00  0.00     0.031 C 
ATOM     46  C   UNL A   1      47.875  29.284  28.458  1.00  0.00     0.029 A 
ATOM     47  C   UNL A   1      46.866  28.345  28.322  1.00  0.00     0.049 A 
ATOM     48  H   UNL A   1      44.793  28.560  28.657  1.00  0.00     0.167 HD
ATOM     49  C   UNL A   1      45.935  26.101  27.833  1.00  0.00     0.074 A 
ATOM     50  C   UNL A   1      46.059  24.720  27.414  1.00  0.00     0.031 C 
ATOM     51  C   UNL A   1      46.970  26.972  27.905  1.00  0.00     0.037 A 
BRANCH  38  52
ATOM     52  C   UNL A   1      45.392  32.618  29.832  1.00  0.00     0.057 A 
ATOM     53  C   UNL A   1      45.404  33.668  28.906  1.00  0.00     0.134 A 
ATOM     54  C   UNL A   1      45.766  32.917  31.150  1.00  0.00     0.134 A 
ATOM     55  F   UNL A   1      45.068  33.449  27.626  1.00  0.00    -0.206 F 
ATOM     56  C   UNL A   1      45.782  34.962  29.274  1.00  0.00     0.040 A 
ATOM     57  C   UNL A   1      46.124  34.210  31.536  1.00  0.00     0.040 A 
ATOM     58  F   UNL A   1      45.769  31.960  32.090  1.00  0.00    -0.206 F 
ATOM     59  C   UNL A   1      46.137  35.237  30.595  1.00  0.00     0.006 A 
ENDBRANCH  38  52
BRANCH  39  60
ATOM     60  C   UNL A   1      42.027  23.505  27.594  1.00  0.00     0.057 A 
ATOM     61  C   UNL A   1      41.621  23.198  26.292  1.00  0.00     0.134 A 
ATOM     62  C   UNL A   1      41.964  22.482  28.548  1.00  0.00     0.134 A 
ATOM     63  F   UNL A   1      41.634  24.142  25.339  1.00  0.00    -0.206 F 
ATOM     64  C   UNL A   1      41.165  21.923  25.951  1.00  0.00     0.040 A 
ATOM     65  C   UNL A   1      41.541  21.196  28.215  1.00  0.00     0.040 A 
ATOM     66  F   UNL A   1      42.341  22.712  29.815  1.00  0.00    -0.206 F 
ATOM     67  C   UNL A   1      41.136  20.914  26.913  1.00  0.00     0.006 A 
ENDBRANCH  39  60
BRANCH  51  68
ATOM     68  C   UNL A   1      48.323  26.443  27.541  1.00  0.00     0.057 A 
ATOM     69  C   UNL A   1      49.117  25.757  28.469  1.00  0.00     0.134 A 
ATOM     70  C   UNL A   1      48.832  26.612  26.248  1.00  0.00     0.134 A 
ATOM     71  F   UNL A   1      48.690  25.578  29.728  1.00  0.00    -0.206 F 
ATOM     72  C   UNL A   1      50.383  25.278  28.128  1.00  0.00     0.040 A 
ATOM     73  C   UNL A   1      50.088  26.120  25.891  1.00  0.00     0.040 A 
ATOM     74  F   UNL A   1      48.118  27.258  25.313  1.00  0.00    -0.206 F 
ATOM     75  C   UNL A   1      50.869  25.457  26.835  1.00  0.00     0.006 A 
ENDBRANCH  51  68
ENDBRANCH  25  26
ENDBRANCH  18  20
ENDBRANCH  17  18
ENDBRANCH   1  17
TORSDOF 13
ENDMDL
