MODEL 1
REMARK VINA RESULT:     -11.5      0.000      0.000
REMARK SMILES O=C(OCCOC(=O)[C@@H]1CCCN(C(=O)c2c(F)cc(Br)cc2F)C1)c1ccc(-c2c3nc(c(-c4c(F)cccc4F)c4ccc([nH]4)c(-c4c(F)cccc4F)c4nc(c(-c5c(F)cccc5F)c5ccc2[nH]5)C=C4)C=C3)cc1
REMARK SMILES IDX 4 1 3 2 2 3 1 4 26 5 27 6 79 7 28 8 78 9 29 10 30 11 31 12
REMARK SMILES IDX 72 13 32 14 77 15 71 16 73 17 33 18 76 19 70 20 69 21 34 23
REMARK SMILES IDX 60 24 43 25 59 26 44 27 47 28 58 29 74 30 45 31 46 32 57 34
REMARK SMILES IDX 75 35 48 36 35 37 36 38 41 39 37 40 38 41 40 42 42 43 39 44
REMARK SMILES IDX 61 45 62 46 67 47 63 48 64 49 66 50 68 51 65 52 49 53 50 54
REMARK SMILES IDX 55 55 51 56 52 57 54 58 56 59 53 60 5 61 6 62 7 63 8 64 9 65
REMARK SMILES IDX 10 66 25 67 11 68 13 69 12 70 14 71 15 72 16 73 17 74 23 75
REMARK SMILES IDX 18 76 19 77 22 78 24 79 20 80 21 81
REMARK H PARENT 73 22 47 33
REMARK Flexibility Score: inf
ROOT
ATOM      1  C   UNL A   1      31.401  32.281  26.857  1.00  0.00     0.275 C 
ENDROOT
BRANCH   1   2
ATOM      2  O   UNL A   1      32.300  33.396  26.902  1.00  0.00    -0.458 OA
BRANCH   2   3
ATOM      3  C   UNL A   1      32.936  33.875  27.996  1.00  0.00     0.338 C 
ATOM      4  O   UNL A   1      32.571  34.949  28.472  1.00  0.00    -0.246 OA
BRANCH   3   5
ATOM      5  C   UNL A   1      34.221  33.283  28.495  1.00  0.00     0.060 A 
ATOM      6  C   UNL A   1      35.508  33.807  28.332  1.00  0.00     0.016 A 
ATOM      7  C   UNL A   1      34.083  32.121  29.274  1.00  0.00     0.016 A 
ATOM      8  C   UNL A   1      36.600  33.278  29.025  1.00  0.00     0.010 A 
ATOM      9  C   UNL A   1      35.157  31.612  30.002  1.00  0.00     0.010 A 
ATOM     10  C   UNL A   1      36.428  32.190  29.876  1.00  0.00    -0.014 A 
BRANCH  10  11
ATOM     11  C   UNL A   1      37.607  31.477  30.407  1.00  0.00     0.031 A 
ATOM     12  C   UNL A   1      37.961  31.771  31.833  1.00  0.00     0.074 A 
ATOM     13  C   UNL A   1      38.323  30.612  29.667  1.00  0.00     0.049 A 
ATOM     14  N   UNL A   1      39.004  31.411  32.527  1.00  0.00    -0.248 NA
ATOM     15  C   UNL A   1      37.028  32.653  32.559  1.00  0.00     0.031 C 
ATOM     16  C   UNL A   1      38.059  30.250  28.273  1.00  0.00     0.029 A 
ATOM     17  N   UNL A   1      39.429  29.872  29.998  1.00  0.00    -0.354 N 
ATOM     18  C   UNL A   1      38.868  32.067  33.742  1.00  0.00     0.074 A 
ATOM     19  C   UNL A   1      37.718  32.931  33.646  1.00  0.00     0.031 C 
ATOM     20  C   UNL A   1      38.969  29.342  27.875  1.00  0.00     0.029 A 
ATOM     21  C   UNL A   1      39.890  29.074  28.977  1.00  0.00     0.049 A 
ATOM     22  H   UNL A   1      39.854  29.908  30.885  1.00  0.00     0.167 HD
ATOM     23  C   UNL A   1      39.599  31.916  34.868  1.00  0.00     0.037 A 
ATOM     24  C   UNL A   1      40.938  28.226  28.960  1.00  0.00     0.037 A 
ATOM     25  C   UNL A   1      40.693  30.998  34.965  1.00  0.00     0.049 A 
ATOM     26  C   UNL A   1      41.753  28.071  30.223  1.00  0.00     0.074 A 
ATOM     27  C   UNL A   1      41.503  30.724  36.046  1.00  0.00     0.029 A 
ATOM     28  N   UNL A   1      41.111  30.183  33.920  1.00  0.00    -0.354 N 
ATOM     29  N   UNL A   1      41.604  28.671  31.382  1.00  0.00    -0.248 NA
ATOM     30  C   UNL A   1      42.870  27.117  30.182  1.00  0.00     0.031 C 
ATOM     31  C   UNL A   1      42.437  29.763  35.646  1.00  0.00     0.029 A 
ATOM     32  C   UNL A   1      42.174  29.404  34.331  1.00  0.00     0.049 A 
ATOM     33  H   UNL A   1      40.710  30.164  33.021  1.00  0.00     0.167 HD
ATOM     34  C   UNL A   1      42.577  28.137  32.219  1.00  0.00     0.074 A 
ATOM     35  C   UNL A   1      43.310  27.165  31.433  1.00  0.00     0.031 C 
ATOM     36  C   UNL A   1      42.845  28.418  33.519  1.00  0.00     0.037 A 
BRANCH  23  37
ATOM     37  C   UNL A   1      39.207  32.774  36.035  1.00  0.00     0.057 A 
ATOM     38  C   UNL A   1      39.774  34.043  36.245  1.00  0.00     0.134 A 
ATOM     39  C   UNL A   1      38.357  32.276  37.026  1.00  0.00     0.134 A 
ATOM     40  F   UNL A   1      40.625  34.565  35.348  1.00  0.00    -0.206 F 
ATOM     41  C   UNL A   1      39.571  34.744  37.435  1.00  0.00     0.040 A 
ATOM     42  C   UNL A   1      38.114  32.988  38.202  1.00  0.00     0.040 A 
ATOM     43  F   UNL A   1      37.782  31.072  36.891  1.00  0.00    -0.206 F 
ATOM     44  C   UNL A   1      38.741  34.215  38.418  1.00  0.00     0.006 A 
ENDBRANCH  23  37
BRANCH  24  45
ATOM     45  C   UNL A   1      41.259  27.433  27.741  1.00  0.00     0.057 A 
ATOM     46  C   UNL A   1      42.088  27.951  26.736  1.00  0.00     0.134 A 
ATOM     47  C   UNL A   1      40.725  26.156  27.531  1.00  0.00     0.134 A 
ATOM     48  F   UNL A   1      42.619  29.176  26.866  1.00  0.00    -0.206 F 
ATOM     49  C   UNL A   1      42.352  27.244  25.560  1.00  0.00     0.040 A 
ATOM     50  C   UNL A   1      41.001  25.426  26.370  1.00  0.00     0.040 A 
ATOM     51  F   UNL A   1      39.930  25.595  28.453  1.00  0.00    -0.206 F 
ATOM     52  C   UNL A   1      41.808  25.974  25.376  1.00  0.00     0.006 A 
ENDBRANCH  24  45
BRANCH  36  53
ATOM     53  C   UNL A   1      43.922  27.625  34.194  1.00  0.00     0.057 A 
ATOM     54  C   UNL A   1      45.234  28.101  34.305  1.00  0.00     0.134 A 
ATOM     55  C   UNL A   1      43.606  26.425  34.845  1.00  0.00     0.134 A 
ATOM     56  F   UNL A   1      45.598  29.240  33.697  1.00  0.00    -0.206 F 
ATOM     57  C   UNL A   1      46.195  27.409  35.040  1.00  0.00     0.040 A 
ATOM     58  C   UNL A   1      44.551  25.740  35.608  1.00  0.00     0.040 A 
ATOM     59  F   UNL A   1      42.362  25.926  34.786  1.00  0.00    -0.206 F 
ATOM     60  C   UNL A   1      45.850  26.233  35.706  1.00  0.00     0.006 A 
ENDBRANCH  36  53
ENDBRANCH  10  11
ENDBRANCH   3   5
ENDBRANCH   2   3
ENDBRANCH   1   2
BRANCH   1  61
ATOM     61  C   UNL A   1      32.093  30.936  26.604  1.00  0.00     0.274 C 
BRANCH  61  62
ATOM     62  O   UNL A   1      31.725  30.319  25.349  1.00  0.00    -0.462 OA
BRANCH  62  63
ATOM     63  C   UNL A   1      32.540  29.303  24.943  1.00  0.00     0.310 C 
ATOM     64  O   UNL A   1      33.519  28.944  25.579  1.00  0.00    -0.252 OA
BRANCH  63  65
ATOM     65  C   UNL A   1      32.223  28.777  23.539  1.00  0.00     0.119 C 
ATOM     66  C   UNL A   1      30.843  29.086  22.949  1.00  0.00     0.019 C 
ATOM     67  C   UNL A   1      32.443  27.258  23.495  1.00  0.00     0.135 C 
ATOM     68  C   UNL A   1      29.709  28.215  23.502  1.00  0.00     0.022 C 
ATOM     69  N   UNL A   1      31.362  26.577  24.209  1.00  0.00    -0.338 N 
ATOM     70  C   UNL A   1      30.047  26.740  23.608  1.00  0.00     0.120 C 
BRANCH  69  71
ATOM     71  C   UNL A   1      31.654  26.002  25.442  1.00  0.00     0.259 C 
ATOM     72  O   UNL A   1      31.220  26.437  26.508  1.00  0.00    -0.269 OA
BRANCH  71  73
ATOM     73  C   UNL A   1      32.476  24.793  25.531  1.00  0.00     0.111 A 
ATOM     74  C   UNL A   1      31.955  23.544  25.214  1.00  0.00     0.140 A 
ATOM     75  C   UNL A   1      33.847  24.924  25.752  1.00  0.00     0.140 A 
ATOM     76  F   UNL A   1      30.645  23.389  24.974  1.00  0.00    -0.206 F 
ATOM     77  C   UNL A   1      32.786  22.429  25.129  1.00  0.00     0.056 A 
ATOM     78  C   UNL A   1      34.693  23.820  25.660  1.00  0.00     0.056 A 
ATOM     79  F   UNL A   1      34.387  26.115  26.048  1.00  0.00    -0.206 F 
ATOM     80  C   UNL A   1      34.156  22.576  25.339  1.00  0.00     0.023 A 
ATOM     81  Br  UNL A   1      35.298  21.082  25.152  1.00  0.00    -0.051 Br
ENDBRANCH  71  73
ENDBRANCH  69  71
ENDBRANCH  63  65
ENDBRANCH  62  63
ENDBRANCH  61  62
ENDBRANCH   1  61
TORSDOF 13
ENDMDL
MODEL 2
REMARK VINA RESULT:     -11.4      3.608      5.024
REMARK SMILES O=C(OCCOC(=O)[C@@H]1CCCN(C(=O)c2c(F)cc(Br)cc2F)C1)c1ccc(-c2c3nc(c(-c4c(F)cccc4F)c4ccc([nH]4)c(-c4c(F)cccc4F)c4nc(c(-c5c(F)cccc5F)c5ccc2[nH]5)C=C4)C=C3)cc1
REMARK SMILES IDX 4 1 3 2 2 3 1 4 26 5 27 6 79 7 28 8 78 9 29 10 30 11 31 12
REMARK SMILES IDX 72 13 32 14 77 15 71 16 73 17 33 18 76 19 70 20 69 21 34 23
REMARK SMILES IDX 60 24 43 25 59 26 44 27 47 28 58 29 74 30 45 31 46 32 57 34
REMARK SMILES IDX 75 35 48 36 35 37 36 38 41 39 37 40 38 41 40 42 42 43 39 44
REMARK SMILES IDX 61 45 62 46 67 47 63 48 64 49 66 50 68 51 65 52 49 53 50 54
REMARK SMILES IDX 55 55 51 56 52 57 54 58 56 59 53 60 5 61 6 62 7 63 8 64 9 65
REMARK SMILES IDX 10 66 25 67 11 68 13 69 12 70 14 71 15 72 16 73 17 74 23 75
REMARK SMILES IDX 18 76 19 77 22 78 24 79 20 80 21 81
REMARK H PARENT 73 22 47 33
REMARK Flexibility Score: inf
ROOT
ATOM      1  C   UNL A   1      32.612  29.980  27.254  1.00  0.00     0.275 C 
ENDROOT
BRANCH   1   2
ATOM      2  O   UNL A   1      33.971  30.432  27.209  1.00  0.00    -0.458 OA
BRANCH   2   3
ATOM      3  C   UNL A   1      34.716  30.855  28.257  1.00  0.00     0.338 C 
ATOM      4  O   UNL A   1      34.352  31.849  28.883  1.00  0.00    -0.246 OA
BRANCH   3   5
ATOM      5  C   UNL A   1      36.091  30.317  28.526  1.00  0.00     0.060 A 
ATOM      6  C   UNL A   1      36.528  29.671  29.687  1.00  0.00     0.016 A 
ATOM      7  C   UNL A   1      36.993  30.412  27.453  1.00  0.00     0.016 A 
ATOM      8  C   UNL A   1      37.767  29.026  29.737  1.00  0.00     0.010 A 
ATOM      9  C   UNL A   1      38.212  29.736  27.477  1.00  0.00     0.010 A 
ATOM     10  C   UNL A   1      38.608  29.040  28.626  1.00  0.00    -0.014 A 
BRANCH  10  11
ATOM     11  C   UNL A   1      40.005  28.583  28.757  1.00  0.00     0.031 A 
ATOM     12  C   UNL A   1      40.957  29.560  29.380  1.00  0.00     0.074 A 
ATOM     13  C   UNL A   1      40.410  27.367  28.352  1.00  0.00     0.049 A 
ATOM     14  N   UNL A   1      42.253  29.501  29.504  1.00  0.00    -0.248 NA
ATOM     15  C   UNL A   1      40.358  30.812  29.879  1.00  0.00     0.031 C 
ATOM     16  C   UNL A   1      39.564  26.340  27.741  1.00  0.00     0.029 A 
ATOM     17  N   UNL A   1      41.651  26.787  28.401  1.00  0.00    -0.354 N 
ATOM     18  C   UNL A   1      42.615  30.728  30.043  1.00  0.00     0.074 A 
ATOM     19  C   UNL A   1      41.428  31.544  30.109  1.00  0.00     0.031 C 
ATOM     20  C   UNL A   1      40.310  25.249  27.490  1.00  0.00     0.029 A 
ATOM     21  C   UNL A   1      41.688  25.506  27.901  1.00  0.00     0.049 A 
ATOM     22  H   UNL A   1      42.444  27.245  28.762  1.00  0.00     0.167 HD
ATOM     23  C   UNL A   1      43.821  31.121  30.507  1.00  0.00     0.037 A 
ATOM     24  C   UNL A   1      42.728  24.655  27.803  1.00  0.00     0.037 A 
ATOM     25  C   UNL A   1      44.970  30.267  30.499  1.00  0.00     0.049 A 
ATOM     26  C   UNL A   1      44.074  25.108  28.319  1.00  0.00     0.074 A 
ATOM     27  C   UNL A   1      46.245  30.524  30.958  1.00  0.00     0.029 A 
ATOM     28  N   UNL A   1      44.962  28.966  30.015  1.00  0.00    -0.354 N 
ATOM     29  N   UNL A   1      44.409  26.259  28.857  1.00  0.00    -0.248 NA
ATOM     30  C   UNL A   1      45.182  24.148  28.225  1.00  0.00     0.031 C 
ATOM     31  C   UNL A   1      47.021  29.385  30.720  1.00  0.00     0.029 A 
ATOM     32  C   UNL A   1      46.214  28.403  30.161  1.00  0.00     0.049 A 
ATOM     33  H   UNL A   1      44.180  28.512  29.624  1.00  0.00     0.167 HD
ATOM     34  C   UNL A   1      45.749  26.146  29.204  1.00  0.00     0.074 A 
ATOM     35  C   UNL A   1      46.166  24.813  28.816  1.00  0.00     0.031 C 
ATOM     36  C   UNL A   1      46.568  27.053  29.794  1.00  0.00     0.037 A 
BRANCH  23  37
ATOM     37  C   UNL A   1      43.904  32.522  31.038  1.00  0.00     0.057 A 
ATOM     38  C   UNL A   1      43.636  32.822  32.384  1.00  0.00     0.134 A 
ATOM     39  C   UNL A   1      44.125  33.596  30.170  1.00  0.00     0.134 A 
ATOM     40  F   UNL A   1      43.382  31.839  33.262  1.00  0.00    -0.206 F 
ATOM     41  C   UNL A   1      43.504  34.139  32.826  1.00  0.00     0.040 A 
ATOM     42  C   UNL A   1      44.037  34.917  30.611  1.00  0.00     0.040 A 
ATOM     43  F   UNL A   1      44.386  33.382  28.872  1.00  0.00    -0.206 F 
ATOM     44  C   UNL A   1      43.702  35.191  31.936  1.00  0.00     0.006 A 
ENDBRANCH  23  37
BRANCH  24  45
ATOM     45  C   UNL A   1      42.546  23.289  27.239  1.00  0.00     0.057 A 
ATOM     46  C   UNL A   1      42.147  22.216  28.048  1.00  0.00     0.134 A 
ATOM     47  C   UNL A   1      42.794  23.011  25.889  1.00  0.00     0.134 A 
ATOM     48  F   UNL A   1      41.909  22.410  29.354  1.00  0.00    -0.206 F 
ATOM     49  C   UNL A   1      42.028  20.918  27.546  1.00  0.00     0.040 A 
ATOM     50  C   UNL A   1      42.656  21.721  25.368  1.00  0.00     0.040 A 
ATOM     51  F   UNL A   1      43.172  23.989  25.055  1.00  0.00    -0.206 F 
ATOM     52  C   UNL A   1      42.281  20.668  26.199  1.00  0.00     0.006 A 
ENDBRANCH  24  45
BRANCH  36  53
ATOM     53  C   UNL A   1      47.966  26.624  30.117  1.00  0.00     0.057 A 
ATOM     54  C   UNL A   1      48.281  25.964  31.311  1.00  0.00     0.134 A 
ATOM     55  C   UNL A   1      48.983  26.769  29.163  1.00  0.00     0.134 A 
ATOM     56  F   UNL A   1      47.352  25.803  32.265  1.00  0.00    -0.206 F 
ATOM     57  C   UNL A   1      49.562  25.464  31.545  1.00  0.00     0.040 A 
ATOM     58  C   UNL A   1      50.258  26.246  29.374  1.00  0.00     0.040 A 
ATOM     59  F   UNL A   1      48.737  27.380  27.995  1.00  0.00    -0.206 F 
ATOM     60  C   UNL A   1      50.549  25.591  30.569  1.00  0.00     0.006 A 
ENDBRANCH  36  53
ENDBRANCH  10  11
ENDBRANCH   3   5
ENDBRANCH   2   3
ENDBRANCH   1   2
BRANCH   1  61
ATOM     61  C   UNL A   1      31.927  29.935  25.884  1.00  0.00     0.274 C 
BRANCH  61  62
ATOM     62  O   UNL A   1      31.803  28.603  25.338  1.00  0.00    -0.462 OA
BRANCH  62  63
ATOM     63  C   UNL A   1      31.880  28.524  23.978  1.00  0.00     0.310 C 
ATOM     64  O   UNL A   1      32.804  29.001  23.339  1.00  0.00    -0.252 OA
BRANCH  63  65
ATOM     65  C   UNL A   1      30.623  27.947  23.318  1.00  0.00     0.119 C 
ATOM     66  C   UNL A   1      29.662  27.131  24.188  1.00  0.00     0.019 C 
ATOM     67  C   UNL A   1      31.023  27.096  22.104  1.00  0.00     0.135 C 
ATOM     68  C   UNL A   1      30.132  25.700  24.481  1.00  0.00     0.022 C 
ATOM     69  N   UNL A   1      31.607  25.832  22.552  1.00  0.00    -0.338 N 
ATOM     70  C   UNL A   1      30.689  24.967  23.276  1.00  0.00     0.120 C 
BRANCH  69  71
ATOM     71  C   UNL A   1      32.980  25.656  22.399  1.00  0.00     0.259 C 
ATOM     72  O   UNL A   1      33.655  26.297  21.595  1.00  0.00    -0.269 OA
BRANCH  71  73
ATOM     73  C   UNL A   1      33.714  24.710  23.242  1.00  0.00     0.111 A 
ATOM     74  C   UNL A   1      33.987  23.420  22.806  1.00  0.00     0.140 A 
ATOM     75  C   UNL A   1      34.308  25.173  24.417  1.00  0.00     0.140 A 
ATOM     76  F   UNL A   1      33.449  22.952  21.670  1.00  0.00    -0.206 F 
ATOM     77  C   UNL A   1      34.835  22.588  23.535  1.00  0.00     0.056 A 
ATOM     78  C   UNL A   1      35.166  24.358  25.152  1.00  0.00     0.056 A 
ATOM     79  F   UNL A   1      34.077  26.417  24.861  1.00  0.00    -0.206 F 
ATOM     80  C   UNL A   1      35.432  23.068  24.700  1.00  0.00     0.023 A 
ATOM     81  Br  UNL A   1      36.640  21.971  25.653  1.00  0.00    -0.051 Br
ENDBRANCH  71  73
ENDBRANCH  69  71
ENDBRANCH  63  65
ENDBRANCH  62  63
ENDBRANCH  61  62
ENDBRANCH   1  61
TORSDOF 13
ENDMDL
MODEL 3
REMARK VINA RESULT:     -11.3      4.392      8.760
REMARK SMILES O=C(OCCOC(=O)[C@@H]1CCCN(C(=O)c2c(F)cc(Br)cc2F)C1)c1ccc(-c2c3nc(c(-c4c(F)cccc4F)c4ccc([nH]4)c(-c4c(F)cccc4F)c4nc(c(-c5c(F)cccc5F)c5ccc2[nH]5)C=C4)C=C3)cc1
REMARK SMILES IDX 4 1 3 2 2 3 1 4 26 5 27 6 79 7 28 8 78 9 29 10 30 11 31 12
REMARK SMILES IDX 72 13 32 14 77 15 71 16 73 17 33 18 76 19 70 20 69 21 34 23
REMARK SMILES IDX 60 24 43 25 59 26 44 27 47 28 58 29 74 30 45 31 46 32 57 34
REMARK SMILES IDX 75 35 48 36 35 37 36 38 41 39 37 40 38 41 40 42 42 43 39 44
REMARK SMILES IDX 61 45 62 46 67 47 63 48 64 49 66 50 68 51 65 52 49 53 50 54
REMARK SMILES IDX 55 55 51 56 52 57 54 58 56 59 53 60 5 61 6 62 7 63 8 64 9 65
REMARK SMILES IDX 10 66 25 67 11 68 13 69 12 70 14 71 15 72 16 73 17 74 23 75
REMARK SMILES IDX 18 76 19 77 22 78 24 79 20 80 21 81
REMARK H PARENT 73 22 47 33
REMARK Flexibility Score: inf
ROOT
ATOM      1  C   UNL A   1      37.523  21.140  24.891  1.00  0.00     0.275 C 
ENDROOT
BRANCH   1   2
ATOM      2  O   UNL A   1      38.002  21.795  26.072  1.00  0.00    -0.458 OA
BRANCH   2   3
ATOM      3  C   UNL A   1      39.293  22.056  26.383  1.00  0.00     0.338 C 
ATOM      4  O   UNL A   1      40.103  21.131  26.379  1.00  0.00    -0.246 OA
BRANCH   3   5
ATOM      5  C   UNL A   1      39.722  23.366  26.974  1.00  0.00     0.060 A 
ATOM      6  C   UNL A   1      40.589  23.558  28.055  1.00  0.00     0.016 A 
ATOM      7  C   UNL A   1      39.252  24.509  26.305  1.00  0.00     0.016 A 
ATOM      8  C   UNL A   1      41.080  24.826  28.377  1.00  0.00     0.010 A 
ATOM      9  C   UNL A   1      39.768  25.773  26.590  1.00  0.00     0.010 A 
ATOM     10  C   UNL A   1      40.686  25.937  27.635  1.00  0.00    -0.014 A 
BRANCH  10  11
ATOM     11  C   UNL A   1      40.999  27.295  28.123  1.00  0.00     0.031 A 
ATOM     12  C   UNL A   1      42.428  27.726  27.986  1.00  0.00     0.074 A 
ATOM     13  C   UNL A   1      40.066  28.106  28.654  1.00  0.00     0.049 A 
ATOM     14  N   UNL A   1      43.027  28.790  28.440  1.00  0.00    -0.248 NA
ATOM     15  C   UNL A   1      43.319  26.782  27.287  1.00  0.00     0.031 C 
ATOM     16  C   UNL A   1      38.648  27.787  28.826  1.00  0.00     0.029 A 
ATOM     17  N   UNL A   1      40.181  29.380  29.147  1.00  0.00    -0.354 N 
ATOM     18  C   UNL A   1      44.366  28.608  28.123  1.00  0.00     0.074 A 
ATOM     19  C   UNL A   1      44.505  27.291  27.553  1.00  0.00     0.031 C 
ATOM     20  C   UNL A   1      38.022  28.847  29.368  1.00  0.00     0.029 A 
ATOM     21  C   UNL A   1      38.996  29.910  29.601  1.00  0.00     0.049 A 
ATOM     22  H   UNL A   1      41.034  29.872  29.172  1.00  0.00     0.167 HD
ATOM     23  C   UNL A   1      45.386  29.487  28.235  1.00  0.00     0.037 A 
ATOM     24  C   UNL A   1      38.750  31.123  30.136  1.00  0.00     0.037 A 
ATOM     25  C   UNL A   1      45.211  30.816  28.736  1.00  0.00     0.049 A 
ATOM     26  C   UNL A   1      39.900  32.095  30.263  1.00  0.00     0.074 A 
ATOM     27  C   UNL A   1      46.147  31.818  28.881  1.00  0.00     0.029 A 
ATOM     28  N   UNL A   1      43.991  31.329  29.157  1.00  0.00    -0.354 N 
ATOM     29  N   UNL A   1      41.162  31.931  29.935  1.00  0.00    -0.248 NA
ATOM     30  C   UNL A   1      39.595  33.419  30.823  1.00  0.00     0.031 C 
ATOM     31  C   UNL A   1      45.498  32.932  29.424  1.00  0.00     0.029 A 
ATOM     32  C   UNL A   1      44.149  32.638  29.567  1.00  0.00     0.049 A 
ATOM     33  H   UNL A   1      43.140  30.833  29.164  1.00  0.00     0.167 HD
ATOM     34  C   UNL A   1      41.789  33.141  30.206  1.00  0.00     0.074 A 
ATOM     35  C   UNL A   1      40.769  34.029  30.725  1.00  0.00     0.031 C 
ATOM     36  C   UNL A   1      43.089  33.495  30.040  1.00  0.00     0.037 A 
BRANCH  23  37
ATOM     37  C   UNL A   1      46.736  28.995  27.806  1.00  0.00     0.057 A 
ATOM     38  C   UNL A   1      47.168  29.084  26.472  1.00  0.00     0.134 A 
ATOM     39  C   UNL A   1      47.558  28.307  28.704  1.00  0.00     0.134 A 
ATOM     40  F   UNL A   1      46.411  29.701  25.551  1.00  0.00    -0.206 F 
ATOM     41  C   UNL A   1      48.326  28.439  26.034  1.00  0.00     0.040 A 
ATOM     42  C   UNL A   1      48.740  27.694  28.286  1.00  0.00     0.040 A 
ATOM     43  F   UNL A   1      47.207  28.183  29.992  1.00  0.00    -0.206 F 
ATOM     44  C   UNL A   1      49.114  27.739  26.944  1.00  0.00     0.006 A 
ENDBRANCH  23  37
BRANCH  24  45
ATOM     45  C   UNL A   1      37.374  31.508  30.553  1.00  0.00     0.057 A 
ATOM     46  C   UNL A   1      36.469  32.067  29.640  1.00  0.00     0.134 A 
ATOM     47  C   UNL A   1      36.935  31.359  31.874  1.00  0.00     0.134 A 
ATOM     48  F   UNL A   1      36.830  32.253  28.362  1.00  0.00    -0.206 F 
ATOM     49  C   UNL A   1      35.194  32.488  30.029  1.00  0.00     0.040 A 
ATOM     50  C   UNL A   1      35.654  31.752  32.272  1.00  0.00     0.040 A 
ATOM     51  F   UNL A   1      37.745  30.824  32.799  1.00  0.00    -0.206 F 
ATOM     52  C   UNL A   1      34.783  32.328  31.351  1.00  0.00     0.006 A 
ENDBRANCH  24  45
BRANCH  36  53
ATOM     53  C   UNL A   1      43.471  34.909  30.355  1.00  0.00     0.057 A 
ATOM     54  C   UNL A   1      43.962  35.281  31.612  1.00  0.00     0.134 A 
ATOM     55  C   UNL A   1      43.459  35.880  29.345  1.00  0.00     0.134 A 
ATOM     56  F   UNL A   1      43.992  34.398  32.621  1.00  0.00    -0.206 F 
ATOM     57  C   UNL A   1      44.427  36.574  31.853  1.00  0.00     0.040 A 
ATOM     58  C   UNL A   1      43.948  37.166  29.566  1.00  0.00     0.040 A 
ATOM     59  F   UNL A   1      43.012  35.578  28.116  1.00  0.00    -0.206 F 
ATOM     60  C   UNL A   1      44.434  37.515  30.824  1.00  0.00     0.006 A 
ENDBRANCH  36  53
ENDBRANCH  10  11
ENDBRANCH   3   5
ENDBRANCH   2   3
ENDBRANCH   1   2
BRANCH   1  61
ATOM     61  C   UNL A   1      36.076  20.646  24.999  1.00  0.00     0.274 C 
BRANCH  61  62
ATOM     62  O   UNL A   1      35.100  21.711  25.066  1.00  0.00    -0.462 OA
BRANCH  62  63
ATOM     63  C   UNL A   1      33.970  21.418  25.772  1.00  0.00     0.310 C 
ATOM     64  O   UNL A   1      33.946  21.367  26.991  1.00  0.00    -0.252 OA
BRANCH  63  65
ATOM     65  C   UNL A   1      32.788  20.984  24.898  1.00  0.00     0.119 C 
ATOM     66  C   UNL A   1      32.830  21.328  23.406  1.00  0.00     0.019 C 
ATOM     67  C   UNL A   1      31.482  21.535  25.487  1.00  0.00     0.135 C 
ATOM     68  C   UNL A   1      32.498  22.790  23.083  1.00  0.00     0.022 C 
ATOM     69  N   UNL A   1      31.391  22.974  25.240  1.00  0.00    -0.338 N 
ATOM     70  C   UNL A   1      31.301  23.339  23.835  1.00  0.00     0.120 C 
BRANCH  69  71
ATOM     71  C   UNL A   1      31.565  23.835  26.320  1.00  0.00     0.259 C 
ATOM     72  O   UNL A   1      31.456  23.476  27.492  1.00  0.00    -0.269 OA
BRANCH  71  73
ATOM     73  C   UNL A   1      31.943  25.235  26.111  1.00  0.00     0.111 A 
ATOM     74  C   UNL A   1      30.991  26.245  26.115  1.00  0.00     0.140 A 
ATOM     75  C   UNL A   1      33.297  25.573  26.098  1.00  0.00     0.140 A 
ATOM     76  F   UNL A   1      29.682  25.954  26.148  1.00  0.00    -0.206 F 
ATOM     77  C   UNL A   1      31.375  27.585  26.093  1.00  0.00     0.056 A 
ATOM     78  C   UNL A   1      33.699  26.907  26.088  1.00  0.00     0.056 A 
ATOM     79  F   UNL A   1      34.244  24.624  26.107  1.00  0.00    -0.206 F 
ATOM     80  C   UNL A   1      32.732  27.909  26.094  1.00  0.00     0.023 A 
ATOM     81  Br  UNL A   1      33.260  29.722  26.141  1.00  0.00    -0.051 Br
ENDBRANCH  71  73
ENDBRANCH  69  71
ENDBRANCH  63  65
ENDBRANCH  62  63
ENDBRANCH  61  62
ENDBRANCH   1  61
TORSDOF 13
ENDMDL
