MODEL 1
REMARK VINA RESULT:     -10.4      0.000      0.000
REMARK SMILES COc1cc([C@@H]2CC[NH2+][C@@H]2C(=O)OCCOC(=O)c2ccc(-c3c4nc(c(-c5c(F)cccc5F)c5ccc([nH]5)c(-c5c(F)cccc5F)c5nc(c(-c6c(F)cccc6F)c6ccc3[nH]6)C=C5)C=C4)cc2)cc(OC)c1OC
REMARK SMILES IDX 14 1 13 2 11 3 12 4 10 5 6 6 7 7 8 8 9 9 5 12 3 13 4 14
REMARK SMILES IDX 77 15 74 16 73 17 2 18 1 19 78 20 79 21 75 22 76 23 15 24
REMARK SMILES IDX 16 25 17 26 18 27 19 28 20 29 72 30 21 31 71 32 22 33 23 34
REMARK SMILES IDX 24 35 65 36 25 37 70 38 64 39 66 40 26 41 69 42 63 43 62 44
REMARK SMILES IDX 27 46 53 47 36 48 52 49 37 50 40 51 51 52 67 53 38 54 39 55
REMARK SMILES IDX 50 57 68 58 41 59 28 60 29 61 34 62 30 63 31 64 33 65 35 66
REMARK SMILES IDX 32 67 54 68 55 69 60 70 56 71 57 72 59 73 61 74 58 75 42 76
REMARK SMILES IDX 43 77 48 78 44 79 45 80 47 81 49 82 46 83
REMARK H PARENT 9 10 9 11 66 45 40 56
REMARK Flexibility Score: inf
ROOT
ATOM      1  C   UNL A   1      38.030  21.803  25.734  1.00  0.00     0.274 C 
ENDROOT
BRANCH   1   2
ATOM      2  O   UNL A   1      36.784  22.030  25.048  1.00  0.00    -0.458 OA
BRANCH   2   3
ATOM      3  C   UNL A   1      35.674  21.450  25.582  1.00  0.00     0.365 C 
ATOM      4  O   UNL A   1      35.343  21.524  26.763  1.00  0.00    -0.245 OA
BRANCH   3   5
ATOM      5  C   UNL A   1      34.867  20.638  24.560  1.00  0.00     0.301 C 
ATOM      6  C   UNL A   1      33.544  21.269  24.078  1.00  0.00     0.095 C 
ATOM      7  C   UNL A   1      32.501  20.170  24.328  1.00  0.00     0.076 C 
ATOM      8  C   UNL A   1      33.127  19.275  25.380  1.00  0.00     0.262 C 
ATOM      9  N   UNL A   1      34.548  19.258  25.031  1.00  0.00    -0.334 N 
ATOM     10  H   UNL A   1      34.722  18.579  24.288  1.00  0.00     0.347 HD
ATOM     11  H   UNL A   1      35.127  18.988  25.826  1.00  0.00     0.347 HD
BRANCH   6  12
ATOM     12  C   UNL A   1      33.173  22.612  24.674  1.00  0.00    -0.030 A 
ATOM     13  C   UNL A   1      31.878  23.930  26.268  1.00  0.00     0.164 A 
ATOM     14  C   UNL A   1      32.255  22.688  25.724  1.00  0.00     0.055 A 
ATOM     15  C   UNL A   1      32.426  25.137  25.791  1.00  0.00     0.203 A 
ATOM     16  C   UNL A   1      33.344  25.062  24.725  1.00  0.00     0.164 A 
ATOM     17  C   UNL A   1      33.705  23.813  24.195  1.00  0.00     0.055 A 
BRANCH  13  18
ATOM     18  O   UNL A   1      31.009  23.906  27.331  1.00  0.00    -0.493 OA
ATOM     19  C   UNL A   1      29.877  23.078  27.063  1.00  0.00     0.278 C 
ENDBRANCH  13  18
BRANCH  15  20
ATOM     20  O   UNL A   1      32.129  26.390  26.250  1.00  0.00    -0.490 OA
ATOM     21  C   UNL A   1      31.018  27.102  25.735  1.00  0.00     0.278 C 
ENDBRANCH  15  20
BRANCH  16  22
ATOM     22  O   UNL A   1      33.983  26.079  24.058  1.00  0.00    -0.493 OA
ATOM     23  C   UNL A   1      33.428  26.584  22.856  1.00  0.00     0.278 C 
ENDBRANCH  16  22
ENDBRANCH   6  12
ENDBRANCH   3   5
ENDBRANCH   2   3
ENDBRANCH   1   2
BRANCH   1  24
ATOM     24  C   UNL A   1      38.650  20.487  25.274  1.00  0.00     0.275 C 
BRANCH  24  25
ATOM     25  O   UNL A   1      39.406  19.905  26.350  1.00  0.00    -0.458 OA
BRANCH  25  26
ATOM     26  C   UNL A   1      40.740  19.842  26.148  1.00  0.00     0.338 C 
ATOM     27  O   UNL A   1      41.382  18.961  25.593  1.00  0.00    -0.246 OA
BRANCH  26  28
ATOM     28  C   UNL A   1      41.346  21.068  26.675  1.00  0.00     0.060 A 
ATOM     29  C   UNL A   1      41.291  21.306  28.049  1.00  0.00     0.016 A 
ATOM     30  C   UNL A   1      41.898  22.010  25.808  1.00  0.00     0.016 A 
ATOM     31  C   UNL A   1      41.772  22.504  28.568  1.00  0.00     0.010 A 
ATOM     32  C   UNL A   1      42.390  23.208  26.329  1.00  0.00     0.010 A 
ATOM     33  C   UNL A   1      42.313  23.469  27.709  1.00  0.00    -0.014 A 
BRANCH  33  34
ATOM     34  C   UNL A   1      42.722  24.788  28.241  1.00  0.00     0.031 A 
ATOM     35  C   UNL A   1      41.682  25.847  28.467  1.00  0.00     0.074 A 
ATOM     36  C   UNL A   1      44.013  25.030  28.530  1.00  0.00     0.049 A 
ATOM     37  N   UNL A   1      41.836  27.097  28.821  1.00  0.00    -0.248 NA
ATOM     38  C   UNL A   1      40.281  25.443  28.267  1.00  0.00     0.031 C 
ATOM     39  C   UNL A   1      45.103  24.063  28.401  1.00  0.00     0.029 A 
ATOM     40  N   UNL A   1      44.625  26.170  28.983  1.00  0.00    -0.354 N 
ATOM     41  C   UNL A   1      40.557  27.633  28.872  1.00  0.00     0.074 A 
ATOM     42  C   UNL A   1      39.638  26.579  28.496  1.00  0.00     0.031 C 
ATOM     43  C   UNL A   1      46.254  24.654  28.763  1.00  0.00     0.029 A 
ATOM     44  C   UNL A   1      45.987  26.048  29.105  1.00  0.00     0.049 A 
ATOM     45  H   UNL A   1      44.135  26.995  29.201  1.00  0.00     0.167 HD
ATOM     46  C   UNL A   1      40.182  28.890  29.207  1.00  0.00     0.037 A 
ATOM     47  C   UNL A   1      46.914  26.969  29.428  1.00  0.00     0.037 A 
ATOM     48  C   UNL A   1      41.098  29.935  29.585  1.00  0.00     0.049 A 
ATOM     49  C   UNL A   1      46.479  28.377  29.727  1.00  0.00     0.074 A 
ATOM     50  C   UNL A   1      40.820  31.246  29.928  1.00  0.00     0.029 A 
ATOM     51  N   UNL A   1      42.472  29.780  29.672  1.00  0.00    -0.354 N 
ATOM     52  N   UNL A   1      45.270  28.882  29.751  1.00  0.00    -0.248 NA
ATOM     53  C   UNL A   1      47.540  29.346  30.036  1.00  0.00     0.031 C 
ATOM     54  C   UNL A   1      42.031  31.894  30.195  1.00  0.00     0.029 A 
ATOM     55  C   UNL A   1      43.059  30.976  30.053  1.00  0.00     0.049 A 
ATOM     56  H   UNL A   1      42.960  28.945  29.489  1.00  0.00     0.167 HD
ATOM     57  C   UNL A   1      45.421  30.217  30.098  1.00  0.00     0.074 A 
ATOM     58  C   UNL A   1      46.839  30.443  30.287  1.00  0.00     0.031 C 
ATOM     59  C   UNL A   1      44.472  31.173  30.245  1.00  0.00     0.037 A 
BRANCH  46  60
ATOM     60  C   UNL A   1      38.718  29.207  29.157  1.00  0.00     0.057 A 
ATOM     61  C   UNL A   1      37.909  29.130  30.296  1.00  0.00     0.134 A 
ATOM     62  C   UNL A   1      38.117  29.614  27.959  1.00  0.00     0.134 A 
ATOM     63  F   UNL A   1      38.422  28.730  31.469  1.00  0.00    -0.206 F 
ATOM     64  C   UNL A   1      36.545  29.428  30.243  1.00  0.00     0.040 A 
ATOM     65  C   UNL A   1      36.760  29.935  27.898  1.00  0.00     0.040 A 
ATOM     66  F   UNL A   1      38.838  29.710  26.832  1.00  0.00    -0.206 F 
ATOM     67  C   UNL A   1      35.969  29.838  29.041  1.00  0.00     0.006 A 
ENDBRANCH  46  60
BRANCH  47  68
ATOM     68  C   UNL A   1      48.350  26.598  29.462  1.00  0.00     0.057 A 
ATOM     69  C   UNL A   1      49.173  26.793  28.348  1.00  0.00     0.134 A 
ATOM     70  C   UNL A   1      48.926  26.022  30.600  1.00  0.00     0.134 A 
ATOM     71  F   UNL A   1      48.672  27.318  27.221  1.00  0.00    -0.206 F 
ATOM     72  C   UNL A   1      50.517  26.414  28.359  1.00  0.00     0.040 A 
ATOM     73  C   UNL A   1      50.273  25.660  30.632  1.00  0.00     0.040 A 
ATOM     74  F   UNL A   1      48.188  25.808  31.699  1.00  0.00    -0.206 F 
ATOM     75  C   UNL A   1      51.071  25.849  29.506  1.00  0.00     0.006 A 
ENDBRANCH  47  68
BRANCH  59  76
ATOM     76  C   UNL A   1      44.937  32.536  30.663  1.00  0.00     0.057 A 
ATOM     77  C   UNL A   1      45.081  32.883  32.012  1.00  0.00     0.134 A 
ATOM     78  C   UNL A   1      45.270  33.500  29.704  1.00  0.00     0.134 A 
ATOM     79  F   UNL A   1      44.763  32.008  32.977  1.00  0.00    -0.206 F 
ATOM     80  C   UNL A   1      45.526  34.150  32.393  1.00  0.00     0.040 A 
ATOM     81  C   UNL A   1      45.735  34.763  30.072  1.00  0.00     0.040 A 
ATOM     82  F   UNL A   1      45.158  33.226  28.396  1.00  0.00    -0.206 F 
ATOM     83  C   UNL A   1      45.859  35.093  31.421  1.00  0.00     0.006 A 
ENDBRANCH  59  76
ENDBRANCH  33  34
ENDBRANCH  26  28
ENDBRANCH  25  26
ENDBRANCH  24  25
ENDBRANCH   1  24
TORSDOF 15
ENDMDL
MODEL 2
REMARK VINA RESULT:     -10.3      0.656      6.429
REMARK SMILES COc1cc([C@@H]2CC[NH2+][C@@H]2C(=O)OCCOC(=O)c2ccc(-c3c4nc(c(-c5c(F)cccc5F)c5ccc([nH]5)c(-c5c(F)cccc5F)c5nc(c(-c6c(F)cccc6F)c6ccc3[nH]6)C=C5)C=C4)cc2)cc(OC)c1OC
REMARK SMILES IDX 14 1 13 2 11 3 12 4 10 5 6 6 7 7 8 8 9 9 5 12 3 13 4 14
REMARK SMILES IDX 77 15 74 16 73 17 2 18 1 19 78 20 79 21 75 22 76 23 15 24
REMARK SMILES IDX 16 25 17 26 18 27 19 28 20 29 72 30 21 31 71 32 22 33 23 34
REMARK SMILES IDX 24 35 65 36 25 37 70 38 64 39 66 40 26 41 69 42 63 43 62 44
REMARK SMILES IDX 27 46 53 47 36 48 52 49 37 50 40 51 51 52 67 53 38 54 39 55
REMARK SMILES IDX 50 57 68 58 41 59 28 60 29 61 34 62 30 63 31 64 33 65 35 66
REMARK SMILES IDX 32 67 54 68 55 69 60 70 56 71 57 72 59 73 61 74 58 75 42 76
REMARK SMILES IDX 43 77 48 78 44 79 45 80 47 81 49 82 46 83
REMARK H PARENT 9 10 9 11 66 45 40 56
REMARK Flexibility Score: inf
ROOT
ATOM      1  C   UNL A   1      37.751  21.173  25.082  1.00  0.00     0.274 C 
ENDROOT
BRANCH   1   2
ATOM      2  O   UNL A   1      36.804  22.024  25.755  1.00  0.00    -0.458 OA
BRANCH   2   3
ATOM      3  C   UNL A   1      35.580  21.491  26.020  1.00  0.00     0.365 C 
ATOM      4  O   UNL A   1      35.021  21.526  27.114  1.00  0.00    -0.245 OA
BRANCH   3   5
ATOM      5  C   UNL A   1      34.953  20.787  24.808  1.00  0.00     0.301 C 
ATOM      6  C   UNL A   1      33.771  21.513  24.133  1.00  0.00     0.095 C 
ATOM      7  C   UNL A   1      32.659  20.454  24.103  1.00  0.00     0.076 C 
ATOM      8  C   UNL A   1      33.038  19.463  25.186  1.00  0.00     0.262 C 
ATOM      9  N   UNL A   1      34.498  19.397  25.110  1.00  0.00    -0.334 N 
ATOM     10  H   UNL A   1      34.786  18.760  24.368  1.00  0.00     0.347 HD
ATOM     11  H   UNL A   1      34.904  19.049  25.979  1.00  0.00     0.347 HD
BRANCH   6  12
ATOM     12  C   UNL A   1      33.343  22.833  24.743  1.00  0.00    -0.030 A 
ATOM     13  C   UNL A   1      33.589  25.254  24.922  1.00  0.00     0.164 A 
ATOM     14  C   UNL A   1      33.954  24.024  24.345  1.00  0.00     0.055 A 
ATOM     15  C   UNL A   1      32.580  25.333  25.903  1.00  0.00     0.203 A 
ATOM     16  C   UNL A   1      31.970  24.131  26.312  1.00  0.00     0.164 A 
ATOM     17  C   UNL A   1      32.352  22.913  25.725  1.00  0.00     0.055 A 
BRANCH  13  18
ATOM     18  O   UNL A   1      34.206  26.380  24.435  1.00  0.00    -0.493 OA
ATOM     19  C   UNL A   1      33.494  26.928  23.326  1.00  0.00     0.278 C 
ENDBRANCH  13  18
BRANCH  15  20
ATOM     20  O   UNL A   1      32.151  26.473  26.523  1.00  0.00    -0.490 OA
ATOM     21  C   UNL A   1      31.031  27.186  26.027  1.00  0.00     0.278 C 
ENDBRANCH  15  20
BRANCH  16  22
ATOM     22  O   UNL A   1      31.003  23.930  27.266  1.00  0.00    -0.493 OA
ATOM     23  C   UNL A   1      29.953  23.011  27.015  1.00  0.00     0.278 C 
ENDBRANCH  16  22
ENDBRANCH   6  12
ENDBRANCH   3   5
ENDBRANCH   2   3
ENDBRANCH   1   2
BRANCH   1  24
ATOM     24  C   UNL A   1      39.065  21.134  25.855  1.00  0.00     0.275 C 
BRANCH  24  25
ATOM     25  O   UNL A   1      39.588  19.795  25.857  1.00  0.00    -0.458 OA
BRANCH  25  26
ATOM     26  C   UNL A   1      40.925  19.698  26.020  1.00  0.00     0.338 C 
ATOM     27  O   UNL A   1      41.655  18.757  25.747  1.00  0.00    -0.246 OA
BRANCH  26  28
ATOM     28  C   UNL A   1      41.418  20.969  26.558  1.00  0.00     0.060 A 
ATOM     29  C   UNL A   1      41.241  21.236  27.917  1.00  0.00     0.016 A 
ATOM     30  C   UNL A   1      41.984  21.921  25.711  1.00  0.00     0.016 A 
ATOM     31  C   UNL A   1      41.612  22.471  28.438  1.00  0.00     0.010 A 
ATOM     32  C   UNL A   1      42.366  23.157  26.235  1.00  0.00     0.010 A 
ATOM     33  C   UNL A   1      42.165  23.445  27.597  1.00  0.00    -0.014 A 
BRANCH  33  34
ATOM     34  C   UNL A   1      42.458  24.798  28.122  1.00  0.00     0.031 A 
ATOM     35  C   UNL A   1      43.857  25.138  28.544  1.00  0.00     0.074 A 
ATOM     36  C   UNL A   1      41.480  25.716  28.207  1.00  0.00     0.049 A 
ATOM     37  N   UNL A   1      44.307  26.219  29.127  1.00  0.00    -0.248 NA
ATOM     38  C   UNL A   1      44.889  24.122  28.274  1.00  0.00     0.031 C 
ATOM     39  C   UNL A   1      40.094  25.518  27.779  1.00  0.00     0.029 A 
ATOM     40  N   UNL A   1      41.503  26.998  28.692  1.00  0.00    -0.354 N 
ATOM     41  C   UNL A   1      45.668  26.011  29.307  1.00  0.00     0.074 A 
ATOM     42  C   UNL A   1      45.969  24.693  28.789  1.00  0.00     0.031 C 
ATOM     43  C   UNL A   1      39.398  26.640  28.026  1.00  0.00     0.029 A 
ATOM     44  C   UNL A   1      40.276  27.614  28.668  1.00  0.00     0.049 A 
ATOM     45  H   UNL A   1      42.319  27.435  29.025  1.00  0.00     0.167 HD
ATOM     46  C   UNL A   1      46.584  26.845  29.852  1.00  0.00     0.037 A 
ATOM     47  C   UNL A   1      39.901  28.818  29.139  1.00  0.00     0.037 A 
ATOM     48  C   UNL A   1      46.282  28.157  30.363  1.00  0.00     0.049 A 
ATOM     49  C   UNL A   1      40.923  29.698  29.804  1.00  0.00     0.074 A 
ATOM     50  C   UNL A   1      47.136  29.075  30.948  1.00  0.00     0.029 A 
ATOM     51  N   UNL A   1      45.023  28.737  30.344  1.00  0.00    -0.354 N 
ATOM     52  N   UNL A   1      42.202  29.485  29.991  1.00  0.00    -0.248 NA
ATOM     53  C   UNL A   1      40.446  30.985  30.331  1.00  0.00     0.031 C 
ATOM     54  C   UNL A   1      46.386  30.200  31.310  1.00  0.00     0.029 A 
ATOM     55  C   UNL A   1      45.074  29.996  30.917  1.00  0.00     0.049 A 
ATOM     56  H   UNL A   1      44.211  28.314  29.978  1.00  0.00     0.167 HD
ATOM     57  C   UNL A   1      42.688  30.615  30.635  1.00  0.00     0.074 A 
ATOM     58  C   UNL A   1      41.566  31.518  30.797  1.00  0.00     0.031 C 
ATOM     59  C   UNL A   1      43.947  30.881  31.058  1.00  0.00     0.037 A 
BRANCH  46  60
ATOM     60  C   UNL A   1      47.996  26.351  29.942  1.00  0.00     0.057 A 
ATOM     61  C   UNL A   1      48.481  25.711  31.088  1.00  0.00     0.134 A 
ATOM     62  C   UNL A   1      48.873  26.499  28.860  1.00  0.00     0.134 A 
ATOM     63  F   UNL A   1      47.695  25.554  32.164  1.00  0.00    -0.206 F 
ATOM     64  C   UNL A   1      49.798  25.251  31.163  1.00  0.00     0.040 A 
ATOM     65  C   UNL A   1      50.184  26.025  28.916  1.00  0.00     0.040 A 
ATOM     66  F   UNL A   1      48.468  27.102  27.731  1.00  0.00    -0.206 F 
ATOM     67  C   UNL A   1      50.652  25.403  30.072  1.00  0.00     0.006 A 
ENDBRANCH  46  60
BRANCH  47  68
ATOM     68  C   UNL A   1      38.488  29.256  29.022  1.00  0.00     0.057 A 
ATOM     69  C   UNL A   1      37.613  29.170  30.109  1.00  0.00     0.134 A 
ATOM     70  C   UNL A   1      37.976  29.749  27.816  1.00  0.00     0.134 A 
ATOM     71  F   UNL A   1      38.040  28.682  31.284  1.00  0.00    -0.206 F 
ATOM     72  C   UNL A   1      36.273  29.545  30.000  1.00  0.00     0.040 A 
ATOM     73  C   UNL A   1      36.645  30.149  27.698  1.00  0.00     0.040 A 
ATOM     74  F   UNL A   1      38.765  29.854  26.738  1.00  0.00    -0.206 F 
ATOM     75  C   UNL A   1      35.786  30.041  28.790  1.00  0.00     0.006 A 
ENDBRANCH  47  68
BRANCH  59  76
ATOM     76  C   UNL A   1      44.182  32.215  31.701  1.00  0.00     0.057 A 
ATOM     77  C   UNL A   1      44.075  32.394  33.086  1.00  0.00     0.134 A 
ATOM     78  C   UNL A   1      44.546  33.324  30.928  1.00  0.00     0.134 A 
ATOM     79  F   UNL A   1      43.715  31.374  33.877  1.00  0.00    -0.206 F 
ATOM     80  C   UNL A   1      44.307  33.637  33.678  1.00  0.00     0.040 A 
ATOM     81  C   UNL A   1      44.800  34.567  31.510  1.00  0.00     0.040 A 
ATOM     82  F   UNL A   1      44.669  33.215  29.596  1.00  0.00    -0.206 F 
ATOM     83  C   UNL A   1      44.676  34.726  32.889  1.00  0.00     0.006 A 
ENDBRANCH  59  76
ENDBRANCH  33  34
ENDBRANCH  26  28
ENDBRANCH  25  26
ENDBRANCH  24  25
ENDBRANCH   1  24
TORSDOF 15
ENDMDL
MODEL 3
REMARK VINA RESULT:     -10.2      0.484      6.396
REMARK SMILES COc1cc([C@@H]2CC[NH2+][C@@H]2C(=O)OCCOC(=O)c2ccc(-c3c4nc(c(-c5c(F)cccc5F)c5ccc([nH]5)c(-c5c(F)cccc5F)c5nc(c(-c6c(F)cccc6F)c6ccc3[nH]6)C=C5)C=C4)cc2)cc(OC)c1OC
REMARK SMILES IDX 14 1 13 2 11 3 12 4 10 5 6 6 7 7 8 8 9 9 5 12 3 13 4 14
REMARK SMILES IDX 77 15 74 16 73 17 2 18 1 19 78 20 79 21 75 22 76 23 15 24
REMARK SMILES IDX 16 25 17 26 18 27 19 28 20 29 72 30 21 31 71 32 22 33 23 34
REMARK SMILES IDX 24 35 65 36 25 37 70 38 64 39 66 40 26 41 69 42 63 43 62 44
REMARK SMILES IDX 27 46 53 47 36 48 52 49 37 50 40 51 51 52 67 53 38 54 39 55
REMARK SMILES IDX 50 57 68 58 41 59 28 60 29 61 34 62 30 63 31 64 33 65 35 66
REMARK SMILES IDX 32 67 54 68 55 69 60 70 56 71 57 72 59 73 61 74 58 75 42 76
REMARK SMILES IDX 43 77 48 78 44 79 45 80 47 81 49 82 46 83
REMARK H PARENT 9 10 9 11 66 45 40 56
REMARK Flexibility Score: inf
ROOT
ATOM      1  C   UNL A   1      38.104  21.679  25.655  1.00  0.00     0.274 C 
ENDROOT
BRANCH   1   2
ATOM      2  O   UNL A   1      36.851  21.924  24.990  1.00  0.00    -0.458 OA
BRANCH   2   3
ATOM      3  C   UNL A   1      35.740  21.373  25.551  1.00  0.00     0.365 C 
ATOM      4  O   UNL A   1      35.418  21.489  26.731  1.00  0.00    -0.245 OA
BRANCH   3   5
ATOM      5  C   UNL A   1      34.916  20.535  24.563  1.00  0.00     0.301 C 
ATOM      6  C   UNL A   1      33.571  21.139  24.111  1.00  0.00     0.095 C 
ATOM      7  C   UNL A   1      32.553  20.027  24.405  1.00  0.00     0.076 C 
ATOM      8  C   UNL A   1      33.222  19.155  25.449  1.00  0.00     0.262 C 
ATOM      9  N   UNL A   1      34.633  19.156  25.060  1.00  0.00    -0.334 N 
ATOM     10  H   UNL A   1      34.797  18.471  24.322  1.00  0.00     0.347 HD
ATOM     11  H   UNL A   1      35.239  18.906  25.841  1.00  0.00     0.347 HD
BRANCH   6  12
ATOM     12  C   UNL A   1      33.195  22.484  24.700  1.00  0.00    -0.030 A 
ATOM     13  C   UNL A   1      31.885  23.805  26.279  1.00  0.00     0.164 A 
ATOM     14  C   UNL A   1      32.267  22.563  25.741  1.00  0.00     0.055 A 
ATOM     15  C   UNL A   1      32.440  25.011  25.805  1.00  0.00     0.203 A 
ATOM     16  C   UNL A   1      33.367  24.934  24.748  1.00  0.00     0.164 A 
ATOM     17  C   UNL A   1      33.733  23.682  24.224  1.00  0.00     0.055 A 
BRANCH  13  18
ATOM     18  O   UNL A   1      31.006  23.785  27.334  1.00  0.00    -0.493 OA
ATOM     19  C   UNL A   1      29.843  23.014  27.030  1.00  0.00     0.278 C 
ENDBRANCH  13  18
BRANCH  15  20
ATOM     20  O   UNL A   1      32.139  26.265  26.258  1.00  0.00    -0.490 OA
ATOM     21  C   UNL A   1      31.012  26.963  25.756  1.00  0.00     0.278 C 
ENDBRANCH  15  20
BRANCH  16  22
ATOM     22  O   UNL A   1      34.014  25.948  24.085  1.00  0.00    -0.493 OA
ATOM     23  C   UNL A   1      33.464  26.461  22.884  1.00  0.00     0.278 C 
ENDBRANCH  16  22
ENDBRANCH   6  12
ENDBRANCH   3   5
ENDBRANCH   2   3
ENDBRANCH   1   2
BRANCH   1  24
ATOM     24  C   UNL A   1      38.725  20.383  25.144  1.00  0.00     0.275 C 
BRANCH  24  25
ATOM     25  O   UNL A   1      39.469  19.751  26.200  1.00  0.00    -0.458 OA
BRANCH  25  26
ATOM     26  C   UNL A   1      40.811  19.759  26.044  1.00  0.00     0.338 C 
ATOM     27  O   UNL A   1      41.519  18.903  25.533  1.00  0.00    -0.246 OA
BRANCH  26  28
ATOM     28  C   UNL A   1      41.329  21.028  26.559  1.00  0.00     0.060 A 
ATOM     29  C   UNL A   1      41.135  21.334  27.907  1.00  0.00     0.016 A 
ATOM     30  C   UNL A   1      41.937  21.942  25.699  1.00  0.00     0.016 A 
ATOM     31  C   UNL A   1      41.531  22.572  28.404  1.00  0.00     0.010 A 
ATOM     32  C   UNL A   1      42.344  23.181  26.200  1.00  0.00     0.010 A 
ATOM     33  C   UNL A   1      42.126  23.508  27.550  1.00  0.00    -0.014 A 
BRANCH  33  34
ATOM     34  C   UNL A   1      42.446  24.866  28.046  1.00  0.00     0.031 A 
ATOM     35  C   UNL A   1      43.865  25.205  28.402  1.00  0.00     0.074 A 
ATOM     36  C   UNL A   1      41.477  25.789  28.164  1.00  0.00     0.049 A 
ATOM     37  N   UNL A   1      44.344  26.291  28.952  1.00  0.00    -0.248 NA
ATOM     38  C   UNL A   1      44.880  24.182  28.098  1.00  0.00     0.031 C 
ATOM     39  C   UNL A   1      40.073  25.593  27.800  1.00  0.00     0.029 A 
ATOM     40  N   UNL A   1      41.526  27.077  28.634  1.00  0.00    -0.354 N 
ATOM     41  C   UNL A   1      45.710  26.078  29.074  1.00  0.00     0.074 A 
ATOM     42  C   UNL A   1      45.984  24.754  28.557  1.00  0.00     0.031 C 
ATOM     43  C   UNL A   1      39.393  26.720  28.066  1.00  0.00     0.029 A 
ATOM     44  C   UNL A   1      40.302  27.697  28.657  1.00  0.00     0.049 A 
ATOM     45  H   UNL A   1      42.358  27.513  28.925  1.00  0.00     0.167 HD
ATOM     46  C   UNL A   1      46.653  26.915  29.569  1.00  0.00     0.037 A 
ATOM     47  C   UNL A   1      39.953  28.908  29.131  1.00  0.00     0.037 A 
ATOM     48  C   UNL A   1      46.379  28.234  30.078  1.00  0.00     0.049 A 
ATOM     49  C   UNL A   1      41.006  29.791  29.740  1.00  0.00     0.074 A 
ATOM     50  C   UNL A   1      47.261  29.155  30.614  1.00  0.00     0.029 A 
ATOM     51  N   UNL A   1      45.122  28.818  30.108  1.00  0.00    -0.354 N 
ATOM     52  N   UNL A   1      42.292  29.574  29.872  1.00  0.00    -0.248 NA
ATOM     53  C   UNL A   1      40.558  31.085  30.273  1.00  0.00     0.031 C 
ATOM     54  C   UNL A   1      46.533  30.287  30.996  1.00  0.00     0.029 A 
ATOM     55  C   UNL A   1      45.203  30.084  30.665  1.00  0.00     0.049 A 
ATOM     56  H   UNL A   1      44.294  28.395  29.784  1.00  0.00     0.167 HD
ATOM     57  C   UNL A   1      42.809  30.709  30.482  1.00  0.00     0.074 A 
ATOM     58  C   UNL A   1      41.700  31.619  30.683  1.00  0.00     0.031 C 
ATOM     59  C   UNL A   1      44.087  30.975  30.846  1.00  0.00     0.037 A 
BRANCH  46  60
ATOM     60  C   UNL A   1      48.066  26.416  29.601  1.00  0.00     0.057 A 
ATOM     61  C   UNL A   1      48.940  26.610  28.525  1.00  0.00     0.134 A 
ATOM     62  C   UNL A   1      48.562  25.753  30.730  1.00  0.00     0.134 A 
ATOM     63  F   UNL A   1      48.519  27.224  27.409  1.00  0.00    -0.206 F 
ATOM     64  C   UNL A   1      50.256  26.144  28.563  1.00  0.00     0.040 A 
ATOM     65  C   UNL A   1      49.882  25.302  30.788  1.00  0.00     0.040 A 
ATOM     66  F   UNL A   1      47.776  25.537  31.795  1.00  0.00    -0.206 F 
ATOM     67  C   UNL A   1      50.732  25.493  29.700  1.00  0.00     0.006 A 
ENDBRANCH  46  60
BRANCH  47  68
ATOM     68  C   UNL A   1      38.538  29.350  29.072  1.00  0.00     0.057 A 
ATOM     69  C   UNL A   1      37.717  29.298  30.203  1.00  0.00     0.134 A 
ATOM     70  C   UNL A   1      37.969  29.814  27.880  1.00  0.00     0.134 A 
ATOM     71  F   UNL A   1      38.199  28.839  31.367  1.00  0.00    -0.206 F 
ATOM     72  C   UNL A   1      36.374  29.678  30.149  1.00  0.00     0.040 A 
ATOM     73  C   UNL A   1      36.635  30.218  27.817  1.00  0.00     0.040 A 
ATOM     74  F   UNL A   1      38.704  29.885  26.761  1.00  0.00    -0.206 F 
ATOM     75  C   UNL A   1      35.831  30.144  28.953  1.00  0.00     0.006 A 
ENDBRANCH  47  68
BRANCH  59  76
ATOM     76  C   UNL A   1      44.355  32.315  31.463  1.00  0.00     0.057 A 
ATOM     77  C   UNL A   1      44.661  33.437  30.684  1.00  0.00     0.134 A 
ATOM     78  C   UNL A   1      44.277  32.487  32.850  1.00  0.00     0.134 A 
ATOM     79  F   UNL A   1      44.765  33.331  29.351  1.00  0.00    -0.206 F 
ATOM     80  C   UNL A   1      44.898  34.683  31.266  1.00  0.00     0.040 A 
ATOM     81  C   UNL A   1      44.492  33.733  33.443  1.00  0.00     0.040 A 
ATOM     82  F   UNL A   1      43.983  31.451  33.650  1.00  0.00    -0.206 F 
ATOM     83  C   UNL A   1      44.808  34.834  32.649  1.00  0.00     0.006 A 
ENDBRANCH  59  76
ENDBRANCH  33  34
ENDBRANCH  26  28
ENDBRANCH  25  26
ENDBRANCH  24  25
ENDBRANCH   1  24
TORSDOF 15
ENDMDL
