MODEL 1
REMARK VINA RESULT:     -11.3      0.000      0.000
REMARK SMILES C[C@@H](C(=O)OCCOC(=O)c1ccc(-c2c3nc(c(-c4c(F)cccc4F)c4ccc([nH]4)c(-c4c(F)cccc4F)c4nc(c(-c5c(F)cccc5F)c5ccc2[nH]5)C=C4)C=C3)cc1)c1ccc(-c2ccccc2)c(F)c1
REMARK SMILES IDX 6 1 5 2 3 3 4 4 2 5 1 6 65 7 66 8 77 9 67 10 75 11 68 12
REMARK SMILES IDX 76 13 69 14 70 15 74 16 71 17 73 18 72 19 7 20 8 21 9 22
REMARK SMILES IDX 10 23 11 24 12 25 64 26 13 27 63 28 14 29 15 30 16 31 57 32
REMARK SMILES IDX 17 33 62 34 56 35 58 36 18 37 61 38 55 39 54 40 19 42 45 43
REMARK SMILES IDX 28 44 44 45 29 46 32 47 43 48 59 49 30 50 31 51 42 53 60 54
REMARK SMILES IDX 33 55 20 56 21 57 26 58 22 59 23 60 25 61 27 62 24 63 46 64
REMARK SMILES IDX 47 65 52 66 48 67 49 68 51 69 53 70 50 71 34 72 35 73 40 74
REMARK SMILES IDX 36 75 37 76 39 77 41 78 38 79
REMARK H PARENT 58 41 32 52
REMARK Flexibility Score: inf
ROOT
ATOM      1  C   UNL A   1      43.913  21.878  25.589  1.00  0.00     0.274 C 
ENDROOT
BRANCH   1   2
ATOM      2  O   UNL A   1      42.842  20.943  25.335  1.00  0.00    -0.462 OA
BRANCH   2   3
ATOM      3  C   UNL A   1      41.965  20.704  26.356  1.00  0.00     0.313 C 
ATOM      4  O   UNL A   1      41.612  19.577  26.678  1.00  0.00    -0.252 OA
BRANCH   3   5
ATOM      5  C   UNL A   1      41.411  22.014  26.976  1.00  0.00     0.126 C 
ATOM      6  C   UNL A   1      41.499  21.962  28.512  1.00  0.00     0.025 C 
BRANCH   5   7
ATOM      7  C   UNL A   1      40.007  22.396  26.461  1.00  0.00    -0.031 A 
ATOM      8  C   UNL A   1      39.432  23.661  26.681  1.00  0.00     0.005 A 
ATOM      9  C   UNL A   1      39.226  21.467  25.751  1.00  0.00     0.044 A 
ATOM     10  C   UNL A   1      38.105  23.943  26.313  1.00  0.00     0.012 A 
ATOM     11  C   UNL A   1      37.898  21.748  25.397  1.00  0.00     0.131 A 
ATOM     12  C   UNL A   1      37.297  22.975  25.702  1.00  0.00     0.017 A 
ATOM     13  F   UNL A   1      37.184  20.772  24.815  1.00  0.00    -0.206 F 
BRANCH  12  14
ATOM     14  C   UNL A   1      35.859  23.218  25.496  1.00  0.00    -0.015 A 
ATOM     15  C   UNL A   1      34.917  23.011  26.512  1.00  0.00     0.009 A 
ATOM     16  C   UNL A   1      35.392  23.702  24.258  1.00  0.00     0.009 A 
ATOM     17  C   UNL A   1      33.563  23.294  26.303  1.00  0.00     0.001 A 
ATOM     18  C   UNL A   1      34.045  24.008  24.056  1.00  0.00     0.001 A 
ATOM     19  C   UNL A   1      33.130  23.805  25.080  1.00  0.00     0.000 A 
ENDBRANCH  12  14
ENDBRANCH   5   7
ENDBRANCH   3   5
ENDBRANCH   2   3
ENDBRANCH   1   2
BRANCH   1  20
ATOM     20  C   UNL A   1      44.139  22.823  24.406  1.00  0.00     0.275 C 
BRANCH  20  21
ATOM     21  O   UNL A   1      43.492  24.090  24.626  1.00  0.00    -0.458 OA
BRANCH  21  22
ATOM     22  C   UNL A   1      44.287  25.071  25.103  1.00  0.00     0.338 C 
ATOM     23  O   UNL A   1      45.342  25.471  24.628  1.00  0.00    -0.246 OA
BRANCH  22  24
ATOM     24  C   UNL A   1      43.587  25.775  26.187  1.00  0.00     0.060 A 
ATOM     25  C   UNL A   1      44.043  27.055  26.476  1.00  0.00     0.016 A 
ATOM     26  C   UNL A   1      42.559  25.207  26.941  1.00  0.00     0.016 A 
ATOM     27  C   UNL A   1      43.470  27.784  27.506  1.00  0.00     0.010 A 
ATOM     28  C   UNL A   1      41.998  25.939  28.004  1.00  0.00     0.010 A 
ATOM     29  C   UNL A   1      42.459  27.234  28.296  1.00  0.00    -0.014 A 
BRANCH  29  30
ATOM     30  C   UNL A   1      42.005  28.018  29.474  1.00  0.00     0.031 A 
ATOM     31  C   UNL A   1      40.764  28.860  29.371  1.00  0.00     0.074 A 
ATOM     32  C   UNL A   1      42.568  27.823  30.682  1.00  0.00     0.049 A 
ATOM     33  N   UNL A   1      40.169  29.578  30.290  1.00  0.00    -0.248 NA
ATOM     34  C   UNL A   1      40.077  28.858  28.071  1.00  0.00     0.031 C 
ATOM     35  C   UNL A   1      43.659  26.891  30.964  1.00  0.00     0.029 A 
ATOM     36  N   UNL A   1      42.256  28.357  31.909  1.00  0.00    -0.354 N 
ATOM     37  C   UNL A   1      39.042  30.114  29.681  1.00  0.00     0.074 A 
ATOM     38  C   UNL A   1      39.040  29.647  28.312  1.00  0.00     0.031 C 
ATOM     39  C   UNL A   1      43.899  26.888  32.286  1.00  0.00     0.029 A 
ATOM     40  C   UNL A   1      43.022  27.859  32.936  1.00  0.00     0.049 A 
ATOM     41  H   UNL A   1      41.552  29.031  32.041  1.00  0.00     0.167 HD
ATOM     42  C   UNL A   1      38.091  30.914  30.217  1.00  0.00     0.037 A 
ATOM     43  C   UNL A   1      43.028  28.166  34.249  1.00  0.00     0.037 A 
ATOM     44  C   UNL A   1      38.074  31.373  31.580  1.00  0.00     0.049 A 
ATOM     45  C   UNL A   1      42.073  29.204  34.773  1.00  0.00     0.074 A 
ATOM     46  C   UNL A   1      37.178  32.238  32.188  1.00  0.00     0.029 A 
ATOM     47  N   UNL A   1      38.990  31.002  32.551  1.00  0.00    -0.354 N 
ATOM     48  N   UNL A   1      41.065  29.784  34.169  1.00  0.00    -0.248 NA
ATOM     49  C   UNL A   1      42.276  29.649  36.160  1.00  0.00     0.031 C 
ATOM     50  C   UNL A   1      37.576  32.420  33.517  1.00  0.00     0.029 A 
ATOM     51  C   UNL A   1      38.694  31.637  33.747  1.00  0.00     0.049 A 
ATOM     52  H   UNL A   1      39.741  30.379  32.412  1.00  0.00     0.167 HD
ATOM     53  C   UNL A   1      40.506  30.646  35.105  1.00  0.00     0.074 A 
ATOM     54  C   UNL A   1      41.271  30.499  36.324  1.00  0.00     0.031 C 
ATOM     55  C   UNL A   1      39.455  31.488  34.961  1.00  0.00     0.037 A 
BRANCH  42  56
ATOM     56  C   UNL A   1      37.004  31.388  29.303  1.00  0.00     0.057 A 
ATOM     57  C   UNL A   1      35.922  30.572  28.953  1.00  0.00     0.134 A 
ATOM     58  C   UNL A   1      37.027  32.693  28.793  1.00  0.00     0.134 A 
ATOM     59  F   UNL A   1      35.853  29.307  29.398  1.00  0.00    -0.206 F 
ATOM     60  C   UNL A   1      34.906  31.033  28.116  1.00  0.00     0.040 A 
ATOM     61  C   UNL A   1      36.009  33.170  27.969  1.00  0.00     0.040 A 
ATOM     62  F   UNL A   1      38.037  33.522  29.097  1.00  0.00    -0.206 F 
ATOM     63  C   UNL A   1      34.945  32.338  27.627  1.00  0.00     0.006 A 
ENDBRANCH  42  56
BRANCH  43  64
ATOM     64  C   UNL A   1      44.011  27.531  35.166  1.00  0.00     0.057 A 
ATOM     65  C   UNL A   1      45.294  28.062  35.340  1.00  0.00     0.134 A 
ATOM     66  C   UNL A   1      43.712  26.338  35.837  1.00  0.00     0.134 A 
ATOM     67  F   UNL A   1      45.657  29.179  34.692  1.00  0.00    -0.206 F 
ATOM     68  C   UNL A   1      46.247  27.425  36.137  1.00  0.00     0.040 A 
ATOM     69  C   UNL A   1      44.645  25.705  36.659  1.00  0.00     0.040 A 
ATOM     70  F   UNL A   1      42.507  25.764  35.698  1.00  0.00    -0.206 F 
ATOM     71  C   UNL A   1      45.921  26.245  36.803  1.00  0.00     0.006 A 
ENDBRANCH  43  64
BRANCH  55  72
ATOM     72  C   UNL A   1      39.053  32.306  36.153  1.00  0.00     0.057 A 
ATOM     73  C   UNL A   1      38.183  31.806  37.129  1.00  0.00     0.134 A 
ATOM     74  C   UNL A   1      39.576  33.591  36.352  1.00  0.00     0.134 A 
ATOM     75  F   UNL A   1      37.637  30.588  36.992  1.00  0.00    -0.206 F 
ATOM     76  C   UNL A   1      37.832  32.560  38.251  1.00  0.00     0.040 A 
ATOM     77  C   UNL A   1      39.252  34.345  37.482  1.00  0.00     0.040 A 
ATOM     78  F   UNL A   1      40.422  34.128  35.459  1.00  0.00    -0.206 F 
ATOM     79  C   UNL A   1      38.374  33.831  38.433  1.00  0.00     0.006 A 
ENDBRANCH  55  72
ENDBRANCH  29  30
ENDBRANCH  22  24
ENDBRANCH  21  22
ENDBRANCH  20  21
ENDBRANCH   1  20
TORSDOF 13
ENDMDL
MODEL 2
REMARK VINA RESULT:     -11.2      5.261     10.756
REMARK SMILES C[C@@H](C(=O)OCCOC(=O)c1ccc(-c2c3nc(c(-c4c(F)cccc4F)c4ccc([nH]4)c(-c4c(F)cccc4F)c4nc(c(-c5c(F)cccc5F)c5ccc2[nH]5)C=C4)C=C3)cc1)c1ccc(-c2ccccc2)c(F)c1
REMARK SMILES IDX 6 1 5 2 3 3 4 4 2 5 1 6 65 7 66 8 77 9 67 10 75 11 68 12
REMARK SMILES IDX 76 13 69 14 70 15 74 16 71 17 73 18 72 19 7 20 8 21 9 22
REMARK SMILES IDX 10 23 11 24 12 25 64 26 13 27 63 28 14 29 15 30 16 31 57 32
REMARK SMILES IDX 17 33 62 34 56 35 58 36 18 37 61 38 55 39 54 40 19 42 45 43
REMARK SMILES IDX 28 44 44 45 29 46 32 47 43 48 59 49 30 50 31 51 42 53 60 54
REMARK SMILES IDX 33 55 20 56 21 57 26 58 22 59 23 60 25 61 27 62 24 63 46 64
REMARK SMILES IDX 47 65 52 66 48 67 49 68 51 69 53 70 50 71 34 72 35 73 40 74
REMARK SMILES IDX 36 75 37 76 39 77 41 78 38 79
REMARK H PARENT 58 41 32 52
REMARK Flexibility Score: inf
ROOT
ATOM      1  C   UNL A   1      34.358  33.996  32.303  1.00  0.00     0.274 C 
ENDROOT
BRANCH   1   2
ATOM      2  O   UNL A   1      34.146  33.082  31.205  1.00  0.00    -0.462 OA
BRANCH   2   3
ATOM      3  C   UNL A   1      34.385  33.551  29.945  1.00  0.00     0.313 C 
ATOM      4  O   UNL A   1      33.714  34.434  29.426  1.00  0.00    -0.252 OA
BRANCH   3   5
ATOM      5  C   UNL A   1      35.524  32.774  29.233  1.00  0.00     0.126 C 
ATOM      6  C   UNL A   1      36.371  33.729  28.372  1.00  0.00     0.025 C 
BRANCH   5   7
ATOM      7  C   UNL A   1      35.036  31.531  28.459  1.00  0.00    -0.031 A 
ATOM      8  C   UNL A   1      35.828  30.382  28.284  1.00  0.00     0.005 A 
ATOM      9  C   UNL A   1      33.758  31.508  27.873  1.00  0.00     0.044 A 
ATOM     10  C   UNL A   1      35.410  29.315  27.470  1.00  0.00     0.012 A 
ATOM     11  C   UNL A   1      33.350  30.446  27.051  1.00  0.00     0.131 A 
ATOM     12  C   UNL A   1      34.180  29.347  26.801  1.00  0.00     0.017 A 
ATOM     13  F   UNL A   1      32.159  30.546  26.442  1.00  0.00    -0.206 F 
BRANCH  12  14
ATOM     14  C   UNL A   1      33.838  28.316  25.806  1.00  0.00    -0.015 A 
ATOM     15  C   UNL A   1      33.328  27.064  26.177  1.00  0.00     0.009 A 
ATOM     16  C   UNL A   1      33.992  28.579  24.431  1.00  0.00     0.009 A 
ATOM     17  C   UNL A   1      32.969  26.121  25.209  1.00  0.00     0.001 A 
ATOM     18  C   UNL A   1      33.611  27.648  23.463  1.00  0.00     0.001 A 
ATOM     19  C   UNL A   1      33.098  26.417  23.853  1.00  0.00     0.000 A 
ENDBRANCH  12  14
ENDBRANCH   5   7
ENDBRANCH   3   5
ENDBRANCH   2   3
ENDBRANCH   1   2
BRANCH   1  20
ATOM     20  C   UNL A   1      35.073  33.323  33.478  1.00  0.00     0.275 C 
BRANCH  20  21
ATOM     21  O   UNL A   1      35.773  32.142  33.047  1.00  0.00    -0.458 OA
BRANCH  21  22
ATOM     22  C   UNL A   1      36.950  31.907  33.666  1.00  0.00     0.338 C 
ATOM     23  O   UNL A   1      37.177  31.935  34.868  1.00  0.00    -0.246 OA
BRANCH  22  24
ATOM     24  C   UNL A   1      37.912  31.379  32.688  1.00  0.00     0.060 A 
ATOM     25  C   UNL A   1      39.059  30.799  33.215  1.00  0.00     0.016 A 
ATOM     26  C   UNL A   1      37.747  31.482  31.306  1.00  0.00     0.016 A 
ATOM     27  C   UNL A   1      40.042  30.305  32.372  1.00  0.00     0.010 A 
ATOM     28  C   UNL A   1      38.759  31.006  30.453  1.00  0.00     0.010 A 
ATOM     29  C   UNL A   1      39.920  30.419  30.986  1.00  0.00    -0.014 A 
BRANCH  29  30
ATOM     30  C   UNL A   1      41.083  30.006  30.158  1.00  0.00     0.031 A 
ATOM     31  C   UNL A   1      41.104  28.636  29.541  1.00  0.00     0.074 A 
ATOM     32  C   UNL A   1      42.011  30.908  29.786  1.00  0.00     0.049 A 
ATOM     33  N   UNL A   1      41.994  28.096  28.746  1.00  0.00    -0.248 NA
ATOM     34  C   UNL A   1      39.946  27.773  29.820  1.00  0.00     0.031 C 
ATOM     35  C   UNL A   1      42.010  32.322  30.158  1.00  0.00     0.029 A 
ATOM     36  N   UNL A   1      43.103  30.778  28.963  1.00  0.00    -0.354 N 
ATOM     37  C   UNL A   1      41.508  26.834  28.433  1.00  0.00     0.074 A 
ATOM     38  C   UNL A   1      40.248  26.683  29.129  1.00  0.00     0.031 C 
ATOM     39  C   UNL A   1      43.027  32.938  29.533  1.00  0.00     0.029 A 
ATOM     40  C   UNL A   1      43.786  31.955  28.765  1.00  0.00     0.049 A 
ATOM     41  H   UNL A   1      43.371  29.925  28.552  1.00  0.00     0.167 HD
ATOM     42  C   UNL A   1      42.055  25.891  27.631  1.00  0.00     0.037 A 
ATOM     43  C   UNL A   1      44.907  32.205  28.060  1.00  0.00     0.037 A 
ATOM     44  C   UNL A   1      43.298  26.035  26.922  1.00  0.00     0.049 A 
ATOM     45  C   UNL A   1      45.592  31.081  27.329  1.00  0.00     0.074 A 
ATOM     46  C   UNL A   1      43.955  25.103  26.135  1.00  0.00     0.029 A 
ATOM     47  N   UNL A   1      44.071  27.185  26.906  1.00  0.00    -0.354 N 
ATOM     48  N   UNL A   1      45.176  29.857  27.114  1.00  0.00    -0.248 NA
ATOM     49  C   UNL A   1      46.919  31.371  26.765  1.00  0.00     0.031 C 
ATOM     50  C   UNL A   1      45.145  25.677  25.675  1.00  0.00     0.029 A 
ATOM     51  C   UNL A   1      45.209  26.979  26.141  1.00  0.00     0.049 A 
ATOM     52  H   UNL A   1      43.846  28.025  27.369  1.00  0.00     0.167 HD
ATOM     53  C   UNL A   1      46.180  29.240  26.378  1.00  0.00     0.074 A 
ATOM     54  C   UNL A   1      47.215  30.227  26.163  1.00  0.00     0.031 C 
ATOM     55  C   UNL A   1      46.238  27.964  25.926  1.00  0.00     0.037 A 
BRANCH  42  56
ATOM     56  C   UNL A   1      41.327  24.588  27.515  1.00  0.00     0.057 A 
ATOM     57  C   UNL A   1      40.253  24.415  26.635  1.00  0.00     0.134 A 
ATOM     58  C   UNL A   1      41.732  23.482  28.274  1.00  0.00     0.134 A 
ATOM     59  F   UNL A   1      39.810  25.443  25.893  1.00  0.00    -0.206 F 
ATOM     60  C   UNL A   1      39.596  23.189  26.523  1.00  0.00     0.040 A 
ATOM     61  C   UNL A   1      41.095  22.247  28.158  1.00  0.00     0.040 A 
ATOM     62  F   UNL A   1      42.758  23.586  29.132  1.00  0.00    -0.206 F 
ATOM     63  C   UNL A   1      40.022  22.100  27.282  1.00  0.00     0.006 A 
ENDBRANCH  42  56
BRANCH  43  64
ATOM     64  C   UNL A   1      45.502  33.568  28.051  1.00  0.00     0.057 A 
ATOM     65  C   UNL A   1      45.226  34.476  27.023  1.00  0.00     0.134 A 
ATOM     66  C   UNL A   1      46.416  33.967  29.035  1.00  0.00     0.134 A 
ATOM     67  F   UNL A   1      44.392  34.139  26.028  1.00  0.00    -0.206 F 
ATOM     68  C   UNL A   1      45.845  35.727  26.967  1.00  0.00     0.040 A 
ATOM     69  C   UNL A   1      47.020  35.225  29.007  1.00  0.00     0.040 A 
ATOM     70  F   UNL A   1      46.741  33.137  30.037  1.00  0.00    -0.206 F 
ATOM     71  C   UNL A   1      46.741  36.105  27.965  1.00  0.00     0.006 A 
ENDBRANCH  43  64
BRANCH  55  72
ATOM     72  C   UNL A   1      47.450  27.561  25.138  1.00  0.00     0.057 A 
ATOM     73  C   UNL A   1      47.515  27.734  23.750  1.00  0.00     0.134 A 
ATOM     74  C   UNL A   1      48.580  27.036  25.777  1.00  0.00     0.134 A 
ATOM     75  F   UNL A   1      46.461  28.219  23.075  1.00  0.00    -0.206 F 
ATOM     76  C   UNL A   1      48.654  27.383  23.023  1.00  0.00     0.040 A 
ATOM     77  C   UNL A   1      49.734  26.705  25.064  1.00  0.00     0.040 A 
ATOM     78  F   UNL A   1      48.587  26.852  27.107  1.00  0.00    -0.206 F 
ATOM     79  C   UNL A   1      49.771  26.873  23.682  1.00  0.00     0.006 A 
ENDBRANCH  55  72
ENDBRANCH  29  30
ENDBRANCH  22  24
ENDBRANCH  21  22
ENDBRANCH  20  21
ENDBRANCH   1  20
TORSDOF 13
ENDMDL
MODEL 3
REMARK VINA RESULT:     -11.2      3.946      8.875
REMARK SMILES C[C@@H](C(=O)OCCOC(=O)c1ccc(-c2c3nc(c(-c4c(F)cccc4F)c4ccc([nH]4)c(-c4c(F)cccc4F)c4nc(c(-c5c(F)cccc5F)c5ccc2[nH]5)C=C4)C=C3)cc1)c1ccc(-c2ccccc2)c(F)c1
REMARK SMILES IDX 6 1 5 2 3 3 4 4 2 5 1 6 65 7 66 8 77 9 67 10 75 11 68 12
REMARK SMILES IDX 76 13 69 14 70 15 74 16 71 17 73 18 72 19 7 20 8 21 9 22
REMARK SMILES IDX 10 23 11 24 12 25 64 26 13 27 63 28 14 29 15 30 16 31 57 32
REMARK SMILES IDX 17 33 62 34 56 35 58 36 18 37 61 38 55 39 54 40 19 42 45 43
REMARK SMILES IDX 28 44 44 45 29 46 32 47 43 48 59 49 30 50 31 51 42 53 60 54
REMARK SMILES IDX 33 55 20 56 21 57 26 58 22 59 23 60 25 61 27 62 24 63 46 64
REMARK SMILES IDX 47 65 52 66 48 67 49 68 51 69 53 70 50 71 34 72 35 73 40 74
REMARK SMILES IDX 36 75 37 76 39 77 41 78 38 79
REMARK H PARENT 58 41 32 52
REMARK Flexibility Score: inf
ROOT
ATOM      1  C   UNL A   1      31.348  32.054  26.377  1.00  0.00     0.274 C 
ENDROOT
BRANCH   1   2
ATOM      2  O   UNL A   1      31.482  30.705  26.876  1.00  0.00    -0.462 OA
BRANCH   2   3
ATOM      3  C   UNL A   1      32.171  29.817  26.100  1.00  0.00     0.313 C 
ATOM      4  O   UNL A   1      32.038  29.754  24.884  1.00  0.00    -0.252 OA
BRANCH   3   5
ATOM      5  C   UNL A   1      33.049  28.856  26.943  1.00  0.00     0.126 C 
ATOM      6  C   UNL A   1      34.496  29.377  27.023  1.00  0.00     0.025 C 
BRANCH   5   7
ATOM      7  C   UNL A   1      32.960  27.381  26.493  1.00  0.00    -0.031 A 
ATOM      8  C   UNL A   1      34.061  26.673  25.980  1.00  0.00     0.005 A 
ATOM      9  C   UNL A   1      31.741  26.683  26.565  1.00  0.00     0.044 A 
ATOM     10  C   UNL A   1      33.925  25.373  25.461  1.00  0.00     0.012 A 
ATOM     11  C   UNL A   1      31.608  25.391  26.033  1.00  0.00     0.131 A 
ATOM     12  C   UNL A   1      32.684  24.724  25.437  1.00  0.00     0.017 A 
ATOM     13  F   UNL A   1      30.388  24.831  26.045  1.00  0.00    -0.206 F 
BRANCH  12  14
ATOM     14  C   UNL A   1      32.517  23.448  24.721  1.00  0.00    -0.015 A 
ATOM     15  C   UNL A   1      32.613  23.360  23.326  1.00  0.00     0.009 A 
ATOM     16  C   UNL A   1      32.283  22.257  25.438  1.00  0.00     0.009 A 
ATOM     17  C   UNL A   1      32.496  22.127  22.675  1.00  0.00     0.001 A 
ATOM     18  C   UNL A   1      32.190  21.023  24.792  1.00  0.00     0.001 A 
ATOM     19  C   UNL A   1      32.299  20.958  23.409  1.00  0.00     0.000 A 
ENDBRANCH  12  14
ENDBRANCH   5   7
ENDBRANCH   3   5
ENDBRANCH   2   3
ENDBRANCH   1   2
BRANCH   1  20
ATOM     20  C   UNL A   1      32.480  32.961  26.869  1.00  0.00     0.275 C 
BRANCH  20  21
ATOM     21  O   UNL A   1      32.097  33.658  28.069  1.00  0.00    -0.458 OA
BRANCH  21  22
ATOM     22  C   UNL A   1      32.977  34.583  28.508  1.00  0.00     0.338 C 
ATOM     23  O   UNL A   1      32.754  35.757  28.771  1.00  0.00    -0.246 OA
BRANCH  22  24
ATOM     24  C   UNL A   1      34.243  33.919  28.850  1.00  0.00     0.060 A 
ATOM     25  C   UNL A   1      34.133  32.734  29.567  1.00  0.00     0.016 A 
ATOM     26  C   UNL A   1      35.500  34.440  28.541  1.00  0.00     0.016 A 
ATOM     27  C   UNL A   1      35.272  32.053  29.968  1.00  0.00     0.010 A 
ATOM     28  C   UNL A   1      36.654  33.762  28.973  1.00  0.00     0.010 A 
ATOM     29  C   UNL A   1      36.544  32.563  29.699  1.00  0.00    -0.014 A 
BRANCH  29  30
ATOM     30  C   UNL A   1      37.708  31.856  30.294  1.00  0.00     0.031 A 
ATOM     31  C   UNL A   1      38.027  32.049  31.749  1.00  0.00     0.074 A 
ATOM     32  C   UNL A   1      38.347  30.893  29.602  1.00  0.00     0.049 A 
ATOM     33  N   UNL A   1      38.963  31.489  32.475  1.00  0.00    -0.248 NA
ATOM     34  C   UNL A   1      37.149  32.961  32.499  1.00  0.00     0.031 C 
ATOM     35  C   UNL A   1      38.016  30.469  28.243  1.00  0.00     0.029 A 
ATOM     36  N   UNL A   1      39.371  30.056  29.975  1.00  0.00    -0.354 N 
ATOM     37  C   UNL A   1      38.788  31.981  33.762  1.00  0.00     0.074 A 
ATOM     38  C   UNL A   1      37.664  32.891  33.718  1.00  0.00     0.031 C 
ATOM     39  C   UNL A   1      38.795  29.426  27.910  1.00  0.00     0.029 A 
ATOM     40  C   UNL A   1      39.718  29.145  29.007  1.00  0.00     0.049 A 
ATOM     41  H   UNL A   1      39.814  30.104  30.853  1.00  0.00     0.167 HD
ATOM     42  C   UNL A   1      39.494  31.693  34.881  1.00  0.00     0.037 A 
ATOM     43  C   UNL A   1      40.683  28.204  28.999  1.00  0.00     0.037 A 
ATOM     44  C   UNL A   1      40.603  30.779  34.941  1.00  0.00     0.049 A 
ATOM     45  C   UNL A   1      41.572  28.042  30.202  1.00  0.00     0.074 A 
ATOM     46  C   UNL A   1      41.413  30.476  36.024  1.00  0.00     0.029 A 
ATOM     47  N   UNL A   1      41.057  30.014  33.878  1.00  0.00    -0.354 N 
ATOM     48  N   UNL A   1      41.464  28.581  31.392  1.00  0.00    -0.248 NA
ATOM     49  C   UNL A   1      42.737  27.156  30.049  1.00  0.00     0.031 C 
ATOM     50  C   UNL A   1      42.381  29.557  35.605  1.00  0.00     0.029 A 
ATOM     51  C   UNL A   1      42.149  29.257  34.274  1.00  0.00     0.049 A 
ATOM     52  H   UNL A   1      40.662  30.009  32.976  1.00  0.00     0.167 HD
ATOM     53  C   UNL A   1      42.533  28.087  32.130  1.00  0.00     0.074 A 
ATOM     54  C   UNL A   1      43.266  27.189  31.265  1.00  0.00     0.031 C 
ATOM     55  C   UNL A   1      42.876  28.362  33.412  1.00  0.00     0.037 A 
BRANCH  42  56
ATOM     56  C   UNL A   1      39.112  32.418  36.134  1.00  0.00     0.057 A 
ATOM     57  C   UNL A   1      39.574  33.709  36.412  1.00  0.00     0.134 A 
ATOM     58  C   UNL A   1      38.242  31.824  37.057  1.00  0.00     0.134 A 
ATOM     59  F   UNL A   1      40.422  34.323  35.573  1.00  0.00    -0.206 F 
ATOM     60  C   UNL A   1      39.195  34.381  37.575  1.00  0.00     0.040 A 
ATOM     61  C   UNL A   1      37.842  32.492  38.214  1.00  0.00     0.040 A 
ATOM     62  F   UNL A   1      37.764  30.589  36.843  1.00  0.00    -0.206 F 
ATOM     63  C   UNL A   1      38.321  33.773  38.476  1.00  0.00     0.006 A 
ENDBRANCH  42  56
BRANCH  43  64
ATOM     64  C   UNL A   1      40.912  27.371  27.789  1.00  0.00     0.057 A 
ATOM     65  C   UNL A   1      40.352  26.094  27.667  1.00  0.00     0.134 A 
ATOM     66  C   UNL A   1      41.753  27.807  26.756  1.00  0.00     0.134 A 
ATOM     67  F   UNL A   1      39.572  25.602  28.640  1.00  0.00    -0.206 F 
ATOM     68  C   UNL A   1      40.630  25.276  26.570  1.00  0.00     0.040 A 
ATOM     69  C   UNL A   1      42.017  27.011  25.641  1.00  0.00     0.040 A 
ATOM     70  F   UNL A   1      42.339  29.012  26.820  1.00  0.00    -0.206 F 
ATOM     71  C   UNL A   1      41.461  25.737  25.550  1.00  0.00     0.006 A 
ENDBRANCH  43  64
BRANCH  55  72
ATOM     72  C   UNL A   1      44.088  27.672  33.968  1.00  0.00     0.057 A 
ATOM     73  C   UNL A   1      44.003  26.414  34.578  1.00  0.00     0.134 A 
ATOM     74  C   UNL A   1      45.359  28.249  33.854  1.00  0.00     0.134 A 
ATOM     75  F   UNL A   1      42.813  25.812  34.731  1.00  0.00    -0.206 F 
ATOM     76  C   UNL A   1      45.135  25.763  35.070  1.00  0.00     0.040 A 
ATOM     77  C   UNL A   1      46.502  27.597  34.320  1.00  0.00     0.040 A 
ATOM     78  F   UNL A   1      45.512  29.450  33.273  1.00  0.00    -0.206 F 
ATOM     79  C   UNL A   1      46.391  26.352  34.935  1.00  0.00     0.006 A 
ENDBRANCH  55  72
ENDBRANCH  29  30
ENDBRANCH  22  24
ENDBRANCH  21  22
ENDBRANCH  20  21
ENDBRANCH   1  20
TORSDOF 13
ENDMDL
