MODEL 1
REMARK VINA RESULT:     -13.3      0.000      0.000
REMARK SMILES C[C@H]1CCc2sc3ncn4nc(/C=C\C(=O)OCCOC(=O)c5ccc(-c6c7nc(c(-c8c(F)cccc8F)c8ccc([nH]8)c(-c8c(F)cccc8F)c8nc(c(-c9c(F)cccc9F)c9ccc6[nH]9)C=C8)C=C7)cc5)nc4c3c2C1
REMARK SMILES IDX 19 1 18 2 17 3 15 4 16 5 14 6 13 7 12 8 1 9 2 10 3 11 81 12
REMARK SMILES IDX 4 13 80 14 5 15 79 16 6 17 7 18 78 19 8 20 10 21 77 22 9 23
REMARK SMILES IDX 11 24 20 25 21 26 22 27 23 28 24 29 76 30 25 31 75 32 26 33
REMARK SMILES IDX 27 34 28 35 69 36 29 37 74 38 68 39 70 40 30 41 73 42 67 43
REMARK SMILES IDX 66 44 31 46 57 47 40 48 56 49 41 50 44 51 55 52 71 53 42 54
REMARK SMILES IDX 43 55 54 57 72 58 45 59 32 60 33 61 38 62 34 63 35 64 37 65
REMARK SMILES IDX 39 66 36 67 58 68 59 69 64 70 60 71 61 72 63 73 65 74 62 75
REMARK SMILES IDX 46 76 47 77 52 78 48 79 49 80 51 81 53 82 50 83
REMARK H PARENT 70 45 44 56
REMARK Flexibility Score: inf
ROOT
ATOM      1  C   UNL A   1      42.855  19.244  25.768  1.00  0.00     0.275 C 
ENDROOT
BRANCH   1   2
ATOM      2  C   UNL A   1      42.193  19.783  27.025  1.00  0.00     0.275 C 
BRANCH   2   3
ATOM      3  O   UNL A   1      40.827  19.403  26.959  1.00  0.00    -0.459 OA
BRANCH   3   4
ATOM      4  C   UNL A   1      40.058  19.959  26.025  1.00  0.00     0.331 C 
ATOM      5  O   UNL A   1      39.273  19.395  25.279  1.00  0.00    -0.247 OA
BRANCH   4   6
ATOM      6  C   UNL A   1      40.252  21.410  26.082  1.00  0.00     0.097 C 
ATOM      7  C   UNL A   1      39.283  22.340  26.017  1.00  0.00     0.058 C 
BRANCH   7   8
ATOM      8  C   UNL A   1      37.852  22.236  25.904  1.00  0.00     0.175 A 
ATOM      9  C   UNL A   1      34.412  16.095  25.315  1.00  0.00     0.008 C 
ATOM     10  C   UNL A   1      34.708  16.941  24.076  1.00  0.00    -0.009 C 
ATOM     11  C   UNL A   1      33.485  17.124  23.162  1.00  0.00     0.009 C 
ATOM     12  C   UNL A   1      35.314  18.294  24.480  1.00  0.00     0.041 C 
ATOM     13  C   UNL A   1      32.414  18.058  23.754  1.00  0.00     0.047 C 
ATOM     14  C   UNL A   1      34.367  19.412  24.691  1.00  0.00    -0.020 A 
ATOM     15  C   UNL A   1      33.039  19.294  24.334  1.00  0.00     0.011 A 
ATOM     16  C   UNL A   1      34.666  20.734  25.130  1.00  0.00     0.060 A 
ATOM     17  S   UNL A   1      32.158  20.723  24.621  1.00  0.00    -0.120 S 
ATOM     18  C   UNL A   1      33.555  21.566  25.150  1.00  0.00     0.129 A 
ATOM     19  C   UNL A   1      35.928  21.425  25.518  1.00  0.00     0.168 A 
ATOM     20  N   UNL A   1      33.499  22.896  25.496  1.00  0.00    -0.225 NA
ATOM     21  N   UNL A   1      35.838  22.754  25.805  1.00  0.00    -0.201 N 
ATOM     22  N   UNL A   1      37.179  21.049  25.632  1.00  0.00    -0.207 NA
ATOM     23  C   UNL A   1      34.640  23.460  25.803  1.00  0.00     0.227 A 
ATOM     24  N   UNL A   1      37.041  23.298  26.059  1.00  0.00    -0.145 NA
ENDBRANCH   7   8
ENDBRANCH   4   6
ENDBRANCH   3   4
ENDBRANCH   2   3
ENDBRANCH   1   2
BRANCH   1  25
ATOM     25  O   UNL A   1      43.341  20.358  25.059  1.00  0.00    -0.458 OA
BRANCH  25  26
ATOM     26  C   UNL A   1      44.587  20.228  24.561  1.00  0.00     0.338 C 
ATOM     27  O   UNL A   1      45.206  19.208  24.320  1.00  0.00    -0.246 OA
BRANCH  26  28
ATOM     28  C   UNL A   1      45.131  21.584  24.504  1.00  0.00     0.060 A 
ATOM     29  C   UNL A   1      46.086  21.846  25.481  1.00  0.00     0.016 A 
ATOM     30  C   UNL A   1      44.312  22.576  23.938  1.00  0.00     0.016 A 
ATOM     31  C   UNL A   1      45.923  23.004  26.188  1.00  0.00     0.010 A 
ATOM     32  C   UNL A   1      44.114  23.702  24.674  1.00  0.00     0.010 A 
ATOM     33  C   UNL A   1      44.844  23.828  25.848  1.00  0.00    -0.014 A 
BRANCH  33  34
ATOM     34  C   UNL A   1      44.539  24.925  26.714  1.00  0.00     0.031 A 
ATOM     35  C   UNL A   1      45.604  25.934  26.663  1.00  0.00     0.074 A 
ATOM     36  C   UNL A   1      43.372  25.034  27.364  1.00  0.00     0.049 A 
ATOM     37  N   UNL A   1      46.558  26.095  27.514  1.00  0.00    -0.248 NA
ATOM     38  C   UNL A   1      45.795  26.637  25.383  1.00  0.00     0.031 C 
ATOM     39  C   UNL A   1      42.140  24.256  27.226  1.00  0.00     0.029 A 
ATOM     40  N   UNL A   1      43.040  25.985  28.266  1.00  0.00    -0.354 N 
ATOM     41  C   UNL A   1      47.349  27.089  26.963  1.00  0.00     0.074 A 
ATOM     42  C   UNL A   1      47.000  27.174  25.571  1.00  0.00     0.031 C 
ATOM     43  C   UNL A   1      41.133  24.917  27.850  1.00  0.00     0.029 A 
ATOM     44  C   UNL A   1      41.684  26.074  28.535  1.00  0.00     0.049 A 
ATOM     45  H   UNL A   1      43.707  26.567  28.697  1.00  0.00     0.167 HD
ATOM     46  C   UNL A   1      48.004  27.979  27.749  1.00  0.00     0.037 A 
ATOM     47  C   UNL A   1      41.121  27.128  29.177  1.00  0.00     0.037 A 
ATOM     48  C   UNL A   1      48.054  27.544  29.120  1.00  0.00     0.049 A 
ATOM     49  C   UNL A   1      42.225  27.837  29.896  1.00  0.00     0.074 A 
ATOM     50  C   UNL A   1      48.599  26.448  29.764  1.00  0.00     0.029 A 
ATOM     51  N   UNL A   1      47.109  28.054  29.980  1.00  0.00    -0.354 N 
ATOM     52  N   UNL A   1      42.878  27.327  30.904  1.00  0.00    -0.248 NA
ATOM     53  C   UNL A   1      42.922  28.899  29.180  1.00  0.00     0.031 C 
ATOM     54  C   UNL A   1      47.643  26.086  30.759  1.00  0.00     0.029 A 
ATOM     55  C   UNL A   1      46.596  27.007  30.709  1.00  0.00     0.049 A 
ATOM     56  H   UNL A   1      46.847  28.999  30.058  1.00  0.00     0.167 HD
ATOM     57  C   UNL A   1      44.202  27.704  30.708  1.00  0.00     0.074 A 
ATOM     58  C   UNL A   1      44.156  28.726  29.665  1.00  0.00     0.031 C 
ATOM     59  C   UNL A   1      45.233  26.949  31.191  1.00  0.00     0.037 A 
BRANCH  46  60
ATOM     60  C   UNL A   1      48.252  29.393  27.321  1.00  0.00     0.057 A 
ATOM     61  C   UNL A   1      49.559  29.891  27.313  1.00  0.00     0.134 A 
ATOM     62  C   UNL A   1      47.233  30.353  27.136  1.00  0.00     0.134 A 
ATOM     63  F   UNL A   1      50.604  29.075  27.522  1.00  0.00    -0.206 F 
ATOM     64  C   UNL A   1      49.832  31.253  27.154  1.00  0.00     0.040 A 
ATOM     65  C   UNL A   1      47.494  31.702  26.911  1.00  0.00     0.040 A 
ATOM     66  F   UNL A   1      45.932  30.056  27.265  1.00  0.00    -0.206 F 
ATOM     67  C   UNL A   1      48.798  32.162  26.946  1.00  0.00     0.006 A 
ENDBRANCH  46  60
BRANCH  47  68
ATOM     68  C   UNL A   1      39.840  27.800  28.866  1.00  0.00     0.057 A 
ATOM     69  C   UNL A   1      38.849  27.927  29.850  1.00  0.00     0.134 A 
ATOM     70  C   UNL A   1      39.676  28.595  27.718  1.00  0.00     0.134 A 
ATOM     71  F   UNL A   1      38.938  27.232  30.994  1.00  0.00    -0.206 F 
ATOM     72  C   UNL A   1      37.785  28.826  29.723  1.00  0.00     0.040 A 
ATOM     73  C   UNL A   1      38.613  29.492  27.575  1.00  0.00     0.040 A 
ATOM     74  F   UNL A   1      40.592  28.601  26.738  1.00  0.00    -0.206 F 
ATOM     75  C   UNL A   1      37.673  29.626  28.589  1.00  0.00     0.006 A 
ENDBRANCH  47  68
BRANCH  59  76
ATOM     76  C   UNL A   1      44.889  25.815  32.121  1.00  0.00     0.057 A 
ATOM     77  C   UNL A   1      44.667  25.970  33.499  1.00  0.00     0.134 A 
ATOM     78  C   UNL A   1      44.635  24.551  31.583  1.00  0.00     0.134 A 
ATOM     79  F   UNL A   1      44.783  27.167  34.087  1.00  0.00    -0.206 F 
ATOM     80  C   UNL A   1      44.256  24.906  34.309  1.00  0.00     0.040 A 
ATOM     81  C   UNL A   1      44.191  23.487  32.374  1.00  0.00     0.040 A 
ATOM     82  F   UNL A   1      44.768  24.338  30.264  1.00  0.00    -0.206 F 
ATOM     83  C   UNL A   1      44.012  23.659  33.744  1.00  0.00     0.006 A 
ENDBRANCH  59  76
ENDBRANCH  33  34
ENDBRANCH  26  28
ENDBRANCH  25  26
ENDBRANCH   1  25
TORSDOF 12
ENDMDL
MODEL 2
REMARK VINA RESULT:     -12.8      5.908     11.787
REMARK SMILES C[C@H]1CCc2sc3ncn4nc(/C=C\C(=O)OCCOC(=O)c5ccc(-c6c7nc(c(-c8c(F)cccc8F)c8ccc([nH]8)c(-c8c(F)cccc8F)c8nc(c(-c9c(F)cccc9F)c9ccc6[nH]9)C=C8)C=C7)cc5)nc4c3c2C1
REMARK SMILES IDX 19 1 18 2 17 3 15 4 16 5 14 6 13 7 12 8 1 9 2 10 3 11 81 12
REMARK SMILES IDX 4 13 80 14 5 15 79 16 6 17 7 18 78 19 8 20 10 21 77 22 9 23
REMARK SMILES IDX 11 24 20 25 21 26 22 27 23 28 24 29 76 30 25 31 75 32 26 33
REMARK SMILES IDX 27 34 28 35 69 36 29 37 74 38 68 39 70 40 30 41 73 42 67 43
REMARK SMILES IDX 66 44 31 46 57 47 40 48 56 49 41 50 44 51 55 52 71 53 42 54
REMARK SMILES IDX 43 55 54 57 72 58 45 59 32 60 33 61 38 62 34 63 35 64 37 65
REMARK SMILES IDX 39 66 36 67 58 68 59 69 64 70 60 71 61 72 63 73 65 74 62 75
REMARK SMILES IDX 46 76 47 77 52 78 48 79 49 80 51 81 53 82 50 83
REMARK H PARENT 70 45 44 56
REMARK Flexibility Score: inf
ROOT
ATOM      1  C   UNL A   1      34.203  33.253  28.156  1.00  0.00     0.275 C 
ENDROOT
BRANCH   1   2
ATOM      2  C   UNL A   1      34.548  34.529  28.903  1.00  0.00     0.275 C 
BRANCH   2   3
ATOM      3  O   UNL A   1      35.170  34.134  30.116  1.00  0.00    -0.459 OA
BRANCH   3   4
ATOM      4  C   UNL A   1      34.403  33.939  31.188  1.00  0.00     0.331 C 
ATOM      5  O   UNL A   1      33.573  34.704  31.654  1.00  0.00    -0.247 OA
BRANCH   4   6
ATOM      6  C   UNL A   1      34.668  32.591  31.697  1.00  0.00     0.097 C 
ATOM      7  C   UNL A   1      35.731  32.218  32.431  1.00  0.00     0.058 C 
BRANCH   7   8
ATOM      8  C   UNL A   1      36.858  32.954  32.939  1.00  0.00     0.175 A 
ATOM      9  C   UNL A   1      41.966  35.611  28.847  1.00  0.00     0.008 C 
ATOM     10  C   UNL A   1      42.170  34.286  29.582  1.00  0.00    -0.009 C 
ATOM     11  C   UNL A   1      43.515  34.207  30.324  1.00  0.00     0.009 C 
ATOM     12  C   UNL A   1      40.991  34.007  30.527  1.00  0.00     0.041 C 
ATOM     13  C   UNL A   1      43.578  35.105  31.572  1.00  0.00     0.047 C 
ATOM     14  C   UNL A   1      41.122  34.494  31.919  1.00  0.00    -0.020 A 
ATOM     15  C   UNL A   1      42.325  34.978  32.390  1.00  0.00     0.011 A 
ATOM     16  C   UNL A   1      40.152  34.421  32.960  1.00  0.00     0.060 A 
ATOM     17  S   UNL A   1      42.247  35.429  34.031  1.00  0.00    -0.120 S 
ATOM     18  C   UNL A   1      40.621  34.903  34.176  1.00  0.00     0.129 A 
ATOM     19  C   UNL A   1      38.763  33.887  33.033  1.00  0.00     0.168 A 
ATOM     20  N   UNL A   1      39.957  34.954  35.379  1.00  0.00    -0.225 NA
ATOM     21  N   UNL A   1      38.158  33.910  34.255  1.00  0.00    -0.201 N 
ATOM     22  N   UNL A   1      37.944  33.346  32.164  1.00  0.00    -0.207 NA
ATOM     23  C   UNL A   1      38.749  34.448  35.393  1.00  0.00     0.227 A 
ATOM     24  N   UNL A   1      36.946  33.331  34.228  1.00  0.00    -0.145 NA
ENDBRANCH   7   8
ENDBRANCH   4   6
ENDBRANCH   3   4
ENDBRANCH   2   3
ENDBRANCH   1   2
BRANCH   1  25
ATOM     25  O   UNL A   1      35.421  32.696  27.723  1.00  0.00    -0.458 OA
BRANCH  25  26
ATOM     26  C   UNL A   1      35.499  31.352  27.791  1.00  0.00     0.338 C 
ATOM     27  O   UNL A   1      34.913  30.522  27.121  1.00  0.00    -0.246 OA
BRANCH  26  28
ATOM     28  C   UNL A   1      36.333  31.066  28.958  1.00  0.00     0.060 A 
ATOM     29  C   UNL A   1      37.461  31.874  29.052  1.00  0.00     0.016 A 
ATOM     30  C   UNL A   1      36.269  29.764  29.481  1.00  0.00     0.016 A 
ATOM     31  C   UNL A   1      38.645  31.233  29.283  1.00  0.00     0.010 A 
ATOM     32  C   UNL A   1      37.451  29.115  29.658  1.00  0.00     0.010 A 
ATOM     33  C   UNL A   1      38.613  29.842  29.436  1.00  0.00    -0.014 A 
BRANCH  33  34
ATOM     34  C   UNL A   1      39.860  29.141  29.463  1.00  0.00     0.031 A 
ATOM     35  C   UNL A   1      40.245  28.829  30.845  1.00  0.00     0.074 A 
ATOM     36  C   UNL A   1      40.489  28.736  28.352  1.00  0.00     0.049 A 
ATOM     37  N   UNL A   1      41.090  29.471  31.576  1.00  0.00    -0.248 NA
ATOM     38  C   UNL A   1      39.384  27.888  31.580  1.00  0.00     0.031 C 
ATOM     39  C   UNL A   1      40.029  28.715  26.963  1.00  0.00     0.029 A 
ATOM     40  N   UNL A   1      41.707  28.152  28.285  1.00  0.00    -0.354 N 
ATOM     41  C   UNL A   1      41.014  28.855  32.814  1.00  0.00     0.074 A 
ATOM     42  C   UNL A   1      39.787  28.106  32.831  1.00  0.00     0.031 C 
ATOM     43  C   UNL A   1      40.869  27.937  26.235  1.00  0.00     0.029 A 
ATOM     44  C   UNL A   1      41.982  27.532  27.077  1.00  0.00     0.049 A 
ATOM     45  H   UNL A   1      42.347  28.167  29.034  1.00  0.00     0.167 HD
ATOM     46  C   UNL A   1      42.105  28.749  33.612  1.00  0.00     0.037 A 
ATOM     47  C   UNL A   1      43.006  26.660  26.906  1.00  0.00     0.037 A 
ATOM     48  C   UNL A   1      43.164  29.626  33.185  1.00  0.00     0.049 A 
ATOM     49  C   UNL A   1      43.963  26.888  28.033  1.00  0.00     0.074 A 
ATOM     50  C   UNL A   1      43.287  30.997  33.056  1.00  0.00     0.029 A 
ATOM     51  N   UNL A   1      44.155  29.084  32.398  1.00  0.00    -0.354 N 
ATOM     52  N   UNL A   1      44.664  27.979  28.179  1.00  0.00    -0.248 NA
ATOM     53  C   UNL A   1      43.767  26.112  29.252  1.00  0.00     0.031 C 
ATOM     54  C   UNL A   1      44.031  31.195  31.855  1.00  0.00     0.029 A 
ATOM     55  C   UNL A   1      44.370  29.942  31.345  1.00  0.00     0.049 A 
ATOM     56  H   UNL A   1      44.624  28.235  32.559  1.00  0.00     0.167 HD
ATOM     57  C   UNL A   1      44.652  28.240  29.544  1.00  0.00     0.074 A 
ATOM     58  C   UNL A   1      44.139  27.019  30.160  1.00  0.00     0.031 C 
ATOM     59  C   UNL A   1      44.776  29.513  30.024  1.00  0.00     0.037 A 
BRANCH  46  60
ATOM     60  C   UNL A   1      42.317  27.583  34.528  1.00  0.00     0.057 A 
ATOM     61  C   UNL A   1      42.045  27.723  35.893  1.00  0.00     0.134 A 
ATOM     62  C   UNL A   1      42.994  26.400  34.159  1.00  0.00     0.134 A 
ATOM     63  F   UNL A   1      41.444  28.827  36.362  1.00  0.00    -0.206 F 
ATOM     64  C   UNL A   1      42.439  26.761  36.829  1.00  0.00     0.040 A 
ATOM     65  C   UNL A   1      43.333  25.405  35.072  1.00  0.00     0.040 A 
ATOM     66  F   UNL A   1      43.453  26.191  32.917  1.00  0.00    -0.206 F 
ATOM     67  C   UNL A   1      43.079  25.595  36.418  1.00  0.00     0.006 A 
ENDBRANCH  46  60
BRANCH  47  68
ATOM     68  C   UNL A   1      43.002  25.396  26.136  1.00  0.00     0.057 A 
ATOM     69  C   UNL A   1      44.023  25.125  25.214  1.00  0.00     0.134 A 
ATOM     70  C   UNL A   1      42.192  24.306  26.499  1.00  0.00     0.134 A 
ATOM     71  F   UNL A   1      44.866  26.096  24.832  1.00  0.00    -0.206 F 
ATOM     72  C   UNL A   1      44.256  23.838  24.718  1.00  0.00     0.040 A 
ATOM     73  C   UNL A   1      42.409  23.016  26.005  1.00  0.00     0.040 A 
ATOM     74  F   UNL A   1      41.222  24.433  27.417  1.00  0.00    -0.206 F 
ATOM     75  C   UNL A   1      43.458  22.773  25.127  1.00  0.00     0.006 A 
ENDBRANCH  47  68
BRANCH  59  76
ATOM     76  C   UNL A   1      45.137  30.595  29.040  1.00  0.00     0.057 A 
ATOM     77  C   UNL A   1      46.454  30.900  28.657  1.00  0.00     0.134 A 
ATOM     78  C   UNL A   1      44.116  31.254  28.351  1.00  0.00     0.134 A 
ATOM     79  F   UNL A   1      47.496  30.246  29.186  1.00  0.00    -0.206 F 
ATOM     80  C   UNL A   1      46.740  31.848  27.669  1.00  0.00     0.040 A 
ATOM     81  C   UNL A   1      44.385  32.179  27.338  1.00  0.00     0.040 A 
ATOM     82  F   UNL A   1      42.831  30.975  28.619  1.00  0.00    -0.206 F 
ATOM     83  C   UNL A   1      45.700  32.488  27.001  1.00  0.00     0.006 A 
ENDBRANCH  59  76
ENDBRANCH  33  34
ENDBRANCH  26  28
ENDBRANCH  25  26
ENDBRANCH   1  25
TORSDOF 12
ENDMDL
MODEL 3
REMARK VINA RESULT:     -12.7      1.319      2.851
REMARK SMILES C[C@H]1CCc2sc3ncn4nc(/C=C\C(=O)OCCOC(=O)c5ccc(-c6c7nc(c(-c8c(F)cccc8F)c8ccc([nH]8)c(-c8c(F)cccc8F)c8nc(c(-c9c(F)cccc9F)c9ccc6[nH]9)C=C8)C=C7)cc5)nc4c3c2C1
REMARK SMILES IDX 19 1 18 2 17 3 15 4 16 5 14 6 13 7 12 8 1 9 2 10 3 11 81 12
REMARK SMILES IDX 4 13 80 14 5 15 79 16 6 17 7 18 78 19 8 20 10 21 77 22 9 23
REMARK SMILES IDX 11 24 20 25 21 26 22 27 23 28 24 29 76 30 25 31 75 32 26 33
REMARK SMILES IDX 27 34 28 35 69 36 29 37 74 38 68 39 70 40 30 41 73 42 67 43
REMARK SMILES IDX 66 44 31 46 57 47 40 48 56 49 41 50 44 51 55 52 71 53 42 54
REMARK SMILES IDX 43 55 54 57 72 58 45 59 32 60 33 61 38 62 34 63 35 64 37 65
REMARK SMILES IDX 39 66 36 67 58 68 59 69 64 70 60 71 61 72 63 73 65 74 62 75
REMARK SMILES IDX 46 76 47 77 52 78 48 79 49 80 51 81 53 82 50 83
REMARK H PARENT 70 45 44 56
REMARK Flexibility Score: inf
ROOT
ATOM      1  C   UNL A   1      42.622  19.463  26.091  1.00  0.00     0.275 C 
ENDROOT
BRANCH   1   2
ATOM      2  C   UNL A   1      41.257  19.874  26.617  1.00  0.00     0.275 C 
BRANCH   2   3
ATOM      3  O   UNL A   1      40.297  19.325  25.727  1.00  0.00    -0.459 OA
BRANCH   3   4
ATOM      4  C   UNL A   1      39.223  20.051  25.427  1.00  0.00     0.331 C 
ATOM      5  O   UNL A   1      38.180  19.659  24.925  1.00  0.00    -0.247 OA
BRANCH   4   6
ATOM      6  C   UNL A   1      39.464  21.426  25.871  1.00  0.00     0.097 C 
ATOM      7  C   UNL A   1      38.527  22.373  26.052  1.00  0.00     0.058 C 
BRANCH   7   8
ATOM      8  C   UNL A   1      37.096  22.355  25.906  1.00  0.00     0.175 A 
ATOM      9  C   UNL A   1      33.240  28.092  24.450  1.00  0.00     0.008 C 
ATOM     10  C   UNL A   1      33.359  27.580  25.886  1.00  0.00    -0.009 C 
ATOM     11  C   UNL A   1      32.005  27.485  26.609  1.00  0.00     0.009 C 
ATOM     12  C   UNL A   1      34.109  26.239  25.919  1.00  0.00     0.041 C 
ATOM     13  C   UNL A   1      31.117  26.339  26.093  1.00  0.00     0.047 C 
ATOM     14  C   UNL A   1      33.284  25.012  25.832  1.00  0.00    -0.020 A 
ATOM     15  C   UNL A   1      31.909  25.073  25.934  1.00  0.00     0.011 A 
ATOM     16  C   UNL A   1      33.738  23.663  25.777  1.00  0.00     0.060 A 
ATOM     17  S   UNL A   1      31.183  23.534  25.858  1.00  0.00    -0.120 S 
ATOM     18  C   UNL A   1      32.700  22.739  25.778  1.00  0.00     0.129 A 
ATOM     19  C   UNL A   1      35.089  23.034  25.773  1.00  0.00     0.168 A 
ATOM     20  N   UNL A   1      32.789  21.367  25.755  1.00  0.00    -0.225 NA
ATOM     21  N   UNL A   1      35.133  21.671  25.802  1.00  0.00    -0.201 N 
ATOM     22  N   UNL A   1      36.315  23.498  25.774  1.00  0.00    -0.207 NA
ATOM     23  C   UNL A   1      33.998  20.867  25.779  1.00  0.00     0.227 A 
ATOM     24  N   UNL A   1      36.392  21.209  25.881  1.00  0.00    -0.145 NA
ENDBRANCH   7   8
ENDBRANCH   4   6
ENDBRANCH   3   4
ENDBRANCH   2   3
ENDBRANCH   1   2
BRANCH   1  25
ATOM     25  O   UNL A   1      42.989  20.421  25.128  1.00  0.00    -0.458 OA
BRANCH  25  26
ATOM     26  C   UNL A   1      44.185  20.221  24.539  1.00  0.00     0.338 C 
ATOM     27  O   UNL A   1      44.679  19.175  24.160  1.00  0.00    -0.246 OA
BRANCH  26  28
ATOM     28  C   UNL A   1      44.864  21.516  24.578  1.00  0.00     0.060 A 
ATOM     29  C   UNL A   1      45.727  21.663  25.659  1.00  0.00     0.016 A 
ATOM     30  C   UNL A   1      44.215  22.594  23.955  1.00  0.00     0.016 A 
ATOM     31  C   UNL A   1      45.602  22.819  26.376  1.00  0.00     0.010 A 
ATOM     32  C   UNL A   1      44.050  23.723  24.696  1.00  0.00     0.010 A 
ATOM     33  C   UNL A   1      44.655  23.754  25.945  1.00  0.00    -0.014 A 
BRANCH  33  34
ATOM     34  C   UNL A   1      44.367  24.863  26.802  1.00  0.00     0.031 A 
ATOM     35  C   UNL A   1      45.445  25.857  26.739  1.00  0.00     0.074 A 
ATOM     36  C   UNL A   1      43.204  24.992  27.455  1.00  0.00     0.049 A 
ATOM     37  N   UNL A   1      46.404  26.013  27.586  1.00  0.00    -0.248 NA
ATOM     38  C   UNL A   1      45.641  26.547  25.453  1.00  0.00     0.031 C 
ATOM     39  C   UNL A   1      41.962  24.229  27.328  1.00  0.00     0.029 A 
ATOM     40  N   UNL A   1      42.887  25.955  28.351  1.00  0.00    -0.354 N 
ATOM     41  C   UNL A   1      47.206  26.992  27.024  1.00  0.00     0.074 A 
ATOM     42  C   UNL A   1      46.853  27.070  25.632  1.00  0.00     0.031 C 
ATOM     43  C   UNL A   1      40.965  24.908  27.949  1.00  0.00     0.029 A 
ATOM     44  C   UNL A   1      41.534  26.063  28.624  1.00  0.00     0.049 A 
ATOM     45  H   UNL A   1      43.564  26.532  28.774  1.00  0.00     0.167 HD
ATOM     46  C   UNL A   1      47.875  27.880  27.800  1.00  0.00     0.037 A 
ATOM     47  C   UNL A   1      40.987  27.130  29.258  1.00  0.00     0.037 A 
ATOM     48  C   UNL A   1      47.924  27.455  29.175  1.00  0.00     0.049 A 
ATOM     49  C   UNL A   1      42.102  27.831  29.968  1.00  0.00     0.074 A 
ATOM     50  C   UNL A   1      48.457  26.358  29.825  1.00  0.00     0.029 A 
ATOM     51  N   UNL A   1      46.989  27.985  30.033  1.00  0.00    -0.354 N 
ATOM     52  N   UNL A   1      42.752  27.321  30.978  1.00  0.00    -0.248 NA
ATOM     53  C   UNL A   1      42.810  28.877  29.241  1.00  0.00     0.031 C 
ATOM     54  C   UNL A   1      47.500  26.016  30.827  1.00  0.00     0.029 A 
ATOM     55  C   UNL A   1      46.465  26.951  30.772  1.00  0.00     0.049 A 
ATOM     56  H   UNL A   1      46.739  28.934  30.104  1.00  0.00     0.167 HD
ATOM     57  C   UNL A   1      44.080  27.679  30.774  1.00  0.00     0.074 A 
ATOM     58  C   UNL A   1      44.043  28.693  29.723  1.00  0.00     0.031 C 
ATOM     59  C   UNL A   1      45.103  26.915  31.260  1.00  0.00     0.037 A 
BRANCH  46  60
ATOM     60  C   UNL A   1      48.140  29.287  27.359  1.00  0.00     0.057 A 
ATOM     61  C   UNL A   1      49.454  29.764  27.333  1.00  0.00     0.134 A 
ATOM     62  C   UNL A   1      47.133  30.262  27.180  1.00  0.00     0.134 A 
ATOM     63  F   UNL A   1      50.489  28.934  27.535  1.00  0.00    -0.206 F 
ATOM     64  C   UNL A   1      49.746  31.121  27.161  1.00  0.00     0.040 A 
ATOM     65  C   UNL A   1      47.413  31.605  26.943  1.00  0.00     0.040 A 
ATOM     66  F   UNL A   1      45.830  29.986  27.326  1.00  0.00    -0.206 F 
ATOM     67  C   UNL A   1      48.724  32.045  26.959  1.00  0.00     0.006 A 
ENDBRANCH  46  60
BRANCH  47  68
ATOM     68  C   UNL A   1      39.713  27.816  28.946  1.00  0.00     0.057 A 
ATOM     69  C   UNL A   1      38.722  27.951  29.928  1.00  0.00     0.134 A 
ATOM     70  C   UNL A   1      39.560  28.615  27.799  1.00  0.00     0.134 A 
ATOM     71  F   UNL A   1      38.800  27.253  31.071  1.00  0.00    -0.206 F 
ATOM     72  C   UNL A   1      37.667  28.862  29.801  1.00  0.00     0.040 A 
ATOM     73  C   UNL A   1      38.507  29.523  27.656  1.00  0.00     0.040 A 
ATOM     74  F   UNL A   1      40.478  28.613  26.821  1.00  0.00    -0.206 F 
ATOM     75  C   UNL A   1      37.566  29.665  28.668  1.00  0.00     0.006 A 
ENDBRANCH  47  68
BRANCH  59  76
ATOM     76  C   UNL A   1      44.747  25.793  32.200  1.00  0.00     0.057 A 
ATOM     77  C   UNL A   1      44.503  25.967  33.573  1.00  0.00     0.134 A 
ATOM     78  C   UNL A   1      44.505  24.520  31.677  1.00  0.00     0.134 A 
ATOM     79  F   UNL A   1      44.607  27.173  34.145  1.00  0.00    -0.206 F 
ATOM     80  C   UNL A   1      44.083  24.914  34.391  1.00  0.00     0.040 A 
ATOM     81  C   UNL A   1      44.052  23.466  32.475  1.00  0.00     0.040 A 
ATOM     82  F   UNL A   1      44.660  24.289  30.364  1.00  0.00    -0.206 F 
ATOM     83  C   UNL A   1      43.851  23.657  33.840  1.00  0.00     0.006 A 
ENDBRANCH  59  76
ENDBRANCH  33  34
ENDBRANCH  26  28
ENDBRANCH  25  26
ENDBRANCH   1  25
TORSDOF 12
ENDMDL
