MODEL 1
REMARK VINA RESULT:     -12.3      0.000      0.000
REMARK SMILES CC1(C)CCCC[C@H]1NC(=O)Nc1ccccc1C(=O)OCCOC(=O)c1ccc(-c2c3nc(c(-c4c(F)cccc4F)c4ccc([nH]4)c(-c4c(F)cccc4F)c4nc(c(-c5c(F)cccc5F)c5ccc2[nH]5)C=C4)C=C3)cc1
REMARK SMILES IDX 22 1 21 2 19 3 20 4 18 5 13 6 14 7 15 8 17 9 16 10 12 11
REMARK SMILES IDX 9 12 10 13 11 15 8 17 1 18 2 19 3 20 4 21 5 22 7 23 6 24
REMARK SMILES IDX 23 25 24 26 25 27 26 28 27 29 28 30 80 31 29 32 79 33 30 34
REMARK SMILES IDX 31 35 32 36 73 37 33 38 78 39 72 40 74 41 34 42 77 43 71 44
REMARK SMILES IDX 70 45 35 47 61 48 44 49 60 50 45 51 48 52 59 53 75 54 46 55
REMARK SMILES IDX 47 56 58 58 76 59 49 60 36 61 37 62 42 63 38 64 39 65 41 66
REMARK SMILES IDX 43 67 40 68 62 69 63 70 68 71 64 72 65 73 67 74 69 75 66 76
REMARK SMILES IDX 50 77 51 78 56 79 52 80 53 81 55 82 57 83 54 84
REMARK H PARENT 9 14 12 16 74 46 48 57
REMARK Flexibility Score: inf
ROOT
ATOM      1  C   UNL A   1      31.920  28.659  27.209  1.00  0.00     0.275 C 
ENDROOT
BRANCH   1   2
ATOM      2  O   UNL A   1      32.895  28.018  26.355  1.00  0.00    -0.458 OA
BRANCH   2   3
ATOM      3  C   UNL A   1      32.514  26.789  25.952  1.00  0.00     0.340 C 
ATOM      4  O   UNL A   1      33.110  25.753  26.185  1.00  0.00    -0.246 OA
BRANCH   3   5
ATOM      5  C   UNL A   1      31.297  26.727  25.142  1.00  0.00     0.083 A 
ATOM      6  C   UNL A   1      30.203  25.917  25.464  1.00  0.00     0.057 A 
ATOM      7  C   UNL A   1      29.060  25.990  24.649  1.00  0.00     0.027 A 
ATOM      8  C   UNL A   1      28.949  26.955  23.643  1.00  0.00     0.002 A 
ATOM      9  C   UNL A   1      31.191  27.675  24.104  1.00  0.00     0.018 A 
ATOM     10  C   UNL A   1      30.008  27.813  23.382  1.00  0.00     0.001 A 
BRANCH   6  11
ATOM     11  N   UNL A   1      30.124  25.016  26.542  1.00  0.00    -0.307 N 
ATOM     12  N   UNL A   1      30.840  22.864  25.832  1.00  0.00    -0.335 N 
ATOM     13  C   UNL A   1      30.112  23.669  26.634  1.00  0.00     0.319 C 
ATOM     14  H   UNL A   1      30.607  21.912  25.921  1.00  0.00     0.165 HD
ATOM     15  O   UNL A   1      29.508  23.146  27.573  1.00  0.00    -0.248 OA
ATOM     16  H   UNL A   1      30.066  25.463  27.416  1.00  0.00     0.171 HD
BRANCH  12  17
ATOM     17  C   UNL A   1      31.906  23.111  24.858  1.00  0.00     0.089 C 
ATOM     18  C   UNL A   1      32.431  20.653  24.278  1.00  0.00     0.013 C 
ATOM     19  C   UNL A   1      32.998  22.000  24.772  1.00  0.00    -0.015 C 
ATOM     20  C   UNL A   1      33.653  21.752  26.144  1.00  0.00     0.013 C 
ATOM     21  C   UNL A   1      34.097  22.511  23.795  1.00  0.00     0.008 C 
ATOM     22  C   UNL A   1      33.573  22.978  22.431  1.00  0.00     0.001 C 
ATOM     23  C   UNL A   1      31.306  23.350  23.455  1.00  0.00     0.025 C 
ATOM     24  C   UNL A   1      32.380  23.922  22.537  1.00  0.00     0.002 C 
ENDBRANCH  12  17
ENDBRANCH   6  11
ENDBRANCH   3   5
ENDBRANCH   2   3
ENDBRANCH   1   2
BRANCH   1  25
ATOM     25  C   UNL A   1      31.741  30.172  26.992  1.00  0.00     0.275 C 
BRANCH  25  26
ATOM     26  O   UNL A   1      32.922  30.825  26.475  1.00  0.00    -0.458 OA
BRANCH  26  27
ATOM     27  C   UNL A   1      33.456  31.786  27.266  1.00  0.00     0.338 C 
ATOM     28  O   UNL A   1      32.914  32.810  27.650  1.00  0.00    -0.246 OA
BRANCH  27  29
ATOM     29  C   UNL A   1      34.821  31.424  27.697  1.00  0.00     0.060 A 
ATOM     30  C   UNL A   1      35.086  30.093  28.026  1.00  0.00     0.016 A 
ATOM     31  C   UNL A   1      35.771  32.404  27.976  1.00  0.00     0.016 A 
ATOM     32  C   UNL A   1      36.268  29.723  28.643  1.00  0.00     0.010 A 
ATOM     33  C   UNL A   1      36.977  32.035  28.592  1.00  0.00     0.010 A 
ATOM     34  C   UNL A   1      37.216  30.695  28.949  1.00  0.00    -0.014 A 
BRANCH  34  35
ATOM     35  C   UNL A   1      38.371  30.297  29.779  1.00  0.00     0.031 A 
ATOM     36  C   UNL A   1      39.424  29.417  29.175  1.00  0.00     0.074 A 
ATOM     37  C   UNL A   1      38.537  30.817  31.008  1.00  0.00     0.049 A 
ATOM     38  N   UNL A   1      40.444  28.833  29.747  1.00  0.00    -0.248 NA
ATOM     39  C   UNL A   1      39.320  29.171  27.728  1.00  0.00     0.031 C 
ATOM     40  C   UNL A   1      37.657  31.806  31.635  1.00  0.00     0.029 A 
ATOM     41  N   UNL A   1      39.512  30.595  31.945  1.00  0.00    -0.354 N 
ATOM     42  C   UNL A   1      41.074  28.114  28.740  1.00  0.00     0.074 A 
ATOM     43  C   UNL A   1      40.333  28.343  27.521  1.00  0.00     0.031 C 
ATOM     44  C   UNL A   1      38.133  32.103  32.854  1.00  0.00     0.029 A 
ATOM     45  C   UNL A   1      39.300  31.269  33.122  1.00  0.00     0.049 A 
ATOM     46  H   UNL A   1      40.288  30.010  31.789  1.00  0.00     0.167 HD
ATOM     47  C   UNL A   1      42.169  27.323  28.838  1.00  0.00     0.037 A 
ATOM     48  C   UNL A   1      39.945  31.174  34.300  1.00  0.00     0.037 A 
ATOM     49  C   UNL A   1      42.904  27.129  30.060  1.00  0.00     0.049 A 
ATOM     50  C   UNL A   1      41.087  30.204  34.417  1.00  0.00     0.074 A 
ATOM     51  C   UNL A   1      44.000  26.320  30.291  1.00  0.00     0.029 A 
ATOM     52  N   UNL A   1      42.612  27.765  31.258  1.00  0.00    -0.354 N 
ATOM     53  N   UNL A   1      41.628  29.446  33.492  1.00  0.00    -0.248 NA
ATOM     54  C   UNL A   1      41.695  30.053  35.747  1.00  0.00     0.031 C 
ATOM     55  C   UNL A   1      44.347  26.436  31.642  1.00  0.00     0.029 A 
ATOM     56  C   UNL A   1      43.495  27.352  32.240  1.00  0.00     0.049 A 
ATOM     57  H   UNL A   1      41.884  28.414  31.390  1.00  0.00     0.167 HD
ATOM     58  C   UNL A   1      42.643  28.740  34.121  1.00  0.00     0.074 A 
ATOM     59  C   UNL A   1      42.657  29.174  35.503  1.00  0.00     0.031 C 
ATOM     60  C   UNL A   1      43.486  27.809  33.606  1.00  0.00     0.037 A 
BRANCH  47  61
ATOM     61  C   UNL A   1      42.578  26.565  27.612  1.00  0.00     0.057 A 
ATOM     62  C   UNL A   1      43.480  27.082  26.674  1.00  0.00     0.134 A 
ATOM     63  C   UNL A   1      42.047  25.292  27.364  1.00  0.00     0.134 A 
ATOM     64  F   UNL A   1      44.006  28.304  26.839  1.00  0.00    -0.206 F 
ATOM     65  C   UNL A   1      43.819  26.371  25.520  1.00  0.00     0.040 A 
ATOM     66  C   UNL A   1      42.397  24.562  26.227  1.00  0.00     0.040 A 
ATOM     67  F   UNL A   1      41.176  24.738  28.222  1.00  0.00    -0.206 F 
ATOM     68  C   UNL A   1      43.280  25.105  25.298  1.00  0.00     0.006 A 
ENDBRANCH  47  61
BRANCH  48  69
ATOM     69  C   UNL A   1      39.477  31.955  35.474  1.00  0.00     0.057 A 
ATOM     70  C   UNL A   1      38.502  31.453  36.342  1.00  0.00     0.134 A 
ATOM     71  C   UNL A   1      39.985  33.233  35.746  1.00  0.00     0.134 A 
ATOM     72  F   UNL A   1      37.957  30.248  36.122  1.00  0.00    -0.206 F 
ATOM     73  C   UNL A   1      38.041  32.196  37.431  1.00  0.00     0.040 A 
ATOM     74  C   UNL A   1      39.555  33.974  36.846  1.00  0.00     0.040 A 
ATOM     75  F   UNL A   1      40.919  33.774  34.950  1.00  0.00    -0.206 F 
ATOM     76  C   UNL A   1      38.573  33.459  37.690  1.00  0.00     0.006 A 
ENDBRANCH  48  69
BRANCH  60  77
ATOM     77  C   UNL A   1      44.505  27.228  34.539  1.00  0.00     0.057 A 
ATOM     78  C   UNL A   1      44.268  26.041  35.242  1.00  0.00     0.134 A 
ATOM     79  C   UNL A   1      45.754  27.842  34.699  1.00  0.00     0.134 A 
ATOM     80  F   UNL A   1      43.085  25.416  35.141  1.00  0.00    -0.206 F 
ATOM     81  C   UNL A   1      45.232  25.493  36.089  1.00  0.00     0.040 A 
ATOM     82  C   UNL A   1      46.735  27.290  35.523  1.00  0.00     0.040 A 
ATOM     83  F   UNL A   1      46.044  28.977  34.045  1.00  0.00    -0.206 F 
ATOM     84  C   UNL A   1      46.473  26.115  36.224  1.00  0.00     0.006 A 
ENDBRANCH  60  77
ENDBRANCH  34  35
ENDBRANCH  27  29
ENDBRANCH  26  27
ENDBRANCH  25  26
ENDBRANCH   1  25
TORSDOF 13
ENDMDL
MODEL 2
REMARK VINA RESULT:     -12.0      4.052      8.772
REMARK SMILES CC1(C)CCCC[C@H]1NC(=O)Nc1ccccc1C(=O)OCCOC(=O)c1ccc(-c2c3nc(c(-c4c(F)cccc4F)c4ccc([nH]4)c(-c4c(F)cccc4F)c4nc(c(-c5c(F)cccc5F)c5ccc2[nH]5)C=C4)C=C3)cc1
REMARK SMILES IDX 22 1 21 2 19 3 20 4 18 5 13 6 14 7 15 8 17 9 16 10 12 11
REMARK SMILES IDX 9 12 10 13 11 15 8 17 1 18 2 19 3 20 4 21 5 22 7 23 6 24
REMARK SMILES IDX 23 25 24 26 25 27 26 28 27 29 28 30 80 31 29 32 79 33 30 34
REMARK SMILES IDX 31 35 32 36 73 37 33 38 78 39 72 40 74 41 34 42 77 43 71 44
REMARK SMILES IDX 70 45 35 47 61 48 44 49 60 50 45 51 48 52 59 53 75 54 46 55
REMARK SMILES IDX 47 56 58 58 76 59 49 60 36 61 37 62 42 63 38 64 39 65 41 66
REMARK SMILES IDX 43 67 40 68 62 69 63 70 68 71 64 72 65 73 67 74 69 75 66 76
REMARK SMILES IDX 50 77 51 78 56 79 52 80 53 81 55 82 57 83 54 84
REMARK H PARENT 9 14 12 16 74 46 48 57
REMARK Flexibility Score: inf
ROOT
ATOM      1  C   UNL A   1      35.345  20.556  25.016  1.00  0.00     0.275 C 
ENDROOT
BRANCH   1   2
ATOM      2  O   UNL A   1      34.485  19.423  24.754  1.00  0.00    -0.458 OA
BRANCH   2   3
ATOM      3  C   UNL A   1      33.210  19.631  25.138  1.00  0.00     0.340 C 
ATOM      4  O   UNL A   1      32.642  19.052  26.046  1.00  0.00    -0.246 OA
BRANCH   3   5
ATOM      5  C   UNL A   1      32.457  20.617  24.361  1.00  0.00     0.083 A 
ATOM      6  C   UNL A   1      31.906  21.774  24.922  1.00  0.00     0.057 A 
ATOM      7  C   UNL A   1      31.261  22.685  24.065  1.00  0.00     0.027 A 
ATOM      8  C   UNL A   1      31.305  22.527  22.676  1.00  0.00     0.002 A 
ATOM      9  C   UNL A   1      32.468  20.448  22.962  1.00  0.00     0.018 A 
ATOM     10  C   UNL A   1      31.926  21.417  22.121  1.00  0.00     0.001 A 
BRANCH   6  11
ATOM     11  N   UNL A   1      31.929  22.132  26.282  1.00  0.00    -0.307 N 
ATOM     12  N   UNL A   1      33.257  24.081  26.569  1.00  0.00    -0.335 N 
ATOM     13  C   UNL A   1      32.728  22.927  27.025  1.00  0.00     0.319 C 
ATOM     14  H   UNL A   1      33.935  24.464  27.171  1.00  0.00     0.165 HD
ATOM     15  O   UNL A   1      32.884  22.658  28.218  1.00  0.00    -0.248 OA
ATOM     16  H   UNL A   1      31.208  21.713  26.804  1.00  0.00     0.171 HD
BRANCH  12  17
ATOM     17  C   UNL A   1      33.033  24.884  25.364  1.00  0.00     0.089 C 
ATOM     18  C   UNL A   1      33.852  27.148  26.291  1.00  0.00     0.013 C 
ATOM     19  C   UNL A   1      32.691  26.385  25.621  1.00  0.00    -0.015 C 
ATOM     20  C   UNL A   1      31.455  26.530  26.529  1.00  0.00     0.013 C 
ATOM     21  C   UNL A   1      32.356  27.022  24.240  1.00  0.00     0.008 C 
ATOM     22  C   UNL A   1      33.421  26.800  23.158  1.00  0.00     0.001 C 
ATOM     23  C   UNL A   1      34.252  24.790  24.422  1.00  0.00     0.025 C 
ATOM     24  C   UNL A   1      33.878  25.349  23.053  1.00  0.00     0.002 C 
ENDBRANCH  12  17
ENDBRANCH   6  11
ENDBRANCH   3   5
ENDBRANCH   2   3
ENDBRANCH   1   2
BRANCH   1  25
ATOM     25  C   UNL A   1      36.854  20.255  25.027  1.00  0.00     0.275 C 
BRANCH  25  26
ATOM     26  O   UNL A   1      37.671  21.415  25.301  1.00  0.00    -0.458 OA
BRANCH  26  27
ATOM     27  C   UNL A   1      38.876  21.165  25.866  1.00  0.00     0.338 C 
ATOM     28  O   UNL A   1      39.519  20.129  25.804  1.00  0.00    -0.246 OA
BRANCH  27  29
ATOM     29  C   UNL A   1      39.399  22.360  26.557  1.00  0.00     0.060 A 
ATOM     30  C   UNL A   1      38.962  23.619  26.137  1.00  0.00     0.016 A 
ATOM     31  C   UNL A   1      40.457  22.266  27.459  1.00  0.00     0.016 A 
ATOM     32  C   UNL A   1      39.568  24.780  26.583  1.00  0.00     0.010 A 
ATOM     33  C   UNL A   1      41.069  23.439  27.924  1.00  0.00     0.010 A 
ATOM     34  C   UNL A   1      40.641  24.699  27.466  1.00  0.00    -0.014 A 
BRANCH  34  35
ATOM     35  C   UNL A   1      41.385  25.939  27.765  1.00  0.00     0.031 A 
ATOM     36  C   UNL A   1      40.731  26.985  28.617  1.00  0.00     0.074 A 
ATOM     37  C   UNL A   1      42.668  26.070  27.385  1.00  0.00     0.049 A 
ATOM     38  N   UNL A   1      41.132  28.197  28.894  1.00  0.00    -0.248 NA
ATOM     39  C   UNL A   1      39.459  26.608  29.255  1.00  0.00     0.031 C 
ATOM     40  C   UNL A   1      43.454  25.049  26.688  1.00  0.00     0.029 A 
ATOM     41  N   UNL A   1      43.542  27.113  27.545  1.00  0.00    -0.354 N 
ATOM     42  C   UNL A   1      40.139  28.744  29.698  1.00  0.00     0.074 A 
ATOM     43  C   UNL A   1      39.125  27.730  29.875  1.00  0.00     0.031 C 
ATOM     44  C   UNL A   1      44.694  25.520  26.480  1.00  0.00     0.029 A 
ATOM     45  C   UNL A   1      44.762  26.898  26.955  1.00  0.00     0.049 A 
ATOM     46  H   UNL A   1      43.317  27.937  28.035  1.00  0.00     0.167 HD
ATOM     47  C   UNL A   1      40.083  29.989  30.224  1.00  0.00     0.037 A 
ATOM     48  C   UNL A   1      45.794  27.742  26.770  1.00  0.00     0.037 A 
ATOM     49  C   UNL A   1      41.117  30.975  30.051  1.00  0.00     0.049 A 
ATOM     50  C   UNL A   1      45.662  29.156  27.264  1.00  0.00     0.074 A 
ATOM     51  C   UNL A   1      41.152  32.282  30.501  1.00  0.00     0.029 A 
ATOM     52  N   UNL A   1      42.309  30.749  29.376  1.00  0.00    -0.354 N 
ATOM     53  N   UNL A   1      44.683  29.708  27.941  1.00  0.00    -0.248 NA
ATOM     54  C   UNL A   1      46.766  30.073  26.948  1.00  0.00     0.031 C 
ATOM     55  C   UNL A   1      42.348  32.860  30.061  1.00  0.00     0.029 A 
ATOM     56  C   UNL A   1      43.078  31.898  29.378  1.00  0.00     0.049 A 
ATOM     57  H   UNL A   1      42.567  29.896  28.957  1.00  0.00     0.167 HD
ATOM     58  C   UNL A   1      45.055  31.030  28.142  1.00  0.00     0.074 A 
ATOM     59  C   UNL A   1      46.360  31.192  27.533  1.00  0.00     0.031 C 
ATOM     60  C   UNL A   1      44.377  32.025  28.767  1.00  0.00     0.037 A 
BRANCH  47  61
ATOM     61  C   UNL A   1      38.836  30.364  30.966  1.00  0.00     0.057 A 
ATOM     62  C   UNL A   1      37.729  30.943  30.332  1.00  0.00     0.134 A 
ATOM     63  C   UNL A   1      38.749  30.150  32.348  1.00  0.00     0.134 A 
ATOM     64  F   UNL A   1      37.756  31.197  29.015  1.00  0.00    -0.206 F 
ATOM     65  C   UNL A   1      36.590  31.317  31.051  1.00  0.00     0.040 A 
ATOM     66  C   UNL A   1      37.608  30.497  33.072  1.00  0.00     0.040 A 
ATOM     67  F   UNL A   1      39.775  29.601  33.017  1.00  0.00    -0.206 F 
ATOM     68  C   UNL A   1      36.528  31.090  32.424  1.00  0.00     0.006 A 
ENDBRANCH  47  61
BRANCH  48  69
ATOM     69  C   UNL A   1      46.997  27.300  26.019  1.00  0.00     0.057 A 
ATOM     70  C   UNL A   1      47.073  27.416  24.628  1.00  0.00     0.134 A 
ATOM     71  C   UNL A   1      48.097  26.733  26.678  1.00  0.00     0.134 A 
ATOM     72  F   UNL A   1      46.044  27.926  23.935  1.00  0.00    -0.206 F 
ATOM     73  C   UNL A   1      48.193  26.977  23.917  1.00  0.00     0.040 A 
ATOM     74  C   UNL A   1      49.234  26.316  25.985  1.00  0.00     0.040 A 
ATOM     75  F   UNL A   1      48.087  26.589  28.012  1.00  0.00    -0.206 F 
ATOM     76  C   UNL A   1      49.280  26.431  24.597  1.00  0.00     0.006 A 
ENDBRANCH  48  69
BRANCH  60  77
ATOM     77  C   UNL A   1      45.053  33.360  28.846  1.00  0.00     0.057 A 
ATOM     78  C   UNL A   1      44.827  34.358  27.889  1.00  0.00     0.134 A 
ATOM     79  C   UNL A   1      45.905  33.665  29.915  1.00  0.00     0.134 A 
ATOM     80  F   UNL A   1      44.032  34.121  26.835  1.00  0.00    -0.206 F 
ATOM     81  C   UNL A   1      45.441  35.607  27.984  1.00  0.00     0.040 A 
ATOM     82  C   UNL A   1      46.504  34.918  30.033  1.00  0.00     0.040 A 
ATOM     83  F   UNL A   1      46.155  32.753  30.867  1.00  0.00    -0.206 F 
ATOM     84  C   UNL A   1      46.276  35.892  29.063  1.00  0.00     0.006 A 
ENDBRANCH  60  77
ENDBRANCH  34  35
ENDBRANCH  27  29
ENDBRANCH  26  27
ENDBRANCH  25  26
ENDBRANCH   1  25
TORSDOF 13
ENDMDL
MODEL 3
REMARK VINA RESULT:     -11.9      3.995      8.867
REMARK SMILES CC1(C)CCCC[C@H]1NC(=O)Nc1ccccc1C(=O)OCCOC(=O)c1ccc(-c2c3nc(c(-c4c(F)cccc4F)c4ccc([nH]4)c(-c4c(F)cccc4F)c4nc(c(-c5c(F)cccc5F)c5ccc2[nH]5)C=C4)C=C3)cc1
REMARK SMILES IDX 22 1 21 2 19 3 20 4 18 5 13 6 14 7 15 8 17 9 16 10 12 11
REMARK SMILES IDX 9 12 10 13 11 15 8 17 1 18 2 19 3 20 4 21 5 22 7 23 6 24
REMARK SMILES IDX 23 25 24 26 25 27 26 28 27 29 28 30 80 31 29 32 79 33 30 34
REMARK SMILES IDX 31 35 32 36 73 37 33 38 78 39 72 40 74 41 34 42 77 43 71 44
REMARK SMILES IDX 70 45 35 47 61 48 44 49 60 50 45 51 48 52 59 53 75 54 46 55
REMARK SMILES IDX 47 56 58 58 76 59 49 60 36 61 37 62 42 63 38 64 39 65 41 66
REMARK SMILES IDX 43 67 40 68 62 69 63 70 68 71 64 72 65 73 67 74 69 75 66 76
REMARK SMILES IDX 50 77 51 78 56 79 52 80 53 81 55 82 57 83 54 84
REMARK H PARENT 9 14 12 16 74 46 48 57
REMARK Flexibility Score: inf
ROOT
ATOM      1  C   UNL A   1      36.682  22.451  23.874  1.00  0.00     0.275 C 
ENDROOT
BRANCH   1   2
ATOM      2  O   UNL A   1      36.031  23.294  24.852  1.00  0.00    -0.458 OA
BRANCH   2   3
ATOM      3  C   UNL A   1      34.889  23.845  24.395  1.00  0.00     0.340 C 
ATOM      4  O   UNL A   1      34.636  25.036  24.379  1.00  0.00    -0.246 OA
BRANCH   3   5
ATOM      5  C   UNL A   1      33.873  22.909  23.912  1.00  0.00     0.083 A 
ATOM      6  C   UNL A   1      33.286  23.004  22.645  1.00  0.00     0.057 A 
ATOM      7  C   UNL A   1      32.369  22.008  22.263  1.00  0.00     0.027 A 
ATOM      8  C   UNL A   1      32.166  20.870  23.050  1.00  0.00     0.002 A 
ATOM      9  C   UNL A   1      33.638  21.775  24.715  1.00  0.00     0.018 A 
ATOM     10  C   UNL A   1      32.816  20.743  24.270  1.00  0.00     0.001 A 
BRANCH   6  11
ATOM     11  N   UNL A   1      33.520  24.012  21.693  1.00  0.00    -0.307 N 
ATOM     12  N   UNL A   1      31.885  25.720  21.925  1.00  0.00    -0.335 N 
ATOM     13  C   UNL A   1      32.768  25.013  21.189  1.00  0.00     0.319 C 
ATOM     14  H   UNL A   1      31.309  26.307  21.385  1.00  0.00     0.165 HD
ATOM     15  O   UNL A   1      32.983  25.392  20.036  1.00  0.00    -0.248 OA
ATOM     16  H   UNL A   1      34.426  23.980  21.311  1.00  0.00     0.171 HD
BRANCH  12  17
ATOM     17  C   UNL A   1      31.605  25.796  23.362  1.00  0.00     0.089 C 
ATOM     18  C   UNL A   1      29.791  27.628  23.270  1.00  0.00     0.013 C 
ATOM     19  C   UNL A   1      31.143  27.196  23.874  1.00  0.00    -0.015 C 
ATOM     20  C   UNL A   1      32.175  28.287  23.530  1.00  0.00     0.013 C 
ATOM     21  C   UNL A   1      31.034  27.104  25.425  1.00  0.00     0.008 C 
ATOM     22  C   UNL A   1      30.179  25.937  25.937  1.00  0.00     0.001 C 
ATOM     23  C   UNL A   1      30.560  24.733  23.762  1.00  0.00     0.025 C 
ATOM     24  C   UNL A   1      30.525  24.605  25.281  1.00  0.00     0.002 C 
ENDBRANCH  12  17
ENDBRANCH   6  11
ENDBRANCH   3   5
ENDBRANCH   2   3
ENDBRANCH   1   2
BRANCH   1  25
ATOM     25  C   UNL A   1      37.385  21.202  24.437  1.00  0.00     0.275 C 
BRANCH  25  26
ATOM     26  O   UNL A   1      37.751  21.325  25.830  1.00  0.00    -0.458 OA
BRANCH  26  27
ATOM     27  C   UNL A   1      39.072  21.211  26.102  1.00  0.00     0.338 C 
ATOM     28  O   UNL A   1      39.807  20.279  25.813  1.00  0.00    -0.246 OA
BRANCH  27  29
ATOM     29  C   UNL A   1      39.586  22.424  26.769  1.00  0.00     0.060 A 
ATOM     30  C   UNL A   1      39.100  23.667  26.360  1.00  0.00     0.016 A 
ATOM     31  C   UNL A   1      40.678  22.364  27.633  1.00  0.00     0.016 A 
ATOM     32  C   UNL A   1      39.688  24.848  26.778  1.00  0.00     0.010 A 
ATOM     33  C   UNL A   1      41.274  23.556  28.070  1.00  0.00     0.010 A 
ATOM     34  C   UNL A   1      40.794  24.801  27.622  1.00  0.00    -0.014 A 
BRANCH  34  35
ATOM     35  C   UNL A   1      41.513  26.063  27.889  1.00  0.00     0.031 A 
ATOM     36  C   UNL A   1      40.846  27.110  28.728  1.00  0.00     0.074 A 
ATOM     37  C   UNL A   1      42.789  26.215  27.492  1.00  0.00     0.049 A 
ATOM     38  N   UNL A   1      41.222  28.337  28.977  1.00  0.00    -0.248 NA
ATOM     39  C   UNL A   1      39.590  26.718  29.387  1.00  0.00     0.031 C 
ATOM     40  C   UNL A   1      43.590  25.198  26.806  1.00  0.00     0.029 A 
ATOM     41  N   UNL A   1      43.641  27.280  27.622  1.00  0.00    -0.354 N 
ATOM     42  C   UNL A   1      40.227  28.876  29.781  1.00  0.00     0.074 A 
ATOM     43  C   UNL A   1      39.237  27.844  29.989  1.00  0.00     0.031 C 
ATOM     44  C   UNL A   1      44.817  25.692  26.575  1.00  0.00     0.029 A 
ATOM     45  C   UNL A   1      44.860  27.081  27.022  1.00  0.00     0.049 A 
ATOM     46  H   UNL A   1      43.403  28.108  28.099  1.00  0.00     0.167 HD
ATOM     47  C   UNL A   1      40.148  30.130  30.284  1.00  0.00     0.037 A 
ATOM     48  C   UNL A   1      45.870  27.943  26.809  1.00  0.00     0.037 A 
ATOM     49  C   UNL A   1      41.158  31.135  30.081  1.00  0.00     0.049 A 
ATOM     50  C   UNL A   1      45.712  29.363  27.278  1.00  0.00     0.074 A 
ATOM     51  C   UNL A   1      41.168  32.451  30.505  1.00  0.00     0.029 A 
ATOM     52  N   UNL A   1      42.347  30.922  29.397  1.00  0.00    -0.354 N 
ATOM     53  N   UNL A   1      44.728  29.907  27.955  1.00  0.00    -0.248 NA
ATOM     54  C   UNL A   1      46.792  30.299  26.933  1.00  0.00     0.031 C 
ATOM     55  C   UNL A   1      42.346  33.046  30.041  1.00  0.00     0.029 A 
ATOM     56  C   UNL A   1      43.090  32.088  29.368  1.00  0.00     0.049 A 
ATOM     57  H   UNL A   1      42.619  30.068  28.992  1.00  0.00     0.167 HD
ATOM     58  C   UNL A   1      45.072  31.240  28.127  1.00  0.00     0.074 A 
ATOM     59  C   UNL A   1      46.367  31.419  27.500  1.00  0.00     0.031 C 
ATOM     60  C   UNL A   1      44.379  32.232  28.740  1.00  0.00     0.037 A 
BRANCH  47  61
ATOM     61  C   UNL A   1      38.901  30.492  31.033  1.00  0.00     0.057 A 
ATOM     62  C   UNL A   1      38.776  30.316  32.416  1.00  0.00     0.134 A 
ATOM     63  C   UNL A   1      37.798  31.017  30.346  1.00  0.00     0.134 A 
ATOM     64  F   UNL A   1      39.785  29.794  33.129  1.00  0.00    -0.206 F 
ATOM     65  C   UNL A   1      37.589  30.626  33.087  1.00  0.00     0.040 A 
ATOM     66  C   UNL A   1      36.616  31.354  31.008  1.00  0.00     0.040 A 
ATOM     67  F   UNL A   1      37.850  31.209  29.019  1.00  0.00    -0.206 F 
ATOM     68  C   UNL A   1      36.508  31.151  32.381  1.00  0.00     0.006 A 
ENDBRANCH  47  61
BRANCH  48  69
ATOM     69  C   UNL A   1      47.075  27.513  26.054  1.00  0.00     0.057 A 
ATOM     70  C   UNL A   1      48.228  27.071  26.710  1.00  0.00     0.134 A 
ATOM     71  C   UNL A   1      47.106  27.550  24.653  1.00  0.00     0.134 A 
ATOM     72  F   UNL A   1      48.272  27.037  28.050  1.00  0.00    -0.206 F 
ATOM     73  C   UNL A   1      49.371  26.691  26.003  1.00  0.00     0.040 A 
ATOM     74  C   UNL A   1      48.230  27.147  23.933  1.00  0.00     0.040 A 
ATOM     75  F   UNL A   1      46.034  27.968  23.963  1.00  0.00    -0.206 F 
ATOM     76  C   UNL A   1      49.372  26.722  24.609  1.00  0.00     0.006 A 
ENDBRANCH  48  69
BRANCH  60  77
ATOM     77  C   UNL A   1      45.026  33.583  28.786  1.00  0.00     0.057 A 
ATOM     78  C   UNL A   1      45.920  33.938  29.804  1.00  0.00     0.134 A 
ATOM     79  C   UNL A   1      44.785  34.522  27.775  1.00  0.00     0.134 A 
ATOM     80  F   UNL A   1      46.180  33.086  30.808  1.00  0.00    -0.206 F 
ATOM     81  C   UNL A   1      46.537  35.189  29.826  1.00  0.00     0.040 A 
ATOM     82  C   UNL A   1      45.415  35.766  27.773  1.00  0.00     0.040 A 
ATOM     83  F   UNL A   1      43.945  34.238  26.769  1.00  0.00    -0.206 F 
ATOM     84  C   UNL A   1      46.291  36.104  28.802  1.00  0.00     0.006 A 
ENDBRANCH  60  77
ENDBRANCH  34  35
ENDBRANCH  27  29
ENDBRANCH  26  27
ENDBRANCH  25  26
ENDBRANCH   1  25
TORSDOF 13
ENDMDL
