MODEL 1
REMARK VINA RESULT:     -12.3      0.000      0.000
REMARK SMILES C/C(=N\Nc1ccccc1C(=O)OCCOC(=O)c1ccc(-c2c3nc(c(-c4c(F)cccc4F)c4ccc([nH]4)c(-c4c(F)cccc4F)c4nc(c(-c5c(F)cccc5F)c5ccc2[nH]5)C=C4)C=C3)cc1)c1ccc(S(C)(=O)=O)cc1
REMARK SMILES IDX 14 1 13 2 11 3 12 4 10 5 5 6 6 7 7 8 9 9 8 10 4 11 3 13 1 14
REMARK SMILES IDX 2 15 73 16 74 17 82 18 75 19 81 20 76 21 77 22 78 23 79 24
REMARK SMILES IDX 80 25 15 26 16 27 17 28 18 29 19 30 20 31 72 32 21 33 71 34
REMARK SMILES IDX 22 35 23 36 24 37 65 38 25 39 70 40 64 41 66 42 26 43 69 44
REMARK SMILES IDX 63 45 62 46 27 48 53 49 36 50 52 51 37 52 40 53 51 54 67 55
REMARK SMILES IDX 38 56 39 57 50 59 68 60 41 61 28 62 29 63 34 64 30 65 31 66
REMARK SMILES IDX 33 67 35 68 32 69 54 70 55 71 60 72 56 73 57 74 59 75 61 76
REMARK SMILES IDX 58 77 42 78 43 79 48 80 44 81 45 82 47 83 49 84 46 85
REMARK H PARENT 4 12 66 47 40 58
REMARK Flexibility Score: inf
ROOT
ATOM      1  C   UNL A   1      35.707  21.993  25.987  1.00  0.00     0.275 C 
ENDROOT
BRANCH   1   2
ATOM      2  O   UNL A   1      34.704  21.398  26.835  1.00  0.00    -0.458 OA
BRANCH   2   3
ATOM      3  C   UNL A   1      33.438  21.837  26.626  1.00  0.00     0.340 C 
ATOM      4  O   UNL A   1      32.772  22.536  27.376  1.00  0.00    -0.246 OA
BRANCH   3   5
ATOM      5  C   UNL A   1      32.923  21.405  25.312  1.00  0.00     0.085 A 
ATOM      6  C   UNL A   1      32.653  22.305  24.270  1.00  0.00     0.071 A 
ATOM      7  C   UNL A   1      32.276  21.758  23.022  1.00  0.00     0.028 A 
ATOM      8  C   UNL A   1      32.196  20.379  22.807  1.00  0.00     0.002 A 
ATOM      9  C   UNL A   1      32.832  20.018  25.091  1.00  0.00     0.018 A 
ATOM     10  C   UNL A   1      32.479  19.506  23.844  1.00  0.00     0.001 A 
BRANCH   6  11
ATOM     11  N   UNL A   1      32.891  23.701  24.276  1.00  0.00    -0.277 N 
ATOM     12  H   UNL A   1      33.803  24.005  24.488  1.00  0.00     0.190 HD
BRANCH  11  13
ATOM     13  N   UNL A   1      31.964  24.644  24.014  1.00  0.00    -0.180 NA
ATOM     14  C   UNL A   1      33.775  26.376  23.969  1.00  0.00     0.069 C 
ATOM     15  C   UNL A   1      32.344  25.881  23.841  1.00  0.00     0.065 C 
BRANCH  15  16
ATOM     16  C   UNL A   1      31.289  26.896  23.485  1.00  0.00    -0.002 A 
ATOM     17  C   UNL A   1      29.942  26.611  23.762  1.00  0.00     0.011 A 
ATOM     18  C   UNL A   1      31.614  28.123  22.889  1.00  0.00     0.011 A 
ATOM     19  C   UNL A   1      28.938  27.538  23.470  1.00  0.00     0.021 A 
ATOM     20  C   UNL A   1      30.612  29.046  22.573  1.00  0.00     0.021 A 
ATOM     21  C   UNL A   1      29.279  28.747  22.864  1.00  0.00     0.067 A 
BRANCH  21  22
ATOM     22  S   UNL A   1      28.007  29.921  22.467  1.00  0.00     0.175 S 
ATOM     23  C   UNL A   1      28.578  31.446  23.172  1.00  0.00     0.163 C 
ATOM     24  O   UNL A   1      28.003  30.059  21.020  1.00  0.00    -0.224 OA
ATOM     25  O   UNL A   1      26.813  29.533  23.188  1.00  0.00    -0.224 OA
ENDBRANCH  21  22
ENDBRANCH  15  16
ENDBRANCH  11  13
ENDBRANCH   6  11
ENDBRANCH   3   5
ENDBRANCH   2   3
ENDBRANCH   1   2
BRANCH   1  26
ATOM     26  C   UNL A   1      36.643  20.965  25.364  1.00  0.00     0.275 C 
BRANCH  26  27
ATOM     27  O   UNL A   1      37.876  21.589  24.980  1.00  0.00    -0.458 OA
BRANCH  27  28
ATOM     28  C   UNL A   1      38.927  21.260  25.755  1.00  0.00     0.338 C 
ATOM     29  O   UNL A   1      39.524  20.194  25.805  1.00  0.00    -0.246 OA
BRANCH  28  30
ATOM     30  C   UNL A   1      39.342  22.415  26.550  1.00  0.00     0.060 A 
ATOM     31  C   UNL A   1      38.851  23.669  26.197  1.00  0.00     0.016 A 
ATOM     32  C   UNL A   1      40.383  22.289  27.464  1.00  0.00     0.016 A 
ATOM     33  C   UNL A   1      39.509  24.813  26.626  1.00  0.00     0.010 A 
ATOM     34  C   UNL A   1      40.966  23.441  27.988  1.00  0.00     0.010 A 
ATOM     35  C   UNL A   1      40.581  24.712  27.518  1.00  0.00    -0.014 A 
BRANCH  35  36
ATOM     36  C   UNL A   1      41.370  25.913  27.891  1.00  0.00     0.031 A 
ATOM     37  C   UNL A   1      40.728  26.979  28.739  1.00  0.00     0.074 A 
ATOM     38  C   UNL A   1      42.646  26.048  27.487  1.00  0.00     0.049 A 
ATOM     39  N   UNL A   1      41.115  28.207  28.963  1.00  0.00    -0.248 NA
ATOM     40  C   UNL A   1      39.465  26.617  29.407  1.00  0.00     0.031 C 
ATOM     41  C   UNL A   1      43.410  25.054  26.731  1.00  0.00     0.029 A 
ATOM     42  N   UNL A   1      43.527  27.086  27.657  1.00  0.00    -0.354 N 
ATOM     43  C   UNL A   1      40.110  28.785  29.730  1.00  0.00     0.074 A 
ATOM     44  C   UNL A   1      39.100  27.772  29.941  1.00  0.00     0.031 C 
ATOM     45  C   UNL A   1      44.650  25.519  26.521  1.00  0.00     0.029 A 
ATOM     46  C   UNL A   1      44.737  26.879  27.038  1.00  0.00     0.049 A 
ATOM     47  H   UNL A   1      43.315  27.898  28.171  1.00  0.00     0.167 HD
ATOM     48  C   UNL A   1      40.040  30.053  30.202  1.00  0.00     0.037 A 
ATOM     49  C   UNL A   1      45.775  27.714  26.856  1.00  0.00     0.037 A 
ATOM     50  C   UNL A   1      41.088  31.026  30.033  1.00  0.00     0.049 A 
ATOM     51  C   UNL A   1      45.670  29.120  27.370  1.00  0.00     0.074 A 
ATOM     52  C   UNL A   1      41.129  32.339  30.464  1.00  0.00     0.029 A 
ATOM     53  N   UNL A   1      42.294  30.774  29.395  1.00  0.00    -0.354 N 
ATOM     54  N   UNL A   1      44.680  29.691  28.015  1.00  0.00    -0.248 NA
ATOM     55  C   UNL A   1      46.815  30.003  27.116  1.00  0.00     0.031 C 
ATOM     56  C   UNL A   1      42.352  32.891  30.064  1.00  0.00     0.029 A 
ATOM     57  C   UNL A   1      43.088  31.909  29.420  1.00  0.00     0.049 A 
ATOM     58  H   UNL A   1      42.549  29.916  28.984  1.00  0.00     0.167 HD
ATOM     59  C   UNL A   1      45.086  30.996  28.255  1.00  0.00     0.074 A 
ATOM     60  C   UNL A   1      46.421  31.124  27.704  1.00  0.00     0.031 C 
ATOM     61  C   UNL A   1      44.417  32.001  28.872  1.00  0.00     0.037 A 
BRANCH  48  62
ATOM     62  C   UNL A   1      38.777  30.466  30.902  1.00  0.00     0.057 A 
ATOM     63  C   UNL A   1      37.694  31.038  30.222  1.00  0.00     0.134 A 
ATOM     64  C   UNL A   1      38.640  30.273  32.284  1.00  0.00     0.134 A 
ATOM     65  F   UNL A   1      37.763  31.267  28.902  1.00  0.00    -0.206 F 
ATOM     66  C   UNL A   1      36.532  31.426  30.895  1.00  0.00     0.040 A 
ATOM     67  C   UNL A   1      37.474  30.633  32.962  1.00  0.00     0.040 A 
ATOM     68  F   UNL A   1      39.638  29.727  32.997  1.00  0.00    -0.206 F 
ATOM     69  C   UNL A   1      36.418  31.217  32.269  1.00  0.00     0.006 A 
ENDBRANCH  48  62
BRANCH  49  70
ATOM     70  C   UNL A   1      46.974  27.250  26.113  1.00  0.00     0.057 A 
ATOM     71  C   UNL A   1      48.035  26.623  26.773  1.00  0.00     0.134 A 
ATOM     72  C   UNL A   1      47.077  27.401  24.723  1.00  0.00     0.134 A 
ATOM     73  F   UNL A   1      48.006  26.468  28.104  1.00  0.00    -0.206 F 
ATOM     74  C   UNL A   1      49.158  26.167  26.080  1.00  0.00     0.040 A 
ATOM     75  C   UNL A   1      48.179  26.924  24.015  1.00  0.00     0.040 A 
ATOM     76  F   UNL A   1      46.090  27.989  24.031  1.00  0.00    -0.206 F 
ATOM     77  C   UNL A   1      49.228  26.308  24.695  1.00  0.00     0.006 A 
ENDBRANCH  49  70
BRANCH  61  78
ATOM     78  C   UNL A   1      45.142  33.303  29.018  1.00  0.00     0.057 A 
ATOM     79  C   UNL A   1      45.984  33.562  30.106  1.00  0.00     0.134 A 
ATOM     80  C   UNL A   1      45.012  34.298  28.043  1.00  0.00     0.134 A 
ATOM     81  F   UNL A   1      46.137  32.651  31.080  1.00  0.00    -0.206 F 
ATOM     82  C   UNL A   1      46.654  34.778  30.231  1.00  0.00     0.040 A 
ATOM     83  C   UNL A   1      45.696  35.509  28.145  1.00  0.00     0.040 A 
ATOM     84  F   UNL A   1      44.225  34.106  26.973  1.00  0.00    -0.206 F 
ATOM     85  C   UNL A   1      46.515  35.754  29.245  1.00  0.00     0.006 A 
ENDBRANCH  61  78
ENDBRANCH  35  36
ENDBRANCH  28  30
ENDBRANCH  27  28
ENDBRANCH  26  27
ENDBRANCH   1  26
TORSDOF 15
ENDMDL
MODEL 2
REMARK VINA RESULT:     -12.1      4.400      9.466
REMARK SMILES C/C(=N\Nc1ccccc1C(=O)OCCOC(=O)c1ccc(-c2c3nc(c(-c4c(F)cccc4F)c4ccc([nH]4)c(-c4c(F)cccc4F)c4nc(c(-c5c(F)cccc5F)c5ccc2[nH]5)C=C4)C=C3)cc1)c1ccc(S(C)(=O)=O)cc1
REMARK SMILES IDX 14 1 13 2 11 3 12 4 10 5 5 6 6 7 7 8 9 9 8 10 4 11 3 13 1 14
REMARK SMILES IDX 2 15 73 16 74 17 82 18 75 19 81 20 76 21 77 22 78 23 79 24
REMARK SMILES IDX 80 25 15 26 16 27 17 28 18 29 19 30 20 31 72 32 21 33 71 34
REMARK SMILES IDX 22 35 23 36 24 37 65 38 25 39 70 40 64 41 66 42 26 43 69 44
REMARK SMILES IDX 63 45 62 46 27 48 53 49 36 50 52 51 37 52 40 53 51 54 67 55
REMARK SMILES IDX 38 56 39 57 50 59 68 60 41 61 28 62 29 63 34 64 30 65 31 66
REMARK SMILES IDX 33 67 35 68 32 69 54 70 55 71 60 72 56 73 57 74 59 75 61 76
REMARK SMILES IDX 58 77 42 78 43 79 48 80 44 81 45 82 47 83 49 84 46 85
REMARK H PARENT 4 12 66 47 40 58
REMARK Flexibility Score: inf
ROOT
ATOM      1  C   UNL A   1      31.742  28.586  27.362  1.00  0.00     0.275 C 
ENDROOT
BRANCH   1   2
ATOM      2  O   UNL A   1      32.793  27.789  26.782  1.00  0.00    -0.458 OA
BRANCH   2   3
ATOM      3  C   UNL A   1      32.381  26.657  26.159  1.00  0.00     0.340 C 
ATOM      4  O   UNL A   1      31.678  25.775  26.632  1.00  0.00    -0.246 OA
BRANCH   3   5
ATOM      5  C   UNL A   1      32.846  26.606  24.760  1.00  0.00     0.085 A 
ATOM      6  C   UNL A   1      32.611  25.506  23.921  1.00  0.00     0.071 A 
ATOM      7  C   UNL A   1      33.004  25.627  22.568  1.00  0.00     0.028 A 
ATOM      8  C   UNL A   1      33.581  26.795  22.061  1.00  0.00     0.002 A 
ATOM      9  C   UNL A   1      33.437  27.776  24.245  1.00  0.00     0.018 A 
ATOM     10  C   UNL A   1      33.795  27.874  22.902  1.00  0.00     0.001 A 
BRANCH   6  11
ATOM     11  N   UNL A   1      31.856  24.350  24.235  1.00  0.00    -0.277 N 
ATOM     12  H   UNL A   1      30.939  24.484  24.567  1.00  0.00     0.190 HD
BRANCH  11  13
ATOM     13  N   UNL A   1      32.298  23.083  24.115  1.00  0.00    -0.180 NA
ATOM     14  C   UNL A   1      30.809  22.410  26.015  1.00  0.00     0.069 C 
ATOM     15  C   UNL A   1      31.814  22.161  24.903  1.00  0.00     0.065 C 
BRANCH  15  16
ATOM     16  C   UNL A   1      32.281  20.744  24.697  1.00  0.00    -0.002 A 
ATOM     17  C   UNL A   1      32.786  20.022  25.791  1.00  0.00     0.011 A 
ATOM     18  C   UNL A   1      32.223  20.121  23.443  1.00  0.00     0.011 A 
ATOM     19  C   UNL A   1      33.205  18.697  25.645  1.00  0.00     0.021 A 
ATOM     20  C   UNL A   1      32.663  18.803  23.284  1.00  0.00     0.021 A 
ATOM     21  C   UNL A   1      33.153  18.099  24.385  1.00  0.00     0.067 A 
BRANCH  21  22
ATOM     22  S   UNL A   1      33.707  16.423  24.185  1.00  0.00     0.175 S 
ATOM     23  C   UNL A   1      35.159  16.315  25.198  1.00  0.00     0.163 C 
ATOM     24  O   UNL A   1      32.680  15.572  24.761  1.00  0.00    -0.224 OA
ATOM     25  O   UNL A   1      34.129  16.265  22.809  1.00  0.00    -0.224 OA
ENDBRANCH  21  22
ENDBRANCH  15  16
ENDBRANCH  11  13
ENDBRANCH   6  11
ENDBRANCH   3   5
ENDBRANCH   2   3
ENDBRANCH   1   2
BRANCH   1  26
ATOM     26  C   UNL A   1      31.788  30.043  26.918  1.00  0.00     0.275 C 
BRANCH  26  27
ATOM     27  O   UNL A   1      33.131  30.413  26.577  1.00  0.00    -0.458 OA
BRANCH  27  28
ATOM     28  C   UNL A   1      33.627  31.428  27.310  1.00  0.00     0.338 C 
ATOM     29  O   UNL A   1      33.048  32.433  27.699  1.00  0.00    -0.246 OA
BRANCH  28  30
ATOM     30  C   UNL A   1      35.019  31.154  27.664  1.00  0.00     0.060 A 
ATOM     31  C   UNL A   1      35.398  29.832  27.874  1.00  0.00     0.016 A 
ATOM     32  C   UNL A   1      35.863  32.202  28.018  1.00  0.00     0.016 A 
ATOM     33  C   UNL A   1      36.549  29.550  28.596  1.00  0.00     0.010 A 
ATOM     34  C   UNL A   1      37.078  31.912  28.636  1.00  0.00     0.010 A 
ATOM     35  C   UNL A   1      37.398  30.589  28.994  1.00  0.00    -0.014 A 
BRANCH  35  36
ATOM     36  C   UNL A   1      38.567  30.317  29.868  1.00  0.00     0.031 A 
ATOM     37  C   UNL A   1      39.682  29.446  29.351  1.00  0.00     0.074 A 
ATOM     38  C   UNL A   1      38.640  30.846  31.103  1.00  0.00     0.049 A 
ATOM     39  N   UNL A   1      40.652  28.864  30.006  1.00  0.00    -0.248 NA
ATOM     40  C   UNL A   1      39.691  29.179  27.902  1.00  0.00     0.031 C 
ATOM     41  C   UNL A   1      37.667  31.768  31.692  1.00  0.00     0.029 A 
ATOM     42  N   UNL A   1      39.579  30.679  32.088  1.00  0.00    -0.354 N 
ATOM     43  C   UNL A   1      41.337  28.102  29.066  1.00  0.00     0.074 A 
ATOM     44  C   UNL A   1      40.679  28.303  27.794  1.00  0.00     0.031 C 
ATOM     45  C   UNL A   1      38.070  32.103  32.926  1.00  0.00     0.029 A 
ATOM     46  C   UNL A   1      39.271  31.343  33.251  1.00  0.00     0.049 A 
ATOM     47  H   UNL A   1      40.392  30.137  31.974  1.00  0.00     0.167 HD
ATOM     48  C   UNL A   1      42.412  27.301  29.259  1.00  0.00     0.037 A 
ATOM     49  C   UNL A   1      39.856  31.298  34.461  1.00  0.00     0.037 A 
ATOM     50  C   UNL A   1      43.089  27.165  30.523  1.00  0.00     0.049 A 
ATOM     51  C   UNL A   1      41.035  30.390  34.658  1.00  0.00     0.074 A 
ATOM     52  C   UNL A   1      44.185  26.383  30.840  1.00  0.00     0.029 A 
ATOM     53  N   UNL A   1      42.740  27.854  31.676  1.00  0.00    -0.354 N 
ATOM     54  N   UNL A   1      41.624  29.601  33.791  1.00  0.00    -0.248 NA
ATOM     55  C   UNL A   1      41.619  30.349  36.005  1.00  0.00     0.031 C 
ATOM     56  C   UNL A   1      44.484  26.580  32.193  1.00  0.00     0.029 A 
ATOM     57  C   UNL A   1      43.599  27.515  32.707  1.00  0.00     0.049 A 
ATOM     58  H   UNL A   1      41.991  28.490  31.751  1.00  0.00     0.167 HD
ATOM     59  C   UNL A   1      42.654  28.979  34.481  1.00  0.00     0.074 A 
ATOM     60  C   UNL A   1      42.621  29.499  35.835  1.00  0.00     0.031 C 
ATOM     61  C   UNL A   1      43.547  28.059  34.040  1.00  0.00     0.037 A 
BRANCH  48  62
ATOM     62  C   UNL A   1      42.887  26.481  28.094  1.00  0.00     0.057 A 
ATOM     63  C   UNL A   1      43.877  26.933  27.212  1.00  0.00     0.134 A 
ATOM     64  C   UNL A   1      42.352  25.207  27.862  1.00  0.00     0.134 A 
ATOM     65  F   UNL A   1      44.421  28.150  27.364  1.00  0.00    -0.206 F 
ATOM     66  C   UNL A   1      44.297  26.158  26.127  1.00  0.00     0.040 A 
ATOM     67  C   UNL A   1      42.782  24.413  26.797  1.00  0.00     0.040 A 
ATOM     68  F   UNL A   1      41.403  24.710  28.670  1.00  0.00    -0.206 F 
ATOM     69  C   UNL A   1      43.752  24.891  25.921  1.00  0.00     0.006 A 
ENDBRANCH  48  62
BRANCH  49  70
ATOM     70  C   UNL A   1      39.303  32.101  35.580  1.00  0.00     0.057 A 
ATOM     71  C   UNL A   1      38.370  31.556  36.468  1.00  0.00     0.134 A 
ATOM     72  C   UNL A   1      39.711  33.423  35.803  1.00  0.00     0.134 A 
ATOM     73  F   UNL A   1      37.925  30.303  36.295  1.00  0.00    -0.206 F 
ATOM     74  C   UNL A   1      37.858  32.296  37.535  1.00  0.00     0.040 A 
ATOM     75  C   UNL A   1      39.230  34.165  36.882  1.00  0.00     0.040 A 
ATOM     76  F   UNL A   1      40.606  34.002  34.990  1.00  0.00    -0.206 F 
ATOM     77  C   UNL A   1      38.296  33.602  37.750  1.00  0.00     0.006 A 
ENDBRANCH  49  70
BRANCH  61  78
ATOM     78  C   UNL A   1      44.580  27.598  35.022  1.00  0.00     0.057 A 
ATOM     79  C   UNL A   1      45.782  28.290  35.209  1.00  0.00     0.134 A 
ATOM     80  C   UNL A   1      44.354  26.461  35.806  1.00  0.00     0.134 A 
ATOM     81  F   UNL A   1      46.061  29.379  34.476  1.00  0.00    -0.206 F 
ATOM     82  C   UNL A   1      46.737  27.852  36.126  1.00  0.00     0.040 A 
ATOM     83  C   UNL A   1      45.291  26.026  36.743  1.00  0.00     0.040 A 
ATOM     84  F   UNL A   1      43.217  25.759  35.678  1.00  0.00    -0.206 F 
ATOM     85  C   UNL A   1      46.489  26.719  36.900  1.00  0.00     0.006 A 
ENDBRANCH  61  78
ENDBRANCH  35  36
ENDBRANCH  28  30
ENDBRANCH  27  28
ENDBRANCH  26  27
ENDBRANCH   1  26
TORSDOF 15
ENDMDL
MODEL 3
REMARK VINA RESULT:     -11.9      3.126      7.831
REMARK SMILES C/C(=N\Nc1ccccc1C(=O)OCCOC(=O)c1ccc(-c2c3nc(c(-c4c(F)cccc4F)c4ccc([nH]4)c(-c4c(F)cccc4F)c4nc(c(-c5c(F)cccc5F)c5ccc2[nH]5)C=C4)C=C3)cc1)c1ccc(S(C)(=O)=O)cc1
REMARK SMILES IDX 14 1 13 2 11 3 12 4 10 5 5 6 6 7 7 8 9 9 8 10 4 11 3 13 1 14
REMARK SMILES IDX 2 15 73 16 74 17 82 18 75 19 81 20 76 21 77 22 78 23 79 24
REMARK SMILES IDX 80 25 15 26 16 27 17 28 18 29 19 30 20 31 72 32 21 33 71 34
REMARK SMILES IDX 22 35 23 36 24 37 65 38 25 39 70 40 64 41 66 42 26 43 69 44
REMARK SMILES IDX 63 45 62 46 27 48 53 49 36 50 52 51 37 52 40 53 51 54 67 55
REMARK SMILES IDX 38 56 39 57 50 59 68 60 41 61 28 62 29 63 34 64 30 65 31 66
REMARK SMILES IDX 33 67 35 68 32 69 54 70 55 71 60 72 56 73 57 74 59 75 61 76
REMARK SMILES IDX 58 77 42 78 43 79 48 80 44 81 45 82 47 83 49 84 46 85
REMARK H PARENT 4 12 66 47 40 58
REMARK Flexibility Score: inf
ROOT
ATOM      1  C   UNL A   1      33.413  30.263  26.699  1.00  0.00     0.275 C 
ENDROOT
BRANCH   1   2
ATOM      2  O   UNL A   1      31.993  30.019  26.656  1.00  0.00    -0.458 OA
BRANCH   2   3
ATOM      3  C   UNL A   1      31.634  28.711  26.606  1.00  0.00     0.340 C 
ATOM      4  O   UNL A   1      31.417  27.975  27.558  1.00  0.00    -0.246 OA
BRANCH   3   5
ATOM      5  C   UNL A   1      31.477  28.243  25.216  1.00  0.00     0.085 A 
ATOM      6  C   UNL A   1      31.957  27.000  24.775  1.00  0.00     0.071 A 
ATOM      7  C   UNL A   1      31.640  26.616  23.452  1.00  0.00     0.028 A 
ATOM      8  C   UNL A   1      30.862  27.415  22.610  1.00  0.00     0.002 A 
ATOM      9  C   UNL A   1      30.701  29.048  24.359  1.00  0.00     0.018 A 
ATOM     10  C   UNL A   1      30.388  28.634  23.066  1.00  0.00     0.001 A 
BRANCH   6  11
ATOM     11  N   UNL A   1      32.571  26.001  25.569  1.00  0.00    -0.277 N 
ATOM     12  H   UNL A   1      33.071  26.297  26.363  1.00  0.00     0.190 HD
BRANCH  11  13
ATOM     13  N   UNL A   1      32.523  24.678  25.319  1.00  0.00    -0.180 NA
ATOM     14  C   UNL A   1      35.028  24.623  25.264  1.00  0.00     0.069 C 
ATOM     15  C   UNL A   1      33.639  24.010  25.200  1.00  0.00     0.065 C 
BRANCH  15  16
ATOM     16  C   UNL A   1      33.547  22.522  24.986  1.00  0.00    -0.002 A 
ATOM     17  C   UNL A   1      32.313  21.955  24.629  1.00  0.00     0.011 A 
ATOM     18  C   UNL A   1      34.662  21.684  25.129  1.00  0.00     0.011 A 
ATOM     19  C   UNL A   1      32.194  20.582  24.398  1.00  0.00     0.021 A 
ATOM     20  C   UNL A   1      34.546  20.306  24.921  1.00  0.00     0.021 A 
ATOM     21  C   UNL A   1      33.312  19.763  24.558  1.00  0.00     0.067 A 
BRANCH  21  22
ATOM     22  S   UNL A   1      33.165  18.013  24.290  1.00  0.00     0.175 S 
ATOM     23  C   UNL A   1      32.559  17.871  22.628  1.00  0.00     0.163 C 
ATOM     24  O   UNL A   1      34.511  17.469  24.336  1.00  0.00    -0.224 OA
ATOM     25  O   UNL A   1      32.125  17.522  25.170  1.00  0.00    -0.224 OA
ENDBRANCH  21  22
ENDBRANCH  15  16
ENDBRANCH  11  13
ENDBRANCH   6  11
ENDBRANCH   3   5
ENDBRANCH   2   3
ENDBRANCH   1   2
BRANCH   1  26
ATOM     26  C   UNL A   1      33.799  31.346  27.699  1.00  0.00     0.275 C 
BRANCH  26  27
ATOM     27  O   UNL A   1      35.226  31.462  27.775  1.00  0.00    -0.458 OA
BRANCH  27  28
ATOM     28  C   UNL A   1      35.738  31.188  28.990  1.00  0.00     0.338 C 
ATOM     29  O   UNL A   1      35.364  31.600  30.078  1.00  0.00    -0.246 OA
BRANCH  28  30
ATOM     30  C   UNL A   1      36.836  30.229  28.863  1.00  0.00     0.060 A 
ATOM     31  C   UNL A   1      37.406  29.722  30.027  1.00  0.00     0.016 A 
ATOM     32  C   UNL A   1      37.442  30.030  27.627  1.00  0.00     0.016 A 
ATOM     33  C   UNL A   1      38.674  29.159  29.986  1.00  0.00     0.010 A 
ATOM     34  C   UNL A   1      38.661  29.357  27.573  1.00  0.00     0.010 A 
ATOM     35  C   UNL A   1      39.320  28.980  28.759  1.00  0.00    -0.014 A 
BRANCH  35  36
ATOM     36  C   UNL A   1      40.722  28.492  28.707  1.00  0.00     0.031 A 
ATOM     37  C   UNL A   1      41.845  29.457  28.979  1.00  0.00     0.074 A 
ATOM     38  C   UNL A   1      40.991  27.203  28.433  1.00  0.00     0.049 A 
ATOM     39  N   UNL A   1      43.124  29.333  28.736  1.00  0.00    -0.248 NA
ATOM     40  C   UNL A   1      41.473  30.747  29.586  1.00  0.00     0.031 C 
ATOM     41  C   UNL A   1      39.993  26.150  28.230  1.00  0.00     0.029 A 
ATOM     42  N   UNL A   1      42.191  26.559  28.273  1.00  0.00    -0.354 N 
ATOM     43  C   UNL A   1      43.694  30.551  29.087  1.00  0.00     0.074 A 
ATOM     44  C   UNL A   1      42.626  31.399  29.568  1.00  0.00     0.031 C 
ATOM     45  C   UNL A   1      40.621  24.989  27.995  1.00  0.00     0.029 A 
ATOM     46  C   UNL A   1      42.056  25.234  27.931  1.00  0.00     0.049 A 
ATOM     47  H   UNL A   1      43.062  27.001  28.391  1.00  0.00     0.167 HD
ATOM     48  C   UNL A   1      44.994  30.924  29.001  1.00  0.00     0.037 A 
ATOM     49  C   UNL A   1      42.981  24.335  27.550  1.00  0.00     0.037 A 
ATOM     50  C   UNL A   1      46.050  30.042  28.578  1.00  0.00     0.049 A 
ATOM     51  C   UNL A   1      44.413  24.774  27.444  1.00  0.00     0.074 A 
ATOM     52  C   UNL A   1      47.402  30.306  28.450  1.00  0.00     0.029 A 
ATOM     53  N   UNL A   1      45.868  28.709  28.236  1.00  0.00    -0.354 N 
ATOM     54  N   UNL A   1      44.936  25.952  27.688  1.00  0.00    -0.248 NA
ATOM     55  C   UNL A   1      45.380  23.766  26.991  1.00  0.00     0.031 C 
ATOM     56  C   UNL A   1      48.034  29.139  28.005  1.00  0.00     0.029 A 
ATOM     57  C   UNL A   1      47.082  28.138  27.896  1.00  0.00     0.049 A 
ATOM     58  H   UNL A   1      45.002  28.239  28.235  1.00  0.00     0.167 HD
ATOM     59  C   UNL A   1      46.293  25.826  27.431  1.00  0.00     0.074 A 
ATOM     60  C   UNL A   1      46.515  24.450  27.031  1.00  0.00     0.031 C 
ATOM     61  C   UNL A   1      47.271  26.762  27.514  1.00  0.00     0.037 A 
BRANCH  48  62
ATOM     62  C   UNL A   1      45.332  32.350  29.327  1.00  0.00     0.057 A 
ATOM     63  C   UNL A   1      45.744  32.752  30.604  1.00  0.00     0.134 A 
ATOM     64  C   UNL A   1      45.257  33.338  28.335  1.00  0.00     0.134 A 
ATOM     65  F   UNL A   1      45.822  31.863  31.605  1.00  0.00    -0.206 F 
ATOM     66  C   UNL A   1      46.043  34.087  30.889  1.00  0.00     0.040 A 
ATOM     67  C   UNL A   1      45.578  34.670  28.601  1.00  0.00     0.040 A 
ATOM     68  F   UNL A   1      44.872  33.023  27.089  1.00  0.00    -0.206 F 
ATOM     69  C   UNL A   1      45.966  35.050  29.882  1.00  0.00     0.006 A 
ENDBRANCH  48  62
BRANCH  49  70
ATOM     70  C   UNL A   1      42.567  22.954  27.198  1.00  0.00     0.057 A 
ATOM     71  C   UNL A   1      42.547  22.523  25.868  1.00  0.00     0.134 A 
ATOM     72  C   UNL A   1      42.206  22.025  28.182  1.00  0.00     0.134 A 
ATOM     73  F   UNL A   1      42.863  23.371  24.878  1.00  0.00    -0.206 F 
ATOM     74  C   UNL A   1      42.178  21.220  25.527  1.00  0.00     0.040 A 
ATOM     75  C   UNL A   1      41.863  20.712  27.860  1.00  0.00     0.040 A 
ATOM     76  F   UNL A   1      42.209  22.375  29.477  1.00  0.00    -0.206 F 
ATOM     77  C   UNL A   1      41.844  20.308  26.527  1.00  0.00     0.006 A 
ENDBRANCH  49  70
BRANCH  61  78
ATOM     78  C   UNL A   1      48.665  26.308  27.208  1.00  0.00     0.057 A 
ATOM     79  C   UNL A   1      49.219  26.434  25.929  1.00  0.00     0.134 A 
ATOM     80  C   UNL A   1      49.468  25.761  28.216  1.00  0.00     0.134 A 
ATOM     81  F   UNL A   1      48.492  26.937  24.920  1.00  0.00    -0.206 F 
ATOM     82  C   UNL A   1      50.519  26.008  25.656  1.00  0.00     0.040 A 
ATOM     83  C   UNL A   1      50.777  25.354  27.961  1.00  0.00     0.040 A 
ATOM     84  F   UNL A   1      48.996  25.621  29.464  1.00  0.00    -0.206 F 
ATOM     85  C   UNL A   1      51.303  25.471  26.676  1.00  0.00     0.006 A 
ENDBRANCH  61  78
ENDBRANCH  35  36
ENDBRANCH  28  30
ENDBRANCH  27  28
ENDBRANCH  26  27
ENDBRANCH   1  26
TORSDOF 15
ENDMDL
