MODEL 1
REMARK VINA RESULT:      -9.8      0.000      0.000
REMARK SMILES O=C(Cc1ccc(-c2ccn(C(F)F)c(=O)c2)cc1)OCCOC(=O)c1ccc(-c2c3nc(c(-c4c(F)cccc4F)c4ccc([nH]4)c(-c4c(F)cccc4F)c4nc(c(-c5c(F)cccc5F)c5ccc2[nH]5)C=C4)C=C3)cc1
REMARK SMILES IDX 21 1 20 2 2 3 1 4 3 5 4 6 5 7 19 8 6 9 18 10 7 11 8 12 9 13
REMARK SMILES IDX 17 14 10 15 15 16 11 17 16 18 12 19 13 20 14 21 22 22 23 23
REMARK SMILES IDX 24 24 25 25 26 26 27 27 79 28 28 29 78 30 29 31 30 32 31 33
REMARK SMILES IDX 72 34 32 35 77 36 71 37 73 38 33 39 76 40 70 41 69 42 34 44
REMARK SMILES IDX 60 45 43 46 59 47 44 48 47 49 58 50 74 51 45 52 46 53 57 55
REMARK SMILES IDX 75 56 48 57 35 58 36 59 41 60 37 61 38 62 40 63 42 64 39 65
REMARK SMILES IDX 61 66 62 67 67 68 63 69 64 70 66 71 68 72 65 73 49 74 50 75
REMARK SMILES IDX 55 76 51 77 52 78 54 79 56 80 53 81
REMARK H PARENT 73 43 47 54
REMARK Flexibility Score: inf
ROOT
ATOM      1  C   UNL A   1      33.262  36.566  31.962  1.00  0.00     0.274 C 
ENDROOT
BRANCH   1   2
ATOM      2  O   UNL A   1      33.668  35.398  32.707  1.00  0.00    -0.462 OA
BRANCH   2   3
ATOM      3  C   UNL A   1      34.917  35.202  33.197  1.00  0.00     0.310 C 
ATOM      4  O   UNL A   1      35.890  35.689  32.624  1.00  0.00    -0.252 OA
BRANCH   3   5
ATOM      5  C   UNL A   1      35.094  34.292  34.392  1.00  0.00     0.158 C 
BRANCH   5   6
ATOM      6  C   UNL A   1      36.262  33.350  34.318  1.00  0.00    -0.037 A 
ATOM      7  C   UNL A   1      37.425  33.599  35.051  1.00  0.00     0.005 A 
ATOM      8  C   UNL A   1      36.196  32.215  33.498  1.00  0.00     0.005 A 
ATOM      9  C   UNL A   1      38.486  32.696  35.005  1.00  0.00     0.009 A 
ATOM     10  C   UNL A   1      37.242  31.298  33.476  1.00  0.00     0.009 A 
ATOM     11  C   UNL A   1      38.389  31.522  34.245  1.00  0.00    -0.018 A 
BRANCH  11  12
ATOM     12  C   UNL A   1      39.441  30.493  34.285  1.00  0.00    -0.011 A 
ATOM     13  C   UNL A   1      39.698  29.574  33.194  1.00  0.00     0.027 A 
ATOM     14  C   UNL A   1      40.138  30.364  35.427  1.00  0.00     0.080 A 
ATOM     15  C   UNL A   1      40.605  28.599  33.328  1.00  0.00     0.095 A 
ATOM     16  C   UNL A   1      41.164  29.301  35.585  1.00  0.00     0.255 A 
ATOM     17  N   UNL A   1      41.327  28.457  34.499  1.00  0.00    -0.258 N 
ATOM     18  O   UNL A   1      41.779  29.236  36.644  1.00  0.00    -0.269 OA
BRANCH  17  19
ATOM     19  C   UNL A   1      42.294  27.401  34.643  1.00  0.00     0.451 C 
ATOM     20  F   UNL A   1      41.823  26.412  35.439  1.00  0.00    -0.185 F 
ATOM     21  F   UNL A   1      42.605  26.861  33.439  1.00  0.00    -0.185 F 
ENDBRANCH  17  19
ENDBRANCH  11  12
ENDBRANCH   5   6
ENDBRANCH   3   5
ENDBRANCH   2   3
ENDBRANCH   1   2
BRANCH   1  22
ATOM     22  C   UNL A   1      33.232  36.312  30.453  1.00  0.00     0.275 C 
BRANCH  22  23
ATOM     23  O   UNL A   1      32.642  35.031  30.168  1.00  0.00    -0.458 OA
BRANCH  23  24
ATOM     24  C   UNL A   1      33.051  34.449  29.011  1.00  0.00     0.338 C 
ATOM     25  O   UNL A   1      32.521  34.549  27.918  1.00  0.00    -0.246 OA
BRANCH  24  26
ATOM     26  C   UNL A   1      34.382  33.832  29.217  1.00  0.00     0.060 A 
ATOM     27  C   UNL A   1      34.494  32.846  30.206  1.00  0.00     0.016 A 
ATOM     28  C   UNL A   1      35.491  34.163  28.429  1.00  0.00     0.016 A 
ATOM     29  C   UNL A   1      35.718  32.215  30.433  1.00  0.00     0.010 A 
ATOM     30  C   UNL A   1      36.720  33.535  28.663  1.00  0.00     0.010 A 
ATOM     31  C   UNL A   1      36.846  32.580  29.686  1.00  0.00    -0.014 A 
BRANCH  31  32
ATOM     32  C   UNL A   1      38.185  32.102  30.106  1.00  0.00     0.031 A 
ATOM     33  C   UNL A   1      38.659  30.767  29.599  1.00  0.00     0.074 A 
ATOM     34  C   UNL A   1      38.984  32.840  30.897  1.00  0.00     0.049 A 
ATOM     35  N   UNL A   1      39.803  30.162  29.791  1.00  0.00    -0.248 NA
ATOM     36  C   UNL A   1      37.711  30.014  28.762  1.00  0.00     0.031 C 
ATOM     37  C   UNL A   1      38.659  34.154  31.445  1.00  0.00     0.029 A 
ATOM     38  N   UNL A   1      40.246  32.577  31.374  1.00  0.00    -0.354 N 
ATOM     39  C   UNL A   1      39.719  28.969  29.087  1.00  0.00     0.074 A 
ATOM     40  C   UNL A   1      38.397  28.912  28.502  1.00  0.00     0.031 C 
ATOM     41  C   UNL A   1      39.696  34.583  32.190  1.00  0.00     0.029 A 
ATOM     42  C   UNL A   1      40.749  33.568  32.178  1.00  0.00     0.049 A 
ATOM     43  H   UNL A   1      40.741  31.754  31.159  1.00  0.00     0.167 HD
ATOM     44  C   UNL A   1      40.661  28.011  28.923  1.00  0.00     0.037 A 
ATOM     45  C   UNL A   1      41.926  33.644  32.831  1.00  0.00     0.037 A 
ATOM     46  C   UNL A   1      41.972  28.049  29.512  1.00  0.00     0.049 A 
ATOM     47  C   UNL A   1      42.932  32.529  32.695  1.00  0.00     0.074 A 
ATOM     48  C   UNL A   1      43.000  27.130  29.389  1.00  0.00     0.029 A 
ATOM     49  N   UNL A   1      42.431  29.054  30.348  1.00  0.00    -0.354 N 
ATOM     50  N   UNL A   1      42.863  31.433  31.980  1.00  0.00    -0.248 NA
ATOM     51  C   UNL A   1      44.183  32.668  33.456  1.00  0.00     0.031 C 
ATOM     52  C   UNL A   1      44.066  27.559  30.186  1.00  0.00     0.029 A 
ATOM     53  C   UNL A   1      43.718  28.766  30.769  1.00  0.00     0.049 A 
ATOM     54  H   UNL A   1      41.918  29.855  30.603  1.00  0.00     0.167 HD
ATOM     55  C   UNL A   1      44.072  30.774  32.175  1.00  0.00     0.074 A 
ATOM     56  C   UNL A   1      44.857  31.593  33.073  1.00  0.00     0.031 C 
ATOM     57  C   UNL A   1      44.495  29.596  31.652  1.00  0.00     0.037 A 
BRANCH  44  58
ATOM     58  C   UNL A   1      40.292  26.833  28.077  1.00  0.00     0.057 A 
ATOM     59  C   UNL A   1      40.785  26.682  26.773  1.00  0.00     0.134 A 
ATOM     60  C   UNL A   1      39.444  25.834  28.570  1.00  0.00     0.134 A 
ATOM     61  F   UNL A   1      41.587  27.615  26.239  1.00  0.00    -0.206 F 
ATOM     62  C   UNL A   1      40.429  25.590  25.983  1.00  0.00     0.040 A 
ATOM     63  C   UNL A   1      39.099  24.726  27.796  1.00  0.00     0.040 A 
ATOM     64  F   UNL A   1      38.938  25.922  29.809  1.00  0.00    -0.206 F 
ATOM     65  C   UNL A   1      39.587  24.604  26.496  1.00  0.00     0.006 A 
ENDBRANCH  44  58
BRANCH  45  66
ATOM     66  C   UNL A   1      42.240  34.826  33.673  1.00  0.00     0.057 A 
ATOM     67  C   UNL A   1      41.917  34.849  35.035  1.00  0.00     0.134 A 
ATOM     68  C   UNL A   1      42.818  35.976  33.125  1.00  0.00     0.134 A 
ATOM     69  F   UNL A   1      41.334  33.787  35.608  1.00  0.00    -0.206 F 
ATOM     70  C   UNL A   1      42.140  35.983  35.819  1.00  0.00     0.040 A 
ATOM     71  C   UNL A   1      43.066  37.109  33.903  1.00  0.00     0.040 A 
ATOM     72  F   UNL A   1      43.146  36.018  31.826  1.00  0.00    -0.206 F 
ATOM     73  C   UNL A   1      42.719  37.117  35.252  1.00  0.00     0.006 A 
ENDBRANCH  45  66
BRANCH  57  74
ATOM     74  C   UNL A   1      45.881  29.140  32.003  1.00  0.00     0.057 A 
ATOM     75  C   UNL A   1      46.143  28.384  33.153  1.00  0.00     0.134 A 
ATOM     76  C   UNL A   1      46.959  29.420  31.153  1.00  0.00     0.134 A 
ATOM     77  F   UNL A   1      45.157  28.092  34.013  1.00  0.00    -0.206 F 
ATOM     78  C   UNL A   1      47.433  27.939  33.454  1.00  0.00     0.040 A 
ATOM     79  C   UNL A   1      48.247  28.961  31.431  1.00  0.00     0.040 A 
ATOM     80  F   UNL A   1      46.775  30.131  30.030  1.00  0.00    -0.206 F 
ATOM     81  C   UNL A   1      48.487  28.222  32.587  1.00  0.00     0.006 A 
ENDBRANCH  57  74
ENDBRANCH  31  32
ENDBRANCH  24  26
ENDBRANCH  23  24
ENDBRANCH  22  23
ENDBRANCH   1  22
TORSDOF 14
ENDMDL
MODEL 2
REMARK VINA RESULT:      -9.6      5.112     11.033
REMARK SMILES O=C(Cc1ccc(-c2ccn(C(F)F)c(=O)c2)cc1)OCCOC(=O)c1ccc(-c2c3nc(c(-c4c(F)cccc4F)c4ccc([nH]4)c(-c4c(F)cccc4F)c4nc(c(-c5c(F)cccc5F)c5ccc2[nH]5)C=C4)C=C3)cc1
REMARK SMILES IDX 21 1 20 2 2 3 1 4 3 5 4 6 5 7 19 8 6 9 18 10 7 11 8 12 9 13
REMARK SMILES IDX 17 14 10 15 15 16 11 17 16 18 12 19 13 20 14 21 22 22 23 23
REMARK SMILES IDX 24 24 25 25 26 26 27 27 79 28 28 29 78 30 29 31 30 32 31 33
REMARK SMILES IDX 72 34 32 35 77 36 71 37 73 38 33 39 76 40 70 41 69 42 34 44
REMARK SMILES IDX 60 45 43 46 59 47 44 48 47 49 58 50 74 51 45 52 46 53 57 55
REMARK SMILES IDX 75 56 48 57 35 58 36 59 41 60 37 61 38 62 40 63 42 64 39 65
REMARK SMILES IDX 61 66 62 67 67 68 63 69 64 70 66 71 68 72 65 73 49 74 50 75
REMARK SMILES IDX 55 76 51 77 52 78 54 79 56 80 53 81
REMARK H PARENT 73 43 47 54
REMARK Flexibility Score: inf
ROOT
ATOM      1  C   UNL A   1      45.686  18.998  25.057  1.00  0.00     0.274 C 
ENDROOT
BRANCH   1   2
ATOM      2  O   UNL A   1      45.705  20.293  24.420  1.00  0.00    -0.462 OA
BRANCH   2   3
ATOM      3  C   UNL A   1      46.070  21.443  25.039  1.00  0.00     0.310 C 
ATOM      4  O   UNL A   1      45.792  21.623  26.224  1.00  0.00    -0.252 OA
BRANCH   3   5
ATOM      5  C   UNL A   1      46.726  22.532  24.221  1.00  0.00     0.158 C 
BRANCH   5   6
ATOM      6  C   UNL A   1      46.354  23.937  24.600  1.00  0.00    -0.037 A 
ATOM      7  C   UNL A   1      45.013  24.306  24.734  1.00  0.00     0.005 A 
ATOM      8  C   UNL A   1      47.355  24.895  24.809  1.00  0.00     0.005 A 
ATOM      9  C   UNL A   1      44.682  25.603  25.125  1.00  0.00     0.009 A 
ATOM     10  C   UNL A   1      47.026  26.180  25.229  1.00  0.00     0.009 A 
ATOM     11  C   UNL A   1      45.686  26.539  25.408  1.00  0.00    -0.018 A 
BRANCH  11  12
ATOM     12  C   UNL A   1      45.364  27.871  25.948  1.00  0.00    -0.011 A 
ATOM     13  C   UNL A   1      44.085  28.199  26.547  1.00  0.00     0.027 A 
ATOM     14  C   UNL A   1      46.284  28.839  25.799  1.00  0.00     0.080 A 
ATOM     15  C   UNL A   1      43.819  29.453  26.932  1.00  0.00     0.095 A 
ATOM     16  C   UNL A   1      46.014  30.231  26.242  1.00  0.00     0.255 A 
ATOM     17  N   UNL A   1      44.759  30.456  26.784  1.00  0.00    -0.258 N 
ATOM     18  O   UNL A   1      46.893  31.072  26.094  1.00  0.00    -0.269 OA
BRANCH  17  19
ATOM     19  C   UNL A   1      44.465  31.804  27.191  1.00  0.00     0.451 C 
ATOM     20  F   UNL A   1      44.335  32.621  26.117  1.00  0.00    -0.185 F 
ATOM     21  F   UNL A   1      43.312  31.857  27.902  1.00  0.00    -0.185 F 
ENDBRANCH  17  19
ENDBRANCH  11  12
ENDBRANCH   5   6
ENDBRANCH   3   5
ENDBRANCH   2   3
ENDBRANCH   1   2
BRANCH   1  22
ATOM     22  C   UNL A   1      44.270  18.559  25.441  1.00  0.00     0.275 C 
BRANCH  22  23
ATOM     23  O   UNL A   1      43.300  19.511  24.970  1.00  0.00    -0.458 OA
BRANCH  23  24
ATOM     24  C   UNL A   1      42.181  19.623  25.730  1.00  0.00     0.338 C 
ATOM     25  O   UNL A   1      41.374  18.744  25.974  1.00  0.00    -0.246 OA
BRANCH  24  26
ATOM     26  C   UNL A   1      42.185  20.938  26.415  1.00  0.00     0.060 A 
ATOM     27  C   UNL A   1      42.313  22.084  25.619  1.00  0.00     0.016 A 
ATOM     28  C   UNL A   1      42.012  21.061  27.799  1.00  0.00     0.016 A 
ATOM     29  C   UNL A   1      42.304  23.350  26.205  1.00  0.00     0.010 A 
ATOM     30  C   UNL A   1      42.011  22.332  28.386  1.00  0.00     0.010 A 
ATOM     31  C   UNL A   1      42.187  23.480  27.595  1.00  0.00    -0.014 A 
BRANCH  31  32
ATOM     32  C   UNL A   1      42.441  24.796  28.229  1.00  0.00     0.031 A 
ATOM     33  C   UNL A   1      43.847  25.127  28.651  1.00  0.00     0.074 A 
ATOM     34  C   UNL A   1      41.459  25.699  28.404  1.00  0.00     0.049 A 
ATOM     35  N   UNL A   1      44.320  26.226  29.182  1.00  0.00    -0.248 NA
ATOM     36  C   UNL A   1      44.854  24.073  28.446  1.00  0.00     0.031 C 
ATOM     37  C   UNL A   1      40.060  25.517  28.028  1.00  0.00     0.029 A 
ATOM     38  N   UNL A   1      41.503  26.959  28.951  1.00  0.00    -0.354 N 
ATOM     39  C   UNL A   1      45.679  26.002  29.357  1.00  0.00     0.074 A 
ATOM     40  C   UNL A   1      45.947  24.648  28.922  1.00  0.00     0.031 C 
ATOM     41  C   UNL A   1      39.373  26.627  28.359  1.00  0.00     0.029 A 
ATOM     42  C   UNL A   1      40.283  27.589  28.980  1.00  0.00     0.049 A 
ATOM     43  H   UNL A   1      42.329  27.370  29.290  1.00  0.00     0.167 HD
ATOM     44  C   UNL A   1      46.626  26.850  29.823  1.00  0.00     0.037 A 
ATOM     45  C   UNL A   1      39.944  28.804  29.456  1.00  0.00     0.037 A 
ATOM     46  C   UNL A   1      46.369  28.190  30.273  1.00  0.00     0.049 A 
ATOM     47  C   UNL A   1      41.004  29.702  30.041  1.00  0.00     0.074 A 
ATOM     48  C   UNL A   1      47.269  29.128  30.747  1.00  0.00     0.029 A 
ATOM     49  N   UNL A   1      45.115  28.779  30.318  1.00  0.00    -0.354 N 
ATOM     50  N   UNL A   1      42.294  29.502  30.149  1.00  0.00    -0.248 NA
ATOM     51  C   UNL A   1      40.556  31.003  30.564  1.00  0.00     0.031 C 
ATOM     52  C   UNL A   1      46.554  30.271  31.119  1.00  0.00     0.029 A 
ATOM     53  C   UNL A   1      45.214  30.059  30.836  1.00  0.00     0.049 A 
ATOM     54  H   UNL A   1      44.279  28.350  30.025  1.00  0.00     0.167 HD
ATOM     55  C   UNL A   1      42.815  30.660  30.715  1.00  0.00     0.074 A 
ATOM     56  C   UNL A   1      41.702  31.561  30.926  1.00  0.00     0.031 C 
ATOM     57  C   UNL A   1      44.101  30.952  31.028  1.00  0.00     0.037 A 
BRANCH  44  58
ATOM     58  C   UNL A   1      48.031  26.335  29.876  1.00  0.00     0.057 A 
ATOM     59  C   UNL A   1      48.532  25.687  31.013  1.00  0.00     0.134 A 
ATOM     60  C   UNL A   1      48.889  26.480  28.779  1.00  0.00     0.134 A 
ATOM     61  F   UNL A   1      47.765  25.535  32.102  1.00  0.00    -0.206 F 
ATOM     62  C   UNL A   1      49.846  25.220  31.064  1.00  0.00     0.040 A 
ATOM     63  C   UNL A   1      50.197  25.997  28.811  1.00  0.00     0.040 A 
ATOM     64  F   UNL A   1      48.468  27.092  27.663  1.00  0.00    -0.206 F 
ATOM     65  C   UNL A   1      50.681  25.370  29.958  1.00  0.00     0.006 A 
ENDBRANCH  44  58
BRANCH  45  66
ATOM     66  C   UNL A   1      38.534  29.263  29.398  1.00  0.00     0.057 A 
ATOM     67  C   UNL A   1      37.992  29.788  28.219  1.00  0.00     0.134 A 
ATOM     68  C   UNL A   1      37.713  29.236  30.531  1.00  0.00     0.134 A 
ATOM     69  F   UNL A   1      38.740  29.866  27.109  1.00  0.00    -0.206 F 
ATOM     70  C   UNL A   1      36.690  30.290  28.174  1.00  0.00     0.040 A 
ATOM     71  C   UNL A   1      36.402  29.716  30.494  1.00  0.00     0.040 A 
ATOM     72  F   UNL A   1      38.175  28.749  31.692  1.00  0.00    -0.206 F 
ATOM     73  C   UNL A   1      35.891  30.252  29.315  1.00  0.00     0.006 A 
ENDBRANCH  45  66
BRANCH  57  74
ATOM     74  C   UNL A   1      44.386  32.313  31.594  1.00  0.00     0.057 A 
ATOM     75  C   UNL A   1      44.941  33.337  30.816  1.00  0.00     0.134 A 
ATOM     76  C   UNL A   1      44.057  32.614  32.922  1.00  0.00     0.134 A 
ATOM     77  F   UNL A   1      45.289  33.110  29.541  1.00  0.00    -0.206 F 
ATOM     78  C   UNL A   1      45.174  34.609  31.346  1.00  0.00     0.040 A 
ATOM     79  C   UNL A   1      44.263  33.887  33.455  1.00  0.00     0.040 A 
ATOM     80  F   UNL A   1      43.513  31.681  33.718  1.00  0.00    -0.206 F 
ATOM     81  C   UNL A   1      44.828  34.888  32.667  1.00  0.00     0.006 A 
ENDBRANCH  57  74
ENDBRANCH  31  32
ENDBRANCH  24  26
ENDBRANCH  23  24
ENDBRANCH  22  23
ENDBRANCH   1  22
TORSDOF 14
ENDMDL
MODEL 3
REMARK VINA RESULT:      -9.5      4.793     11.021
REMARK SMILES O=C(Cc1ccc(-c2ccn(C(F)F)c(=O)c2)cc1)OCCOC(=O)c1ccc(-c2c3nc(c(-c4c(F)cccc4F)c4ccc([nH]4)c(-c4c(F)cccc4F)c4nc(c(-c5c(F)cccc5F)c5ccc2[nH]5)C=C4)C=C3)cc1
REMARK SMILES IDX 21 1 20 2 2 3 1 4 3 5 4 6 5 7 19 8 6 9 18 10 7 11 8 12 9 13
REMARK SMILES IDX 17 14 10 15 15 16 11 17 16 18 12 19 13 20 14 21 22 22 23 23
REMARK SMILES IDX 24 24 25 25 26 26 27 27 79 28 28 29 78 30 29 31 30 32 31 33
REMARK SMILES IDX 72 34 32 35 77 36 71 37 73 38 33 39 76 40 70 41 69 42 34 44
REMARK SMILES IDX 60 45 43 46 59 47 44 48 47 49 58 50 74 51 45 52 46 53 57 55
REMARK SMILES IDX 75 56 48 57 35 58 36 59 41 60 37 61 38 62 40 63 42 64 39 65
REMARK SMILES IDX 61 66 62 67 67 68 63 69 64 70 66 71 68 72 65 73 49 74 50 75
REMARK SMILES IDX 55 76 51 77 52 78 54 79 56 80 53 81
REMARK H PARENT 73 43 47 54
REMARK Flexibility Score: inf
ROOT
ATOM      1  C   UNL A   1      43.973  21.375  25.139  1.00  0.00     0.274 C 
ENDROOT
BRANCH   1   2
ATOM      2  O   UNL A   1      42.567  21.589  25.382  1.00  0.00    -0.462 OA
BRANCH   2   3
ATOM      3  C   UNL A   1      41.852  20.947  26.338  1.00  0.00     0.310 C 
ATOM      4  O   UNL A   1      41.894  19.721  26.424  1.00  0.00    -0.252 OA
BRANCH   3   5
ATOM      5  C   UNL A   1      40.928  21.756  27.221  1.00  0.00     0.158 C 
BRANCH   5   6
ATOM      6  C   UNL A   1      39.680  22.264  26.556  1.00  0.00    -0.037 A 
ATOM      7  C   UNL A   1      38.906  21.419  25.757  1.00  0.00     0.005 A 
ATOM      8  C   UNL A   1      39.292  23.600  26.722  1.00  0.00     0.005 A 
ATOM      9  C   UNL A   1      37.729  21.891  25.178  1.00  0.00     0.009 A 
ATOM     10  C   UNL A   1      38.101  24.063  26.170  1.00  0.00     0.009 A 
ATOM     11  C   UNL A   1      37.301  23.206  25.408  1.00  0.00    -0.018 A 
BRANCH  11  12
ATOM     12  C   UNL A   1      35.998  23.686  24.916  1.00  0.00    -0.011 A 
ATOM     13  C   UNL A   1      35.069  24.444  25.731  1.00  0.00     0.027 A 
ATOM     14  C   UNL A   1      35.636  23.328  23.672  1.00  0.00     0.080 A 
ATOM     15  C   UNL A   1      33.861  24.769  25.256  1.00  0.00     0.095 A 
ATOM     16  C   UNL A   1      34.308  23.701  23.121  1.00  0.00     0.255 A 
ATOM     17  N   UNL A   1      33.478  24.407  23.978  1.00  0.00    -0.258 N 
ATOM     18  O   UNL A   1      34.034  23.360  21.976  1.00  0.00    -0.269 OA
BRANCH  17  19
ATOM     19  C   UNL A   1      32.175  24.750  23.475  1.00  0.00     0.451 C 
ATOM     20  F   UNL A   1      31.218  24.528  24.408  1.00  0.00    -0.185 F 
ATOM     21  F   UNL A   1      32.121  26.056  23.118  1.00  0.00    -0.185 F 
ENDBRANCH  17  19
ENDBRANCH  11  12
ENDBRANCH   5   6
ENDBRANCH   3   5
ENDBRANCH   2   3
ENDBRANCH   1   2
BRANCH   1  22
ATOM     22  C   UNL A   1      44.581  22.461  24.247  1.00  0.00     0.275 C 
BRANCH  22  23
ATOM     23  O   UNL A   1      43.917  23.719  24.457  1.00  0.00    -0.458 OA
BRANCH  23  24
ATOM     24  C   UNL A   1      44.685  24.697  25.002  1.00  0.00     0.338 C 
ATOM     25  O   UNL A   1      45.793  25.045  24.631  1.00  0.00    -0.246 OA
BRANCH  24  26
ATOM     26  C   UNL A   1      43.888  25.445  26.002  1.00  0.00     0.060 A 
ATOM     27  C   UNL A   1      44.189  26.801  26.190  1.00  0.00     0.016 A 
ATOM     28  C   UNL A   1      42.828  24.859  26.705  1.00  0.00     0.016 A 
ATOM     29  C   UNL A   1      43.460  27.562  27.103  1.00  0.00     0.010 A 
ATOM     30  C   UNL A   1      42.103  25.622  27.627  1.00  0.00     0.010 A 
ATOM     31  C   UNL A   1      42.435  26.969  27.852  1.00  0.00    -0.014 A 
BRANCH  31  32
ATOM     32  C   UNL A   1      41.847  27.706  28.997  1.00  0.00     0.031 A 
ATOM     33  C   UNL A   1      42.511  27.586  30.342  1.00  0.00     0.074 A 
ATOM     34  C   UNL A   1      40.764  28.491  28.852  1.00  0.00     0.049 A 
ATOM     35  N   UNL A   1      42.210  28.168  31.474  1.00  0.00    -0.248 NA
ATOM     36  C   UNL A   1      43.674  26.686  30.416  1.00  0.00     0.031 C 
ATOM     37  C   UNL A   1      40.033  28.712  27.607  1.00  0.00     0.029 A 
ATOM     38  N   UNL A   1      40.094  29.253  29.778  1.00  0.00    -0.354 N 
ATOM     39  C   UNL A   1      43.152  27.719  32.388  1.00  0.00     0.074 A 
ATOM     40  C   UNL A   1      44.007  26.781  31.693  1.00  0.00     0.031 C 
ATOM     41  C   UNL A   1      39.009  29.551  27.847  1.00  0.00     0.029 A 
ATOM     42  C   UNL A   1      39.007  29.917  29.263  1.00  0.00     0.049 A 
ATOM     43  H   UNL A   1      40.366  29.317  30.722  1.00  0.00     0.167 HD
ATOM     44  C   UNL A   1      43.308  28.067  33.687  1.00  0.00     0.037 A 
ATOM     45  C   UNL A   1      38.116  30.726  29.870  1.00  0.00     0.037 A 
ATOM     46  C   UNL A   1      42.456  28.984  34.392  1.00  0.00     0.049 A 
ATOM     47  C   UNL A   1      38.264  31.039  31.337  1.00  0.00     0.074 A 
ATOM     48  C   UNL A   1      42.546  29.409  35.707  1.00  0.00     0.029 A 
ATOM     49  N   UNL A   1      41.347  29.609  33.845  1.00  0.00    -0.354 N 
ATOM     50  N   UNL A   1      39.193  30.654  32.177  1.00  0.00    -0.248 NA
ATOM     51  C   UNL A   1      37.240  31.908  31.937  1.00  0.00     0.031 C 
ATOM     52  C   UNL A   1      41.466  30.259  35.966  1.00  0.00     0.029 A 
ATOM     53  C   UNL A   1      40.729  30.397  34.801  1.00  0.00     0.049 A 
ATOM     54  H   UNL A   1      41.044  29.508  32.913  1.00  0.00     0.167 HD
ATOM     55  C   UNL A   1      38.887  31.261  33.390  1.00  0.00     0.074 A 
ATOM     56  C   UNL A   1      37.687  32.043  33.177  1.00  0.00     0.031 C 
ATOM     57  C   UNL A   1      39.543  31.182  34.574  1.00  0.00     0.037 A 
BRANCH  44  58
ATOM     58  C   UNL A   1      44.444  27.433  34.428  1.00  0.00     0.057 A 
ATOM     59  C   UNL A   1      45.666  28.097  34.605  1.00  0.00     0.134 A 
ATOM     60  C   UNL A   1      44.315  26.153  34.979  1.00  0.00     0.134 A 
ATOM     61  F   UNL A   1      45.857  29.319  34.084  1.00  0.00    -0.206 F 
ATOM     62  C   UNL A   1      46.727  27.499  35.284  1.00  0.00     0.040 A 
ATOM     63  C   UNL A   1      45.362  25.554  35.680  1.00  0.00     0.040 A 
ATOM     64  F   UNL A   1      43.172  25.466  34.843  1.00  0.00    -0.206 F 
ATOM     65  C   UNL A   1      46.575  26.225  35.829  1.00  0.00     0.006 A 
ENDBRANCH  44  58
BRANCH  45  66
ATOM     66  C   UNL A   1      36.995  31.316  29.096  1.00  0.00     0.057 A 
ATOM     67  C   UNL A   1      37.030  32.650  28.675  1.00  0.00     0.134 A 
ATOM     68  C   UNL A   1      35.842  30.577  28.808  1.00  0.00     0.134 A 
ATOM     69  F   UNL A   1      38.096  33.416  28.948  1.00  0.00    -0.206 F 
ATOM     70  C   UNL A   1      35.950  33.235  28.011  1.00  0.00     0.040 A 
ATOM     71  C   UNL A   1      34.763  31.144  28.127  1.00  0.00     0.040 A 
ATOM     72  F   UNL A   1      35.745  29.295  29.189  1.00  0.00    -0.206 F 
ATOM     73  C   UNL A   1      34.812  32.479  27.734  1.00  0.00     0.006 A 
ENDBRANCH  45  66
BRANCH  57  74
ATOM     74  C   UNL A   1      39.007  31.988  35.720  1.00  0.00     0.057 A 
ATOM     75  C   UNL A   1      38.167  31.427  36.691  1.00  0.00     0.134 A 
ATOM     76  C   UNL A   1      39.375  33.330  35.880  1.00  0.00     0.134 A 
ATOM     77  F   UNL A   1      37.769  30.150  36.589  1.00  0.00    -0.206 F 
ATOM     78  C   UNL A   1      37.697  32.179  37.770  1.00  0.00     0.040 A 
ATOM     79  C   UNL A   1      38.931  34.084  36.967  1.00  0.00     0.040 A 
ATOM     80  F   UNL A   1      40.185  33.925  34.992  1.00  0.00    -0.206 F 
ATOM     81  C   UNL A   1      38.086  33.509  37.914  1.00  0.00     0.006 A 
ENDBRANCH  57  74
ENDBRANCH  31  32
ENDBRANCH  24  26
ENDBRANCH  23  24
ENDBRANCH  22  23
ENDBRANCH   1  22
TORSDOF 14
ENDMDL
