MODEL 1
REMARK VINA RESULT:     -11.9      0.000      0.000
REMARK SMILES Cc1ccc(C(=O)OCCOC(=O)c2ccc(-c3c4nc(c(-c5c(F)cccc5F)c5ccc([nH]5)c(-c5c(F)cccc5F)c5nc(c(-c6c(F)cccc6F)c6ccc3[nH]6)C=C5)C=C4)cc2)c(Oc2cccc(F)c2C(N)=O)c1
REMARK SMILES IDX 9 1 8 2 6 3 7 4 5 5 1 6 2 7 3 8 80 9 4 10 68 11 69 12 70 13
REMARK SMILES IDX 71 14 76 15 72 16 74 17 73 18 75 19 77 20 78 21 79 22 10 25
REMARK SMILES IDX 11 26 12 27 13 28 14 29 15 30 67 31 16 32 66 33 17 34 18 35
REMARK SMILES IDX 19 36 60 37 20 38 65 39 59 40 61 41 21 42 64 43 58 44 57 45
REMARK SMILES IDX 22 47 48 48 31 49 47 50 32 51 35 52 46 53 62 54 33 55 34 56
REMARK SMILES IDX 45 58 63 59 36 60 23 61 24 62 29 63 25 64 26 65 28 66 30 67
REMARK SMILES IDX 27 68 49 69 50 70 55 71 51 72 52 73 54 74 56 75 53 76 37 77
REMARK SMILES IDX 38 78 43 79 39 80 40 81 42 82 44 83 41 84
REMARK H PARENT 78 23 78 24 61 46 35 57
REMARK Flexibility Score: inf
ROOT
ATOM      1  C   UNL A   1      36.957  23.141  24.152  1.00  0.00     0.275 C 
ENDROOT
BRANCH   1   2
ATOM      2  O   UNL A   1      35.881  22.181  24.177  1.00  0.00    -0.458 OA
BRANCH   2   3
ATOM      3  C   UNL A   1      34.759  22.689  23.591  1.00  0.00     0.342 C 
ATOM      4  O   UNL A   1      34.769  23.229  22.494  1.00  0.00    -0.246 OA
BRANCH   3   5
ATOM      5  C   UNL A   1      33.534  22.676  24.434  1.00  0.00     0.102 A 
ATOM      6  C   UNL A   1      30.046  23.016  26.962  1.00  0.00     0.044 C 
ATOM      7  C   UNL A   1      31.255  22.888  26.081  1.00  0.00    -0.047 A 
ATOM      8  C   UNL A   1      31.494  21.727  25.329  1.00  0.00     0.004 A 
ATOM      9  C   UNL A   1      32.142  23.960  25.975  1.00  0.00     0.051 A 
ATOM     10  C   UNL A   1      32.641  21.607  24.524  1.00  0.00     0.020 A 
ATOM     11  C   UNL A   1      33.273  23.844  25.169  1.00  0.00     0.142 A 
BRANCH  11  12
ATOM     12  O   UNL A   1      34.118  24.906  24.999  1.00  0.00    -0.455 OA
BRANCH  12  13
ATOM     13  C   UNL A   1      33.637  26.165  24.767  1.00  0.00     0.143 A 
ATOM     14  C   UNL A   1      33.611  26.925  25.947  1.00  0.00     0.048 A 
ATOM     15  C   UNL A   1      33.175  26.724  23.569  1.00  0.00     0.117 A 
ATOM     16  C   UNL A   1      33.230  28.260  25.929  1.00  0.00     0.007 A 
ATOM     17  C   UNL A   1      32.826  28.076  23.558  1.00  0.00     0.139 A 
ATOM     18  C   UNL A   1      32.865  28.845  24.722  1.00  0.00     0.040 A 
ATOM     19  F   UNL A   1      32.406  28.669  22.431  1.00  0.00    -0.206 F 
BRANCH  15  20
ATOM     20  C   UNL A   1      32.989  25.982  22.307  1.00  0.00     0.255 C 
ATOM     21  N   UNL A   1      31.996  25.040  22.287  1.00  0.00    -0.365 N 
ATOM     22  O   UNL A   1      33.666  26.214  21.315  1.00  0.00    -0.269 OA
ATOM     23  H   UNL A   1      31.463  24.870  23.096  1.00  0.00     0.159 HD
ATOM     24  H   UNL A   1      31.817  24.533  21.462  1.00  0.00     0.159 HD
ENDBRANCH  15  20
ENDBRANCH  12  13
ENDBRANCH  11  12
ENDBRANCH   3   5
ENDBRANCH   2   3
ENDBRANCH   1   2
BRANCH   1  25
ATOM     25  C   UNL A   1      37.572  23.488  25.511  1.00  0.00     0.275 C 
BRANCH  25  26
ATOM     26  O   UNL A   1      38.672  22.700  26.039  1.00  0.00    -0.458 OA
BRANCH  26  27
ATOM     27  C   UNL A   1      39.858  23.118  26.532  1.00  0.00     0.338 C 
ATOM     28  O   UNL A   1      40.869  22.420  26.477  1.00  0.00    -0.246 OA
BRANCH  27  29
ATOM     29  C   UNL A   1      39.925  24.455  27.127  1.00  0.00     0.060 A 
ATOM     30  C   UNL A   1      40.463  25.504  26.358  1.00  0.00     0.016 A 
ATOM     31  C   UNL A   1      39.379  24.681  28.387  1.00  0.00     0.016 A 
ATOM     32  C   UNL A   1      40.387  26.808  26.815  1.00  0.00     0.010 A 
ATOM     33  C   UNL A   1      39.177  25.977  28.783  1.00  0.00     0.010 A 
ATOM     34  C   UNL A   1      39.742  27.020  28.028  1.00  0.00    -0.014 A 
BRANCH  34  35
ATOM     35  C   UNL A   1      39.970  28.212  28.818  1.00  0.00     0.031 A 
ATOM     36  C   UNL A   1      39.039  29.345  28.772  1.00  0.00     0.074 A 
ATOM     37  C   UNL A   1      40.979  27.968  29.686  1.00  0.00     0.049 A 
ATOM     38  N   UNL A   1      39.317  30.532  29.176  1.00  0.00    -0.248 NA
ATOM     39  C   UNL A   1      37.700  29.268  28.191  1.00  0.00     0.031 C 
ATOM     40  C   UNL A   1      41.380  28.576  30.935  1.00  0.00     0.029 A 
ATOM     41  N   UNL A   1      41.994  27.018  29.447  1.00  0.00    -0.354 N 
ATOM     42  C   UNL A   1      38.111  31.194  29.323  1.00  0.00     0.074 A 
ATOM     43  C   UNL A   1      37.185  30.459  28.509  1.00  0.00     0.031 C 
ATOM     44  C   UNL A   1      42.670  28.249  31.169  1.00  0.00     0.029 A 
ATOM     45  C   UNL A   1      43.163  27.532  29.994  1.00  0.00     0.049 A 
ATOM     46  H   UNL A   1      41.893  26.157  28.982  1.00  0.00     0.167 HD
ATOM     47  C   UNL A   1      38.007  32.117  30.326  1.00  0.00     0.037 A 
ATOM     48  C   UNL A   1      44.102  27.986  29.110  1.00  0.00     0.037 A 
ATOM     49  C   UNL A   1      39.314  32.247  30.974  1.00  0.00     0.049 A 
ATOM     50  C   UNL A   1      44.189  29.490  29.212  1.00  0.00     0.074 A 
ATOM     51  C   UNL A   1      39.833  31.636  32.104  1.00  0.00     0.029 A 
ATOM     52  N   UNL A   1      40.400  32.703  30.234  1.00  0.00    -0.354 N 
ATOM     53  N   UNL A   1      43.167  30.278  29.430  1.00  0.00    -0.248 NA
ATOM     54  C   UNL A   1      45.467  30.189  29.223  1.00  0.00     0.031 C 
ATOM     55  C   UNL A   1      41.249  31.643  31.986  1.00  0.00     0.029 A 
ATOM     56  C   UNL A   1      41.582  32.235  30.779  1.00  0.00     0.049 A 
ATOM     57  H   UNL A   1      40.336  33.277  29.438  1.00  0.00     0.167 HD
ATOM     58  C   UNL A   1      43.635  31.532  29.724  1.00  0.00     0.074 A 
ATOM     59  C   UNL A   1      45.075  31.433  29.542  1.00  0.00     0.031 C 
ATOM     60  C   UNL A   1      42.855  32.564  30.163  1.00  0.00     0.037 A 
BRANCH  47  61
ATOM     61  C   UNL A   1      36.715  32.597  30.968  1.00  0.00     0.057 A 
ATOM     62  C   UNL A   1      36.004  33.678  30.398  1.00  0.00     0.134 A 
ATOM     63  C   UNL A   1      36.133  32.096  32.146  1.00  0.00     0.134 A 
ATOM     64  F   UNL A   1      36.364  34.223  29.229  1.00  0.00    -0.206 F 
ATOM     65  C   UNL A   1      34.878  34.265  30.992  1.00  0.00     0.040 A 
ATOM     66  C   UNL A   1      35.013  32.685  32.763  1.00  0.00     0.040 A 
ATOM     67  F   UNL A   1      36.581  30.987  32.743  1.00  0.00    -0.206 F 
ATOM     68  C   UNL A   1      34.387  33.782  32.192  1.00  0.00     0.006 A 
ENDBRANCH  47  61
BRANCH  48  69
ATOM     69  C   UNL A   1      44.205  27.172  27.846  1.00  0.00     0.057 A 
ATOM     70  C   UNL A   1      43.744  27.736  26.632  1.00  0.00     0.134 A 
ATOM     71  C   UNL A   1      44.955  25.999  27.725  1.00  0.00     0.134 A 
ATOM     72  F   UNL A   1      43.005  28.859  26.649  1.00  0.00    -0.206 F 
ATOM     73  C   UNL A   1      44.096  27.228  25.376  1.00  0.00     0.040 A 
ATOM     74  C   UNL A   1      45.295  25.464  26.468  1.00  0.00     0.040 A 
ATOM     75  F   UNL A   1      45.443  25.382  28.810  1.00  0.00    -0.206 F 
ATOM     76  C   UNL A   1      44.891  26.094  25.290  1.00  0.00     0.006 A 
ENDBRANCH  48  69
BRANCH  60  77
ATOM     77  C   UNL A   1      43.269  34.009  30.143  1.00  0.00     0.057 A 
ATOM     78  C   UNL A   1      43.295  34.782  28.974  1.00  0.00     0.134 A 
ATOM     79  C   UNL A   1      43.463  34.722  31.347  1.00  0.00     0.134 A 
ATOM     80  F   UNL A   1      43.005  34.256  27.776  1.00  0.00    -0.206 F 
ATOM     81  C   UNL A   1      43.564  36.152  28.994  1.00  0.00     0.040 A 
ATOM     82  C   UNL A   1      43.656  36.101  31.384  1.00  0.00     0.040 A 
ATOM     83  F   UNL A   1      43.435  34.120  32.546  1.00  0.00    -0.206 F 
ATOM     84  C   UNL A   1      43.728  36.819  30.201  1.00  0.00     0.006 A 
ENDBRANCH  60  77
ENDBRANCH  34  35
ENDBRANCH  27  29
ENDBRANCH  26  27
ENDBRANCH  25  26
ENDBRANCH   1  25
TORSDOF 14
ENDMDL
MODEL 2
REMARK VINA RESULT:     -11.8      3.273      8.053
REMARK SMILES Cc1ccc(C(=O)OCCOC(=O)c2ccc(-c3c4nc(c(-c5c(F)cccc5F)c5ccc([nH]5)c(-c5c(F)cccc5F)c5nc(c(-c6c(F)cccc6F)c6ccc3[nH]6)C=C5)C=C4)cc2)c(Oc2cccc(F)c2C(N)=O)c1
REMARK SMILES IDX 9 1 8 2 6 3 7 4 5 5 1 6 2 7 3 8 80 9 4 10 68 11 69 12 70 13
REMARK SMILES IDX 71 14 76 15 72 16 74 17 73 18 75 19 77 20 78 21 79 22 10 25
REMARK SMILES IDX 11 26 12 27 13 28 14 29 15 30 67 31 16 32 66 33 17 34 18 35
REMARK SMILES IDX 19 36 60 37 20 38 65 39 59 40 61 41 21 42 64 43 58 44 57 45
REMARK SMILES IDX 22 47 48 48 31 49 47 50 32 51 35 52 46 53 62 54 33 55 34 56
REMARK SMILES IDX 45 58 63 59 36 60 23 61 24 62 29 63 25 64 26 65 28 66 30 67
REMARK SMILES IDX 27 68 49 69 50 70 55 71 51 72 52 73 54 74 56 75 53 76 37 77
REMARK SMILES IDX 38 78 43 79 39 80 40 81 42 82 44 83 41 84
REMARK H PARENT 78 23 78 24 61 46 35 57
REMARK Flexibility Score: inf
ROOT
ATOM      1  C   UNL A   1      33.159  28.250  26.868  1.00  0.00     0.275 C 
ENDROOT
BRANCH   1   2
ATOM      2  O   UNL A   1      33.610  27.104  26.117  1.00  0.00    -0.458 OA
BRANCH   2   3
ATOM      3  C   UNL A   1      32.553  26.397  25.624  1.00  0.00     0.342 C 
ATOM      4  O   UNL A   1      31.651  25.970  26.333  1.00  0.00    -0.246 OA
BRANCH   3   5
ATOM      5  C   UNL A   1      32.633  26.046  24.182  1.00  0.00     0.102 A 
ATOM      6  C   UNL A   1      32.644  25.338  19.919  1.00  0.00     0.044 C 
ATOM      7  C   UNL A   1      32.647  25.576  21.402  1.00  0.00    -0.047 A 
ATOM      8  C   UNL A   1      33.453  24.815  22.265  1.00  0.00     0.004 A 
ATOM      9  C   UNL A   1      31.864  26.601  21.933  1.00  0.00     0.051 A 
ATOM     10  C   UNL A   1      33.432  25.030  23.654  1.00  0.00     0.020 A 
ATOM     11  C   UNL A   1      31.852  26.819  23.309  1.00  0.00     0.142 A 
BRANCH  11  12
ATOM     12  O   UNL A   1      31.142  27.861  23.842  1.00  0.00    -0.455 OA
BRANCH  12  13
ATOM     13  C   UNL A   1      29.799  27.990  23.619  1.00  0.00     0.143 A 
ATOM     14  C   UNL A   1      29.104  26.837  24.017  1.00  0.00     0.048 A 
ATOM     15  C   UNL A   1      29.100  29.063  23.052  1.00  0.00     0.117 A 
ATOM     16  C   UNL A   1      27.718  26.780  23.952  1.00  0.00     0.007 A 
ATOM     17  C   UNL A   1      27.705  29.007  23.023  1.00  0.00     0.139 A 
ATOM     18  C   UNL A   1      27.016  27.883  23.481  1.00  0.00     0.040 A 
ATOM     19  F   UNL A   1      26.986  30.019  22.518  1.00  0.00    -0.206 F 
BRANCH  15  20
ATOM     20  C   UNL A   1      29.727  30.251  22.439  1.00  0.00     0.255 C 
ATOM     21  N   UNL A   1      30.724  30.021  21.530  1.00  0.00    -0.365 N 
ATOM     22  O   UNL A   1      29.358  31.385  22.705  1.00  0.00    -0.269 OA
ATOM     23  H   UNL A   1      31.005  29.099  21.331  1.00  0.00     0.159 HD
ATOM     24  H   UNL A   1      31.160  30.779  21.077  1.00  0.00     0.159 HD
ENDBRANCH  15  20
ENDBRANCH  12  13
ENDBRANCH  11  12
ENDBRANCH   3   5
ENDBRANCH   2   3
ENDBRANCH   1   2
BRANCH   1  25
ATOM     25  C   UNL A   1      33.963  29.538  26.662  1.00  0.00     0.275 C 
BRANCH  25  26
ATOM     26  O   UNL A   1      34.232  30.421  27.784  1.00  0.00    -0.458 OA
BRANCH  26  27
ATOM     27  C   UNL A   1      35.364  31.092  28.086  1.00  0.00     0.338 C 
ATOM     28  O   UNL A   1      35.384  32.314  28.211  1.00  0.00    -0.246 OA
BRANCH  27  29
ATOM     29  C   UNL A   1      36.592  30.317  28.287  1.00  0.00     0.060 A 
ATOM     30  C   UNL A   1      36.707  29.535  29.452  1.00  0.00     0.016 A 
ATOM     31  C   UNL A   1      37.568  30.293  27.294  1.00  0.00     0.016 A 
ATOM     32  C   UNL A   1      37.769  28.660  29.597  1.00  0.00     0.010 A 
ATOM     33  C   UNL A   1      38.543  29.335  27.367  1.00  0.00     0.010 A 
ATOM     34  C   UNL A   1      38.674  28.577  28.545  1.00  0.00    -0.014 A 
BRANCH  34  35
ATOM     35  C   UNL A   1      40.017  28.070  28.728  1.00  0.00     0.031 A 
ATOM     36  C   UNL A   1      40.352  26.675  28.418  1.00  0.00     0.074 A 
ATOM     37  C   UNL A   1      40.841  29.112  28.982  1.00  0.00     0.049 A 
ATOM     38  N   UNL A   1      41.403  26.069  28.839  1.00  0.00    -0.248 NA
ATOM     39  C   UNL A   1      39.484  25.787  27.647  1.00  0.00     0.031 C 
ATOM     40  C   UNL A   1      42.270  29.297  28.859  1.00  0.00     0.029 A 
ATOM     41  N   UNL A   1      40.407  30.319  29.568  1.00  0.00    -0.354 N 
ATOM     42  C   UNL A   1      41.554  24.942  28.052  1.00  0.00     0.074 A 
ATOM     43  C   UNL A   1      40.253  24.705  27.494  1.00  0.00     0.031 C 
ATOM     44  C   UNL A   1      42.628  30.347  29.632  1.00  0.00     0.029 A 
ATOM     45  C   UNL A   1      41.443  30.770  30.377  1.00  0.00     0.049 A 
ATOM     46  H   UNL A   1      39.536  30.757  29.430  1.00  0.00     0.167 HD
ATOM     47  C   UNL A   1      42.825  24.523  27.771  1.00  0.00     0.037 A 
ATOM     48  C   UNL A   1      41.258  30.654  31.727  1.00  0.00     0.037 A 
ATOM     49  C   UNL A   1      43.765  25.375  28.502  1.00  0.00     0.049 A 
ATOM     50  C   UNL A   1      42.194  29.600  32.265  1.00  0.00     0.074 A 
ATOM     51  C   UNL A   1      44.459  26.509  28.110  1.00  0.00     0.029 A 
ATOM     52  N   UNL A   1      43.735  25.389  29.893  1.00  0.00    -0.354 N 
ATOM     53  N   UNL A   1      42.521  28.504  31.627  1.00  0.00    -0.248 NA
ATOM     54  C   UNL A   1      42.941  29.790  33.500  1.00  0.00     0.031 C 
ATOM     55  C   UNL A   1      44.759  27.258  29.279  1.00  0.00     0.029 A 
ATOM     56  C   UNL A   1      44.229  26.590  30.370  1.00  0.00     0.049 A 
ATOM     57  H   UNL A   1      43.409  24.651  30.455  1.00  0.00     0.167 HD
ATOM     58  C   UNL A   1      43.574  27.917  32.277  1.00  0.00     0.074 A 
ATOM     59  C   UNL A   1      43.772  28.737  33.463  1.00  0.00     0.031 C 
ATOM     60  C   UNL A   1      44.277  26.847  31.799  1.00  0.00     0.037 A 
BRANCH  47  61
ATOM     61  C   UNL A   1      43.240  23.652  26.596  1.00  0.00     0.057 A 
ATOM     62  C   UNL A   1      43.212  22.244  26.718  1.00  0.00     0.134 A 
ATOM     63  C   UNL A   1      43.713  24.102  25.351  1.00  0.00     0.134 A 
ATOM     64  F   UNL A   1      42.709  21.638  27.802  1.00  0.00    -0.206 F 
ATOM     65  C   UNL A   1      43.696  21.371  25.734  1.00  0.00     0.040 A 
ATOM     66  C   UNL A   1      44.218  23.239  24.361  1.00  0.00     0.040 A 
ATOM     67  F   UNL A   1      43.674  25.392  25.001  1.00  0.00    -0.206 F 
ATOM     68  C   UNL A   1      44.222  21.866  24.555  1.00  0.00     0.006 A 
ENDBRANCH  47  61
BRANCH  48  69
ATOM     69  C   UNL A   1      39.842  30.902  32.178  1.00  0.00     0.057 A 
ATOM     70  C   UNL A   1      39.064  29.804  32.618  1.00  0.00     0.134 A 
ATOM     71  C   UNL A   1      39.310  32.168  32.443  1.00  0.00     0.134 A 
ATOM     72  F   UNL A   1      39.488  28.548  32.399  1.00  0.00    -0.206 F 
ATOM     73  C   UNL A   1      37.890  29.955  33.367  1.00  0.00     0.040 A 
ATOM     74  C   UNL A   1      38.118  32.333  33.173  1.00  0.00     0.040 A 
ATOM     75  F   UNL A   1      39.964  33.277  32.072  1.00  0.00    -0.206 F 
ATOM     76  C   UNL A   1      37.421  31.227  33.662  1.00  0.00     0.006 A 
ENDBRANCH  48  69
BRANCH  60  77
ATOM     77  C   UNL A   1      45.174  25.979  32.636  1.00  0.00     0.057 A 
ATOM     78  C   UNL A   1      46.573  26.034  32.570  1.00  0.00     0.134 A 
ATOM     79  C   UNL A   1      44.646  25.197  33.689  1.00  0.00     0.134 A 
ATOM     80  F   UNL A   1      47.205  26.834  31.701  1.00  0.00    -0.206 F 
ATOM     81  C   UNL A   1      47.388  25.309  33.443  1.00  0.00     0.040 A 
ATOM     82  C   UNL A   1      45.451  24.532  34.610  1.00  0.00     0.040 A 
ATOM     83  F   UNL A   1      43.325  25.075  33.894  1.00  0.00    -0.206 F 
ATOM     84  C   UNL A   1      46.829  24.569  34.477  1.00  0.00     0.006 A 
ENDBRANCH  60  77
ENDBRANCH  34  35
ENDBRANCH  27  29
ENDBRANCH  26  27
ENDBRANCH  25  26
ENDBRANCH   1  25
TORSDOF 14
ENDMDL
MODEL 3
REMARK VINA RESULT:     -11.8      3.467      8.541
REMARK SMILES Cc1ccc(C(=O)OCCOC(=O)c2ccc(-c3c4nc(c(-c5c(F)cccc5F)c5ccc([nH]5)c(-c5c(F)cccc5F)c5nc(c(-c6c(F)cccc6F)c6ccc3[nH]6)C=C5)C=C4)cc2)c(Oc2cccc(F)c2C(N)=O)c1
REMARK SMILES IDX 9 1 8 2 6 3 7 4 5 5 1 6 2 7 3 8 80 9 4 10 68 11 69 12 70 13
REMARK SMILES IDX 71 14 76 15 72 16 74 17 73 18 75 19 77 20 78 21 79 22 10 25
REMARK SMILES IDX 11 26 12 27 13 28 14 29 15 30 67 31 16 32 66 33 17 34 18 35
REMARK SMILES IDX 19 36 60 37 20 38 65 39 59 40 61 41 21 42 64 43 58 44 57 45
REMARK SMILES IDX 22 47 48 48 31 49 47 50 32 51 35 52 46 53 62 54 33 55 34 56
REMARK SMILES IDX 45 58 63 59 36 60 23 61 24 62 29 63 25 64 26 65 28 66 30 67
REMARK SMILES IDX 27 68 49 69 50 70 55 71 51 72 52 73 54 74 56 75 53 76 37 77
REMARK SMILES IDX 38 78 43 79 39 80 40 81 42 82 44 83 41 84
REMARK H PARENT 78 23 78 24 61 46 35 57
REMARK Flexibility Score: inf
ROOT
ATOM      1  C   UNL A   1      32.802  28.713  27.290  1.00  0.00     0.275 C 
ENDROOT
BRANCH   1   2
ATOM      2  O   UNL A   1      31.711  28.750  26.347  1.00  0.00    -0.458 OA
BRANCH   2   3
ATOM      3  C   UNL A   1      31.287  27.490  26.040  1.00  0.00     0.342 C 
ATOM      4  O   UNL A   1      30.845  26.716  26.878  1.00  0.00    -0.246 OA
BRANCH   3   5
ATOM      5  C   UNL A   1      31.530  27.056  24.639  1.00  0.00     0.102 A 
ATOM      6  C   UNL A   1      32.529  25.577  20.704  1.00  0.00     0.044 C 
ATOM      7  C   UNL A   1      32.173  26.095  22.067  1.00  0.00    -0.047 A 
ATOM      8  C   UNL A   1      31.020  26.869  22.280  1.00  0.00     0.004 A 
ATOM      9  C   UNL A   1      32.983  25.771  23.157  1.00  0.00     0.051 A 
ATOM     10  C   UNL A   1      30.707  27.370  23.556  1.00  0.00     0.020 A 
ATOM     11  C   UNL A   1      32.666  26.259  24.423  1.00  0.00     0.142 A 
BRANCH  11  12
ATOM     12  O   UNL A   1      33.408  25.898  25.514  1.00  0.00    -0.455 OA
BRANCH  12  13
ATOM     13  C   UNL A   1      33.834  24.610  25.687  1.00  0.00     0.143 A 
ATOM     14  C   UNL A   1      35.163  24.453  25.265  1.00  0.00     0.048 A 
ATOM     15  C   UNL A   1      33.124  23.507  26.178  1.00  0.00     0.117 A 
ATOM     16  C   UNL A   1      35.824  23.241  25.422  1.00  0.00     0.007 A 
ATOM     17  C   UNL A   1      33.810  22.304  26.361  1.00  0.00     0.139 A 
ATOM     18  C   UNL A   1      35.151  22.172  26.001  1.00  0.00     0.040 A 
ATOM     19  F   UNL A   1      33.186  21.225  26.856  1.00  0.00    -0.206 F 
BRANCH  15  20
ATOM     20  C   UNL A   1      31.681  23.500  26.489  1.00  0.00     0.255 C 
ATOM     21  N   UNL A   1      30.824  23.654  25.433  1.00  0.00    -0.365 N 
ATOM     22  O   UNL A   1      31.266  23.337  27.627  1.00  0.00    -0.269 OA
ATOM     23  H   UNL A   1      31.180  23.784  24.525  1.00  0.00     0.159 HD
ATOM     24  H   UNL A   1      29.850  23.634  25.584  1.00  0.00     0.159 HD
ENDBRANCH  15  20
ENDBRANCH  12  13
ENDBRANCH  11  12
ENDBRANCH   3   5
ENDBRANCH   2   3
ENDBRANCH   1   2
BRANCH   1  25
ATOM     25  C   UNL A   1      34.005  29.598  26.951  1.00  0.00     0.275 C 
BRANCH  25  26
ATOM     26  O   UNL A   1      35.347  29.185  27.322  1.00  0.00    -0.458 OA
BRANCH  26  27
ATOM     27  C   UNL A   1      36.361  29.928  27.814  1.00  0.00     0.338 C 
ATOM     28  O   UNL A   1      36.237  31.130  28.042  1.00  0.00    -0.246 OA
BRANCH  27  29
ATOM     29  C   UNL A   1      37.633  29.259  28.098  1.00  0.00     0.060 A 
ATOM     30  C   UNL A   1      38.657  29.330  27.134  1.00  0.00     0.016 A 
ATOM     31  C   UNL A   1      37.837  28.653  29.334  1.00  0.00     0.016 A 
ATOM     32  C   UNL A   1      39.924  28.861  27.433  1.00  0.00     0.010 A 
ATOM     33  C   UNL A   1      39.116  28.314  29.686  1.00  0.00     0.010 A 
ATOM     34  C   UNL A   1      40.130  28.357  28.713  1.00  0.00    -0.014 A 
BRANCH  34  35
ATOM     35  C   UNL A   1      41.223  27.457  29.014  1.00  0.00     0.031 A 
ATOM     36  C   UNL A   1      41.136  26.025  28.704  1.00  0.00     0.074 A 
ATOM     37  C   UNL A   1      42.301  28.192  29.372  1.00  0.00     0.049 A 
ATOM     38  N   UNL A   1      41.899  25.125  29.211  1.00  0.00    -0.248 NA
ATOM     39  C   UNL A   1      40.118  25.447  27.830  1.00  0.00     0.031 C 
ATOM     40  C   UNL A   1      43.721  27.921  29.395  1.00  0.00     0.029 A 
ATOM     41  N   UNL A   1      42.208  29.478  29.943  1.00  0.00    -0.354 N 
ATOM     42  C   UNL A   1      41.770  24.001  28.415  1.00  0.00     0.074 A 
ATOM     43  C   UNL A   1      40.522  24.178  27.726  1.00  0.00     0.031 C 
ATOM     44  C   UNL A   1      44.309  28.811  30.225  1.00  0.00     0.029 A 
ATOM     45  C   UNL A   1      43.246  29.589  30.860  1.00  0.00     0.049 A 
ATOM     46  H   UNL A   1      41.535  30.165  29.731  1.00  0.00     0.167 HD
ATOM     47  C   UNL A   1      42.868  23.204  28.249  1.00  0.00     0.037 A 
ATOM     48  C   UNL A   1      42.899  29.547  32.182  1.00  0.00     0.037 A 
ATOM     49  C   UNL A   1      43.949  23.725  29.089  1.00  0.00     0.049 A 
ATOM     50  C   UNL A   1      43.401  28.256  32.783  1.00  0.00     0.074 A 
ATOM     51  C   UNL A   1      44.997  24.583  28.794  1.00  0.00     0.029 A 
ATOM     52  N   UNL A   1      43.785  23.758  30.470  1.00  0.00    -0.354 N 
ATOM     53  N   UNL A   1      43.433  27.108  32.154  1.00  0.00    -0.248 NA
ATOM     54  C   UNL A   1      44.043  28.213  34.090  1.00  0.00     0.031 C 
ATOM     55  C   UNL A   1      45.396  25.209  30.005  1.00  0.00     0.029 A 
ATOM     56  C   UNL A   1      44.577  24.748  31.023  1.00  0.00     0.049 A 
ATOM     57  H   UNL A   1      43.190  23.163  30.980  1.00  0.00     0.167 HD
ATOM     58  C   UNL A   1      44.181  26.227  32.889  1.00  0.00     0.074 A 
ATOM     59  C   UNL A   1      44.504  26.952  34.108  1.00  0.00     0.031 C 
ATOM     60  C   UNL A   1      44.559  24.987  32.455  1.00  0.00     0.037 A 
BRANCH  47  61
ATOM     61  C   UNL A   1      43.107  22.238  27.100  1.00  0.00     0.057 A 
ATOM     62  C   UNL A   1      42.418  21.004  27.060  1.00  0.00     0.134 A 
ATOM     63  C   UNL A   1      44.010  22.416  26.036  1.00  0.00     0.134 A 
ATOM     64  F   UNL A   1      41.458  20.703  27.944  1.00  0.00    -0.206 F 
ATOM     65  C   UNL A   1      42.671  20.005  26.110  1.00  0.00     0.040 A 
ATOM     66  C   UNL A   1      44.286  21.415  25.085  1.00  0.00     0.040 A 
ATOM     67  F   UNL A   1      44.641  23.576  25.826  1.00  0.00    -0.206 F 
ATOM     68  C   UNL A   1      43.624  20.199  25.127  1.00  0.00     0.006 A 
ENDBRANCH  47  61
BRANCH  48  69
ATOM     69  C   UNL A   1      41.593  30.228  32.499  1.00  0.00     0.057 A 
ATOM     70  C   UNL A   1      40.468  29.430  32.821  1.00  0.00     0.134 A 
ATOM     71  C   UNL A   1      41.460  31.596  32.753  1.00  0.00     0.134 A 
ATOM     72  F   UNL A   1      40.498  28.104  32.602  1.00  0.00    -0.206 F 
ATOM     73  C   UNL A   1      39.329  29.942  33.454  1.00  0.00     0.040 A 
ATOM     74  C   UNL A   1      40.309  32.127  33.367  1.00  0.00     0.040 A 
ATOM     75  F   UNL A   1      42.464  32.443  32.487  1.00  0.00    -0.206 F 
ATOM     76  C   UNL A   1      39.254  31.297  33.745  1.00  0.00     0.006 A 
ENDBRANCH  48  69
BRANCH  60  77
ATOM     77  C   UNL A   1      45.053  23.889  33.355  1.00  0.00     0.057 A 
ATOM     78  C   UNL A   1      46.354  23.848  33.872  1.00  0.00     0.134 A 
ATOM     79  C   UNL A   1      44.156  22.937  33.892  1.00  0.00     0.134 A 
ATOM     80  F   UNL A   1      47.271  24.769  33.543  1.00  0.00    -0.206 F 
ATOM     81  C   UNL A   1      46.756  22.887  34.803  1.00  0.00     0.040 A 
ATOM     82  C   UNL A   1      44.527  22.024  34.876  1.00  0.00     0.040 A 
ATOM     83  F   UNL A   1      42.870  22.876  33.514  1.00  0.00    -0.206 F 
ATOM     84  C   UNL A   1      45.838  21.982  35.320  1.00  0.00     0.006 A 
ENDBRANCH  60  77
ENDBRANCH  34  35
ENDBRANCH  27  29
ENDBRANCH  26  27
ENDBRANCH  25  26
ENDBRANCH   1  25
TORSDOF 14
ENDMDL
