MODEL 1
REMARK VINA RESULT:     -12.1      0.000      0.000
REMARK SMILES COc1ccc(NC(=O)[C@@H]2[C@@H](C(=O)OCCOC(=O)c3ccc(-c4c5nc(c(-c6c(F)cccc6F)c6ccc([nH]6)c(-c6c(F)cccc6F)c6nc(c(-c7c(F)cccc7F)c7ccc4[nH]7)C=C6)C=C5)cc3)[C@H]3C=C[C@@H]2C3)cc1O
REMARK SMILES IDX 15 1 14 2 12 3 13 4 11 5 10 6 77 7 74 8 76 9 78 10 75 11
REMARK SMILES IDX 8 12 7 13 9 15 6 16 3 17 4 18 80 19 5 20 79 21 2 22 1 23
REMARK SMILES IDX 81 24 16 26 17 27 18 28 19 29 20 30 21 31 73 32 22 33 72 34
REMARK SMILES IDX 23 35 24 36 25 37 66 38 26 39 71 40 65 41 67 42 27 43 70 44
REMARK SMILES IDX 64 45 63 46 28 48 54 49 37 50 53 51 38 52 41 53 52 54 68 55
REMARK SMILES IDX 39 56 40 57 51 59 69 60 42 61 29 62 30 63 35 64 31 65 32 66
REMARK SMILES IDX 34 67 36 68 33 69 55 70 56 71 61 72 57 73 58 74 60 75 62 76
REMARK SMILES IDX 59 77 43 78 44 79 49 80 45 81 46 82 48 83 50 84 47 85
REMARK H PARENT 7 14 81 25 67 47 41 58
REMARK Flexibility Score: inf
ROOT
ATOM      1  C   UNL A   1      31.679  28.529  24.547  1.00  0.00     0.274 C 
ENDROOT
BRANCH   1   2
ATOM      2  O   UNL A   1      31.022  27.478  25.293  1.00  0.00    -0.462 OA
BRANCH   2   3
ATOM      3  C   UNL A   1      30.235  26.640  24.560  1.00  0.00     0.310 C 
ATOM      4  O   UNL A   1      29.272  27.023  23.904  1.00  0.00    -0.252 OA
BRANCH   3   5
ATOM      5  C   UNL A   1      30.620  25.167  24.689  1.00  0.00     0.119 C 
ATOM      6  C   UNL A   1      32.032  24.837  25.286  1.00  0.00     0.100 C 
ATOM      7  C   UNL A   1      32.684  24.056  24.088  1.00  0.00     0.025 C 
ATOM      8  C   UNL A   1      30.646  24.488  23.291  1.00  0.00     0.027 C 
ATOM      9  C   UNL A   1      32.853  24.970  22.900  1.00  0.00    -0.027 C 
ATOM     10  C   UNL A   1      31.482  23.244  23.576  1.00  0.00     0.017 C 
ATOM     11  C   UNL A   1      31.631  25.199  22.400  1.00  0.00    -0.027 C 
BRANCH   6  12
ATOM     12  C   UNL A   1      32.090  23.894  26.504  1.00  0.00     0.228 C 
ATOM     13  N   UNL A   1      33.168  23.187  26.923  1.00  0.00    -0.326 N 
ATOM     14  H   UNL A   1      33.025  22.774  27.805  1.00  0.00     0.169 HD
ATOM     15  O   UNL A   1      31.084  23.754  27.216  1.00  0.00    -0.274 OA
BRANCH  13  16
ATOM     16  C   UNL A   1      34.434  22.904  26.406  1.00  0.00     0.045 A 
ATOM     17  C   UNL A   1      36.999  22.153  25.530  1.00  0.00     0.160 A 
ATOM     18  C   UNL A   1      36.718  23.483  25.825  1.00  0.00     0.052 A 
ATOM     19  C   UNL A   1      35.966  21.220  25.614  1.00  0.00     0.159 A 
ATOM     20  C   UNL A   1      35.427  23.857  26.226  1.00  0.00     0.030 A 
ATOM     21  C   UNL A   1      34.689  21.585  26.027  1.00  0.00     0.076 A 
BRANCH  17  22
ATOM     22  O   UNL A   1      38.221  21.649  25.174  1.00  0.00    -0.493 OA
ATOM     23  C   UNL A   1      39.265  21.825  26.126  1.00  0.00     0.278 C 
ENDBRANCH  17  22
BRANCH  19  24
ATOM     24  O   UNL A   1      36.193  19.911  25.291  1.00  0.00    -0.504 OA
ATOM     25  H   UNL A   1      35.656  19.237  25.660  1.00  0.00     0.293 HD
ENDBRANCH  19  24
ENDBRANCH  13  16
ENDBRANCH   6  12
ENDBRANCH   3   5
ENDBRANCH   2   3
ENDBRANCH   1   2
BRANCH   1  26
ATOM     26  C   UNL A   1      31.635  29.838  25.342  1.00  0.00     0.275 C 
BRANCH  26  27
ATOM     27  O   UNL A   1      32.764  29.828  26.228  1.00  0.00    -0.458 OA
BRANCH  27  28
ATOM     28  C   UNL A   1      32.998  30.974  26.902  1.00  0.00     0.338 C 
ATOM     29  O   UNL A   1      32.219  31.865  27.177  1.00  0.00    -0.246 OA
BRANCH  28  30
ATOM     30  C   UNL A   1      34.346  30.836  27.467  1.00  0.00     0.060 A 
ATOM     31  C   UNL A   1      34.778  29.542  27.756  1.00  0.00     0.016 A 
ATOM     32  C   UNL A   1      35.139  31.936  27.777  1.00  0.00     0.016 A 
ATOM     33  C   UNL A   1      35.975  29.341  28.419  1.00  0.00     0.010 A 
ATOM     34  C   UNL A   1      36.382  31.720  28.386  1.00  0.00     0.010 A 
ATOM     35  C   UNL A   1      36.795  30.421  28.745  1.00  0.00    -0.014 A 
BRANCH  35  36
ATOM     36  C   UNL A   1      38.003  30.196  29.580  1.00  0.00     0.031 A 
ATOM     37  C   UNL A   1      39.153  29.436  28.989  1.00  0.00     0.074 A 
ATOM     38  C   UNL A   1      38.129  30.725  30.814  1.00  0.00     0.049 A 
ATOM     39  N   UNL A   1      40.152  28.846  29.590  1.00  0.00    -0.248 NA
ATOM     40  C   UNL A   1      39.170  29.307  27.522  1.00  0.00     0.031 C 
ATOM     41  C   UNL A   1      37.163  31.606  31.474  1.00  0.00     0.029 A 
ATOM     42  N   UNL A   1      39.145  30.608  31.729  1.00  0.00    -0.354 N 
ATOM     43  C   UNL A   1      40.853  28.188  28.588  1.00  0.00     0.074 A 
ATOM     44  C   UNL A   1      40.192  28.485  27.336  1.00  0.00     0.031 C 
ATOM     45  C   UNL A   1      37.654  31.987  32.663  1.00  0.00     0.029 A 
ATOM     46  C   UNL A   1      38.908  31.282  32.903  1.00  0.00     0.049 A 
ATOM     47  H   UNL A   1      39.966  30.091  31.562  1.00  0.00     0.167 HD
ATOM     48  C   UNL A   1      41.935  27.388  28.720  1.00  0.00     0.037 A 
ATOM     49  C   UNL A   1      39.587  31.276  34.066  1.00  0.00     0.037 A 
ATOM     50  C   UNL A   1      42.631  27.184  29.962  1.00  0.00     0.049 A 
ATOM     51  C   UNL A   1      40.781  30.373  34.201  1.00  0.00     0.074 A 
ATOM     52  C   UNL A   1      43.712  26.363  30.228  1.00  0.00     0.029 A 
ATOM     53  N   UNL A   1      42.334  27.853  31.140  1.00  0.00    -0.354 N 
ATOM     54  N   UNL A   1      41.331  29.591  33.303  1.00  0.00    -0.248 NA
ATOM     55  C   UNL A   1      41.418  30.313  35.523  1.00  0.00     0.031 C 
ATOM     56  C   UNL A   1      44.062  26.529  31.573  1.00  0.00     0.029 A 
ATOM     57  C   UNL A   1      43.218  27.474  32.133  1.00  0.00     0.049 A 
ATOM     58  H   UNL A   1      41.602  28.502  31.252  1.00  0.00     0.167 HD
ATOM     59  C   UNL A   1      42.370  28.940  33.952  1.00  0.00     0.074 A 
ATOM     60  C   UNL A   1      42.394  29.441  35.311  1.00  0.00     0.031 C 
ATOM     61  C   UNL A   1      43.218  27.995  33.475  1.00  0.00     0.037 A 
BRANCH  48  62
ATOM     62  C   UNL A   1      42.383  26.628  27.509  1.00  0.00     0.057 A 
ATOM     63  C   UNL A   1      43.303  27.146  26.591  1.00  0.00     0.134 A 
ATOM     64  C   UNL A   1      41.883  25.340  27.270  1.00  0.00     0.134 A 
ATOM     65  F   UNL A   1      43.798  28.382  26.749  1.00  0.00    -0.206 F 
ATOM     66  C   UNL A   1      43.698  26.416  25.468  1.00  0.00     0.040 A 
ATOM     67  C   UNL A   1      42.288  24.592  26.163  1.00  0.00     0.040 A 
ATOM     68  F   UNL A   1      40.995  24.788  28.109  1.00  0.00    -0.206 F 
ATOM     69  C   UNL A   1      43.197  25.133  25.257  1.00  0.00     0.006 A 
ENDBRANCH  48  62
BRANCH  49  70
ATOM     70  C   UNL A   1      39.100  32.074  35.219  1.00  0.00     0.057 A 
ATOM     71  C   UNL A   1      39.471  33.414  35.381  1.00  0.00     0.134 A 
ATOM     72  C   UNL A   1      38.257  31.518  36.190  1.00  0.00     0.134 A 
ATOM     73  F   UNL A   1      40.299  33.996  34.503  1.00  0.00    -0.206 F 
ATOM     74  C   UNL A   1      39.021  34.171  36.466  1.00  0.00     0.040 A 
ATOM     75  C   UNL A   1      37.779  32.270  37.263  1.00  0.00     0.040 A 
ATOM     76  F   UNL A   1      37.870  30.238  36.098  1.00  0.00    -0.206 F 
ATOM     77  C   UNL A   1      38.165  33.600  37.406  1.00  0.00     0.006 A 
ENDBRANCH  49  70
BRANCH  61  78
ATOM     78  C   UNL A   1      44.244  27.467  34.426  1.00  0.00     0.057 A 
ATOM     79  C   UNL A   1      45.481  28.101  34.595  1.00  0.00     0.134 A 
ATOM     80  C   UNL A   1      43.979  26.334  35.205  1.00  0.00     0.134 A 
ATOM     81  F   UNL A   1      45.794  29.184  33.866  1.00  0.00    -0.206 F 
ATOM     82  C   UNL A   1      46.428  27.615  35.495  1.00  0.00     0.040 A 
ATOM     83  C   UNL A   1      44.912  25.849  36.121  1.00  0.00     0.040 A 
ATOM     84  F   UNL A   1      42.809  25.688  35.091  1.00  0.00    -0.206 F 
ATOM     85  C   UNL A   1      46.143  26.488  36.265  1.00  0.00     0.006 A 
ENDBRANCH  61  78
ENDBRANCH  35  36
ENDBRANCH  28  30
ENDBRANCH  27  28
ENDBRANCH  26  27
ENDBRANCH   1  26
TORSDOF 15
ENDMDL
MODEL 2
REMARK VINA RESULT:     -12.0      1.495      3.757
REMARK SMILES COc1ccc(NC(=O)[C@@H]2[C@@H](C(=O)OCCOC(=O)c3ccc(-c4c5nc(c(-c6c(F)cccc6F)c6ccc([nH]6)c(-c6c(F)cccc6F)c6nc(c(-c7c(F)cccc7F)c7ccc4[nH]7)C=C6)C=C5)cc3)[C@H]3C=C[C@@H]2C3)cc1O
REMARK SMILES IDX 15 1 14 2 12 3 13 4 11 5 10 6 77 7 74 8 76 9 78 10 75 11
REMARK SMILES IDX 8 12 7 13 9 15 6 16 3 17 4 18 80 19 5 20 79 21 2 22 1 23
REMARK SMILES IDX 81 24 16 26 17 27 18 28 19 29 20 30 21 31 73 32 22 33 72 34
REMARK SMILES IDX 23 35 24 36 25 37 66 38 26 39 71 40 65 41 67 42 27 43 70 44
REMARK SMILES IDX 64 45 63 46 28 48 54 49 37 50 53 51 38 52 41 53 52 54 68 55
REMARK SMILES IDX 39 56 40 57 51 59 69 60 42 61 29 62 30 63 35 64 31 65 32 66
REMARK SMILES IDX 34 67 36 68 33 69 55 70 56 71 61 72 57 73 58 74 60 75 62 76
REMARK SMILES IDX 59 77 43 78 44 79 49 80 45 81 46 82 48 83 50 84 47 85
REMARK H PARENT 7 14 81 25 67 47 41 58
REMARK Flexibility Score: inf
ROOT
ATOM      1  C   UNL A   1      31.514  27.307  26.548  1.00  0.00     0.274 C 
ENDROOT
BRANCH   1   2
ATOM      2  O   UNL A   1      32.746  26.552  26.488  1.00  0.00    -0.462 OA
BRANCH   2   3
ATOM      3  C   UNL A   1      32.630  25.273  26.032  1.00  0.00     0.310 C 
ATOM      4  O   UNL A   1      31.842  24.459  26.503  1.00  0.00    -0.252 OA
BRANCH   3   5
ATOM      5  C   UNL A   1      33.626  24.922  24.927  1.00  0.00     0.119 C 
ATOM      6  C   UNL A   1      33.228  23.779  23.930  1.00  0.00     0.100 C 
ATOM      7  C   UNL A   1      34.392  22.753  24.178  1.00  0.00     0.025 C 
ATOM      8  C   UNL A   1      34.964  24.423  25.542  1.00  0.00     0.027 C 
ATOM      9  C   UNL A   1      34.328  22.220  25.588  1.00  0.00    -0.027 C 
ATOM     10  C   UNL A   1      35.591  23.702  24.352  1.00  0.00     0.017 C 
ATOM     11  C   UNL A   1      34.707  23.214  26.403  1.00  0.00    -0.027 C 
BRANCH   6  12
ATOM     12  C   UNL A   1      33.248  24.107  22.424  1.00  0.00     0.228 C 
ATOM     13  N   UNL A   1      32.869  25.275  21.850  1.00  0.00    -0.326 N 
ATOM     14  H   UNL A   1      33.109  25.318  20.896  1.00  0.00     0.169 HD
ATOM     15  O   UNL A   1      33.667  23.259  21.621  1.00  0.00    -0.274 OA
BRANCH  13  16
ATOM     16  C   UNL A   1      32.220  26.432  22.285  1.00  0.00     0.045 A 
ATOM     17  C   UNL A   1      31.063  28.759  23.361  1.00  0.00     0.160 A 
ATOM     18  C   UNL A   1      30.261  27.701  22.949  1.00  0.00     0.052 A 
ATOM     19  C   UNL A   1      32.441  28.665  23.165  1.00  0.00     0.159 A 
ATOM     20  C   UNL A   1      30.841  26.558  22.380  1.00  0.00     0.030 A 
ATOM     21  C   UNL A   1      33.021  27.527  22.617  1.00  0.00     0.076 A 
BRANCH  17  22
ATOM     22  O   UNL A   1      30.630  29.907  23.969  1.00  0.00    -0.493 OA
ATOM     23  C   UNL A   1      29.428  30.467  23.453  1.00  0.00     0.278 C 
ENDBRANCH  17  22
BRANCH  19  24
ATOM     24  O   UNL A   1      33.258  29.703  23.518  1.00  0.00    -0.504 OA
ATOM     25  H   UNL A   1      32.900  30.461  23.936  1.00  0.00     0.293 HD
ENDBRANCH  19  24
ENDBRANCH  13  16
ENDBRANCH   6  12
ENDBRANCH   3   5
ENDBRANCH   2   3
ENDBRANCH   1   2
BRANCH   1  26
ATOM     26  C   UNL A   1      31.756  28.646  27.253  1.00  0.00     0.275 C 
BRANCH  26  27
ATOM     27  O   UNL A   1      32.674  29.389  26.437  1.00  0.00    -0.458 OA
BRANCH  27  28
ATOM     28  C   UNL A   1      32.937  30.650  26.838  1.00  0.00     0.338 C 
ATOM     29  O   UNL A   1      32.177  31.596  26.912  1.00  0.00    -0.246 OA
BRANCH  28  30
ATOM     30  C   UNL A   1      34.287  30.614  27.412  1.00  0.00     0.060 A 
ATOM     31  C   UNL A   1      34.883  29.360  27.538  1.00  0.00     0.016 A 
ATOM     32  C   UNL A   1      34.925  31.756  27.885  1.00  0.00     0.016 A 
ATOM     33  C   UNL A   1      36.093  29.228  28.197  1.00  0.00     0.010 A 
ATOM     34  C   UNL A   1      36.182  31.623  28.490  1.00  0.00     0.010 A 
ATOM     35  C   UNL A   1      36.760  30.353  28.684  1.00  0.00    -0.014 A 
BRANCH  35  36
ATOM     36  C   UNL A   1      37.982  30.176  29.511  1.00  0.00     0.031 A 
ATOM     37  C   UNL A   1      39.139  29.418  28.930  1.00  0.00     0.074 A 
ATOM     38  C   UNL A   1      38.112  30.746  30.726  1.00  0.00     0.049 A 
ATOM     39  N   UNL A   1      40.156  28.866  29.537  1.00  0.00    -0.248 NA
ATOM     40  C   UNL A   1      39.141  29.244  27.467  1.00  0.00     0.031 C 
ATOM     41  C   UNL A   1      37.138  31.629  31.369  1.00  0.00     0.029 A 
ATOM     42  N   UNL A   1      39.141  30.676  31.632  1.00  0.00    -0.354 N 
ATOM     43  C   UNL A   1      40.856  28.189  28.548  1.00  0.00     0.074 A 
ATOM     44  C   UNL A   1      40.177  28.434  27.295  1.00  0.00     0.031 C 
ATOM     45  C   UNL A   1      37.635  32.057  32.540  1.00  0.00     0.029 A 
ATOM     46  C   UNL A   1      38.904  31.382  32.787  1.00  0.00     0.049 A 
ATOM     47  H   UNL A   1      39.969  30.169  31.471  1.00  0.00     0.167 HD
ATOM     48  C   UNL A   1      41.955  27.413  28.691  1.00  0.00     0.037 A 
ATOM     49  C   UNL A   1      39.597  31.425  33.940  1.00  0.00     0.037 A 
ATOM     50  C   UNL A   1      42.669  27.262  29.930  1.00  0.00     0.049 A 
ATOM     51  C   UNL A   1      40.809  30.549  34.090  1.00  0.00     0.074 A 
ATOM     52  C   UNL A   1      43.768  26.469  30.210  1.00  0.00     0.029 A 
ATOM     53  N   UNL A   1      42.373  27.962  31.090  1.00  0.00    -0.354 N 
ATOM     54  N   UNL A   1      41.363  29.749  33.210  1.00  0.00    -0.248 NA
ATOM     55  C   UNL A   1      41.462  30.542  35.405  1.00  0.00     0.031 C 
ATOM     56  C   UNL A   1      44.130  26.684  31.544  1.00  0.00     0.029 A 
ATOM     57  C   UNL A   1      43.275  27.631  32.085  1.00  0.00     0.049 A 
ATOM     58  H   UNL A   1      41.631  28.601  31.191  1.00  0.00     0.167 HD
ATOM     59  C   UNL A   1      42.421  29.137  33.867  1.00  0.00     0.074 A 
ATOM     60  C   UNL A   1      42.452  29.682  35.209  1.00  0.00     0.031 C 
ATOM     61  C   UNL A   1      43.281  28.194  33.409  1.00  0.00     0.037 A 
BRANCH  48  62
ATOM     62  C   UNL A   1      42.403  26.624  27.500  1.00  0.00     0.057 A 
ATOM     63  C   UNL A   1      41.955  25.323  27.246  1.00  0.00     0.134 A 
ATOM     64  C   UNL A   1      43.298  27.192  26.582  1.00  0.00     0.134 A 
ATOM     65  F   UNL A   1      41.119  24.713  28.099  1.00  0.00    -0.206 F 
ATOM     66  C   UNL A   1      42.393  24.608  26.129  1.00  0.00     0.040 A 
ATOM     67  C   UNL A   1      43.725  26.496  25.451  1.00  0.00     0.040 A 
ATOM     68  F   UNL A   1      43.768  28.433  26.771  1.00  0.00    -0.206 F 
ATOM     69  C   UNL A   1      43.274  25.198  25.224  1.00  0.00     0.006 A 
ENDBRANCH  48  62
BRANCH  49  70
ATOM     70  C   UNL A   1      39.109  32.251  35.074  1.00  0.00     0.057 A 
ATOM     71  C   UNL A   1      39.497  33.588  35.217  1.00  0.00     0.134 A 
ATOM     72  C   UNL A   1      38.247  31.723  36.045  1.00  0.00     0.134 A 
ATOM     73  F   UNL A   1      40.343  34.142  34.338  1.00  0.00    -0.206 F 
ATOM     74  C   UNL A   1      39.046  34.370  36.283  1.00  0.00     0.040 A 
ATOM     75  C   UNL A   1      37.767  32.501  37.099  1.00  0.00     0.040 A 
ATOM     76  F   UNL A   1      37.842  30.448  35.971  1.00  0.00    -0.206 F 
ATOM     77  C   UNL A   1      38.171  33.828  37.223  1.00  0.00     0.006 A 
ENDBRANCH  49  70
BRANCH  61  78
ATOM     78  C   UNL A   1      44.327  27.715  34.364  1.00  0.00     0.057 A 
ATOM     79  C   UNL A   1      44.119  26.592  35.175  1.00  0.00     0.134 A 
ATOM     80  C   UNL A   1      45.565  28.361  34.450  1.00  0.00     0.134 A 
ATOM     81  F   UNL A   1      42.946  25.940  35.145  1.00  0.00    -0.206 F 
ATOM     82  C   UNL A   1      45.103  26.139  36.053  1.00  0.00     0.040 A 
ATOM     83  C   UNL A   1      46.564  27.907  35.311  1.00  0.00     0.040 A 
ATOM     84  F   UNL A   1      45.825  29.439  33.693  1.00  0.00    -0.206 F 
ATOM     85  C   UNL A   1      46.331  26.795  36.120  1.00  0.00     0.006 A 
ENDBRANCH  61  78
ENDBRANCH  35  36
ENDBRANCH  28  30
ENDBRANCH  27  28
ENDBRANCH  26  27
ENDBRANCH   1  26
TORSDOF 15
ENDMDL
MODEL 3
REMARK VINA RESULT:     -11.9      3.913      8.514
REMARK SMILES COc1ccc(NC(=O)[C@@H]2[C@@H](C(=O)OCCOC(=O)c3ccc(-c4c5nc(c(-c6c(F)cccc6F)c6ccc([nH]6)c(-c6c(F)cccc6F)c6nc(c(-c7c(F)cccc7F)c7ccc4[nH]7)C=C6)C=C5)cc3)[C@H]3C=C[C@@H]2C3)cc1O
REMARK SMILES IDX 15 1 14 2 12 3 13 4 11 5 10 6 77 7 74 8 76 9 78 10 75 11
REMARK SMILES IDX 8 12 7 13 9 15 6 16 3 17 4 18 80 19 5 20 79 21 2 22 1 23
REMARK SMILES IDX 81 24 16 26 17 27 18 28 19 29 20 30 21 31 73 32 22 33 72 34
REMARK SMILES IDX 23 35 24 36 25 37 66 38 26 39 71 40 65 41 67 42 27 43 70 44
REMARK SMILES IDX 64 45 63 46 28 48 54 49 37 50 53 51 38 52 41 53 52 54 68 55
REMARK SMILES IDX 39 56 40 57 51 59 69 60 42 61 29 62 30 63 35 64 31 65 32 66
REMARK SMILES IDX 34 67 36 68 33 69 55 70 56 71 61 72 57 73 58 74 60 75 62 76
REMARK SMILES IDX 59 77 43 78 44 79 49 80 45 81 46 82 48 83 50 84 47 85
REMARK H PARENT 7 14 81 25 67 47 41 58
REMARK Flexibility Score: inf
ROOT
ATOM      1  C   UNL A   1      34.988  21.821  26.775  1.00  0.00     0.274 C 
ENDROOT
BRANCH   1   2
ATOM      2  O   UNL A   1      33.572  21.625  26.558  1.00  0.00    -0.462 OA
BRANCH   2   3
ATOM      3  C   UNL A   1      32.818  22.761  26.540  1.00  0.00     0.310 C 
ATOM      4  O   UNL A   1      32.373  23.290  27.553  1.00  0.00    -0.252 OA
BRANCH   3   5
ATOM      5  C   UNL A   1      32.514  23.274  25.133  1.00  0.00     0.119 C 
ATOM      6  C   UNL A   1      33.301  22.627  23.941  1.00  0.00     0.100 C 
ATOM      7  C   UNL A   1      34.039  23.885  23.356  1.00  0.00     0.025 C 
ATOM      8  C   UNL A   1      32.859  24.786  25.021  1.00  0.00     0.027 C 
ATOM      9  C   UNL A   1      35.025  24.427  24.360  1.00  0.00    -0.027 C 
ATOM     10  C   UNL A   1      32.951  24.963  23.508  1.00  0.00     0.017 C 
ATOM     11  C   UNL A   1      34.315  25.000  25.342  1.00  0.00    -0.027 C 
BRANCH   6  12
ATOM     12  C   UNL A   1      32.478  22.027  22.784  1.00  0.00     0.228 C 
ATOM     13  N   UNL A   1      32.111  20.729  22.647  1.00  0.00    -0.326 N 
ATOM     14  H   UNL A   1      31.463  20.599  21.918  1.00  0.00     0.169 HD
ATOM     15  O   UNL A   1      32.068  22.768  21.878  1.00  0.00    -0.274 OA
BRANCH  13  16
ATOM     16  C   UNL A   1      32.429  19.533  23.292  1.00  0.00     0.045 A 
ATOM     17  C   UNL A   1      33.240  17.249  24.721  1.00  0.00     0.160 A 
ATOM     18  C   UNL A   1      33.159  17.218  23.333  1.00  0.00     0.052 A 
ATOM     19  C   UNL A   1      32.847  18.411  25.384  1.00  0.00     0.159 A 
ATOM     20  C   UNL A   1      32.719  18.349  22.628  1.00  0.00     0.030 A 
ATOM     21  C   UNL A   1      32.426  19.539  24.689  1.00  0.00     0.076 A 
BRANCH  17  22
ATOM     22  O   UNL A   1      33.694  16.237  25.523  1.00  0.00    -0.493 OA
ATOM     23  C   UNL A   1      35.042  15.833  25.308  1.00  0.00     0.278 C 
ENDBRANCH  17  22
BRANCH  19  24
ATOM     24  O   UNL A   1      32.871  18.465  26.751  1.00  0.00    -0.504 OA
ATOM     25  H   UNL A   1      32.773  17.679  27.253  1.00  0.00     0.293 HD
ENDBRANCH  19  24
ENDBRANCH  13  16
ENDBRANCH   6  12
ENDBRANCH   3   5
ENDBRANCH   2   3
ENDBRANCH   1   2
BRANCH   1  26
ATOM     26  C   UNL A   1      35.789  21.060  25.712  1.00  0.00     0.275 C 
BRANCH  26  27
ATOM     27  O   UNL A   1      36.915  21.882  25.370  1.00  0.00    -0.458 OA
BRANCH  27  28
ATOM     28  C   UNL A   1      38.131  21.360  25.635  1.00  0.00     0.338 C 
ATOM     29  O   UNL A   1      38.609  20.314  25.243  1.00  0.00    -0.246 OA
BRANCH  28  30
ATOM     30  C   UNL A   1      38.885  22.426  26.307  1.00  0.00     0.060 A 
ATOM     31  C   UNL A   1      38.409  23.727  26.150  1.00  0.00     0.016 A 
ATOM     32  C   UNL A   1      40.061  22.178  27.006  1.00  0.00     0.016 A 
ATOM     33  C   UNL A   1      39.141  24.798  26.633  1.00  0.00     0.010 A 
ATOM     34  C   UNL A   1      40.762  23.262  27.552  1.00  0.00     0.010 A 
ATOM     35  C   UNL A   1      40.326  24.585  27.339  1.00  0.00    -0.014 A 
BRANCH  35  36
ATOM     36  C   UNL A   1      41.166  25.748  27.722  1.00  0.00     0.031 A 
ATOM     37  C   UNL A   1      40.593  26.771  28.660  1.00  0.00     0.074 A 
ATOM     38  C   UNL A   1      42.449  25.867  27.324  1.00  0.00     0.049 A 
ATOM     39  N   UNL A   1      40.984  27.996  28.886  1.00  0.00    -0.248 NA
ATOM     40  C   UNL A   1      39.409  26.361  29.433  1.00  0.00     0.031 C 
ATOM     41  C   UNL A   1      43.196  24.889  26.532  1.00  0.00     0.029 A 
ATOM     42  N   UNL A   1      43.360  26.867  27.556  1.00  0.00    -0.354 N 
ATOM     43  C   UNL A   1      40.032  28.537  29.742  1.00  0.00     0.074 A 
ATOM     44  C   UNL A   1      39.071  27.495  30.029  1.00  0.00     0.031 C 
ATOM     45  C   UNL A   1      44.461  25.312  26.385  1.00  0.00     0.029 A 
ATOM     46  C   UNL A   1      44.581  26.646  26.964  1.00  0.00     0.049 A 
ATOM     47  H   UNL A   1      43.159  27.667  28.093  1.00  0.00     0.167 HD
ATOM     48  C   UNL A   1      39.966  29.802  30.217  1.00  0.00     0.037 A 
ATOM     49  C   UNL A   1      45.650  27.454  26.841  1.00  0.00     0.037 A 
ATOM     50  C   UNL A   1      40.985  30.792  29.995  1.00  0.00     0.049 A 
ATOM     51  C   UNL A   1      45.557  28.860  27.364  1.00  0.00     0.074 A 
ATOM     52  C   UNL A   1      41.008  32.118  30.388  1.00  0.00     0.029 A 
ATOM     53  N   UNL A   1      42.189  30.541  29.354  1.00  0.00    -0.354 N 
ATOM     54  N   UNL A   1      44.571  29.440  28.005  1.00  0.00    -0.248 NA
ATOM     55  C   UNL A   1      46.705  29.740  27.103  1.00  0.00     0.031 C 
ATOM     56  C   UNL A   1      42.225  32.672  29.974  1.00  0.00     0.029 A 
ATOM     57  C   UNL A   1      42.969  31.683  29.351  1.00  0.00     0.049 A 
ATOM     58  H   UNL A   1      42.450  29.678  28.960  1.00  0.00     0.167 HD
ATOM     59  C   UNL A   1      44.973  30.752  28.215  1.00  0.00     0.074 A 
ATOM     60  C   UNL A   1      46.306  30.874  27.661  1.00  0.00     0.031 C 
ATOM     61  C   UNL A   1      44.293  31.771  28.795  1.00  0.00     0.037 A 
BRANCH  48  62
ATOM     62  C   UNL A   1      38.726  30.196  30.959  1.00  0.00     0.057 A 
ATOM     63  C   UNL A   1      38.561  29.961  32.328  1.00  0.00     0.134 A 
ATOM     64  C   UNL A   1      37.680  30.836  30.280  1.00  0.00     0.134 A 
ATOM     65  F   UNL A   1      39.513  29.330  33.030  1.00  0.00    -0.206 F 
ATOM     66  C   UNL A   1      37.391  30.336  32.993  1.00  0.00     0.040 A 
ATOM     67  C   UNL A   1      36.516  31.235  30.938  1.00  0.00     0.040 A 
ATOM     68  F   UNL A   1      37.775  31.085  28.966  1.00  0.00    -0.206 F 
ATOM     69  C   UNL A   1      36.369  30.981  32.300  1.00  0.00     0.006 A 
ENDBRANCH  48  62
BRANCH  49  70
ATOM     70  C   UNL A   1      46.859  26.989  26.115  1.00  0.00     0.057 A 
ATOM     71  C   UNL A   1      47.007  27.208  24.740  1.00  0.00     0.134 A 
ATOM     72  C   UNL A   1      47.893  26.312  26.774  1.00  0.00     0.134 A 
ATOM     73  F   UNL A   1      46.040  27.823  24.047  1.00  0.00    -0.206 F 
ATOM     74  C   UNL A   1      48.139  26.769  24.049  1.00  0.00     0.040 A 
ATOM     75  C   UNL A   1      49.041  25.893  26.101  1.00  0.00     0.040 A 
ATOM     76  F   UNL A   1      47.810  26.065  28.089  1.00  0.00    -0.206 F 
ATOM     77  C   UNL A   1      49.164  26.117  24.732  1.00  0.00     0.006 A 
ENDBRANCH  49  70
BRANCH  61  78
ATOM     78  C   UNL A   1      44.993  33.091  28.872  1.00  0.00     0.057 A 
ATOM     79  C   UNL A   1      45.854  33.402  29.931  1.00  0.00     0.134 A 
ATOM     80  C   UNL A   1      44.831  34.044  27.860  1.00  0.00     0.134 A 
ATOM     81  F   UNL A   1      46.039  32.531  30.935  1.00  0.00    -0.206 F 
ATOM     82  C   UNL A   1      46.518  34.627  29.990  1.00  0.00     0.040 A 
ATOM     83  C   UNL A   1      45.503  35.266  27.900  1.00  0.00     0.040 A 
ATOM     84  F   UNL A   1      44.023  33.800  26.818  1.00  0.00    -0.206 F 
ATOM     85  C   UNL A   1      46.346  35.561  28.970  1.00  0.00     0.006 A 
ENDBRANCH  61  78
ENDBRANCH  35  36
ENDBRANCH  28  30
ENDBRANCH  27  28
ENDBRANCH  26  27
ENDBRANCH   1  26
TORSDOF 15
ENDMDL
