MODEL 1
REMARK VINA RESULT:     -10.4      0.000      0.000
REMARK SMILES O=C(C[C@@H]1C(=O)NC(=S)N1c1ccccc1)OCCOC(=O)c1ccc(-c2c3nc(c(-c4c(F)cccc4F)c4ccc([nH]4)c(-c4c(F)cccc4F)c4nc(c(-c5c(F)cccc5F)c5ccc2[nH]5)C=C4)C=C3)cc1
REMARK SMILES IDX 18 1 17 2 2 3 1 4 3 5 4 6 5 7 10 8 6 9 7 10 8 11 9 13 11 14
REMARK SMILES IDX 12 15 16 16 13 17 15 18 14 19 19 20 20 21 21 22 22 23 23 24
REMARK SMILES IDX 24 25 76 26 25 27 75 28 26 29 27 30 28 31 69 32 29 33 74 34
REMARK SMILES IDX 68 35 70 36 30 37 73 38 67 39 66 40 31 42 57 43 40 44 56 45
REMARK SMILES IDX 41 46 44 47 55 48 71 49 42 50 43 51 54 53 72 54 45 55 32 56
REMARK SMILES IDX 33 57 38 58 34 59 35 60 37 61 39 62 36 63 58 64 59 65 64 66
REMARK SMILES IDX 60 67 61 68 63 69 65 70 62 71 46 72 47 73 52 74 48 75 49 76
REMARK SMILES IDX 51 77 53 78 50 79
REMARK H PARENT 7 12 70 41 44 52
REMARK Flexibility Score: inf
ROOT
ATOM      1  C   UNL A   1      33.224  34.626  28.458  1.00  0.00     0.274 C 
ENDROOT
BRANCH   1   2
ATOM      2  O   UNL A   1      32.859  34.532  29.851  1.00  0.00    -0.462 OA
BRANCH   2   3
ATOM      3  C   UNL A   1      33.106  35.535  30.731  1.00  0.00     0.308 C 
ATOM      4  O   UNL A   1      32.474  36.585  30.678  1.00  0.00    -0.252 OA
BRANCH   3   5
ATOM      5  C   UNL A   1      34.255  35.373  31.686  1.00  0.00     0.158 C 
BRANCH   5   6
ATOM      6  C   UNL A   1      34.644  33.912  31.893  1.00  0.00     0.190 C 
ATOM      7  C   UNL A   1      33.950  33.429  33.167  1.00  0.00     0.249 C 
ATOM      8  N   UNL A   1      36.040  33.792  32.336  1.00  0.00    -0.306 N 
ATOM      9  O   UNL A   1      32.752  33.245  33.312  1.00  0.00    -0.272 OA
ATOM     10  N   UNL A   1      34.868  33.332  34.169  1.00  0.00    -0.301 N 
ATOM     11  C   UNL A   1      36.130  33.546  33.706  1.00  0.00     0.180 C 
ATOM     12  H   UNL A   1      34.647  33.131  35.108  1.00  0.00     0.172 HD
ATOM     13  S   UNL A   1      37.465  33.428  34.681  1.00  0.00    -0.040 S 
BRANCH   8  14
ATOM     14  C   UNL A   1      37.113  33.913  31.436  1.00  0.00     0.044 A 
ATOM     15  C   UNL A   1      36.998  33.376  30.151  1.00  0.00     0.026 A 
ATOM     16  C   UNL A   1      38.272  34.610  31.797  1.00  0.00     0.026 A 
ATOM     17  C   UNL A   1      38.041  33.523  29.235  1.00  0.00     0.002 A 
ATOM     18  C   UNL A   1      39.295  34.794  30.864  1.00  0.00     0.002 A 
ATOM     19  C   UNL A   1      39.182  34.245  29.586  1.00  0.00     0.000 A 
ENDBRANCH   8  14
ENDBRANCH   5   6
ENDBRANCH   3   5
ENDBRANCH   2   3
ENDBRANCH   1   2
BRANCH   1  20
ATOM     20  C   UNL A   1      34.270  33.583  28.050  1.00  0.00     0.275 C 
BRANCH  20  21
ATOM     21  O   UNL A   1      34.069  32.345  28.760  1.00  0.00    -0.458 OA
BRANCH  21  22
ATOM     22  C   UNL A   1      34.250  31.224  28.019  1.00  0.00     0.338 C 
ATOM     23  O   UNL A   1      33.549  30.844  27.095  1.00  0.00    -0.246 OA
BRANCH  22  24
ATOM     24  C   UNL A   1      35.552  30.599  28.351  1.00  0.00     0.060 A 
ATOM     25  C   UNL A   1      35.653  29.956  29.590  1.00  0.00     0.016 A 
ATOM     26  C   UNL A   1      36.650  30.617  27.483  1.00  0.00     0.016 A 
ATOM     27  C   UNL A   1      36.852  29.358  29.979  1.00  0.00     0.010 A 
ATOM     28  C   UNL A   1      37.857  30.019  27.879  1.00  0.00     0.010 A 
ATOM     29  C   UNL A   1      37.972  29.405  29.140  1.00  0.00    -0.014 A 
BRANCH  29  30
ATOM     30  C   UNL A   1      39.277  28.892  29.631  1.00  0.00     0.031 A 
ATOM     31  C   UNL A   1      39.934  29.550  30.815  1.00  0.00     0.074 A 
ATOM     32  C   UNL A   1      39.855  27.820  29.057  1.00  0.00     0.049 A 
ATOM     33  N   UNL A   1      41.056  29.243  31.415  1.00  0.00    -0.248 NA
ATOM     34  C   UNL A   1      39.232  30.702  31.402  1.00  0.00     0.031 C 
ATOM     35  C   UNL A   1      39.310  27.064  27.930  1.00  0.00     0.029 A 
ATOM     36  N   UNL A   1      41.036  27.181  29.350  1.00  0.00    -0.354 N 
ATOM     37  C   UNL A   1      41.192  30.157  32.454  1.00  0.00     0.074 A 
ATOM     38  C   UNL A   1      40.053  31.049  32.383  1.00  0.00     0.031 C 
ATOM     39  C   UNL A   1      40.164  26.073  27.616  1.00  0.00     0.029 A 
ATOM     40  C   UNL A   1      41.324  26.137  28.504  1.00  0.00     0.049 A 
ATOM     41  H   UNL A   1      41.621  27.447  30.095  1.00  0.00     0.167 HD
ATOM     42  C   UNL A   1      42.168  30.240  33.388  1.00  0.00     0.037 A 
ATOM     43  C   UNL A   1      42.406  25.336  28.443  1.00  0.00     0.037 A 
ATOM     44  C   UNL A   1      43.299  29.352  33.470  1.00  0.00     0.049 A 
ATOM     45  C   UNL A   1      43.519  25.505  29.447  1.00  0.00     0.074 A 
ATOM     46  C   UNL A   1      44.308  29.330  34.418  1.00  0.00     0.029 A 
ATOM     47  N   UNL A   1      43.579  28.341  32.565  1.00  0.00    -0.354 N 
ATOM     48  N   UNL A   1      43.601  26.328  30.464  1.00  0.00    -0.248 NA
ATOM     49  C   UNL A   1      44.693  24.630  29.293  1.00  0.00     0.031 C 
ATOM     50  C   UNL A   1      45.230  28.345  34.054  1.00  0.00     0.029 A 
ATOM     51  C   UNL A   1      44.770  27.722  32.906  1.00  0.00     0.049 A 
ATOM     52  H   UNL A   1      43.015  28.100  31.795  1.00  0.00     0.167 HD
ATOM     53  C   UNL A   1      44.817  26.056  31.079  1.00  0.00     0.074 A 
ATOM     54  C   UNL A   1      45.433  24.978  30.336  1.00  0.00     0.031 C 
ATOM     55  C   UNL A   1      45.376  26.649  32.162  1.00  0.00     0.037 A 
BRANCH  42  56
ATOM     56  C   UNL A   1      42.078  31.340  34.402  1.00  0.00     0.057 A 
ATOM     57  C   UNL A   1      42.661  32.593  34.184  1.00  0.00     0.134 A 
ATOM     58  C   UNL A   1      41.326  31.168  35.571  1.00  0.00     0.134 A 
ATOM     59  F   UNL A   1      43.399  32.818  33.087  1.00  0.00    -0.206 F 
ATOM     60  C   UNL A   1      42.504  33.637  35.097  1.00  0.00     0.040 A 
ATOM     61  C   UNL A   1      41.146  32.209  36.482  1.00  0.00     0.040 A 
ATOM     62  F   UNL A   1      40.736  29.991  35.835  1.00  0.00    -0.206 F 
ATOM     63  C   UNL A   1      41.738  33.449  36.246  1.00  0.00     0.006 A 
ENDBRANCH  42  56
BRANCH  43  64
ATOM     64  C   UNL A   1      42.525  24.316  27.368  1.00  0.00     0.057 A 
ATOM     65  C   UNL A   1      42.163  22.981  27.583  1.00  0.00     0.134 A 
ATOM     66  C   UNL A   1      43.069  24.643  26.120  1.00  0.00     0.134 A 
ATOM     67  F   UNL A   1      41.664  22.599  28.769  1.00  0.00    -0.206 F 
ATOM     68  C   UNL A   1      42.364  22.004  26.607  1.00  0.00     0.040 A 
ATOM     69  C   UNL A   1      43.251  23.681  25.126  1.00  0.00     0.040 A 
ATOM     70  F   UNL A   1      43.439  25.904  25.851  1.00  0.00    -0.206 F 
ATOM     71  C   UNL A   1      42.908  22.354  25.373  1.00  0.00     0.006 A 
ENDBRANCH  43  64
BRANCH  55  72
ATOM     72  C   UNL A   1      46.714  26.145  32.617  1.00  0.00     0.057 A 
ATOM     73  C   UNL A   1      47.909  26.719  32.163  1.00  0.00     0.134 A 
ATOM     74  C   UNL A   1      46.812  25.112  33.559  1.00  0.00     0.134 A 
ATOM     75  F   UNL A   1      47.887  27.703  31.252  1.00  0.00    -0.206 F 
ATOM     76  C   UNL A   1      49.152  26.271  32.616  1.00  0.00     0.040 A 
ATOM     77  C   UNL A   1      48.047  24.673  34.038  1.00  0.00     0.040 A 
ATOM     78  F   UNL A   1      45.706  24.525  34.044  1.00  0.00    -0.206 F 
ATOM     79  C   UNL A   1      49.222  25.250  33.562  1.00  0.00     0.006 A 
ENDBRANCH  55  72
ENDBRANCH  29  30
ENDBRANCH  22  24
ENDBRANCH  21  22
ENDBRANCH  20  21
ENDBRANCH   1  20
TORSDOF 13
ENDMDL
MODEL 2
REMARK VINA RESULT:      -9.9      4.224      8.847
REMARK SMILES O=C(C[C@@H]1C(=O)NC(=S)N1c1ccccc1)OCCOC(=O)c1ccc(-c2c3nc(c(-c4c(F)cccc4F)c4ccc([nH]4)c(-c4c(F)cccc4F)c4nc(c(-c5c(F)cccc5F)c5ccc2[nH]5)C=C4)C=C3)cc1
REMARK SMILES IDX 18 1 17 2 2 3 1 4 3 5 4 6 5 7 10 8 6 9 7 10 8 11 9 13 11 14
REMARK SMILES IDX 12 15 16 16 13 17 15 18 14 19 19 20 20 21 21 22 22 23 23 24
REMARK SMILES IDX 24 25 76 26 25 27 75 28 26 29 27 30 28 31 69 32 29 33 74 34
REMARK SMILES IDX 68 35 70 36 30 37 73 38 67 39 66 40 31 42 57 43 40 44 56 45
REMARK SMILES IDX 41 46 44 47 55 48 71 49 42 50 43 51 54 53 72 54 45 55 32 56
REMARK SMILES IDX 33 57 38 58 34 59 35 60 37 61 39 62 36 63 58 64 59 65 64 66
REMARK SMILES IDX 60 67 61 68 63 69 65 70 62 71 46 72 47 73 52 74 48 75 49 76
REMARK SMILES IDX 51 77 53 78 50 79
REMARK H PARENT 7 12 70 41 44 52
REMARK Flexibility Score: inf
ROOT
ATOM      1  C   UNL A   1      31.955  30.907  26.357  1.00  0.00     0.274 C 
ENDROOT
BRANCH   1   2
ATOM      2  O   UNL A   1      31.758  29.922  27.393  1.00  0.00    -0.462 OA
BRANCH   2   3
ATOM      3  C   UNL A   1      31.685  28.595  27.123  1.00  0.00     0.308 C 
ATOM      4  O   UNL A   1      31.386  27.792  28.002  1.00  0.00    -0.252 OA
BRANCH   3   5
ATOM      5  C   UNL A   1      32.100  28.125  25.757  1.00  0.00     0.158 C 
BRANCH   5   6
ATOM      6  C   UNL A   1      31.219  26.997  25.231  1.00  0.00     0.190 C 
ATOM      7  C   UNL A   1      32.038  25.707  25.295  1.00  0.00     0.249 C 
ATOM      8  N   UNL A   1      31.053  27.088  23.774  1.00  0.00    -0.306 N 
ATOM      9  O   UNL A   1      32.380  25.117  26.307  1.00  0.00    -0.272 OA
ATOM     10  N   UNL A   1      32.430  25.362  24.037  1.00  0.00    -0.301 N 
ATOM     11  C   UNL A   1      31.860  26.170  23.102  1.00  0.00     0.180 C 
ATOM     12  H   UNL A   1      33.046  24.621  23.830  1.00  0.00     0.172 HD
ATOM     13  S   UNL A   1      32.096  25.951  21.476  1.00  0.00    -0.040 S 
BRANCH   8  14
ATOM     14  C   UNL A   1      30.164  28.007  23.188  1.00  0.00     0.044 A 
ATOM     15  C   UNL A   1      28.787  27.827  23.344  1.00  0.00     0.026 A 
ATOM     16  C   UNL A   1      30.646  29.124  22.498  1.00  0.00     0.026 A 
ATOM     17  C   UNL A   1      27.895  28.753  22.800  1.00  0.00     0.002 A 
ATOM     18  C   UNL A   1      29.752  30.072  21.994  1.00  0.00     0.002 A 
ATOM     19  C   UNL A   1      28.378  29.882  22.139  1.00  0.00     0.000 A 
ENDBRANCH   8  14
ENDBRANCH   5   6
ENDBRANCH   3   5
ENDBRANCH   2   3
ENDBRANCH   1   2
BRANCH   1  20
ATOM     20  C   UNL A   1      31.644  32.331  26.829  1.00  0.00     0.275 C 
BRANCH  20  21
ATOM     21  O   UNL A   1      32.797  33.184  26.690  1.00  0.00    -0.458 OA
BRANCH  21  22
ATOM     22  C   UNL A   1      33.164  33.838  27.820  1.00  0.00     0.338 C 
ATOM     23  O   UNL A   1      32.526  34.703  28.399  1.00  0.00    -0.246 OA
BRANCH  22  24
ATOM     24  C   UNL A   1      34.383  33.219  28.393  1.00  0.00     0.060 A 
ATOM     25  C   UNL A   1      34.243  31.949  28.967  1.00  0.00     0.016 A 
ATOM     26  C   UNL A   1      35.637  33.838  28.367  1.00  0.00     0.016 A 
ATOM     27  C   UNL A   1      35.343  31.310  29.541  1.00  0.00     0.010 A 
ATOM     28  C   UNL A   1      36.740  33.195  28.950  1.00  0.00     0.010 A 
ATOM     29  C   UNL A   1      36.595  31.936  29.561  1.00  0.00    -0.014 A 
BRANCH  29  30
ATOM     30  C   UNL A   1      37.717  31.305  30.302  1.00  0.00     0.031 A 
ATOM     31  C   UNL A   1      38.597  30.304  29.604  1.00  0.00     0.074 A 
ATOM     32  C   UNL A   1      37.981  31.651  31.576  1.00  0.00     0.049 A 
ATOM     33  N   UNL A   1      39.641  29.658  30.060  1.00  0.00    -0.248 NA
ATOM     34  C   UNL A   1      38.260  29.992  28.206  1.00  0.00     0.031 C 
ATOM     35  C   UNL A   1      37.233  32.634  32.360  1.00  0.00     0.029 A 
ATOM     36  N   UNL A   1      38.957  31.207  32.436  1.00  0.00    -0.354 N 
ATOM     37  C   UNL A   1      40.090  28.871  29.005  1.00  0.00     0.074 A 
ATOM     38  C   UNL A   1      39.187  29.097  27.896  1.00  0.00     0.031 C 
ATOM     39  C   UNL A   1      37.770  32.707  33.592  1.00  0.00     0.029 A 
ATOM     40  C   UNL A   1      38.882  31.763  33.691  1.00  0.00     0.049 A 
ATOM     41  H   UNL A   1      39.645  30.553  32.177  1.00  0.00     0.167 HD
ATOM     42  C   UNL A   1      41.162  28.045  28.961  1.00  0.00     0.037 A 
ATOM     43  C   UNL A   1      39.615  31.525  34.797  1.00  0.00     0.037 A 
ATOM     44  C   UNL A   1      42.068  27.822  30.056  1.00  0.00     0.049 A 
ATOM     45  C   UNL A   1      40.753  30.536  34.740  1.00  0.00     0.074 A 
ATOM     46  C   UNL A   1      43.213  27.042  30.081  1.00  0.00     0.029 A 
ATOM     47  N   UNL A   1      41.927  28.363  31.323  1.00  0.00    -0.354 N 
ATOM     48  N   UNL A   1      41.207  29.851  33.719  1.00  0.00    -0.248 NA
ATOM     49  C   UNL A   1      41.481  30.287  35.995  1.00  0.00     0.031 C 
ATOM     50  C   UNL A   1      43.731  27.065  31.378  1.00  0.00     0.029 A 
ATOM     51  C   UNL A   1      42.937  27.897  32.149  1.00  0.00     0.049 A 
ATOM     52  H   UNL A   1      41.215  28.987  31.596  1.00  0.00     0.167 HD
ATOM     53  C   UNL A   1      42.281  29.113  34.201  1.00  0.00     0.074 A 
ATOM     54  C   UNL A   1      42.427  29.446  35.601  1.00  0.00     0.031 C 
ATOM     55  C   UNL A   1      43.074  28.233  33.542  1.00  0.00     0.037 A 
BRANCH  42  56
ATOM     56  C   UNL A   1      41.418  27.297  27.687  1.00  0.00     0.057 A 
ATOM     57  C   UNL A   1      42.176  27.849  26.648  1.00  0.00     0.134 A 
ATOM     58  C   UNL A   1      40.972  25.978  27.536  1.00  0.00     0.134 A 
ATOM     59  F   UNL A   1      42.626  29.110  26.730  1.00  0.00    -0.206 F 
ATOM     60  C   UNL A   1      42.477  27.116  25.499  1.00  0.00     0.040 A 
ATOM     61  C   UNL A   1      41.283  25.229  26.401  1.00  0.00     0.040 A 
ATOM     62  F   UNL A   1      40.246  25.390  28.500  1.00  0.00    -0.206 F 
ATOM     63  C   UNL A   1      42.037  25.799  25.378  1.00  0.00     0.006 A 
ENDBRANCH  42  56
BRANCH  43  64
ATOM     64  C   UNL A   1      39.282  32.201  36.078  1.00  0.00     0.057 A 
ATOM     65  C   UNL A   1      38.362  31.650  36.977  1.00  0.00     0.134 A 
ATOM     66  C   UNL A   1      39.828  33.450  36.398  1.00  0.00     0.134 A 
ATOM     67  F   UNL A   1      37.781  30.470  36.713  1.00  0.00    -0.206 F 
ATOM     68  C   UNL A   1      37.975  32.330  38.134  1.00  0.00     0.040 A 
ATOM     69  C   UNL A   1      39.470  34.129  37.563  1.00  0.00     0.040 A 
ATOM     70  F   UNL A   1      40.713  34.034  35.576  1.00  0.00    -0.206 F 
ATOM     71  C   UNL A   1      38.532  33.573  38.430  1.00  0.00     0.006 A 
ENDBRANCH  43  64
BRANCH  55  72
ATOM     72  C   UNL A   1      44.176  27.574  34.319  1.00  0.00     0.057 A 
ATOM     73  C   UNL A   1      44.010  26.311  34.903  1.00  0.00     0.134 A 
ATOM     74  C   UNL A   1      45.433  28.181  34.443  1.00  0.00     0.134 A 
ATOM     75  F   UNL A   1      42.828  25.680  34.833  1.00  0.00    -0.206 F 
ATOM     76  C   UNL A   1      45.048  25.685  35.595  1.00  0.00     0.040 A 
ATOM     77  C   UNL A   1      46.486  27.554  35.110  1.00  0.00     0.040 A 
ATOM     78  F   UNL A   1      45.664  29.386  33.898  1.00  0.00    -0.206 F 
ATOM     79  C   UNL A   1      46.293  26.303  35.693  1.00  0.00     0.006 A 
ENDBRANCH  55  72
ENDBRANCH  29  30
ENDBRANCH  22  24
ENDBRANCH  21  22
ENDBRANCH  20  21
ENDBRANCH   1  20
TORSDOF 13
ENDMDL
MODEL 3
REMARK VINA RESULT:      -9.9      4.122      6.197
REMARK SMILES O=C(C[C@@H]1C(=O)NC(=S)N1c1ccccc1)OCCOC(=O)c1ccc(-c2c3nc(c(-c4c(F)cccc4F)c4ccc([nH]4)c(-c4c(F)cccc4F)c4nc(c(-c5c(F)cccc5F)c5ccc2[nH]5)C=C4)C=C3)cc1
REMARK SMILES IDX 18 1 17 2 2 3 1 4 3 5 4 6 5 7 10 8 6 9 7 10 8 11 9 13 11 14
REMARK SMILES IDX 12 15 16 16 13 17 15 18 14 19 19 20 20 21 21 22 22 23 23 24
REMARK SMILES IDX 24 25 76 26 25 27 75 28 26 29 27 30 28 31 69 32 29 33 74 34
REMARK SMILES IDX 68 35 70 36 30 37 73 38 67 39 66 40 31 42 57 43 40 44 56 45
REMARK SMILES IDX 41 46 44 47 55 48 71 49 42 50 43 51 54 53 72 54 45 55 32 56
REMARK SMILES IDX 33 57 38 58 34 59 35 60 37 61 39 62 36 63 58 64 59 65 64 66
REMARK SMILES IDX 60 67 61 68 63 69 65 70 62 71 46 72 47 73 52 74 48 75 49 76
REMARK SMILES IDX 51 77 53 78 50 79
REMARK H PARENT 7 12 70 41 44 52
REMARK Flexibility Score: inf
ROOT
ATOM      1  C   UNL A   1      31.408  31.113  26.184  1.00  0.00     0.274 C 
ENDROOT
BRANCH   1   2
ATOM      2  O   UNL A   1      31.727  30.028  27.079  1.00  0.00    -0.462 OA
BRANCH   2   3
ATOM      3  C   UNL A   1      32.624  29.063  26.754  1.00  0.00     0.308 C 
ATOM      4  O   UNL A   1      33.438  28.660  27.580  1.00  0.00    -0.252 OA
BRANCH   3   5
ATOM      5  C   UNL A   1      32.675  28.595  25.327  1.00  0.00     0.158 C 
BRANCH   5   6
ATOM      6  C   UNL A   1      31.811  27.362  25.083  1.00  0.00     0.190 C 
ATOM      7  C   UNL A   1      32.728  26.139  25.150  1.00  0.00     0.249 C 
ATOM      8  N   UNL A   1      31.409  27.266  23.673  1.00  0.00    -0.306 N 
ATOM      9  O   UNL A   1      33.272  25.697  26.150  1.00  0.00    -0.272 OA
ATOM     10  N   UNL A   1      32.940  25.668  23.890  1.00  0.00    -0.301 N 
ATOM     11  C   UNL A   1      32.167  26.323  22.980  1.00  0.00     0.180 C 
ATOM     12  H   UNL A   1      33.570  24.945  23.665  1.00  0.00     0.172 HD
ATOM     13  S   UNL A   1      32.158  25.923  21.372  1.00  0.00    -0.040 S 
BRANCH   8  14
ATOM     14  C   UNL A   1      30.369  28.053  23.147  1.00  0.00     0.044 A 
ATOM     15  C   UNL A   1      29.041  27.700  23.403  1.00  0.00     0.026 A 
ATOM     16  C   UNL A   1      30.653  29.213  22.417  1.00  0.00     0.026 A 
ATOM     17  C   UNL A   1      28.001  28.495  22.919  1.00  0.00     0.002 A 
ATOM     18  C   UNL A   1      29.610  30.030  21.973  1.00  0.00     0.002 A 
ATOM     19  C   UNL A   1      28.286  29.667  22.218  1.00  0.00     0.000 A 
ENDBRANCH   8  14
ENDBRANCH   5   6
ENDBRANCH   3   5
ENDBRANCH   2   3
ENDBRANCH   1   2
BRANCH   1  20
ATOM     20  C   UNL A   1      31.418  32.477  26.883  1.00  0.00     0.275 C 
BRANCH  20  21
ATOM     21  O   UNL A   1      32.703  33.115  26.751  1.00  0.00    -0.458 OA
BRANCH  21  22
ATOM     22  C   UNL A   1      33.142  33.752  27.865  1.00  0.00     0.338 C 
ATOM     23  O   UNL A   1      32.543  34.606  28.497  1.00  0.00    -0.246 OA
BRANCH  22  24
ATOM     24  C   UNL A   1      34.396  33.127  28.348  1.00  0.00     0.060 A 
ATOM     25  C   UNL A   1      34.328  31.784  28.741  1.00  0.00     0.016 A 
ATOM     26  C   UNL A   1      35.615  33.810  28.408  1.00  0.00     0.016 A 
ATOM     27  C   UNL A   1      35.465  31.132  29.223  1.00  0.00     0.010 A 
ATOM     28  C   UNL A   1      36.755  33.153  28.897  1.00  0.00     0.010 A 
ATOM     29  C   UNL A   1      36.682  31.816  29.329  1.00  0.00    -0.014 A 
BRANCH  29  30
ATOM     30  C   UNL A   1      37.841  31.151  29.977  1.00  0.00     0.031 A 
ATOM     31  C   UNL A   1      38.150  31.441  31.421  1.00  0.00     0.074 A 
ATOM     32  C   UNL A   1      38.590  30.259  29.301  1.00  0.00     0.049 A 
ATOM     33  N   UNL A   1      39.096  30.950  32.181  1.00  0.00    -0.248 NA
ATOM     34  C   UNL A   1      37.275  32.410  32.101  1.00  0.00     0.031 C 
ATOM     35  C   UNL A   1      38.378  29.855  27.911  1.00  0.00     0.029 A 
ATOM     36  N   UNL A   1      39.685  29.531  29.700  1.00  0.00    -0.354 N 
ATOM     37  C   UNL A   1      38.927  31.542  33.428  1.00  0.00     0.074 A 
ATOM     38  C   UNL A   1      37.807  32.452  33.314  1.00  0.00     0.031 C 
ATOM     39  C   UNL A   1      39.325  28.963  27.568  1.00  0.00     0.029 A 
ATOM     40  C   UNL A   1      40.220  28.748  28.705  1.00  0.00     0.049 A 
ATOM     41  H   UNL A   1      40.051  29.566  30.613  1.00  0.00     0.167 HD
ATOM     42  C   UNL A   1      39.632  31.338  34.565  1.00  0.00     0.037 A 
ATOM     43  C   UNL A   1      41.315  27.963  28.706  1.00  0.00     0.037 A 
ATOM     44  C   UNL A   1      40.741  30.429  34.688  1.00  0.00     0.049 A 
ATOM     45  C   UNL A   1      42.131  27.819  29.967  1.00  0.00     0.074 A 
ATOM     46  C   UNL A   1      41.479  30.120  35.819  1.00  0.00     0.029 A 
ATOM     47  N   UNL A   1      41.283  29.695  33.646  1.00  0.00    -0.354 N 
ATOM     48  N   UNL A   1      41.919  28.332  31.154  1.00  0.00    -0.248 NA
ATOM     49  C   UNL A   1      43.342  26.986  29.885  1.00  0.00     0.031 C 
ATOM     50  C   UNL A   1      42.504  29.245  35.448  1.00  0.00     0.029 A 
ATOM     51  C   UNL A   1      42.375  28.972  34.097  1.00  0.00     0.049 A 
ATOM     52  H   UNL A   1      40.943  29.689  32.722  1.00  0.00     0.167 HD
ATOM     53  C   UNL A   1      42.951  27.866  31.961  1.00  0.00     0.074 A 
ATOM     54  C   UNL A   1      43.779  27.014  31.135  1.00  0.00     0.031 C 
ATOM     55  C   UNL A   1      43.193  28.126  33.269  1.00  0.00     0.037 A 
BRANCH  42  56
ATOM     56  C   UNL A   1      39.243  32.123  35.782  1.00  0.00     0.057 A 
ATOM     57  C   UNL A   1      39.715  33.421  36.004  1.00  0.00     0.134 A 
ATOM     58  C   UNL A   1      38.318  31.603  36.696  1.00  0.00     0.134 A 
ATOM     59  F   UNL A   1      40.607  33.972  35.168  1.00  0.00    -0.206 F 
ATOM     60  C   UNL A   1      39.285  34.174  37.098  1.00  0.00     0.040 A 
ATOM     61  C   UNL A   1      37.866  32.352  37.782  1.00  0.00     0.040 A 
ATOM     62  F   UNL A   1      37.823  30.365  36.535  1.00  0.00    -0.206 F 
ATOM     63  C   UNL A   1      38.351  33.643  37.986  1.00  0.00     0.006 A 
ENDBRANCH  42  56
BRANCH  43  64
ATOM     64  C   UNL A   1      41.744  27.272  27.462  1.00  0.00     0.057 A 
ATOM     65  C   UNL A   1      41.428  25.929  27.226  1.00  0.00     0.134 A 
ATOM     66  C   UNL A   1      42.540  27.924  26.511  1.00  0.00     0.134 A 
ATOM     67  F   UNL A   1      40.694  25.241  28.113  1.00  0.00    -0.206 F 
ATOM     68  C   UNL A   1      41.911  25.251  26.104  1.00  0.00     0.040 A 
ATOM     69  C   UNL A   1      43.008  27.266  25.373  1.00  0.00     0.040 A 
ATOM     70  F   UNL A   1      42.881  29.210  26.680  1.00  0.00    -0.206 F 
ATOM     71  C   UNL A   1      42.702  25.922  25.173  1.00  0.00     0.006 A 
ENDBRANCH  43  64
BRANCH  55  72
ATOM     72  C   UNL A   1      44.393  27.477  33.895  1.00  0.00     0.057 A 
ATOM     73  C   UNL A   1      45.632  28.129  33.959  1.00  0.00     0.134 A 
ATOM     74  C   UNL A   1      44.300  26.211  34.488  1.00  0.00     0.134 A 
ATOM     75  F   UNL A   1      45.793  29.338  33.400  1.00  0.00    -0.206 F 
ATOM     76  C   UNL A   1      46.737  27.538  34.574  1.00  0.00     0.040 A 
ATOM     77  C   UNL A   1      45.391  25.620  35.128  1.00  0.00     0.040 A 
ATOM     78  F   UNL A   1      43.140  25.535  34.472  1.00  0.00    -0.206 F 
ATOM     79  C   UNL A   1      46.616  26.283  35.168  1.00  0.00     0.006 A 
ENDBRANCH  55  72
ENDBRANCH  29  30
ENDBRANCH  22  24
ENDBRANCH  21  22
ENDBRANCH  20  21
ENDBRANCH   1  20
TORSDOF 13
ENDMDL
