MODEL 1
REMARK VINA RESULT:     -11.1      0.000      0.000
REMARK SMILES C[C@@H](C(=O)OCCOC(=O)c1ccc(-c2c3nc(c(-c4c(F)cccc4F)c4ccc([nH]4)c(-c4c(F)cccc4F)c4nc(c(-c5c(F)cccc5F)c5ccc2[nH]5)C=C4)C=C3)cc1)c1ccn(C(F)F)c(=O)c1
REMARK SMILES IDX 6 1 5 2 3 3 4 4 2 5 1 6 65 7 66 8 74 9 67 10 72 11 68 12
REMARK SMILES IDX 73 13 69 14 70 15 71 16 7 17 8 18 9 19 10 20 11 21 12 22
REMARK SMILES IDX 64 23 13 24 63 25 14 26 15 27 16 28 57 29 17 30 62 31 56 32
REMARK SMILES IDX 58 33 18 34 61 35 55 36 54 37 19 39 45 40 28 41 44 42 29 43
REMARK SMILES IDX 32 44 43 45 59 46 30 47 31 48 42 50 60 51 33 52 20 53 21 54
REMARK SMILES IDX 26 55 22 56 23 57 25 58 27 59 24 60 46 61 47 62 52 63 48 64
REMARK SMILES IDX 49 65 51 66 53 67 50 68 34 69 35 70 40 71 36 72 37 73 39 74
REMARK SMILES IDX 41 75 38 76
REMARK H PARENT 58 38 32 49
REMARK Flexibility Score: inf
ROOT
ATOM      1  C   UNL A   1      35.912  22.363  23.794  1.00  0.00     0.274 C 
ENDROOT
BRANCH   1   2
ATOM      2  O   UNL A   1      34.611  22.900  24.115  1.00  0.00    -0.462 OA
BRANCH   2   3
ATOM      3  C   UNL A   1      33.663  22.849  23.136  1.00  0.00     0.313 C 
ATOM      4  O   UNL A   1      33.838  23.283  22.003  1.00  0.00    -0.252 OA
BRANCH   3   5
ATOM      5  C   UNL A   1      32.320  22.261  23.641  1.00  0.00     0.126 C 
ATOM      6  C   UNL A   1      31.795  23.025  24.866  1.00  0.00     0.025 C 
BRANCH   5   7
ATOM      7  C   UNL A   1      32.405  20.734  23.824  1.00  0.00    -0.027 A 
ATOM      8  C   UNL A   1      32.658  20.142  25.130  1.00  0.00     0.023 A 
ATOM      9  C   UNL A   1      32.259  19.889  22.783  1.00  0.00     0.076 A 
ATOM     10  C   UNL A   1      32.852  18.824  25.263  1.00  0.00     0.095 A 
ATOM     11  C   UNL A   1      32.445  18.412  22.916  1.00  0.00     0.255 A 
ATOM     12  N   UNL A   1      32.798  17.968  24.177  1.00  0.00    -0.258 N 
ATOM     13  O   UNL A   1      32.291  17.718  21.917  1.00  0.00    -0.269 OA
BRANCH  12  14
ATOM     14  C   UNL A   1      33.101  16.565  24.393  1.00  0.00     0.451 C 
ATOM     15  F   UNL A   1      34.229  16.146  23.780  1.00  0.00    -0.185 F 
ATOM     16  F   UNL A   1      33.295  16.361  25.725  1.00  0.00    -0.185 F 
ENDBRANCH  12  14
ENDBRANCH   5   7
ENDBRANCH   3   5
ENDBRANCH   2   3
ENDBRANCH   1   2
BRANCH   1  17
ATOM     17  C   UNL A   1      36.225  21.151  24.669  1.00  0.00     0.275 C 
BRANCH  17  18
ATOM     18  O   UNL A   1      36.946  21.578  25.837  1.00  0.00    -0.458 OA
BRANCH  18  19
ATOM     19  C   UNL A   1      38.266  21.294  25.860  1.00  0.00     0.338 C 
ATOM     20  O   UNL A   1      38.833  20.308  25.428  1.00  0.00    -0.246 OA
BRANCH  19  21
ATOM     21  C   UNL A   1      38.977  22.452  26.419  1.00  0.00     0.060 A 
ATOM     22  C   UNL A   1      38.479  23.720  26.131  1.00  0.00     0.016 A 
ATOM     23  C   UNL A   1      40.167  22.306  27.131  1.00  0.00     0.016 A 
ATOM     24  C   UNL A   1      39.186  24.850  26.517  1.00  0.00     0.010 A 
ATOM     25  C   UNL A   1      40.860  23.450  27.552  1.00  0.00     0.010 A 
ATOM     26  C   UNL A   1      40.388  24.733  27.224  1.00  0.00    -0.014 A 
BRANCH  26  27
ATOM     27  C   UNL A   1      41.169  25.962  27.520  1.00  0.00     0.031 A 
ATOM     28  C   UNL A   1      40.600  27.003  28.444  1.00  0.00     0.074 A 
ATOM     29  C   UNL A   1      42.430  26.102  27.066  1.00  0.00     0.049 A 
ATOM     30  N   UNL A   1      41.085  28.174  28.777  1.00  0.00    -0.248 NA
ATOM     31  C   UNL A   1      39.318  26.680  29.090  1.00  0.00     0.031 C 
ATOM     32  C   UNL A   1      43.157  25.115  26.268  1.00  0.00     0.029 A 
ATOM     33  N   UNL A   1      43.336  27.117  27.248  1.00  0.00    -0.354 N 
ATOM     34  C   UNL A   1      40.156  28.738  29.639  1.00  0.00     0.074 A 
ATOM     35  C   UNL A   1      39.076  27.785  29.782  1.00  0.00     0.031 C 
ATOM     36  C   UNL A   1      44.413  25.548  26.074  1.00  0.00     0.029 A 
ATOM     37  C   UNL A   1      44.557  26.874  26.668  1.00  0.00     0.049 A 
ATOM     38  H   UNL A   1      43.131  27.940  27.747  1.00  0.00     0.167 HD
ATOM     39  C   UNL A   1      40.197  29.943  30.254  1.00  0.00     0.037 A 
ATOM     40  C   UNL A   1      45.661  27.643  26.602  1.00  0.00     0.037 A 
ATOM     41  C   UNL A   1      41.283  30.880  30.148  1.00  0.00     0.049 A 
ATOM     42  C   UNL A   1      45.644  29.016  27.213  1.00  0.00     0.074 A 
ATOM     43  C   UNL A   1      41.390  32.144  30.701  1.00  0.00     0.029 A 
ATOM     44  N   UNL A   1      42.460  30.644  29.454  1.00  0.00    -0.354 N 
ATOM     45  N   UNL A   1      44.716  29.587  27.942  1.00  0.00    -0.248 NA
ATOM     46  C   UNL A   1      46.818  29.866  26.963  1.00  0.00     0.031 C 
ATOM     47  C   UNL A   1      42.623  32.687  30.318  1.00  0.00     0.029 A 
ATOM     48  C   UNL A   1      43.293  31.747  29.552  1.00  0.00     0.049 A 
ATOM     49  H   UNL A   1      42.672  29.818  28.965  1.00  0.00     0.167 HD
ATOM     50  C   UNL A   1      45.194  30.855  28.241  1.00  0.00     0.074 A 
ATOM     51  C   UNL A   1      46.504  30.965  27.636  1.00  0.00     0.031 C 
ATOM     52  C   UNL A   1      44.594  31.845  28.945  1.00  0.00     0.037 A 
BRANCH  39  53
ATOM     53  C   UNL A   1      38.998  30.339  31.060  1.00  0.00     0.057 A 
ATOM     54  C   UNL A   1      37.926  31.043  30.501  1.00  0.00     0.134 A 
ATOM     55  C   UNL A   1      38.911  29.985  32.412  1.00  0.00     0.134 A 
ATOM     56  F   UNL A   1      37.959  31.426  29.216  1.00  0.00    -0.206 F 
ATOM     57  C   UNL A   1      36.812  31.393  31.265  1.00  0.00     0.040 A 
ATOM     58  C   UNL A   1      37.795  30.315  33.180  1.00  0.00     0.040 A 
ATOM     59  F   UNL A   1      39.907  29.310  33.005  1.00  0.00    -0.206 F 
ATOM     60  C   UNL A   1      36.742  31.024  32.607  1.00  0.00     0.006 A 
ENDBRANCH  39  53
BRANCH  40  61
ATOM     61  C   UNL A   1      46.870  27.157  25.889  1.00  0.00     0.057 A 
ATOM     62  C   UNL A   1      47.058  27.417  24.527  1.00  0.00     0.134 A 
ATOM     63  C   UNL A   1      47.845  26.395  26.543  1.00  0.00     0.134 A 
ATOM     64  F   UNL A   1      46.140  28.108  23.837  1.00  0.00    -0.206 F 
ATOM     65  C   UNL A   1      48.171  26.929  23.839  1.00  0.00     0.040 A 
ATOM     66  C   UNL A   1      48.974  25.922  25.873  1.00  0.00     0.040 A 
ATOM     67  F   UNL A   1      47.714  26.100  27.845  1.00  0.00    -0.206 F 
ATOM     68  C   UNL A   1      49.136  26.183  24.515  1.00  0.00     0.006 A 
ENDBRANCH  40  61
BRANCH  52  69
ATOM     69  C   UNL A   1      45.351  33.128  29.105  1.00  0.00     0.057 A 
ATOM     70  C   UNL A   1      45.187  34.190  28.207  1.00  0.00     0.134 A 
ATOM     71  C   UNL A   1      46.224  33.317  30.183  1.00  0.00     0.134 A 
ATOM     72  F   UNL A   1      44.375  34.063  27.146  1.00  0.00    -0.206 F 
ATOM     73  C   UNL A   1      45.876  35.392  28.368  1.00  0.00     0.040 A 
ATOM     74  C   UNL A   1      46.904  34.522  30.365  1.00  0.00     0.040 A 
ATOM     75  F   UNL A   1      46.420  32.341  31.081  1.00  0.00    -0.206 F 
ATOM     76  C   UNL A   1      46.734  35.563  29.454  1.00  0.00     0.006 A 
ENDBRANCH  52  69
ENDBRANCH  26  27
ENDBRANCH  19  21
ENDBRANCH  18  19
ENDBRANCH  17  18
ENDBRANCH   1  17
TORSDOF 13
ENDMDL
MODEL 2
REMARK VINA RESULT:     -10.9      4.874      9.488
REMARK SMILES C[C@@H](C(=O)OCCOC(=O)c1ccc(-c2c3nc(c(-c4c(F)cccc4F)c4ccc([nH]4)c(-c4c(F)cccc4F)c4nc(c(-c5c(F)cccc5F)c5ccc2[nH]5)C=C4)C=C3)cc1)c1ccn(C(F)F)c(=O)c1
REMARK SMILES IDX 6 1 5 2 3 3 4 4 2 5 1 6 65 7 66 8 74 9 67 10 72 11 68 12
REMARK SMILES IDX 73 13 69 14 70 15 71 16 7 17 8 18 9 19 10 20 11 21 12 22
REMARK SMILES IDX 64 23 13 24 63 25 14 26 15 27 16 28 57 29 17 30 62 31 56 32
REMARK SMILES IDX 58 33 18 34 61 35 55 36 54 37 19 39 45 40 28 41 44 42 29 43
REMARK SMILES IDX 32 44 43 45 59 46 30 47 31 48 42 50 60 51 33 52 20 53 21 54
REMARK SMILES IDX 26 55 22 56 23 57 25 58 27 59 24 60 46 61 47 62 52 63 48 64
REMARK SMILES IDX 49 65 51 66 53 67 50 68 34 69 35 70 40 71 36 72 37 73 39 74
REMARK SMILES IDX 41 75 38 76
REMARK H PARENT 58 38 32 49
REMARK Flexibility Score: inf
ROOT
ATOM      1  C   UNL A   1      34.961  34.018  31.807  1.00  0.00     0.274 C 
ENDROOT
BRANCH   1   2
ATOM      2  O   UNL A   1      33.735  33.782  31.082  1.00  0.00    -0.462 OA
BRANCH   2   3
ATOM      3  C   UNL A   1      33.515  34.545  29.974  1.00  0.00     0.313 C 
ATOM      4  O   UNL A   1      32.507  35.222  29.809  1.00  0.00    -0.252 OA
BRANCH   3   5
ATOM      5  C   UNL A   1      34.640  34.393  28.916  1.00  0.00     0.126 C 
ATOM      6  C   UNL A   1      34.596  35.527  27.881  1.00  0.00     0.025 C 
BRANCH   5   7
ATOM      7  C   UNL A   1      34.662  32.975  28.315  1.00  0.00    -0.027 A 
ATOM      8  C   UNL A   1      33.441  32.327  27.859  1.00  0.00     0.023 A 
ATOM      9  C   UNL A   1      35.810  32.276  28.197  1.00  0.00     0.076 A 
ATOM     10  C   UNL A   1      33.448  31.052  27.452  1.00  0.00     0.095 A 
ATOM     11  C   UNL A   1      35.843  30.861  27.718  1.00  0.00     0.255 A 
ATOM     12  N   UNL A   1      34.613  30.305  27.423  1.00  0.00    -0.258 N 
ATOM     13  O   UNL A   1      36.932  30.303  27.641  1.00  0.00    -0.269 OA
BRANCH  12  14
ATOM     14  C   UNL A   1      34.522  28.906  27.045  1.00  0.00     0.451 C 
ATOM     15  F   UNL A   1      33.439  28.272  27.543  1.00  0.00    -0.185 F 
ATOM     16  F   UNL A   1      34.418  28.827  25.690  1.00  0.00    -0.185 F 
ENDBRANCH  12  14
ENDBRANCH   5   7
ENDBRANCH   3   5
ENDBRANCH   2   3
ENDBRANCH   1   2
BRANCH   1  17
ATOM     17  C   UNL A   1      34.970  33.236  33.118  1.00  0.00     0.275 C 
BRANCH  17  18
ATOM     18  O   UNL A   1      35.650  31.983  32.923  1.00  0.00    -0.458 OA
BRANCH  18  19
ATOM     19  C   UNL A   1      36.834  31.842  33.555  1.00  0.00     0.338 C 
ATOM     20  O   UNL A   1      37.095  32.052  34.725  1.00  0.00    -0.246 OA
BRANCH  19  21
ATOM     21  C   UNL A   1      37.798  31.269  32.605  1.00  0.00     0.060 A 
ATOM     22  C   UNL A   1      38.906  30.606  33.126  1.00  0.00     0.016 A 
ATOM     23  C   UNL A   1      37.672  31.462  31.229  1.00  0.00     0.016 A 
ATOM     24  C   UNL A   1      39.915  30.166  32.280  1.00  0.00     0.010 A 
ATOM     25  C   UNL A   1      38.675  30.983  30.375  1.00  0.00     0.010 A 
ATOM     26  C   UNL A   1      39.820  30.355  30.897  1.00  0.00    -0.014 A 
BRANCH  26  27
ATOM     27  C   UNL A   1      40.971  29.970  30.040  1.00  0.00     0.031 A 
ATOM     28  C   UNL A   1      41.009  28.605  29.409  1.00  0.00     0.074 A 
ATOM     29  C   UNL A   1      41.923  30.869  29.723  1.00  0.00     0.049 A 
ATOM     30  N   UNL A   1      41.950  28.049  28.688  1.00  0.00    -0.248 NA
ATOM     31  C   UNL A   1      39.824  27.756  29.607  1.00  0.00     0.031 C 
ATOM     32  C   UNL A   1      41.946  32.267  30.155  1.00  0.00     0.029 A 
ATOM     33  N   UNL A   1      43.035  30.748  28.927  1.00  0.00    -0.354 N 
ATOM     34  C   UNL A   1      41.488  26.778  28.378  1.00  0.00     0.074 A 
ATOM     35  C   UNL A   1      40.182  26.640  28.986  1.00  0.00     0.031 C 
ATOM     36  C   UNL A   1      42.988  32.887  29.578  1.00  0.00     0.029 A 
ATOM     37  C   UNL A   1      43.748  31.915  28.797  1.00  0.00     0.049 A 
ATOM     38  H   UNL A   1      43.297  29.905  28.491  1.00  0.00     0.167 HD
ATOM     39  C   UNL A   1      42.099  25.811  27.653  1.00  0.00     0.037 A 
ATOM     40  C   UNL A   1      44.897  32.168  28.142  1.00  0.00     0.037 A 
ATOM     41  C   UNL A   1      43.379  25.952  27.014  1.00  0.00     0.049 A 
ATOM     42  C   UNL A   1      45.601  31.050  27.425  1.00  0.00     0.074 A 
ATOM     43  C   UNL A   1      44.095  25.009  26.297  1.00  0.00     0.029 A 
ATOM     44  N   UNL A   1      44.127  27.119  27.001  1.00  0.00    -0.354 N 
ATOM     45  N   UNL A   1      45.207  29.817  27.223  1.00  0.00    -0.248 NA
ATOM     46  C   UNL A   1      46.930  31.353  26.872  1.00  0.00     0.031 C 
ATOM     47  C   UNL A   1      45.292  25.598  25.872  1.00  0.00     0.029 A 
ATOM     48  C   UNL A   1      45.305  26.915  26.300  1.00  0.00     0.049 A 
ATOM     49  H   UNL A   1      43.862  27.965  27.426  1.00  0.00     0.167 HD
ATOM     50  C   UNL A   1      46.231  29.200  26.518  1.00  0.00     0.074 A 
ATOM     51  C   UNL A   1      47.257  30.199  26.305  1.00  0.00     0.031 C 
ATOM     52  C   UNL A   1      46.319  27.916  26.095  1.00  0.00     0.037 A 
BRANCH  39  53
ATOM     53  C   UNL A   1      41.404  24.488  27.560  1.00  0.00     0.057 A 
ATOM     54  C   UNL A   1      40.334  24.270  26.685  1.00  0.00     0.134 A 
ATOM     55  C   UNL A   1      41.834  23.410  28.344  1.00  0.00     0.134 A 
ATOM     56  F   UNL A   1      39.865  25.268  25.922  1.00  0.00    -0.206 F 
ATOM     57  C   UNL A   1      39.706  23.026  26.603  1.00  0.00     0.040 A 
ATOM     58  C   UNL A   1      41.225  22.158  28.258  1.00  0.00     0.040 A 
ATOM     59  F   UNL A   1      42.855  23.556  29.201  1.00  0.00    -0.206 F 
ATOM     60  C   UNL A   1      40.155  21.964  27.387  1.00  0.00     0.006 A 
ENDBRANCH  39  53
BRANCH  40  61
ATOM     61  C   UNL A   1      45.489  33.530  28.166  1.00  0.00     0.057 A 
ATOM     62  C   UNL A   1      46.326  33.934  29.212  1.00  0.00     0.134 A 
ATOM     63  C   UNL A   1      45.204  34.467  27.166  1.00  0.00     0.134 A 
ATOM     64  F   UNL A   1      46.604  33.094  30.219  1.00  0.00    -0.206 F 
ATOM     65  C   UNL A   1      46.853  35.226  29.266  1.00  0.00     0.040 A 
ATOM     66  C   UNL A   1      45.744  35.753  27.196  1.00  0.00     0.040 A 
ATOM     67  F   UNL A   1      44.396  34.145  26.145  1.00  0.00    -0.206 F 
ATOM     68  C   UNL A   1      46.567  36.139  28.251  1.00  0.00     0.006 A 
ENDBRANCH  40  61
BRANCH  52  69
ATOM     69  C   UNL A   1      47.560  27.521  25.356  1.00  0.00     0.057 A 
ATOM     70  C   UNL A   1      48.661  26.968  26.020  1.00  0.00     0.134 A 
ATOM     71  C   UNL A   1      47.642  27.662  23.965  1.00  0.00     0.134 A 
ATOM     72  F   UNL A   1      48.647  26.821  27.353  1.00  0.00    -0.206 F 
ATOM     73  C   UNL A   1      49.809  26.581  25.328  1.00  0.00     0.040 A 
ATOM     74  C   UNL A   1      48.778  27.260  23.260  1.00  0.00     0.040 A 
ATOM     75  F   UNL A   1      46.619  28.179  23.270  1.00  0.00    -0.206 F 
ATOM     76  C   UNL A   1      49.867  26.722  23.942  1.00  0.00     0.006 A 
ENDBRANCH  52  69
ENDBRANCH  26  27
ENDBRANCH  19  21
ENDBRANCH  18  19
ENDBRANCH  17  18
ENDBRANCH   1  17
TORSDOF 13
ENDMDL
MODEL 3
REMARK VINA RESULT:     -10.7      4.811      7.568
REMARK SMILES C[C@@H](C(=O)OCCOC(=O)c1ccc(-c2c3nc(c(-c4c(F)cccc4F)c4ccc([nH]4)c(-c4c(F)cccc4F)c4nc(c(-c5c(F)cccc5F)c5ccc2[nH]5)C=C4)C=C3)cc1)c1ccn(C(F)F)c(=O)c1
REMARK SMILES IDX 6 1 5 2 3 3 4 4 2 5 1 6 65 7 66 8 74 9 67 10 72 11 68 12
REMARK SMILES IDX 73 13 69 14 70 15 71 16 7 17 8 18 9 19 10 20 11 21 12 22
REMARK SMILES IDX 64 23 13 24 63 25 14 26 15 27 16 28 57 29 17 30 62 31 56 32
REMARK SMILES IDX 58 33 18 34 61 35 55 36 54 37 19 39 45 40 28 41 44 42 29 43
REMARK SMILES IDX 32 44 43 45 59 46 30 47 31 48 42 50 60 51 33 52 20 53 21 54
REMARK SMILES IDX 26 55 22 56 23 57 25 58 27 59 24 60 46 61 47 62 52 63 48 64
REMARK SMILES IDX 49 65 51 66 53 67 50 68 34 69 35 70 40 71 36 72 37 73 39 74
REMARK SMILES IDX 41 75 38 76
REMARK H PARENT 58 38 32 49
REMARK Flexibility Score: inf
ROOT
ATOM      1  C   UNL A   1      31.662  30.888  26.778  1.00  0.00     0.274 C 
ENDROOT
BRANCH   1   2
ATOM      2  O   UNL A   1      31.668  30.416  25.413  1.00  0.00    -0.462 OA
BRANCH   2   3
ATOM      3  C   UNL A   1      32.620  29.498  25.080  1.00  0.00     0.313 C 
ATOM      4  O   UNL A   1      33.035  29.340  23.938  1.00  0.00    -0.252 OA
BRANCH   3   5
ATOM      5  C   UNL A   1      33.053  28.628  26.289  1.00  0.00     0.126 C 
ATOM      6  C   UNL A   1      34.557  28.763  26.569  1.00  0.00     0.025 C 
BRANCH   5   7
ATOM      7  C   UNL A   1      32.554  27.178  26.149  1.00  0.00    -0.027 A 
ATOM      8  C   UNL A   1      31.133  26.871  26.069  1.00  0.00     0.023 A 
ATOM      9  C   UNL A   1      33.411  26.137  26.106  1.00  0.00     0.076 A 
ATOM     10  C   UNL A   1      30.699  25.605  26.071  1.00  0.00     0.095 A 
ATOM     11  C   UNL A   1      32.947  24.716  26.080  1.00  0.00     0.255 A 
ATOM     12  N   UNL A   1      31.578  24.536  26.125  1.00  0.00    -0.258 N 
ATOM     13  O   UNL A   1      33.796  23.833  26.040  1.00  0.00    -0.269 OA
BRANCH  12  14
ATOM     14  C   UNL A   1      31.025  23.196  26.205  1.00  0.00     0.451 C 
ATOM     15  F   UNL A   1      30.025  23.068  27.103  1.00  0.00    -0.185 F 
ATOM     16  F   UNL A   1      30.491  22.873  24.995  1.00  0.00    -0.185 F 
ENDBRANCH  12  14
ENDBRANCH   5   7
ENDBRANCH   3   5
ENDBRANCH   2   3
ENDBRANCH   1   2
BRANCH   1  17
ATOM     17  C   UNL A   1      31.409  32.393  26.826  1.00  0.00     0.275 C 
BRANCH  17  18
ATOM     18  O   UNL A   1      32.662  33.091  26.716  1.00  0.00    -0.458 OA
BRANCH  18  19
ATOM     19  C   UNL A   1      33.098  33.714  27.832  1.00  0.00     0.338 C 
ATOM     20  O   UNL A   1      32.544  34.586  28.475  1.00  0.00    -0.246 OA
BRANCH  19  21
ATOM     21  C   UNL A   1      34.361  33.086  28.246  1.00  0.00     0.060 A 
ATOM     22  C   UNL A   1      34.321  31.756  28.656  1.00  0.00     0.016 A 
ATOM     23  C   UNL A   1      35.548  33.815  28.327  1.00  0.00     0.016 A 
ATOM     24  C   UNL A   1      35.455  31.157  29.185  1.00  0.00     0.010 A 
ATOM     25  C   UNL A   1      36.701  33.195  28.827  1.00  0.00     0.010 A 
ATOM     26  C   UNL A   1      36.656  31.867  29.287  1.00  0.00    -0.014 A 
BRANCH  26  27
ATOM     27  C   UNL A   1      37.814  31.224  29.962  1.00  0.00     0.031 A 
ATOM     28  C   UNL A   1      38.049  31.461  31.428  1.00  0.00     0.074 A 
ATOM     29  C   UNL A   1      38.587  30.337  29.305  1.00  0.00     0.049 A 
ATOM     30  N   UNL A   1      39.035  31.053  32.188  1.00  0.00    -0.248 NA
ATOM     31  C   UNL A   1      37.033  32.253  32.138  1.00  0.00     0.031 C 
ATOM     32  C   UNL A   1      38.397  29.912  27.918  1.00  0.00     0.029 A 
ATOM     33  N   UNL A   1      39.665  29.604  29.735  1.00  0.00    -0.354 N 
ATOM     34  C   UNL A   1      38.776  31.567  33.451  1.00  0.00     0.074 A 
ATOM     35  C   UNL A   1      37.542  32.316  33.361  1.00  0.00     0.031 C 
ATOM     36  C   UNL A   1      39.293  28.955  27.628  1.00  0.00     0.029 A 
ATOM     37  C   UNL A   1      40.167  28.753  28.780  1.00  0.00     0.049 A 
ATOM     38  H   UNL A   1      40.043  29.680  30.640  1.00  0.00     0.167 HD
ATOM     39  C   UNL A   1      39.505  31.429  34.584  1.00  0.00     0.037 A 
ATOM     40  C   UNL A   1      41.225  27.922  28.820  1.00  0.00     0.037 A 
ATOM     41  C   UNL A   1      40.712  30.655  34.692  1.00  0.00     0.049 A 
ATOM     42  C   UNL A   1      42.071  27.861  30.061  1.00  0.00     0.074 A 
ATOM     43  C   UNL A   1      41.540  30.496  35.790  1.00  0.00     0.029 A 
ATOM     44  N   UNL A   1      41.254  29.896  33.667  1.00  0.00    -0.354 N 
ATOM     45  N   UNL A   1      41.879  28.434  31.224  1.00  0.00    -0.248 NA
ATOM     46  C   UNL A   1      43.304  27.062  29.984  1.00  0.00     0.031 C 
ATOM     47  C   UNL A   1      42.601  29.660  35.421  1.00  0.00     0.029 A 
ATOM     48  C   UNL A   1      42.415  29.277  34.102  1.00  0.00     0.049 A 
ATOM     49  H   UNL A   1      40.872  29.809  32.765  1.00  0.00     0.167 HD
ATOM     50  C   UNL A   1      42.957  28.062  32.015  1.00  0.00     0.074 A 
ATOM     51  C   UNL A   1      43.791  27.195  31.210  1.00  0.00     0.031 C 
ATOM     52  C   UNL A   1      43.237  28.418  33.292  1.00  0.00     0.037 A 
BRANCH  39  53
ATOM     53  C   UNL A   1      39.036  32.180  35.792  1.00  0.00     0.057 A 
ATOM     54  C   UNL A   1      38.208  31.596  36.756  1.00  0.00     0.134 A 
ATOM     55  C   UNL A   1      39.444  33.504  35.999  1.00  0.00     0.134 A 
ATOM     56  F   UNL A   1      37.768  30.338  36.604  1.00  0.00    -0.206 F 
ATOM     57  C   UNL A   1      37.791  32.308  37.882  1.00  0.00     0.040 A 
ATOM     58  C   UNL A   1      39.047  34.220  37.128  1.00  0.00     0.040 A 
ATOM     59  F   UNL A   1      40.239  34.119  35.110  1.00  0.00    -0.206 F 
ATOM     60  C   UNL A   1      38.215  33.623  38.072  1.00  0.00     0.006 A 
ENDBRANCH  39  53
BRANCH  40  61
ATOM     61  C   UNL A   1      41.583  27.106  27.632  1.00  0.00     0.057 A 
ATOM     62  C   UNL A   1      41.165  25.775  27.518  1.00  0.00     0.134 A 
ATOM     63  C   UNL A   1      42.376  27.625  26.602  1.00  0.00     0.134 A 
ATOM     64  F   UNL A   1      40.436  25.209  28.491  1.00  0.00    -0.206 F 
ATOM     65  C   UNL A   1      41.531  24.987  26.425  1.00  0.00     0.040 A 
ATOM     66  C   UNL A   1      42.729  26.856  25.493  1.00  0.00     0.040 A 
ATOM     67  F   UNL A   1      42.820  28.889  26.660  1.00  0.00    -0.206 F 
ATOM     68  C   UNL A   1      42.311  25.530  25.405  1.00  0.00     0.006 A 
ENDBRANCH  40  61
BRANCH  52  69
ATOM     69  C   UNL A   1      44.490  27.865  33.898  1.00  0.00     0.057 A 
ATOM     70  C   UNL A   1      44.503  26.621  34.541  1.00  0.00     0.134 A 
ATOM     71  C   UNL A   1      45.700  28.563  33.808  1.00  0.00     0.134 A 
ATOM     72  F   UNL A   1      43.372  25.911  34.671  1.00  0.00    -0.206 F 
ATOM     73  C   UNL A   1      45.675  26.096  35.087  1.00  0.00     0.040 A 
ATOM     74  C   UNL A   1      46.882  28.039  34.334  1.00  0.00     0.040 A 
ATOM     75  F   UNL A   1      45.755  29.756  33.199  1.00  0.00    -0.206 F 
ATOM     76  C   UNL A   1      46.871  26.804  34.978  1.00  0.00     0.006 A 
ENDBRANCH  52  69
ENDBRANCH  26  27
ENDBRANCH  19  21
ENDBRANCH  18  19
ENDBRANCH  17  18
ENDBRANCH   1  17
TORSDOF 13
ENDMDL
