MODEL 1
REMARK VINA RESULT:     -10.7      0.000      0.000
REMARK SMILES CC[C@H](C)CN(CC)c1nc(C(=O)OCCOC(=O)c2ccc(-c3c4nc(c(-c5c(F)cccc5F)c5ccc([nH]5)c(-c5c(F)cccc5F)c5nc(c(-c6c(F)cccc6F)c6ccc3[nH]6)C=C5)C=C4)cc2)cc2ccccc12
REMARK SMILES IDX 15 1 14 2 12 3 13 4 11 5 9 6 10 7 80 8 75 9 79 10 74 11
REMARK SMILES IDX 76 12 78 13 77 14 6 15 5 16 3 17 4 18 2 19 1 20 7 21 8 22
REMARK SMILES IDX 16 23 17 24 18 25 19 26 20 27 21 28 73 29 22 30 72 31 23 32
REMARK SMILES IDX 24 33 25 34 66 35 26 36 71 37 65 38 67 39 27 40 70 41 64 42
REMARK SMILES IDX 63 43 28 45 54 46 37 47 53 48 38 49 41 50 52 51 68 52 39 53
REMARK SMILES IDX 40 54 51 56 69 57 42 58 29 59 30 60 35 61 31 62 32 63 34 64
REMARK SMILES IDX 36 65 33 66 55 67 56 68 61 69 57 70 58 71 60 72 62 73 59 74
REMARK SMILES IDX 43 75 44 76 49 77 45 78 46 79 48 80 50 81 47 82
REMARK H PARENT 67 44 41 55
REMARK Flexibility Score: inf
ROOT
ATOM      1  C   UNL A   1      32.968  28.826  24.550  1.00  0.00     0.275 C 
ENDROOT
BRANCH   1   2
ATOM      2  O   UNL A   1      33.051  27.568  25.252  1.00  0.00    -0.457 OA
BRANCH   2   3
ATOM      3  C   UNL A   1      32.412  26.540  24.640  1.00  0.00     0.357 C 
ATOM      4  O   UNL A   1      31.365  26.621  24.008  1.00  0.00    -0.244 OA
BRANCH   3   5
ATOM      5  C   UNL A   1      33.147  25.253  24.744  1.00  0.00     0.151 A 
ATOM      6  C   UNL A   1      33.456  23.098  23.977  1.00  0.00     0.137 A 
ATOM      7  N   UNL A   1      32.638  24.167  24.127  1.00  0.00    -0.223 NA
ATOM      8  C   UNL A   1      34.826  23.128  24.368  1.00  0.00     0.024 A 
ATOM      9  C   UNL A   1      35.251  24.203  25.165  1.00  0.00    -0.012 A 
ATOM     10  C   UNL A   1      35.795  22.153  24.035  1.00  0.00     0.012 A 
ATOM     11  C   UNL A   1      34.397  25.280  25.337  1.00  0.00     0.045 A 
ATOM     12  C   UNL A   1      36.524  24.204  25.756  1.00  0.00     0.009 A 
ATOM     13  C   UNL A   1      37.081  22.181  24.584  1.00  0.00     0.001 A 
ATOM     14  C   UNL A   1      37.429  23.185  25.480  1.00  0.00     0.001 A 
BRANCH   6  15
ATOM     15  N   UNL A   1      32.884  21.898  23.525  1.00  0.00    -0.356 N 
BRANCH  15  16
ATOM     16  C   UNL A   1      32.275  21.068  24.593  1.00  0.00     0.121 C 
BRANCH  16  17
ATOM     17  C   UNL A   1      33.288  20.196  25.375  1.00  0.00     0.005 C 
ATOM     18  C   UNL A   1      33.565  20.709  26.801  1.00  0.00     0.009 C 
BRANCH  17  19
ATOM     19  C   UNL A   1      32.859  18.714  25.435  1.00  0.00     0.002 C 
ATOM     20  C   UNL A   1      32.623  18.063  24.077  1.00  0.00     0.004 C 
ENDBRANCH  17  19
ENDBRANCH  16  17
ENDBRANCH  15  16
BRANCH  15  21
ATOM     21  C   UNL A   1      32.150  21.990  22.254  1.00  0.00     0.114 C 
ATOM     22  C   UNL A   1      31.779  20.648  21.629  1.00  0.00     0.027 C 
ENDBRANCH  15  21
ENDBRANCH   6  15
ENDBRANCH   3   5
ENDBRANCH   2   3
ENDBRANCH   1   2
BRANCH   1  23
ATOM     23  C   UNL A   1      31.951  29.768  25.198  1.00  0.00     0.275 C 
BRANCH  23  24
ATOM     24  O   UNL A   1      32.219  29.915  26.606  1.00  0.00    -0.458 OA
BRANCH  24  25
ATOM     25  C   UNL A   1      32.801  31.073  26.980  1.00  0.00     0.338 C 
ATOM     26  O   UNL A   1      32.294  32.192  26.984  1.00  0.00    -0.246 OA
BRANCH  25  27
ATOM     27  C   UNL A   1      34.180  30.847  27.450  1.00  0.00     0.060 A 
ATOM     28  C   UNL A   1      34.632  29.551  27.672  1.00  0.00     0.016 A 
ATOM     29  C   UNL A   1      34.975  31.924  27.838  1.00  0.00     0.016 A 
ATOM     30  C   UNL A   1      35.783  29.327  28.428  1.00  0.00     0.010 A 
ATOM     31  C   UNL A   1      36.210  31.692  28.461  1.00  0.00     0.010 A 
ATOM     32  C   UNL A   1      36.609  30.392  28.818  1.00  0.00    -0.014 A 
BRANCH  32  33
ATOM     33  C   UNL A   1      37.852  30.152  29.617  1.00  0.00     0.031 A 
ATOM     34  C   UNL A   1      38.990  29.337  29.045  1.00  0.00     0.074 A 
ATOM     35  C   UNL A   1      37.992  30.668  30.857  1.00  0.00     0.049 A 
ATOM     36  N   UNL A   1      40.034  28.828  29.652  1.00  0.00    -0.248 NA
ATOM     37  C   UNL A   1      38.938  29.039  27.605  1.00  0.00     0.031 C 
ATOM     38  C   UNL A   1      37.015  31.514  31.545  1.00  0.00     0.029 A 
ATOM     39  N   UNL A   1      39.025  30.567  31.760  1.00  0.00    -0.354 N 
ATOM     40  C   UNL A   1      40.712  28.086  28.691  1.00  0.00     0.074 A 
ATOM     41  C   UNL A   1      39.970  28.220  27.456  1.00  0.00     0.031 C 
ATOM     42  C   UNL A   1      37.519  31.909  32.722  1.00  0.00     0.029 A 
ATOM     43  C   UNL A   1      38.800  31.247  32.934  1.00  0.00     0.049 A 
ATOM     44  H   UNL A   1      39.847  30.055  31.584  1.00  0.00     0.167 HD
ATOM     45  C   UNL A   1      41.846  27.355  28.827  1.00  0.00     0.037 A 
ATOM     46  C   UNL A   1      39.505  31.297  34.080  1.00  0.00     0.037 A 
ATOM     47  C   UNL A   1      42.633  27.287  30.032  1.00  0.00     0.049 A 
ATOM     48  C   UNL A   1      40.749  30.471  34.214  1.00  0.00     0.074 A 
ATOM     49  C   UNL A   1      43.806  26.587  30.260  1.00  0.00     0.029 A 
ATOM     50  N   UNL A   1      42.342  27.968  31.204  1.00  0.00    -0.354 N 
ATOM     51  N   UNL A   1      41.325  29.696  33.328  1.00  0.00    -0.248 NA
ATOM     52  C   UNL A   1      41.422  30.496  35.520  1.00  0.00     0.031 C 
ATOM     53  C   UNL A   1      44.211  26.823  31.578  1.00  0.00     0.029 A 
ATOM     54  C   UNL A   1      43.308  27.698  32.160  1.00  0.00     0.049 A 
ATOM     55  H   UNL A   1      41.563  28.554  31.338  1.00  0.00     0.167 HD
ATOM     56  C   UNL A   1      42.424  29.141  33.967  1.00  0.00     0.074 A 
ATOM     57  C   UNL A   1      42.451  29.690  35.308  1.00  0.00     0.031 C 
ATOM     58  C   UNL A   1      43.323  28.248  33.489  1.00  0.00     0.037 A 
BRANCH  45  59
ATOM     59  C   UNL A   1      42.293  26.537  27.651  1.00  0.00     0.057 A 
ATOM     60  C   UNL A   1      41.876  25.215  27.452  1.00  0.00     0.134 A 
ATOM     61  C   UNL A   1      43.126  27.103  26.675  1.00  0.00     0.134 A 
ATOM     62  F   UNL A   1      41.089  24.610  28.354  1.00  0.00    -0.206 F 
ATOM     63  C   UNL A   1      42.284  24.480  26.337  1.00  0.00     0.040 A 
ATOM     64  C   UNL A   1      43.522  26.387  25.544  1.00  0.00     0.040 A 
ATOM     65  F   UNL A   1      43.556  28.368  26.797  1.00  0.00    -0.206 F 
ATOM     66  C   UNL A   1      43.105  25.069  25.376  1.00  0.00     0.006 A 
ENDBRANCH  45  59
BRANCH  46  67
ATOM     67  C   UNL A   1      39.010  32.115  35.216  1.00  0.00     0.057 A 
ATOM     68  C   UNL A   1      38.230  31.546  36.229  1.00  0.00     0.134 A 
ATOM     69  C   UNL A   1      39.319  33.476  35.326  1.00  0.00     0.134 A 
ATOM     70  F   UNL A   1      37.878  30.253  36.165  1.00  0.00    -0.206 F 
ATOM     71  C   UNL A   1      37.777  32.301  37.312  1.00  0.00     0.040 A 
ATOM     72  C   UNL A   1      38.898  34.236  36.417  1.00  0.00     0.040 A 
ATOM     73  F   UNL A   1      40.063  34.079  34.387  1.00  0.00    -0.206 F 
ATOM     74  C   UNL A   1      38.121  33.648  37.413  1.00  0.00     0.006 A 
ENDBRANCH  46  67
BRANCH  58  75
ATOM     75  C   UNL A   1      44.419  27.827  34.419  1.00  0.00     0.057 A 
ATOM     76  C   UNL A   1      44.297  26.693  35.231  1.00  0.00     0.134 A 
ATOM     77  C   UNL A   1      45.613  28.555  34.492  1.00  0.00     0.134 A 
ATOM     78  F   UNL A   1      43.170  25.965  35.217  1.00  0.00    -0.206 F 
ATOM     79  C   UNL A   1      45.319  26.307  36.100  1.00  0.00     0.040 A 
ATOM     80  C   UNL A   1      46.650  28.167  35.343  1.00  0.00     0.040 A 
ATOM     81  F   UNL A   1      45.792  29.649  33.737  1.00  0.00    -0.206 F 
ATOM     82  C   UNL A   1      46.501  27.044  36.153  1.00  0.00     0.006 A 
ENDBRANCH  58  75
ENDBRANCH  32  33
ENDBRANCH  25  27
ENDBRANCH  24  25
ENDBRANCH  23  24
ENDBRANCH   1  23
TORSDOF 16
ENDMDL
MODEL 2
REMARK VINA RESULT:     -10.6      4.052      7.702
REMARK SMILES CC[C@H](C)CN(CC)c1nc(C(=O)OCCOC(=O)c2ccc(-c3c4nc(c(-c5c(F)cccc5F)c5ccc([nH]5)c(-c5c(F)cccc5F)c5nc(c(-c6c(F)cccc6F)c6ccc3[nH]6)C=C5)C=C4)cc2)cc2ccccc12
REMARK SMILES IDX 15 1 14 2 12 3 13 4 11 5 9 6 10 7 80 8 75 9 79 10 74 11
REMARK SMILES IDX 76 12 78 13 77 14 6 15 5 16 3 17 4 18 2 19 1 20 7 21 8 22
REMARK SMILES IDX 16 23 17 24 18 25 19 26 20 27 21 28 73 29 22 30 72 31 23 32
REMARK SMILES IDX 24 33 25 34 66 35 26 36 71 37 65 38 67 39 27 40 70 41 64 42
REMARK SMILES IDX 63 43 28 45 54 46 37 47 53 48 38 49 41 50 52 51 68 52 39 53
REMARK SMILES IDX 40 54 51 56 69 57 42 58 29 59 30 60 35 61 31 62 32 63 34 64
REMARK SMILES IDX 36 65 33 66 55 67 56 68 61 69 57 70 58 71 60 72 62 73 59 74
REMARK SMILES IDX 43 75 44 76 49 77 45 78 46 79 48 80 50 81 47 82
REMARK H PARENT 67 44 41 55
REMARK Flexibility Score: inf
ROOT
ATOM      1  C   UNL A   1      32.580  30.042  26.890  1.00  0.00     0.275 C 
ENDROOT
BRANCH   1   2
ATOM      2  O   UNL A   1      33.344  28.818  26.866  1.00  0.00    -0.457 OA
BRANCH   2   3
ATOM      3  C   UNL A   1      32.593  27.689  26.838  1.00  0.00     0.357 C 
ATOM      4  O   UNL A   1      31.601  27.470  27.524  1.00  0.00    -0.244 OA
BRANCH   3   5
ATOM      5  C   UNL A   1      33.049  26.710  25.817  1.00  0.00     0.151 A 
ATOM      6  C   UNL A   1      33.487  24.515  25.256  1.00  0.00     0.137 A 
ATOM      7  N   UNL A   1      33.369  25.462  26.216  1.00  0.00    -0.223 NA
ATOM      8  C   UNL A   1      33.205  24.782  23.885  1.00  0.00     0.024 A 
ATOM      9  C   UNL A   1      33.060  26.125  23.501  1.00  0.00    -0.012 A 
ATOM     10  C   UNL A   1      33.075  23.806  22.869  1.00  0.00     0.012 A 
ATOM     11  C   UNL A   1      32.968  27.091  24.489  1.00  0.00     0.045 A 
ATOM     12  C   UNL A   1      32.980  26.484  22.147  1.00  0.00     0.009 A 
ATOM     13  C   UNL A   1      32.946  24.163  21.523  1.00  0.00     0.001 A 
ATOM     14  C   UNL A   1      32.943  25.504  21.160  1.00  0.00     0.001 A 
BRANCH   6  15
ATOM     15  N   UNL A   1      34.015  23.269  25.631  1.00  0.00    -0.356 N 
BRANCH  15  16
ATOM     16  C   UNL A   1      35.326  23.341  26.321  1.00  0.00     0.121 C 
BRANCH  16  17
ATOM     17  C   UNL A   1      36.531  23.564  25.374  1.00  0.00     0.005 C 
ATOM     18  C   UNL A   1      37.870  23.739  26.116  1.00  0.00     0.009 C 
BRANCH  17  19
ATOM     19  C   UNL A   1      36.667  22.439  24.326  1.00  0.00     0.002 C 
ATOM     20  C   UNL A   1      36.573  22.903  22.877  1.00  0.00     0.004 C 
ENDBRANCH  17  19
ENDBRANCH  16  17
ENDBRANCH  15  16
BRANCH  15  21
ATOM     21  C   UNL A   1      33.039  22.303  26.156  1.00  0.00     0.114 C 
ATOM     22  C   UNL A   1      33.512  20.852  26.163  1.00  0.00     0.027 C 
ENDBRANCH  15  21
ENDBRANCH   6  15
ENDBRANCH   3   5
ENDBRANCH   2   3
ENDBRANCH   1   2
BRANCH   1  23
ATOM     23  C   UNL A   1      33.336  31.164  27.606  1.00  0.00     0.275 C 
BRANCH  23  24
ATOM     24  O   UNL A   1      34.759  30.949  27.526  1.00  0.00    -0.458 OA
BRANCH  24  25
ATOM     25  C   UNL A   1      35.427  30.972  28.698  1.00  0.00     0.338 C 
ATOM     26  O   UNL A   1      35.081  31.526  29.739  1.00  0.00    -0.246 OA
BRANCH  25  27
ATOM     27  C   UNL A   1      36.673  30.188  28.614  1.00  0.00     0.060 A 
ATOM     28  C   UNL A   1      37.256  29.691  29.774  1.00  0.00     0.016 A 
ATOM     29  C   UNL A   1      37.361  30.090  27.406  1.00  0.00     0.016 A 
ATOM     30  C   UNL A   1      38.582  29.255  29.763  1.00  0.00     0.010 A 
ATOM     31  C   UNL A   1      38.636  29.508  27.374  1.00  0.00     0.010 A 
ATOM     32  C   UNL A   1      39.292  29.133  28.561  1.00  0.00    -0.014 A 
BRANCH  32  33
ATOM     33  C   UNL A   1      40.710  28.652  28.546  1.00  0.00     0.031 A 
ATOM     34  C   UNL A   1      41.845  29.592  28.883  1.00  0.00     0.074 A 
ATOM     35  C   UNL A   1      41.006  27.368  28.248  1.00  0.00     0.049 A 
ATOM     36  N   UNL A   1      43.134  29.435  28.704  1.00  0.00    -0.248 NA
ATOM     37  C   UNL A   1      41.483  30.886  29.484  1.00  0.00     0.031 C 
ATOM     38  C   UNL A   1      40.034  26.317  27.943  1.00  0.00     0.029 A 
ATOM     39  N   UNL A   1      42.218  26.723  28.164  1.00  0.00    -0.354 N 
ATOM     40  C   UNL A   1      43.723  30.635  29.089  1.00  0.00     0.074 A 
ATOM     41  C   UNL A   1      42.654  31.507  29.525  1.00  0.00     0.031 C 
ATOM     42  C   UNL A   1      40.676  25.152  27.776  1.00  0.00     0.029 A 
ATOM     43  C   UNL A   1      42.112  25.392  27.836  1.00  0.00     0.049 A 
ATOM     44  H   UNL A   1      43.079  27.172  28.324  1.00  0.00     0.167 HD
ATOM     45  C   UNL A   1      45.034  30.980  29.076  1.00  0.00     0.037 A 
ATOM     46  C   UNL A   1      43.052  24.470  27.555  1.00  0.00     0.037 A 
ATOM     47  C   UNL A   1      46.108  30.087  28.723  1.00  0.00     0.049 A 
ATOM     48  C   UNL A   1      44.496  24.875  27.533  1.00  0.00     0.074 A 
ATOM     49  C   UNL A   1      47.470  30.340  28.696  1.00  0.00     0.029 A 
ATOM     50  N   UNL A   1      45.945  28.758  28.364  1.00  0.00    -0.354 N 
ATOM     51  N   UNL A   1      45.030  26.041  27.804  1.00  0.00    -0.248 NA
ATOM     52  C   UNL A   1      45.466  23.847  27.129  1.00  0.00     0.031 C 
ATOM     53  C   UNL A   1      48.128  29.173  28.295  1.00  0.00     0.029 A 
ATOM     54  C   UNL A   1      47.178  28.182  28.106  1.00  0.00     0.049 A 
ATOM     55  H   UNL A   1      45.080  28.293  28.299  1.00  0.00     0.167 HD
ATOM     56  C   UNL A   1      46.394  25.888  27.603  1.00  0.00     0.074 A 
ATOM     57  C   UNL A   1      46.610  24.509  27.213  1.00  0.00     0.031 C 
ATOM     58  C   UNL A   1      47.379  26.811  27.719  1.00  0.00     0.037 A 
BRANCH  45  59
ATOM     59  C   UNL A   1      45.386  32.397  29.422  1.00  0.00     0.057 A 
ATOM     60  C   UNL A   1      45.390  33.424  28.470  1.00  0.00     0.134 A 
ATOM     61  C   UNL A   1      45.684  32.745  30.747  1.00  0.00     0.134 A 
ATOM     62  F   UNL A   1      45.125  33.156  27.183  1.00  0.00    -0.206 F 
ATOM     63  C   UNL A   1      45.696  34.742  28.818  1.00  0.00     0.040 A 
ATOM     64  C   UNL A   1      45.969  34.062  31.113  1.00  0.00     0.040 A 
ATOM     65  F   UNL A   1      45.689  31.813  31.712  1.00  0.00    -0.206 F 
ATOM     66  C   UNL A   1      45.980  35.064  30.145  1.00  0.00     0.006 A 
ENDBRANCH  45  59
BRANCH  46  67
ATOM     67  C   UNL A   1      42.647  23.084  27.209  1.00  0.00     0.057 A 
ATOM     68  C   UNL A   1      42.686  22.630  25.886  1.00  0.00     0.134 A 
ATOM     69  C   UNL A   1      42.230  22.177  28.191  1.00  0.00     0.134 A 
ATOM     70  F   UNL A   1      43.050  23.461  24.898  1.00  0.00    -0.206 F 
ATOM     71  C   UNL A   1      42.327  21.323  25.553  1.00  0.00     0.040 A 
ATOM     72  C   UNL A   1      41.897  20.860  27.876  1.00  0.00     0.040 A 
ATOM     73  F   UNL A   1      42.172  22.552  29.477  1.00  0.00    -0.206 F 
ATOM     74  C   UNL A   1      41.941  20.431  26.552  1.00  0.00     0.006 A 
ENDBRANCH  46  67
BRANCH  58  75
ATOM     75  C   UNL A   1      48.775  26.350  27.438  1.00  0.00     0.057 A 
ATOM     76  C   UNL A   1      49.349  26.475  26.166  1.00  0.00     0.134 A 
ATOM     77  C   UNL A   1      49.561  25.789  28.453  1.00  0.00     0.134 A 
ATOM     78  F   UNL A   1      48.641  26.990  25.150  1.00  0.00    -0.206 F 
ATOM     79  C   UNL A   1      50.649  26.039  25.909  1.00  0.00     0.040 A 
ATOM     80  C   UNL A   1      50.869  25.368  28.212  1.00  0.00     0.040 A 
ATOM     81  F   UNL A   1      49.069  25.646  29.693  1.00  0.00    -0.206 F 
ATOM     82  C   UNL A   1      51.414  25.488  26.935  1.00  0.00     0.006 A 
ENDBRANCH  58  75
ENDBRANCH  32  33
ENDBRANCH  25  27
ENDBRANCH  24  25
ENDBRANCH  23  24
ENDBRANCH   1  23
TORSDOF 16
ENDMDL
MODEL 3
REMARK VINA RESULT:     -10.4      2.215      7.359
REMARK SMILES CC[C@H](C)CN(CC)c1nc(C(=O)OCCOC(=O)c2ccc(-c3c4nc(c(-c5c(F)cccc5F)c5ccc([nH]5)c(-c5c(F)cccc5F)c5nc(c(-c6c(F)cccc6F)c6ccc3[nH]6)C=C5)C=C4)cc2)cc2ccccc12
REMARK SMILES IDX 15 1 14 2 12 3 13 4 11 5 9 6 10 7 80 8 75 9 79 10 74 11
REMARK SMILES IDX 76 12 78 13 77 14 6 15 5 16 3 17 4 18 2 19 1 20 7 21 8 22
REMARK SMILES IDX 16 23 17 24 18 25 19 26 20 27 21 28 73 29 22 30 72 31 23 32
REMARK SMILES IDX 24 33 25 34 66 35 26 36 71 37 65 38 67 39 27 40 70 41 64 42
REMARK SMILES IDX 63 43 28 45 54 46 37 47 53 48 38 49 41 50 52 51 68 52 39 53
REMARK SMILES IDX 40 54 51 56 69 57 42 58 29 59 30 60 35 61 31 62 32 63 34 64
REMARK SMILES IDX 36 65 33 66 55 67 56 68 61 69 57 70 58 71 60 72 62 73 59 74
REMARK SMILES IDX 43 75 44 76 49 77 45 78 46 79 48 80 50 81 47 82
REMARK H PARENT 67 44 41 55
REMARK Flexibility Score: inf
ROOT
ATOM      1  C   UNL A   1      33.598  32.206  27.649  1.00  0.00     0.275 C 
ENDROOT
BRANCH   1   2
ATOM      2  O   UNL A   1      32.829  31.015  27.378  1.00  0.00    -0.457 OA
BRANCH   2   3
ATOM      3  C   UNL A   1      33.570  29.938  27.018  1.00  0.00     0.357 C 
ATOM      4  O   UNL A   1      34.673  29.645  27.465  1.00  0.00    -0.244 OA
BRANCH   3   5
ATOM      5  C   UNL A   1      32.882  29.059  26.037  1.00  0.00     0.151 A 
ATOM      6  C   UNL A   1      32.255  26.929  25.407  1.00  0.00     0.137 A 
ATOM      7  N   UNL A   1      33.105  27.730  26.093  1.00  0.00    -0.223 NA
ATOM      8  C   UNL A   1      31.116  27.440  24.720  1.00  0.00     0.024 A 
ATOM      9  C   UNL A   1      31.035  28.830  24.539  1.00  0.00    -0.012 A 
ATOM     10  C   UNL A   1      30.063  26.660  24.186  1.00  0.00     0.012 A 
ATOM     11  C   UNL A   1      31.926  29.641  25.222  1.00  0.00     0.045 A 
ATOM     12  C   UNL A   1      30.056  29.393  23.706  1.00  0.00     0.009 A 
ATOM     13  C   UNL A   1      29.058  27.229  23.397  1.00  0.00     0.001 A 
ATOM     14  C   UNL A   1      29.082  28.591  23.122  1.00  0.00     0.001 A 
BRANCH   6  15
ATOM     15  N   UNL A   1      32.593  25.571  25.288  1.00  0.00    -0.356 N 
BRANCH  15  16
ATOM     16  C   UNL A   1      33.848  25.314  24.541  1.00  0.00     0.121 C 
BRANCH  16  17
ATOM     17  C   UNL A   1      33.633  24.878  23.071  1.00  0.00     0.005 C 
ATOM     18  C   UNL A   1      32.515  23.834  22.898  1.00  0.00     0.009 C 
BRANCH  17  19
ATOM     19  C   UNL A   1      33.365  26.079  22.138  1.00  0.00     0.002 C 
ATOM     20  C   UNL A   1      32.120  25.945  21.269  1.00  0.00     0.004 C 
ENDBRANCH  17  19
ENDBRANCH  16  17
ENDBRANCH  15  16
BRANCH  15  21
ATOM     21  C   UNL A   1      32.354  24.756  26.488  1.00  0.00     0.114 C 
ATOM     22  C   UNL A   1      31.070  23.932  26.460  1.00  0.00     0.027 C 
ENDBRANCH  15  21
ENDBRANCH   6  15
ENDBRANCH   3   5
ENDBRANCH   2   3
ENDBRANCH   1   2
BRANCH   1  23
ATOM     23  C   UNL A   1      32.835  33.473  27.256  1.00  0.00     0.275 C 
BRANCH  23  24
ATOM     24  O   UNL A   1      32.383  34.178  28.429  1.00  0.00    -0.458 OA
BRANCH  24  25
ATOM     25  C   UNL A   1      33.202  35.146  28.889  1.00  0.00     0.338 C 
ATOM     26  O   UNL A   1      33.071  36.360  28.745  1.00  0.00    -0.246 OA
BRANCH  25  27
ATOM     27  C   UNL A   1      34.319  34.574  29.663  1.00  0.00     0.060 A 
ATOM     28  C   UNL A   1      35.613  34.635  29.159  1.00  0.00     0.016 A 
ATOM     29  C   UNL A   1      34.065  33.822  30.809  1.00  0.00     0.016 A 
ATOM     30  C   UNL A   1      36.612  33.818  29.688  1.00  0.00     0.010 A 
ATOM     31  C   UNL A   1      35.110  33.124  31.431  1.00  0.00     0.010 A 
ATOM     32  C   UNL A   1      36.389  33.064  30.849  1.00  0.00    -0.014 A 
BRANCH  32  33
ATOM     33  C   UNL A   1      37.466  32.198  31.426  1.00  0.00     0.031 A 
ATOM     34  C   UNL A   1      37.919  32.383  32.857  1.00  0.00     0.074 A 
ATOM     35  C   UNL A   1      38.045  31.225  30.689  1.00  0.00     0.049 A 
ATOM     36  N   UNL A   1      38.977  31.901  33.461  1.00  0.00    -0.248 NA
ATOM     37  C   UNL A   1      37.082  33.236  33.716  1.00  0.00     0.031 C 
ATOM     38  C   UNL A   1      37.700  30.879  29.309  1.00  0.00     0.029 A 
ATOM     39  N   UNL A   1      39.045  30.335  31.006  1.00  0.00    -0.354 N 
ATOM     40  C   UNL A   1      38.977  32.458  34.736  1.00  0.00     0.074 A 
ATOM     41  C   UNL A   1      37.806  33.303  34.825  1.00  0.00     0.031 C 
ATOM     42  C   UNL A   1      38.419  29.816  28.924  1.00  0.00     0.029 A 
ATOM     43  C   UNL A   1      39.366  29.479  29.980  1.00  0.00     0.049 A 
ATOM     44  H   UNL A   1      39.489  30.313  31.884  1.00  0.00     0.167 HD
ATOM     45  C   UNL A   1      39.872  32.284  35.738  1.00  0.00     0.037 A 
ATOM     46  C   UNL A   1      40.344  28.561  29.863  1.00  0.00     0.037 A 
ATOM     47  C   UNL A   1      40.992  31.379  35.684  1.00  0.00     0.049 A 
ATOM     48  C   UNL A   1      41.333  28.394  30.977  1.00  0.00     0.074 A 
ATOM     49  C   UNL A   1      41.945  31.123  36.656  1.00  0.00     0.029 A 
ATOM     50  N   UNL A   1      41.294  30.560  34.607  1.00  0.00    -0.354 N 
ATOM     51  N   UNL A   1      41.376  28.999  32.139  1.00  0.00    -0.248 NA
ATOM     52  C   UNL A   1      42.431  27.443  30.751  1.00  0.00     0.031 C 
ATOM     53  C   UNL A   1      42.838  30.168  36.158  1.00  0.00     0.029 A 
ATOM     54  C   UNL A   1      42.420  29.804  34.887  1.00  0.00     0.049 A 
ATOM     55  H   UNL A   1      40.783  30.523  33.766  1.00  0.00     0.167 HD
ATOM     56  C   UNL A   1      42.503  28.506  32.781  1.00  0.00     0.074 A 
ATOM     57  C   UNL A   1      43.101  27.531  31.891  1.00  0.00     0.031 C 
ATOM     58  C   UNL A   1      43.005  28.840  33.994  1.00  0.00     0.037 A 
BRANCH  45  59
ATOM     59  C   UNL A   1      39.703  33.115  36.977  1.00  0.00     0.057 A 
ATOM     60  C   UNL A   1      40.402  34.311  37.181  1.00  0.00     0.134 A 
ATOM     61  C   UNL A   1      38.786  32.728  37.965  1.00  0.00     0.134 A 
ATOM     62  F   UNL A   1      41.303  34.732  36.280  1.00  0.00    -0.206 F 
ATOM     63  C   UNL A   1      40.211  35.082  38.329  1.00  0.00     0.040 A 
ATOM     64  C   UNL A   1      38.568  33.502  39.106  1.00  0.00     0.040 A 
ATOM     65  F   UNL A   1      38.075  31.598  37.829  1.00  0.00    -0.206 F 
ATOM     66  C   UNL A   1      39.286  34.680  39.293  1.00  0.00     0.006 A 
ENDBRANCH  45  59
BRANCH  46  67
ATOM     67  C   UNL A   1      40.472  27.774  28.610  1.00  0.00     0.057 A 
ATOM     68  C   UNL A   1      41.256  28.233  27.546  1.00  0.00     0.134 A 
ATOM     69  C   UNL A   1      39.832  26.538  28.454  1.00  0.00     0.134 A 
ATOM     70  F   UNL A   1      41.872  29.422  27.625  1.00  0.00    -0.206 F 
ATOM     71  C   UNL A   1      41.399  27.491  26.372  1.00  0.00     0.040 A 
ATOM     72  C   UNL A   1      39.989  25.773  27.299  1.00  0.00     0.040 A 
ATOM     73  F   UNL A   1      39.066  26.044  29.438  1.00  0.00    -0.206 F 
ATOM     74  C   UNL A   1      40.773  26.252  26.252  1.00  0.00     0.006 A 
ENDBRANCH  46  67
BRANCH  58  75
ATOM     75  C   UNL A   1      44.249  28.130  34.431  1.00  0.00     0.057 A 
ATOM     76  C   UNL A   1      45.521  28.663  34.190  1.00  0.00     0.134 A 
ATOM     77  C   UNL A   1      44.173  26.909  35.113  1.00  0.00     0.134 A 
ATOM     78  F   UNL A   1      45.659  29.821  33.527  1.00  0.00    -0.206 F 
ATOM     79  C   UNL A   1      46.678  27.995  34.595  1.00  0.00     0.040 A 
ATOM     80  C   UNL A   1      45.322  26.242  35.540  1.00  0.00     0.040 A 
ATOM     81  F   UNL A   1      42.983  26.350  35.377  1.00  0.00    -0.206 F 
ATOM     82  C   UNL A   1      46.579  26.783  35.276  1.00  0.00     0.006 A 
ENDBRANCH  58  75
ENDBRANCH  32  33
ENDBRANCH  25  27
ENDBRANCH  24  25
ENDBRANCH  23  24
ENDBRANCH   1  23
TORSDOF 16
ENDMDL
