MODEL 1
REMARK VINA RESULT:     -11.6      0.000      0.000
REMARK SMILES CC(=O)c1ccccc1S(=O)(=O)N1CCC(C(=O)OCCOC(=O)c2ccc(-c3c4nc(c(-c5c(F)cccc5F)c5ccc([nH]5)c(-c5c(F)cccc5F)c5nc(c(-c6c(F)cccc6F)c6ccc3[nH]6)C=C5)C=C4)cc2)CC1
REMARK SMILES IDX 20 1 19 2 17 3 18 4 16 5 13 6 14 7 80 8 15 9 79 10 10 11
REMARK SMILES IDX 11 12 12 13 9 14 4 15 5 16 6 17 8 18 7 19 2 20 1 21 3 22
REMARK SMILES IDX 21 23 22 24 23 25 24 26 25 27 26 28 78 29 27 30 77 31 28 32
REMARK SMILES IDX 29 33 30 34 71 35 31 36 76 37 70 38 72 39 32 40 75 41 69 42
REMARK SMILES IDX 68 43 33 45 59 46 42 47 58 48 43 49 46 50 57 51 73 52 44 53
REMARK SMILES IDX 45 54 56 56 74 57 47 58 34 59 35 60 40 61 36 62 37 63 39 64
REMARK SMILES IDX 41 65 38 66 60 67 61 68 66 69 62 70 63 71 65 72 67 73 64 74
REMARK SMILES IDX 48 75 49 76 54 77 50 78 51 79 53 80 55 81 52 82
REMARK H PARENT 72 44 46 55
REMARK Flexibility Score: inf
ROOT
ATOM      1  C   UNL A   1      35.079  21.128  25.004  1.00  0.00     0.274 C 
ENDROOT
BRANCH   1   2
ATOM      2  O   UNL A   1      34.132  20.273  24.336  1.00  0.00    -0.462 OA
BRANCH   2   3
ATOM      3  C   UNL A   1      32.850  20.335  24.776  1.00  0.00     0.309 C 
ATOM      4  O   UNL A   1      32.153  19.357  25.025  1.00  0.00    -0.252 OA
BRANCH   3   5
ATOM      5  C   UNL A   1      32.341  21.755  24.936  1.00  0.00     0.102 C 
ATOM      6  N   UNL A   1      31.236  24.232  25.259  1.00  0.00    -0.198 NA
ATOM      7  C   UNL A   1      30.984  23.659  23.910  1.00  0.00     0.103 C 
ATOM      8  C   UNL A   1      30.935  23.273  26.374  1.00  0.00     0.103 C 
ATOM      9  C   UNL A   1      31.856  22.430  23.653  1.00  0.00     0.032 C 
ATOM     10  C   UNL A   1      31.257  21.824  26.000  1.00  0.00     0.032 C 
BRANCH   6  11
ATOM     11  S   UNL A   1      30.609  25.807  25.478  1.00  0.00     0.243 S 
ATOM     12  O   UNL A   1      29.567  25.734  26.482  1.00  0.00    -0.207 OA
ATOM     13  O   UNL A   1      30.335  26.361  24.169  1.00  0.00    -0.207 OA
BRANCH  11  14
ATOM     14  C   UNL A   1      31.870  26.859  26.142  1.00  0.00     0.093 A 
ATOM     15  C   UNL A   1      33.213  26.871  25.778  1.00  0.00     0.037 A 
ATOM     16  C   UNL A   1      34.085  27.817  26.346  1.00  0.00     0.013 A 
ATOM     17  C   UNL A   1      33.611  28.771  27.246  1.00  0.00     0.001 A 
ATOM     18  C   UNL A   1      31.404  27.824  27.057  1.00  0.00     0.022 A 
ATOM     19  C   UNL A   1      32.266  28.779  27.599  1.00  0.00     0.001 A 
BRANCH  15  20
ATOM     20  C   UNL A   1      33.828  25.994  24.775  1.00  0.00     0.161 C 
ATOM     21  C   UNL A   1      34.635  24.833  25.287  1.00  0.00     0.093 C 
ATOM     22  O   UNL A   1      33.585  26.174  23.587  1.00  0.00    -0.294 OA
ENDBRANCH  15  20
ENDBRANCH  11  14
ENDBRANCH   6  11
ENDBRANCH   3   5
ENDBRANCH   2   3
ENDBRANCH   1   2
BRANCH   1  23
ATOM     23  C   UNL A   1      36.481  20.510  25.002  1.00  0.00     0.275 C 
BRANCH  23  24
ATOM     24  O   UNL A   1      37.515  21.511  25.071  1.00  0.00    -0.458 OA
BRANCH  24  25
ATOM     25  C   UNL A   1      38.626  21.145  25.751  1.00  0.00     0.338 C 
ATOM     26  O   UNL A   1      39.109  20.029  25.837  1.00  0.00    -0.246 OA
BRANCH  25  27
ATOM     27  C   UNL A   1      39.262  22.325  26.350  1.00  0.00     0.060 A 
ATOM     28  C   UNL A   1      38.717  23.584  26.085  1.00  0.00     0.016 A 
ATOM     29  C   UNL A   1      40.456  22.205  27.062  1.00  0.00     0.016 A 
ATOM     30  C   UNL A   1      39.385  24.735  26.500  1.00  0.00     0.010 A 
ATOM     31  C   UNL A   1      41.110  23.361  27.500  1.00  0.00     0.010 A 
ATOM     32  C   UNL A   1      40.592  24.635  27.204  1.00  0.00    -0.014 A 
BRANCH  32  33
ATOM     33  C   UNL A   1      41.328  25.859  27.609  1.00  0.00     0.031 A 
ATOM     34  C   UNL A   1      40.634  26.932  28.402  1.00  0.00     0.074 A 
ATOM     35  C   UNL A   1      42.618  26.014  27.255  1.00  0.00     0.049 A 
ATOM     36  N   UNL A   1      41.060  28.123  28.736  1.00  0.00    -0.248 NA
ATOM     37  C   UNL A   1      39.277  26.623  28.879  1.00  0.00     0.031 C 
ATOM     38  C   UNL A   1      43.414  25.034  26.517  1.00  0.00     0.029 A 
ATOM     39  N   UNL A   1      43.479  27.063  27.456  1.00  0.00    -0.354 N 
ATOM     40  C   UNL A   1      40.022  28.714  29.445  1.00  0.00     0.074 A 
ATOM     41  C   UNL A   1      38.934  27.758  29.472  1.00  0.00     0.031 C 
ATOM     42  C   UNL A   1      44.644  25.533  26.316  1.00  0.00     0.029 A 
ATOM     43  C   UNL A   1      44.705  26.885  26.863  1.00  0.00     0.049 A 
ATOM     44  H   UNL A   1      43.242  27.866  27.975  1.00  0.00     0.167 HD
ATOM     45  C   UNL A   1      39.983  29.937  30.027  1.00  0.00     0.037 A 
ATOM     46  C   UNL A   1      45.746  27.730  26.737  1.00  0.00     0.037 A 
ATOM     47  C   UNL A   1      41.070  30.883  30.003  1.00  0.00     0.049 A 
ATOM     48  C   UNL A   1      45.656  29.105  27.335  1.00  0.00     0.074 A 
ATOM     49  C   UNL A   1      41.128  32.147  30.564  1.00  0.00     0.029 A 
ATOM     50  N   UNL A   1      42.293  30.666  29.385  1.00  0.00    -0.354 N 
ATOM     51  N   UNL A   1      44.667  29.656  27.999  1.00  0.00    -0.248 NA
ATOM     52  C   UNL A   1      46.823  29.981  27.164  1.00  0.00     0.031 C 
ATOM     53  C   UNL A   1      42.369  32.711  30.251  1.00  0.00     0.029 A 
ATOM     54  C   UNL A   1      43.105  31.779  29.538  1.00  0.00     0.049 A 
ATOM     55  H   UNL A   1      42.546  29.843  28.907  1.00  0.00     0.167 HD
ATOM     56  C   UNL A   1      45.104  30.927  28.347  1.00  0.00     0.074 A 
ATOM     57  C   UNL A   1      46.451  31.062  27.834  1.00  0.00     0.031 C 
ATOM     58  C   UNL A   1      44.447  31.895  29.031  1.00  0.00     0.037 A 
BRANCH  45  59
ATOM     59  C   UNL A   1      38.716  30.334  30.727  1.00  0.00     0.057 A 
ATOM     60  C   UNL A   1      38.501  30.055  32.083  1.00  0.00     0.134 A 
ATOM     61  C   UNL A   1      37.717  31.045  30.049  1.00  0.00     0.134 A 
ATOM     62  F   UNL A   1      39.413  29.368  32.788  1.00  0.00    -0.206 F 
ATOM     63  C   UNL A   1      37.331  30.451  32.734  1.00  0.00     0.040 A 
ATOM     64  C   UNL A   1      36.554  31.468  30.695  1.00  0.00     0.040 A 
ATOM     65  F   UNL A   1      37.861  31.353  28.751  1.00  0.00    -0.206 F 
ATOM     66  C   UNL A   1      36.356  31.166  32.041  1.00  0.00     0.006 A 
ENDBRANCH  45  59
BRANCH  46  67
ATOM     67  C   UNL A   1      46.953  27.308  25.982  1.00  0.00     0.057 A 
ATOM     68  C   UNL A   1      47.045  27.490  24.597  1.00  0.00     0.134 A 
ATOM     69  C   UNL A   1      48.037  26.700  26.626  1.00  0.00     0.134 A 
ATOM     70  F   UNL A   1      46.029  28.045  23.920  1.00  0.00    -0.206 F 
ATOM     71  C   UNL A   1      48.164  27.067  23.879  1.00  0.00     0.040 A 
ATOM     72  C   UNL A   1      49.174  26.298  25.925  1.00  0.00     0.040 A 
ATOM     73  F   UNL A   1      48.011  26.500  27.952  1.00  0.00    -0.206 F 
ATOM     74  C   UNL A   1      49.236  26.473  24.545  1.00  0.00     0.006 A 
ENDBRANCH  46  67
BRANCH  58  75
ATOM     75  C   UNL A   1      45.192  33.170  29.303  1.00  0.00     0.057 A 
ATOM     76  C   UNL A   1      46.001  33.329  30.435  1.00  0.00     0.134 A 
ATOM     77  C   UNL A   1      45.126  34.239  28.400  1.00  0.00     0.134 A 
ATOM     78  F   UNL A   1      46.096  32.349  31.346  1.00  0.00    -0.206 F 
ATOM     79  C   UNL A   1      46.700  34.513  30.670  1.00  0.00     0.040 A 
ATOM     80  C   UNL A   1      45.842  35.418  28.610  1.00  0.00     0.040 A 
ATOM     81  F   UNL A   1      44.375  34.149  27.291  1.00  0.00    -0.206 F 
ATOM     82  C   UNL A   1      46.628  35.560  29.752  1.00  0.00     0.006 A 
ENDBRANCH  58  75
ENDBRANCH  32  33
ENDBRANCH  25  27
ENDBRANCH  24  25
ENDBRANCH  23  24
ENDBRANCH   1  23
TORSDOF 14
ENDMDL
MODEL 2
REMARK VINA RESULT:     -11.5      3.941      7.852
REMARK SMILES CC(=O)c1ccccc1S(=O)(=O)N1CCC(C(=O)OCCOC(=O)c2ccc(-c3c4nc(c(-c5c(F)cccc5F)c5ccc([nH]5)c(-c5c(F)cccc5F)c5nc(c(-c6c(F)cccc6F)c6ccc3[nH]6)C=C5)C=C4)cc2)CC1
REMARK SMILES IDX 20 1 19 2 17 3 18 4 16 5 13 6 14 7 80 8 15 9 79 10 10 11
REMARK SMILES IDX 11 12 12 13 9 14 4 15 5 16 6 17 8 18 7 19 2 20 1 21 3 22
REMARK SMILES IDX 21 23 22 24 23 25 24 26 25 27 26 28 78 29 27 30 77 31 28 32
REMARK SMILES IDX 29 33 30 34 71 35 31 36 76 37 70 38 72 39 32 40 75 41 69 42
REMARK SMILES IDX 68 43 33 45 59 46 42 47 58 48 43 49 46 50 57 51 73 52 44 53
REMARK SMILES IDX 45 54 56 56 74 57 47 58 34 59 35 60 40 61 36 62 37 63 39 64
REMARK SMILES IDX 41 65 38 66 60 67 61 68 66 69 62 70 63 71 65 72 67 73 64 74
REMARK SMILES IDX 48 75 49 76 54 77 50 78 51 79 53 80 55 81 52 82
REMARK H PARENT 72 44 46 55
REMARK Flexibility Score: inf
ROOT
ATOM      1  C   UNL A   1      42.189  20.694  26.123  1.00  0.00     0.274 C 
ENDROOT
BRANCH   1   2
ATOM      2  O   UNL A   1      41.053  21.360  25.538  1.00  0.00    -0.462 OA
BRANCH   2   3
ATOM      3  C   UNL A   1      40.018  21.628  26.372  1.00  0.00     0.309 C 
ATOM      4  O   UNL A   1      40.098  21.650  27.596  1.00  0.00    -0.252 OA
BRANCH   3   5
ATOM      5  C   UNL A   1      38.718  21.907  25.642  1.00  0.00     0.102 C 
ATOM      6  N   UNL A   1      36.301  22.476  24.505  1.00  0.00    -0.198 NA
ATOM      7  C   UNL A   1      36.297  21.194  25.256  1.00  0.00     0.103 C 
ATOM      8  C   UNL A   1      36.900  23.614  25.281  1.00  0.00     0.103 C 
ATOM      9  C   UNL A   1      37.716  20.753  25.617  1.00  0.00     0.032 C 
ATOM     10  C   UNL A   1      38.051  23.162  26.183  1.00  0.00     0.032 C 
BRANCH   6  11
ATOM     11  S   UNL A   1      34.821  22.838  23.731  1.00  0.00     0.243 S 
ATOM     12  O   UNL A   1      33.953  21.686  23.872  1.00  0.00    -0.207 OA
ATOM     13  O   UNL A   1      35.125  23.375  22.421  1.00  0.00    -0.207 OA
BRANCH  11  14
ATOM     14  C   UNL A   1      34.021  24.174  24.575  1.00  0.00     0.093 A 
ATOM     15  C   UNL A   1      33.364  24.103  25.799  1.00  0.00     0.037 A 
ATOM     16  C   UNL A   1      32.835  25.270  26.381  1.00  0.00     0.013 A 
ATOM     17  C   UNL A   1      32.996  26.509  25.760  1.00  0.00     0.001 A 
ATOM     18  C   UNL A   1      34.171  25.431  23.955  1.00  0.00     0.022 A 
ATOM     19  C   UNL A   1      33.670  26.591  24.547  1.00  0.00     0.001 A 
BRANCH  15  20
ATOM     20  C   UNL A   1      33.207  22.889  26.609  1.00  0.00     0.161 C 
ATOM     21  C   UNL A   1      34.156  22.711  27.761  1.00  0.00     0.093 C 
ATOM     22  O   UNL A   1      32.268  22.133  26.386  1.00  0.00    -0.294 OA
ENDBRANCH  15  20
ENDBRANCH  11  14
ENDBRANCH   6  11
ENDBRANCH   3   5
ENDBRANCH   2   3
ENDBRANCH   1   2
BRANCH   1  23
ATOM     23  C   UNL A   1      43.504  21.295  25.618  1.00  0.00     0.275 C 
BRANCH  23  24
ATOM     24  O   UNL A   1      43.852  22.504  26.320  1.00  0.00    -0.458 OA
BRANCH  24  25
ATOM     25  C   UNL A   1      43.607  23.651  25.646  1.00  0.00     0.338 C 
ATOM     26  O   UNL A   1      43.738  23.852  24.451  1.00  0.00    -0.246 OA
BRANCH  25  27
ATOM     27  C   UNL A   1      43.066  24.666  26.559  1.00  0.00     0.060 A 
ATOM     28  C   UNL A   1      43.714  25.900  26.644  1.00  0.00     0.016 A 
ATOM     29  C   UNL A   1      42.006  24.361  27.413  1.00  0.00     0.016 A 
ATOM     30  C   UNL A   1      43.329  26.825  27.613  1.00  0.00     0.010 A 
ATOM     31  C   UNL A   1      41.605  25.302  28.368  1.00  0.00     0.010 A 
ATOM     32  C   UNL A   1      42.277  26.532  28.490  1.00  0.00    -0.014 A 
BRANCH  32  33
ATOM     33  C   UNL A   1      41.893  27.496  29.551  1.00  0.00     0.031 A 
ATOM     34  C   UNL A   1      42.616  27.498  30.870  1.00  0.00     0.074 A 
ATOM     35  C   UNL A   1      40.886  28.364  29.337  1.00  0.00     0.049 A 
ATOM     36  N   UNL A   1      42.347  28.165  31.962  1.00  0.00    -0.248 NA
ATOM     37  C   UNL A   1      43.798  26.628  30.973  1.00  0.00     0.031 C 
ATOM     38  C   UNL A   1      40.128  28.487  28.092  1.00  0.00     0.029 A 
ATOM     39  N   UNL A   1      40.317  29.296  30.169  1.00  0.00    -0.354 N 
ATOM     40  C   UNL A   1      43.311  27.787  32.888  1.00  0.00     0.074 A 
ATOM     41  C   UNL A   1      44.158  26.810  32.236  1.00  0.00     0.031 C 
ATOM     42  C   UNL A   1      39.186  29.431  28.245  1.00  0.00     0.029 A 
ATOM     43  C   UNL A   1      39.239  29.939  29.612  1.00  0.00     0.049 A 
ATOM     44  H   UNL A   1      40.650  29.485  31.076  1.00  0.00     0.167 HD
ATOM     45  C   UNL A   1      43.479  28.220  34.161  1.00  0.00     0.037 A 
ATOM     46  C   UNL A   1      38.366  30.809  30.154  1.00  0.00     0.037 A 
ATOM     47  C   UNL A   1      42.637  29.196  34.805  1.00  0.00     0.049 A 
ATOM     48  C   UNL A   1      38.533  31.226  31.588  1.00  0.00     0.074 A 
ATOM     49  C   UNL A   1      42.726  29.700  36.091  1.00  0.00     0.029 A 
ATOM     50  N   UNL A   1      41.550  29.818  34.208  1.00  0.00    -0.354 N 
ATOM     51  N   UNL A   1      39.446  30.857  32.456  1.00  0.00    -0.248 NA
ATOM     52  C   UNL A   1      37.548  32.177  32.122  1.00  0.00     0.031 C 
ATOM     53  C   UNL A   1      41.670  30.596  36.286  1.00  0.00     0.029 A 
ATOM     54  C   UNL A   1      40.952  30.689  35.105  1.00  0.00     0.049 A 
ATOM     55  H   UNL A   1      41.247  29.663  33.284  1.00  0.00     0.167 HD
ATOM     56  C   UNL A   1      39.161  31.550  33.624  1.00  0.00     0.074 A 
ATOM     57  C   UNL A   1      38.000  32.372  33.352  1.00  0.00     0.031 C 
ATOM     58  C   UNL A   1      39.804  31.509  34.817  1.00  0.00     0.037 A 
BRANCH  45  59
ATOM     59  C   UNL A   1      44.607  27.627  34.954  1.00  0.00     0.057 A 
ATOM     60  C   UNL A   1      45.873  28.224  34.998  1.00  0.00     0.134 A 
ATOM     61  C   UNL A   1      44.413  26.470  35.720  1.00  0.00     0.134 A 
ATOM     62  F   UNL A   1      46.130  29.327  34.279  1.00  0.00    -0.206 F 
ATOM     63  C   UNL A   1      46.911  27.681  35.759  1.00  0.00     0.040 A 
ATOM     64  C   UNL A   1      45.435  25.932  36.504  1.00  0.00     0.040 A 
ATOM     65  F   UNL A   1      43.223  25.851  35.730  1.00  0.00    -0.206 F 
ATOM     66  C   UNL A   1      46.691  26.535  36.521  1.00  0.00     0.006 A 
ENDBRANCH  45  59
BRANCH  46  67
ATOM     67  C   UNL A   1      37.231  31.318  29.343  1.00  0.00     0.057 A 
ATOM     68  C   UNL A   1      37.257  32.598  28.779  1.00  0.00     0.134 A 
ATOM     69  C   UNL A   1      36.086  30.540  29.126  1.00  0.00     0.134 A 
ATOM     70  F   UNL A   1      38.315  33.400  28.971  1.00  0.00    -0.206 F 
ATOM     71  C   UNL A   1      36.179  33.093  28.043  1.00  0.00     0.040 A 
ATOM     72  C   UNL A   1      35.014  31.011  28.369  1.00  0.00     0.040 A 
ATOM     73  F   UNL A   1      36.001  29.304  29.638  1.00  0.00    -0.206 F 
ATOM     74  C   UNL A   1      35.055  32.296  27.831  1.00  0.00     0.006 A 
ENDBRANCH  46  67
BRANCH  58  75
ATOM     75  C   UNL A   1      39.294  32.410  35.904  1.00  0.00     0.057 A 
ATOM     76  C   UNL A   1      38.341  31.981  36.836  1.00  0.00     0.134 A 
ATOM     77  C   UNL A   1      39.792  33.712  36.040  1.00  0.00     0.134 A 
ATOM     78  F   UNL A   1      37.813  30.750  36.752  1.00  0.00    -0.206 F 
ATOM     79  C   UNL A   1      37.885  32.822  37.852  1.00  0.00     0.040 A 
ATOM     80  C   UNL A   1      39.364  34.553  37.068  1.00  0.00     0.040 A 
ATOM     81  F   UNL A   1      40.713  34.183  35.186  1.00  0.00    -0.206 F 
ATOM     82  C   UNL A   1      38.403  34.111  37.975  1.00  0.00     0.006 A 
ENDBRANCH  58  75
ENDBRANCH  32  33
ENDBRANCH  25  27
ENDBRANCH  24  25
ENDBRANCH  23  24
ENDBRANCH   1  23
TORSDOF 14
ENDMDL
MODEL 3
REMARK VINA RESULT:     -11.4      2.194      3.213
REMARK SMILES CC(=O)c1ccccc1S(=O)(=O)N1CCC(C(=O)OCCOC(=O)c2ccc(-c3c4nc(c(-c5c(F)cccc5F)c5ccc([nH]5)c(-c5c(F)cccc5F)c5nc(c(-c6c(F)cccc6F)c6ccc3[nH]6)C=C5)C=C4)cc2)CC1
REMARK SMILES IDX 20 1 19 2 17 3 18 4 16 5 13 6 14 7 80 8 15 9 79 10 10 11
REMARK SMILES IDX 11 12 12 13 9 14 4 15 5 16 6 17 8 18 7 19 2 20 1 21 3 22
REMARK SMILES IDX 21 23 22 24 23 25 24 26 25 27 26 28 78 29 27 30 77 31 28 32
REMARK SMILES IDX 29 33 30 34 71 35 31 36 76 37 70 38 72 39 32 40 75 41 69 42
REMARK SMILES IDX 68 43 33 45 59 46 42 47 58 48 43 49 46 50 57 51 73 52 44 53
REMARK SMILES IDX 45 54 56 56 74 57 47 58 34 59 35 60 40 61 36 62 37 63 39 64
REMARK SMILES IDX 41 65 38 66 60 67 61 68 66 69 62 70 63 71 65 72 67 73 64 74
REMARK SMILES IDX 48 75 49 76 54 77 50 78 51 79 53 80 55 81 52 82
REMARK H PARENT 72 44 46 55
REMARK Flexibility Score: inf
ROOT
ATOM      1  C   UNL A   1      38.706  21.837  26.095  1.00  0.00     0.274 C 
ENDROOT
BRANCH   1   2
ATOM      2  O   UNL A   1      37.481  22.347  25.533  1.00  0.00    -0.462 OA
BRANCH   2   3
ATOM      3  C   UNL A   1      37.170  23.632  25.834  1.00  0.00     0.309 C 
ATOM      4  O   UNL A   1      37.985  24.485  26.167  1.00  0.00    -0.252 OA
BRANCH   3   5
ATOM      5  C   UNL A   1      35.687  23.931  25.719  1.00  0.00     0.102 C 
ATOM      6  N   UNL A   1      32.983  24.264  25.527  1.00  0.00    -0.198 NA
ATOM      7  C   UNL A   1      33.604  23.839  24.245  1.00  0.00     0.103 C 
ATOM      8  C   UNL A   1      33.419  23.433  26.699  1.00  0.00     0.103 C 
ATOM      9  C   UNL A   1      35.128  23.956  24.297  1.00  0.00     0.032 C 
ATOM     10  C   UNL A   1      34.875  22.975  26.579  1.00  0.00     0.032 C 
BRANCH   6  11
ATOM     11  S   UNL A   1      31.299  24.539  25.431  1.00  0.00     0.243 S 
ATOM     12  O   UNL A   1      30.768  24.521  26.779  1.00  0.00    -0.207 OA
ATOM     13  O   UNL A   1      30.762  23.657  24.415  1.00  0.00    -0.207 OA
BRANCH  11  14
ATOM     14  C   UNL A   1      31.000  26.167  24.798  1.00  0.00     0.093 A 
ATOM     15  C   UNL A   1      31.404  27.366  25.376  1.00  0.00     0.037 A 
ATOM     16  C   UNL A   1      31.153  28.583  24.716  1.00  0.00     0.013 A 
ATOM     17  C   UNL A   1      30.534  28.599  23.466  1.00  0.00     0.001 A 
ATOM     18  C   UNL A   1      30.371  26.197  23.537  1.00  0.00     0.022 A 
ATOM     19  C   UNL A   1      30.147  27.403  22.872  1.00  0.00     0.001 A 
BRANCH  15  20
ATOM     20  C   UNL A   1      32.148  27.492  26.634  1.00  0.00     0.161 C 
ATOM     21  C   UNL A   1      33.641  27.644  26.531  1.00  0.00     0.093 C 
ATOM     22  O   UNL A   1      31.535  27.570  27.693  1.00  0.00    -0.294 OA
ENDBRANCH  15  20
ENDBRANCH  11  14
ENDBRANCH   6  11
ENDBRANCH   3   5
ENDBRANCH   2   3
ENDBRANCH   1   2
BRANCH   1  23
ATOM     23  C   UNL A   1      39.124  20.528  25.419  1.00  0.00     0.275 C 
BRANCH  23  24
ATOM     24  O   UNL A   1      40.007  19.747  26.248  1.00  0.00    -0.458 OA
BRANCH  24  25
ATOM     25  C   UNL A   1      41.322  19.853  25.947  1.00  0.00     0.338 C 
ATOM     26  O   UNL A   1      41.990  19.098  25.262  1.00  0.00    -0.246 OA
BRANCH  25  27
ATOM     27  C   UNL A   1      41.870  21.093  26.513  1.00  0.00     0.060 A 
ATOM     28  C   UNL A   1      41.808  21.279  27.896  1.00  0.00     0.016 A 
ATOM     29  C   UNL A   1      42.325  22.114  25.679  1.00  0.00     0.016 A 
ATOM     30  C   UNL A   1      42.167  22.506  28.451  1.00  0.00     0.010 A 
ATOM     31  C   UNL A   1      42.711  23.335  26.242  1.00  0.00     0.010 A 
ATOM     32  C   UNL A   1      42.614  23.549  27.629  1.00  0.00    -0.014 A 
BRANCH  32  33
ATOM     33  C   UNL A   1      42.956  24.870  28.213  1.00  0.00     0.031 A 
ATOM     34  C   UNL A   1      41.881  25.896  28.445  1.00  0.00     0.074 A 
ATOM     35  C   UNL A   1      44.235  25.155  28.524  1.00  0.00     0.049 A 
ATOM     36  N   UNL A   1      41.994  27.145  28.817  1.00  0.00    -0.248 NA
ATOM     37  C   UNL A   1      40.495  25.458  28.223  1.00  0.00     0.031 C 
ATOM     38  C   UNL A   1      45.364  24.237  28.380  1.00  0.00     0.029 A 
ATOM     39  N   UNL A   1      44.800  26.308  29.011  1.00  0.00    -0.354 N 
ATOM     40  C   UNL A   1      40.700  27.648  28.859  1.00  0.00     0.074 A 
ATOM     41  C   UNL A   1      39.818  26.576  28.448  1.00  0.00     0.031 C 
ATOM     42  C   UNL A   1      46.489  24.864  28.758  1.00  0.00     0.029 A 
ATOM     43  C   UNL A   1      46.167  26.241  29.119  1.00  0.00     0.049 A 
ATOM     44  H   UNL A   1      44.276  27.104  29.259  1.00  0.00     0.167 HD
ATOM     45  C   UNL A   1      40.285  28.888  29.215  1.00  0.00     0.037 A 
ATOM     46  C   UNL A   1      47.066  27.194  29.432  1.00  0.00     0.037 A 
ATOM     47  C   UNL A   1      41.164  29.952  29.629  1.00  0.00     0.049 A 
ATOM     48  C   UNL A   1      46.587  28.580  29.761  1.00  0.00     0.074 A 
ATOM     49  C   UNL A   1      40.840  31.243  30.009  1.00  0.00     0.029 A 
ATOM     50  N   UNL A   1      42.545  29.846  29.717  1.00  0.00    -0.354 N 
ATOM     51  N   UNL A   1      45.362  29.046  29.792  1.00  0.00    -0.248 NA
ATOM     52  C   UNL A   1      47.616  29.575  30.095  1.00  0.00     0.031 C 
ATOM     53  C   UNL A   1      42.026  31.930  30.289  1.00  0.00     0.029 A 
ATOM     54  C   UNL A   1      43.087  31.053  30.132  1.00  0.00     0.049 A 
ATOM     55  H   UNL A   1      43.063  29.034  29.515  1.00  0.00     0.167 HD
ATOM     56  C   UNL A   1      45.470  30.377  30.174  1.00  0.00     0.074 A 
ATOM     57  C   UNL A   1      46.880  30.641  30.378  1.00  0.00     0.031 C 
ATOM     58  C   UNL A   1      44.490  31.297  30.341  1.00  0.00     0.037 A 
BRANCH  45  59
ATOM     59  C   UNL A   1      38.812  29.172  29.155  1.00  0.00     0.057 A 
ATOM     60  C   UNL A   1      37.995  29.084  30.290  1.00  0.00     0.134 A 
ATOM     61  C   UNL A   1      38.210  29.584  27.959  1.00  0.00     0.134 A 
ATOM     62  F   UNL A   1      38.506  28.684  31.465  1.00  0.00    -0.206 F 
ATOM     63  C   UNL A   1      36.631  29.374  30.234  1.00  0.00     0.040 A 
ATOM     64  C   UNL A   1      36.853  29.902  27.895  1.00  0.00     0.040 A 
ATOM     65  F   UNL A   1      38.934  29.698  26.836  1.00  0.00    -0.206 F 
ATOM     66  C   UNL A   1      36.057  29.792  29.034  1.00  0.00     0.006 A 
ENDBRANCH  45  59
BRANCH  46  67
ATOM     67  C   UNL A   1      48.516  26.876  29.417  1.00  0.00     0.057 A 
ATOM     68  C   UNL A   1      49.167  26.391  30.556  1.00  0.00     0.134 A 
ATOM     69  C   UNL A   1      49.289  27.063  28.263  1.00  0.00     0.134 A 
ATOM     70  F   UNL A   1      48.486  26.213  31.699  1.00  0.00    -0.206 F 
ATOM     71  C   UNL A   1      50.536  26.121  30.555  1.00  0.00     0.040 A 
ATOM     72  C   UNL A   1      50.652  26.770  28.239  1.00  0.00     0.040 A 
ATOM     73  F   UNL A   1      48.723  27.522  27.137  1.00  0.00    -0.206 F 
ATOM     74  C   UNL A   1      51.282  26.305  29.392  1.00  0.00     0.006 A 
ENDBRANCH  46  67
BRANCH  58  75
ATOM     75  C   UNL A   1      44.902  32.663  30.807  1.00  0.00     0.057 A 
ATOM     76  C   UNL A   1      45.026  32.976  32.168  1.00  0.00     0.134 A 
ATOM     77  C   UNL A   1      45.214  33.667  29.882  1.00  0.00     0.134 A 
ATOM     78  F   UNL A   1      44.728  32.063  33.105  1.00  0.00    -0.206 F 
ATOM     79  C   UNL A   1      45.424  34.245  32.590  1.00  0.00     0.040 A 
ATOM     80  C   UNL A   1      45.639  34.932  30.292  1.00  0.00     0.040 A 
ATOM     81  F   UNL A   1      45.124  33.431  28.564  1.00  0.00    -0.206 F 
ATOM     82  C   UNL A   1      45.740  35.225  31.650  1.00  0.00     0.006 A 
ENDBRANCH  58  75
ENDBRANCH  32  33
ENDBRANCH  25  27
ENDBRANCH  24  25
ENDBRANCH  23  24
ENDBRANCH   1  23
TORSDOF 14
ENDMDL
