MODEL 1
REMARK VINA RESULT:     -10.3      0.000      0.000
REMARK SMILES CCNC(=O)c1ccc(N[C@@H]2COC[C@@]2(C)C(=O)OCCOC(=O)c2ccc(-c3c4nc(c(-c5c(F)cccc5F)c5ccc([nH]5)c(-c5c(F)cccc5F)c5nc(c(-c6c(F)cccc6F)c6ccc3[nH]6)C=C5)C=C4)cc2)nn1
REMARK SMILES IDX 20 1 19 2 17 3 18 4 15 5 11 6 12 7 13 8 14 9 16 10 10 11
REMARK SMILES IDX 9 13 6 14 7 15 80 16 8 17 79 18 4 19 3 20 5 22 2 23 1 24
REMARK SMILES IDX 21 25 22 26 23 27 24 28 25 29 26 30 78 31 27 32 77 33 28 34
REMARK SMILES IDX 29 35 30 36 71 37 31 38 76 39 70 40 72 41 32 42 75 43 69 44
REMARK SMILES IDX 68 45 33 47 59 48 42 49 58 50 43 51 46 52 57 53 73 54 44 55
REMARK SMILES IDX 45 56 56 58 74 59 47 60 34 61 35 62 40 63 36 64 37 65 39 66
REMARK SMILES IDX 41 67 38 68 60 69 61 70 66 71 62 72 63 73 65 74 67 75 64 76
REMARK SMILES IDX 48 77 49 78 54 79 50 80 51 81 53 82 55 83 52 84
REMARK H PARENT 10 12 3 21 72 46 46 57
REMARK Flexibility Score: inf
ROOT
ATOM      1  C   UNL A   1      33.697  34.177  28.524  1.00  0.00     0.274 C 
ENDROOT
BRANCH   1   2
ATOM      2  O   UNL A   1      33.255  34.413  29.881  1.00  0.00    -0.462 OA
BRANCH   2   3
ATOM      3  C   UNL A   1      32.789  35.659  30.161  1.00  0.00     0.316 C 
ATOM      4  O   UNL A   1      32.330  36.416  29.312  1.00  0.00    -0.251 OA
BRANCH   3   5
ATOM      5  C   UNL A   1      32.952  36.053  31.624  1.00  0.00     0.111 C 
ATOM      6  C   UNL A   1      34.172  35.374  32.248  1.00  0.00     0.126 C 
ATOM      7  C   UNL A   1      34.465  36.222  33.474  1.00  0.00     0.186 C 
ATOM      8  O   UNL A   1      34.045  37.558  33.134  1.00  0.00    -0.378 OA
ATOM      9  C   UNL A   1      33.377  37.507  31.855  1.00  0.00     0.181 C 
ATOM     10  C   UNL A   1      31.608  35.822  32.335  1.00  0.00     0.028 C 
BRANCH   6  11
ATOM     11  N   UNL A   1      34.164  33.940  32.462  1.00  0.00    -0.362 N 
ATOM     12  H   UNL A   1      33.352  33.458  32.184  1.00  0.00     0.162 HD
BRANCH  11  13
ATOM     13  C   UNL A   1      35.168  33.183  33.015  1.00  0.00     0.149 A 
ATOM     14  C   UNL A   1      37.335  31.894  34.035  1.00  0.00     0.150 A 
ATOM     15  C   UNL A   1      37.101  31.791  32.679  1.00  0.00     0.040 A 
ATOM     16  N   UNL A   1      36.513  32.571  34.864  1.00  0.00    -0.143 NA
ATOM     17  C   UNL A   1      36.006  32.470  32.166  1.00  0.00     0.051 A 
ATOM     18  N   UNL A   1      35.413  33.218  34.340  1.00  0.00    -0.132 NA
BRANCH  14  19
ATOM     19  C   UNL A   1      38.534  31.266  34.627  1.00  0.00     0.271 C 
ATOM     20  N   UNL A   1      39.586  32.064  35.023  1.00  0.00    -0.351 N 
ATOM     21  H   UNL A   1      40.410  31.588  35.278  1.00  0.00     0.163 HD
ATOM     22  O   UNL A   1      38.618  30.045  34.723  1.00  0.00    -0.267 OA
BRANCH  20  23
ATOM     23  C   UNL A   1      39.645  33.514  35.114  1.00  0.00     0.113 C 
ATOM     24  C   UNL A   1      40.162  34.122  33.826  1.00  0.00     0.027 C 
ENDBRANCH  20  23
ENDBRANCH  14  19
ENDBRANCH  11  13
ENDBRANCH   6  11
ENDBRANCH   3   5
ENDBRANCH   2   3
ENDBRANCH   1   2
BRANCH   1  25
ATOM     25  C   UNL A   1      33.578  32.709  28.108  1.00  0.00     0.275 C 
BRANCH  25  26
ATOM     26  O   UNL A   1      34.490  31.893  28.866  1.00  0.00    -0.458 OA
BRANCH  26  27
ATOM     27  C   UNL A   1      34.784  30.687  28.332  1.00  0.00     0.338 C 
ATOM     28  O   UNL A   1      34.166  30.076  27.478  1.00  0.00    -0.246 OA
BRANCH  27  29
ATOM     29  C   UNL A   1      36.118  30.277  28.792  1.00  0.00     0.060 A 
ATOM     30  C   UNL A   1      37.188  30.693  28.008  1.00  0.00     0.016 A 
ATOM     31  C   UNL A   1      36.330  29.442  29.887  1.00  0.00     0.016 A 
ATOM     32  C   UNL A   1      38.483  30.287  28.303  1.00  0.00     0.010 A 
ATOM     33  C   UNL A   1      37.641  29.038  30.196  1.00  0.00     0.010 A 
ATOM     34  C   UNL A   1      38.721  29.457  29.401  1.00  0.00    -0.014 A 
BRANCH  34  35
ATOM     35  C   UNL A   1      40.112  28.998  29.625  1.00  0.00     0.031 A 
ATOM     36  C   UNL A   1      40.986  29.737  30.594  1.00  0.00     0.074 A 
ATOM     37  C   UNL A   1      40.532  27.835  29.090  1.00  0.00     0.049 A 
ATOM     38  N   UNL A   1      42.225  29.498  30.936  1.00  0.00    -0.248 NA
ATOM     39  C   UNL A   1      40.374  30.880  31.290  1.00  0.00     0.031 C 
ATOM     40  C   UNL A   1      39.727  26.958  28.239  1.00  0.00     0.029 A 
ATOM     41  N   UNL A   1      41.730  27.176  29.211  1.00  0.00    -0.354 N 
ATOM     42  C   UNL A   1      42.549  30.469  31.873  1.00  0.00     0.074 A 
ATOM     43  C   UNL A   1      41.373  31.294  32.057  1.00  0.00     0.031 C 
ATOM     44  C   UNL A   1      40.447  25.865  27.935  1.00  0.00     0.029 A 
ATOM     45  C   UNL A   1      41.779  25.988  28.522  1.00  0.00     0.049 A 
ATOM     46  H   UNL A   1      42.483  27.521  29.743  1.00  0.00     0.167 HD
ATOM     47  C   UNL A   1      43.727  30.665  32.512  1.00  0.00     0.037 A 
ATOM     48  C   UNL A   1      42.795  25.117  28.362  1.00  0.00     0.037 A 
ATOM     49  C   UNL A   1      44.898  29.853  32.324  1.00  0.00     0.049 A 
ATOM     50  C   UNL A   1      44.125  25.419  28.998  1.00  0.00     0.074 A 
ATOM     51  C   UNL A   1      46.164  30.022  32.858  1.00  0.00     0.029 A 
ATOM     52  N   UNL A   1      44.943  28.712  31.539  1.00  0.00    -0.354 N 
ATOM     53  N   UNL A   1      44.449  26.390  29.817  1.00  0.00    -0.248 NA
ATOM     54  C   UNL A   1      45.239  24.517  28.665  1.00  0.00     0.031 C 
ATOM     55  C   UNL A   1      46.984  28.997  32.371  1.00  0.00     0.029 A 
ATOM     56  C   UNL A   1      46.219  28.175  31.560  1.00  0.00     0.049 A 
ATOM     57  H   UNL A   1      44.181  28.338  31.041  1.00  0.00     0.167 HD
ATOM     58  C   UNL A   1      45.800  26.221  30.093  1.00  0.00     0.074 A 
ATOM     59  C   UNL A   1      46.227  25.032  29.385  1.00  0.00     0.031 C 
ATOM     60  C   UNL A   1      46.620  26.990  30.848  1.00  0.00     0.037 A 
BRANCH  47  61
ATOM     61  C   UNL A   1      43.816  31.848  33.424  1.00  0.00     0.057 A 
ATOM     62  C   UNL A   1      43.440  31.776  34.770  1.00  0.00     0.134 A 
ATOM     63  C   UNL A   1      44.290  33.075  32.944  1.00  0.00     0.134 A 
ATOM     64  F   UNL A   1      42.958  30.634  35.281  1.00  0.00    -0.206 F 
ATOM     65  C   UNL A   1      43.522  32.890  35.606  1.00  0.00     0.040 A 
ATOM     66  C   UNL A   1      44.390  34.192  33.773  1.00  0.00     0.040 A 
ATOM     67  F   UNL A   1      44.661  33.206  31.661  1.00  0.00    -0.206 F 
ATOM     68  C   UNL A   1      44.001  34.102  35.108  1.00  0.00     0.006 A 
ENDBRANCH  47  61
BRANCH  48  69
ATOM     69  C   UNL A   1      42.622  23.898  27.532  1.00  0.00     0.057 A 
ATOM     70  C   UNL A   1      42.301  22.666  28.113  1.00  0.00     0.134 A 
ATOM     71  C   UNL A   1      42.809  23.923  26.145  1.00  0.00     0.134 A 
ATOM     72  F   UNL A   1      42.156  22.566  29.444  1.00  0.00    -0.206 F 
ATOM     73  C   UNL A   1      42.159  21.507  27.348  1.00  0.00     0.040 A 
ATOM     74  C   UNL A   1      42.656  22.777  25.364  1.00  0.00     0.040 A 
ATOM     75  F   UNL A   1      43.139  25.067  25.527  1.00  0.00    -0.206 F 
ATOM     76  C   UNL A   1      42.332  21.563  25.967  1.00  0.00     0.006 A 
ENDBRANCH  48  69
BRANCH  60  77
ATOM     77  C   UNL A   1      48.055  26.570  30.939  1.00  0.00     0.057 A 
ATOM     78  C   UNL A   1      49.012  27.046  30.033  1.00  0.00     0.134 A 
ATOM     79  C   UNL A   1      48.492  25.718  31.959  1.00  0.00     0.134 A 
ATOM     80  F   UNL A   1      48.650  27.854  29.026  1.00  0.00    -0.206 F 
ATOM     81  C   UNL A   1      50.353  26.674  30.130  1.00  0.00     0.040 A 
ATOM     82  C   UNL A   1      49.834  25.354  32.077  1.00  0.00     0.040 A 
ATOM     83  F   UNL A   1      47.624  25.232  32.860  1.00  0.00    -0.206 F 
ATOM     84  C   UNL A   1      50.768  25.830  31.159  1.00  0.00     0.006 A 
ENDBRANCH  60  77
ENDBRANCH  34  35
ENDBRANCH  27  29
ENDBRANCH  26  27
ENDBRANCH  25  26
ENDBRANCH   1  25
TORSDOF 15
ENDMDL
MODEL 2
REMARK VINA RESULT:     -10.3      2.053      2.635
REMARK SMILES CCNC(=O)c1ccc(N[C@@H]2COC[C@@]2(C)C(=O)OCCOC(=O)c2ccc(-c3c4nc(c(-c5c(F)cccc5F)c5ccc([nH]5)c(-c5c(F)cccc5F)c5nc(c(-c6c(F)cccc6F)c6ccc3[nH]6)C=C5)C=C4)cc2)nn1
REMARK SMILES IDX 20 1 19 2 17 3 18 4 15 5 11 6 12 7 13 8 14 9 16 10 10 11
REMARK SMILES IDX 9 13 6 14 7 15 80 16 8 17 79 18 4 19 3 20 5 22 2 23 1 24
REMARK SMILES IDX 21 25 22 26 23 27 24 28 25 29 26 30 78 31 27 32 77 33 28 34
REMARK SMILES IDX 29 35 30 36 71 37 31 38 76 39 70 40 72 41 32 42 75 43 69 44
REMARK SMILES IDX 68 45 33 47 59 48 42 49 58 50 43 51 46 52 57 53 73 54 44 55
REMARK SMILES IDX 45 56 56 58 74 59 47 60 34 61 35 62 40 63 36 64 37 65 39 66
REMARK SMILES IDX 41 67 38 68 60 69 61 70 66 71 62 72 63 73 65 74 67 75 64 76
REMARK SMILES IDX 48 77 49 78 54 79 50 80 51 81 53 82 55 83 52 84
REMARK H PARENT 10 12 3 21 72 46 46 57
REMARK Flexibility Score: inf
ROOT
ATOM      1  C   UNL A   1      34.294  33.809  29.004  1.00  0.00     0.274 C 
ENDROOT
BRANCH   1   2
ATOM      2  O   UNL A   1      33.595  34.161  30.220  1.00  0.00    -0.462 OA
BRANCH   2   3
ATOM      3  C   UNL A   1      32.953  35.360  30.227  1.00  0.00     0.316 C 
ATOM      4  O   UNL A   1      32.528  35.906  29.214  1.00  0.00    -0.251 OA
BRANCH   3   5
ATOM      5  C   UNL A   1      32.871  35.995  31.610  1.00  0.00     0.111 C 
ATOM      6  C   UNL A   1      33.951  35.442  32.540  1.00  0.00     0.126 C 
ATOM      7  C   UNL A   1      34.046  36.487  33.638  1.00  0.00     0.186 C 
ATOM      8  O   UNL A   1      33.718  37.743  33.012  1.00  0.00    -0.378 OA
ATOM      9  C   UNL A   1      33.279  37.472  31.664  1.00  0.00     0.181 C 
ATOM     10  C   UNL A   1      31.420  35.876  32.106  1.00  0.00     0.028 C 
BRANCH   6  11
ATOM     11  N   UNL A   1      33.877  34.065  32.986  1.00  0.00    -0.362 N 
ATOM     12  H   UNL A   1      32.980  33.658  33.012  1.00  0.00     0.162 HD
BRANCH  11  13
ATOM     13  C   UNL A   1      34.924  33.267  33.378  1.00  0.00     0.149 A 
ATOM     14  C   UNL A   1      37.168  31.861  34.002  1.00  0.00     0.150 A 
ATOM     15  C   UNL A   1      36.564  31.609  32.786  1.00  0.00     0.040 A 
ATOM     16  N   UNL A   1      36.665  32.741  34.893  1.00  0.00    -0.143 NA
ATOM     17  C   UNL A   1      35.433  32.347  32.469  1.00  0.00     0.051 A 
ATOM     18  N   UNL A   1      35.524  33.447  34.571  1.00  0.00    -0.132 NA
BRANCH  14  19
ATOM     19  C   UNL A   1      38.424  31.170  34.360  1.00  0.00     0.271 C 
ATOM     20  N   UNL A   1      39.628  31.740  34.007  1.00  0.00    -0.351 N 
ATOM     21  H   UNL A   1      40.423  31.174  34.144  1.00  0.00     0.163 HD
ATOM     22  O   UNL A   1      38.399  30.080  34.921  1.00  0.00    -0.267 OA
BRANCH  20  23
ATOM     23  C   UNL A   1      39.886  33.062  33.460  1.00  0.00     0.113 C 
ATOM     24  C   UNL A   1      39.993  33.017  31.949  1.00  0.00     0.027 C 
ENDBRANCH  20  23
ENDBRANCH  14  19
ENDBRANCH  11  13
ENDBRANCH   6  11
ENDBRANCH   3   5
ENDBRANCH   2   3
ENDBRANCH   1   2
BRANCH   1  25
ATOM     25  C   UNL A   1      34.122  32.335  28.627  1.00  0.00     0.275 C 
BRANCH  25  26
ATOM     26  O   UNL A   1      35.164  31.537  29.217  1.00  0.00    -0.458 OA
BRANCH  26  27
ATOM     27  C   UNL A   1      35.326  30.301  28.695  1.00  0.00     0.338 C 
ATOM     28  O   UNL A   1      34.499  29.619  28.115  1.00  0.00    -0.246 OA
BRANCH  27  29
ATOM     29  C   UNL A   1      36.753  29.950  28.740  1.00  0.00     0.060 A 
ATOM     30  C   UNL A   1      37.454  30.091  27.548  1.00  0.00     0.016 A 
ATOM     31  C   UNL A   1      37.376  29.416  29.865  1.00  0.00     0.016 A 
ATOM     32  C   UNL A   1      38.784  29.704  27.459  1.00  0.00     0.010 A 
ATOM     33  C   UNL A   1      38.726  29.032  29.783  1.00  0.00     0.010 A 
ATOM     34  C   UNL A   1      39.433  29.173  28.576  1.00  0.00    -0.014 A 
BRANCH  34  35
ATOM     35  C   UNL A   1      40.830  28.710  28.403  1.00  0.00     0.031 A 
ATOM     36  C   UNL A   1      41.961  29.631  28.754  1.00  0.00     0.074 A 
ATOM     37  C   UNL A   1      41.081  27.424  28.092  1.00  0.00     0.049 A 
ATOM     38  N   UNL A   1      43.249  29.422  28.681  1.00  0.00    -0.248 NA
ATOM     39  C   UNL A   1      41.590  30.953  29.283  1.00  0.00     0.031 C 
ATOM     40  C   UNL A   1      40.063  26.398  27.860  1.00  0.00     0.029 A 
ATOM     41  N   UNL A   1      42.270  26.753  27.951  1.00  0.00    -0.354 N 
ATOM     42  C   UNL A   1      43.846  30.589  29.137  1.00  0.00     0.074 A 
ATOM     43  C   UNL A   1      42.779  31.500  29.497  1.00  0.00     0.031 C 
ATOM     44  C   UNL A   1      40.673  25.223  27.628  1.00  0.00     0.029 A 
ATOM     45  C   UNL A   1      42.121  25.422  27.641  1.00  0.00     0.049 A 
ATOM     46  H   UNL A   1      43.148  27.184  28.062  1.00  0.00     0.167 HD
ATOM     47  C   UNL A   1      45.165  30.881  29.232  1.00  0.00     0.037 A 
ATOM     48  C   UNL A   1      43.048  24.483  27.372  1.00  0.00     0.037 A 
ATOM     49  C   UNL A   1      46.225  29.981  28.866  1.00  0.00     0.049 A 
ATOM     50  C   UNL A   1      44.504  24.867  27.382  1.00  0.00     0.074 A 
ATOM     51  C   UNL A   1      47.588  30.214  28.843  1.00  0.00     0.029 A 
ATOM     52  N   UNL A   1      46.034  28.669  28.460  1.00  0.00    -0.354 N 
ATOM     53  N   UNL A   1      45.057  26.003  27.732  1.00  0.00    -0.248 NA
ATOM     54  C   UNL A   1      45.462  23.845  26.931  1.00  0.00     0.031 C 
ATOM     55  C   UNL A   1      48.223  29.049  28.394  1.00  0.00     0.029 A 
ATOM     56  C   UNL A   1      47.255  28.084  28.167  1.00  0.00     0.049 A 
ATOM     57  H   UNL A   1      45.161  28.221  28.390  1.00  0.00     0.167 HD
ATOM     58  C   UNL A   1      46.422  25.835  27.540  1.00  0.00     0.074 A 
ATOM     59  C   UNL A   1      46.618  24.476  27.079  1.00  0.00     0.031 C 
ATOM     60  C   UNL A   1      47.425  26.730  27.711  1.00  0.00     0.037 A 
BRANCH  47  61
ATOM     61  C   UNL A   1      45.523  32.259  29.692  1.00  0.00     0.057 A 
ATOM     62  C   UNL A   1      45.787  32.545  31.036  1.00  0.00     0.134 A 
ATOM     63  C   UNL A   1      45.609  33.310  28.771  1.00  0.00     0.134 A 
ATOM     64  F   UNL A   1      45.701  31.584  31.966  1.00  0.00    -0.206 F 
ATOM     65  C   UNL A   1      46.114  33.838  31.450  1.00  0.00     0.040 A 
ATOM     66  C   UNL A   1      45.948  34.602  29.171  1.00  0.00     0.040 A 
ATOM     67  F   UNL A   1      45.362  33.096  27.470  1.00  0.00    -0.206 F 
ATOM     68  C   UNL A   1      46.198  34.870  30.516  1.00  0.00     0.006 A 
ENDBRANCH  47  61
BRANCH  48  69
ATOM     69  C   UNL A   1      42.642  23.097  27.026  1.00  0.00     0.057 A 
ATOM     70  C   UNL A   1      42.266  22.183  28.016  1.00  0.00     0.134 A 
ATOM     71  C   UNL A   1      42.656  22.639  25.703  1.00  0.00     0.134 A 
ATOM     72  F   UNL A   1      42.278  22.548  29.308  1.00  0.00    -0.206 F 
ATOM     73  C   UNL A   1      41.905  20.871  27.707  1.00  0.00     0.040 A 
ATOM     74  C   UNL A   1      42.284  21.334  25.375  1.00  0.00     0.040 A 
ATOM     75  F   UNL A   1      43.027  23.457  24.707  1.00  0.00    -0.206 F 
ATOM     76  C   UNL A   1      41.908  20.446  26.380  1.00  0.00     0.006 A 
ENDBRANCH  48  69
BRANCH  60  77
ATOM     77  C   UNL A   1      48.813  26.267  27.393  1.00  0.00     0.057 A 
ATOM     78  C   UNL A   1      49.618  25.656  28.363  1.00  0.00     0.134 A 
ATOM     79  C   UNL A   1      49.337  26.396  26.102  1.00  0.00     0.134 A 
ATOM     80  F   UNL A   1      49.175  25.518  29.622  1.00  0.00    -0.206 F 
ATOM     81  C   UNL A   1      50.903  25.204  28.064  1.00  0.00     0.040 A 
ATOM     82  C   UNL A   1      50.614  25.931  25.785  1.00  0.00     0.040 A 
ATOM     83  F   UNL A   1      48.614  26.969  25.127  1.00  0.00    -0.206 F 
ATOM     84  C   UNL A   1      51.401  25.336  26.769  1.00  0.00     0.006 A 
ENDBRANCH  60  77
ENDBRANCH  34  35
ENDBRANCH  27  29
ENDBRANCH  26  27
ENDBRANCH  25  26
ENDBRANCH   1  25
TORSDOF 15
ENDMDL
MODEL 3
REMARK VINA RESULT:     -10.1      3.807      7.409
REMARK SMILES CCNC(=O)c1ccc(N[C@@H]2COC[C@@]2(C)C(=O)OCCOC(=O)c2ccc(-c3c4nc(c(-c5c(F)cccc5F)c5ccc([nH]5)c(-c5c(F)cccc5F)c5nc(c(-c6c(F)cccc6F)c6ccc3[nH]6)C=C5)C=C4)cc2)nn1
REMARK SMILES IDX 20 1 19 2 17 3 18 4 15 5 11 6 12 7 13 8 14 9 16 10 10 11
REMARK SMILES IDX 9 13 6 14 7 15 80 16 8 17 79 18 4 19 3 20 5 22 2 23 1 24
REMARK SMILES IDX 21 25 22 26 23 27 24 28 25 29 26 30 78 31 27 32 77 33 28 34
REMARK SMILES IDX 29 35 30 36 71 37 31 38 76 39 70 40 72 41 32 42 75 43 69 44
REMARK SMILES IDX 68 45 33 47 59 48 42 49 58 50 43 51 46 52 57 53 73 54 44 55
REMARK SMILES IDX 45 56 56 58 74 59 47 60 34 61 35 62 40 63 36 64 37 65 39 66
REMARK SMILES IDX 41 67 38 68 60 69 61 70 66 71 62 72 63 73 65 74 67 75 64 76
REMARK SMILES IDX 48 77 49 78 54 79 50 80 51 81 53 82 55 83 52 84
REMARK H PARENT 10 12 3 21 72 46 46 57
REMARK Flexibility Score: inf
ROOT
ATOM      1  C   UNL A   1      32.914  36.085  28.604  1.00  0.00     0.274 C 
ENDROOT
BRANCH   1   2
ATOM      2  O   UNL A   1      33.948  35.100  28.376  1.00  0.00    -0.462 OA
BRANCH   2   3
ATOM      3  C   UNL A   1      33.531  33.834  28.103  1.00  0.00     0.316 C 
ATOM      4  O   UNL A   1      32.432  33.571  27.626  1.00  0.00    -0.251 OA
BRANCH   3   5
ATOM      5  C   UNL A   1      34.538  32.765  28.511  1.00  0.00     0.111 C 
ATOM      6  C   UNL A   1      34.417  31.524  27.626  1.00  0.00     0.126 C 
ATOM      7  C   UNL A   1      35.747  30.815  27.821  1.00  0.00     0.186 C 
ATOM      8  O   UNL A   1      36.711  31.856  28.074  1.00  0.00    -0.378 OA
ATOM      9  C   UNL A   1      35.999  33.106  28.201  1.00  0.00     0.181 C 
ATOM     10  C   UNL A   1      34.405  32.535  30.026  1.00  0.00     0.028 C 
BRANCH   6  11
ATOM     11  N   UNL A   1      33.238  30.686  27.722  1.00  0.00    -0.362 N 
ATOM     12  H   UNL A   1      32.671  30.814  28.516  1.00  0.00     0.162 HD
BRANCH  11  13
ATOM     13  C   UNL A   1      32.828  29.732  26.822  1.00  0.00     0.149 A 
ATOM     14  C   UNL A   1      31.774  27.991  25.018  1.00  0.00     0.150 A 
ATOM     15  C   UNL A   1      31.403  27.854  26.340  1.00  0.00     0.040 A 
ATOM     16  N   UNL A   1      32.660  28.921  24.605  1.00  0.00    -0.143 NA
ATOM     17  C   UNL A   1      31.930  28.761  27.248  1.00  0.00     0.051 A 
ATOM     18  N   UNL A   1      33.194  29.798  25.527  1.00  0.00    -0.132 NA
BRANCH  14  19
ATOM     19  C   UNL A   1      31.180  27.111  23.990  1.00  0.00     0.271 C 
ATOM     20  N   UNL A   1      30.107  27.567  23.254  1.00  0.00    -0.351 N 
ATOM     21  H   UNL A   1      29.664  26.894  22.686  1.00  0.00     0.163 HD
ATOM     22  O   UNL A   1      31.602  25.971  23.823  1.00  0.00    -0.267 OA
BRANCH  20  23
ATOM     23  C   UNL A   1      29.539  28.904  23.202  1.00  0.00     0.113 C 
ATOM     24  C   UNL A   1      30.090  29.687  22.027  1.00  0.00     0.027 C 
ENDBRANCH  20  23
ENDBRANCH  14  19
ENDBRANCH  11  13
ENDBRANCH   6  11
ENDBRANCH   3   5
ENDBRANCH   2   3
ENDBRANCH   1   2
BRANCH   1  25
ATOM     25  C   UNL A   1      32.926  36.636  30.033  1.00  0.00     0.275 C 
BRANCH  25  26
ATOM     26  O   UNL A   1      32.519  35.622  30.969  1.00  0.00    -0.458 OA
BRANCH  26  27
ATOM     27  C   UNL A   1      32.735  35.904  32.273  1.00  0.00     0.338 C 
ATOM     28  O   UNL A   1      32.036  36.565  33.021  1.00  0.00    -0.246 OA
BRANCH  27  29
ATOM     29  C   UNL A   1      33.872  35.105  32.750  1.00  0.00     0.060 A 
ATOM     30  C   UNL A   1      35.131  35.662  32.562  1.00  0.00     0.016 A 
ATOM     31  C   UNL A   1      33.742  33.822  33.278  1.00  0.00     0.016 A 
ATOM     32  C   UNL A   1      36.277  34.953  32.896  1.00  0.00     0.010 A 
ATOM     33  C   UNL A   1      34.899  33.104  33.628  1.00  0.00     0.010 A 
ATOM     34  C   UNL A   1      36.172  33.668  33.434  1.00  0.00    -0.014 A 
BRANCH  34  35
ATOM     35  C   UNL A   1      37.428  32.931  33.703  1.00  0.00     0.031 A 
ATOM     36  C   UNL A   1      38.133  33.129  35.013  1.00  0.00     0.074 A 
ATOM     37  C   UNL A   1      37.844  31.973  32.853  1.00  0.00     0.049 A 
ATOM     38  N   UNL A   1      39.237  32.580  35.448  1.00  0.00    -0.248 NA
ATOM     39  C   UNL A   1      37.493  34.046  35.971  1.00  0.00     0.031 C 
ATOM     40  C   UNL A   1      37.167  31.596  31.611  1.00  0.00     0.029 A 
ATOM     41  N   UNL A   1      38.917  31.120  32.921  1.00  0.00    -0.354 N 
ATOM     42  C   UNL A   1      39.437  33.096  36.720  1.00  0.00     0.074 A 
ATOM     43  C   UNL A   1      38.332  33.992  36.995  1.00  0.00     0.031 C 
ATOM     44  C   UNL A   1      37.830  30.571  31.048  1.00  0.00     0.029 A 
ATOM     45  C   UNL A   1      39.005  30.256  31.857  1.00  0.00     0.049 A 
ATOM     46  H   UNL A   1      39.563  31.127  33.664  1.00  0.00     0.167 HD
ATOM     47  C   UNL A   1      40.457  32.856  37.577  1.00  0.00     0.037 A 
ATOM     48  C   UNL A   1      39.944  29.336  31.559  1.00  0.00     0.037 A 
ATOM     49  C   UNL A   1      41.559  31.973  37.302  1.00  0.00     0.049 A 
ATOM     50  C   UNL A   1      41.123  29.168  32.479  1.00  0.00     0.074 A 
ATOM     51  C   UNL A   1      42.685  31.730  38.068  1.00  0.00     0.029 A 
ATOM     52  N   UNL A   1      41.667  31.186  36.167  1.00  0.00    -0.354 N 
ATOM     53  N   UNL A   1      41.348  29.726  33.645  1.00  0.00    -0.248 NA
ATOM     54  C   UNL A   1      42.192  28.264  32.029  1.00  0.00     0.031 C 
ATOM     55  C   UNL A   1      43.491  30.815  37.381  1.00  0.00     0.029 A 
ATOM     56  C   UNL A   1      42.850  30.467  36.203  1.00  0.00     0.049 A 
ATOM     57  H   UNL A   1      41.002  31.143  35.443  1.00  0.00     0.167 HD
ATOM     58  C   UNL A   1      42.582  29.245  34.063  1.00  0.00     0.074 A 
ATOM     59  C   UNL A   1      43.041  28.322  33.046  1.00  0.00     0.031 C 
ATOM     60  C   UNL A   1      43.285  29.553  35.180  1.00  0.00     0.037 A 
BRANCH  47  61
ATOM     61  C   UNL A   1      40.454  33.615  38.866  1.00  0.00     0.057 A 
ATOM     62  C   UNL A   1      39.680  33.214  39.961  1.00  0.00     0.134 A 
ATOM     63  C   UNL A   1      41.243  34.763  39.011  1.00  0.00     0.134 A 
ATOM     64  F   UNL A   1      38.888  32.135  39.875  1.00  0.00    -0.206 F 
ATOM     65  C   UNL A   1      39.682  33.938  41.154  1.00  0.00     0.040 A 
ATOM     66  C   UNL A   1      41.265  35.486  40.203  1.00  0.00     0.040 A 
ATOM     67  F   UNL A   1      42.002  35.198  37.994  1.00  0.00    -0.206 F 
ATOM     68  C   UNL A   1      40.479  35.076  41.278  1.00  0.00     0.006 A 
ENDBRANCH  47  61
BRANCH  48  69
ATOM     69  C   UNL A   1      39.843  28.529  30.317  1.00  0.00     0.057 A 
ATOM     70  C   UNL A   1      39.127  27.326  30.290  1.00  0.00     0.134 A 
ATOM     71  C   UNL A   1      40.490  28.916  29.137  1.00  0.00     0.134 A 
ATOM     72  F   UNL A   1      38.524  26.877  31.402  1.00  0.00    -0.206 F 
ATOM     73  C   UNL A   1      39.045  26.546  29.136  1.00  0.00     0.040 A 
ATOM     74  C   UNL A   1      40.405  28.154  27.970  1.00  0.00     0.040 A 
ATOM     75  F   UNL A   1      41.211  30.046  29.100  1.00  0.00    -0.206 F 
ATOM     76  C   UNL A   1      39.681  26.964  27.969  1.00  0.00     0.006 A 
ENDBRANCH  48  69
BRANCH  60  77
ATOM     77  C   UNL A   1      44.617  28.892  35.351  1.00  0.00     0.057 A 
ATOM     78  C   UNL A   1      44.739  27.654  35.995  1.00  0.00     0.134 A 
ATOM     79  C   UNL A   1      45.781  29.474  34.837  1.00  0.00     0.134 A 
ATOM     80  F   UNL A   1      43.660  27.054  36.520  1.00  0.00    -0.206 F 
ATOM     81  C   UNL A   1      45.975  27.025  36.135  1.00  0.00     0.040 A 
ATOM     82  C   UNL A   1      47.022  28.845  34.955  1.00  0.00     0.040 A 
ATOM     83  F   UNL A   1      45.731  30.657  34.206  1.00  0.00    -0.206 F 
ATOM     84  C   UNL A   1      47.121  27.618  35.609  1.00  0.00     0.006 A 
ENDBRANCH  60  77
ENDBRANCH  34  35
ENDBRANCH  27  29
ENDBRANCH  26  27
ENDBRANCH  25  26
ENDBRANCH   1  25
TORSDOF 15
ENDMDL
