MODEL 1
REMARK VINA RESULT:      -8.7      0.000      0.000
REMARK SMILES CC(C)Cc1noc(CCCCC(=O)OCCOC(=O)c2ccc(-c3c4nc(c(-c5c(F)cccc5F)c5ccc([nH]5)c(-c5c(F)cccc5F)c5nc(c(-c6c(F)cccc6F)c6ccc3[nH]6)C=C5)C=C4)cc2)n1
REMARK SMILES IDX 13 1 14 2 12 3 11 4 10 5 9 6 8 7 5 8 6 9 75 10 7 11 4 12
REMARK SMILES IDX 2 13 1 14 3 15 15 16 16 17 17 18 18 19 19 20 20 21 21 22
REMARK SMILES IDX 22 23 74 24 23 25 73 26 24 27 25 28 26 29 67 30 27 31 72 32
REMARK SMILES IDX 66 33 68 34 28 35 71 36 65 37 64 38 29 40 55 41 38 42 54 43
REMARK SMILES IDX 39 44 42 45 53 46 69 47 40 48 41 49 52 51 70 52 43 53 30 54
REMARK SMILES IDX 31 55 36 56 32 57 33 58 35 59 37 60 34 61 56 62 57 63 62 64
REMARK SMILES IDX 58 65 59 66 61 67 63 68 60 69 44 70 45 71 50 72 46 73 47 74
REMARK SMILES IDX 49 75 51 76 48 77
REMARK H PARENT 68 39 42 50
REMARK Flexibility Score: inf
ROOT
ATOM      1  C   UNL A   1      34.049  35.284  32.540  1.00  0.00     0.305 C 
ATOM      2  O   UNL A   1      33.166  34.502  32.868  1.00  0.00    -0.252 OA
ENDROOT
BRANCH   1   3
ATOM      3  C   UNL A   1      35.507  35.043  32.851  1.00  0.00     0.123 C 
BRANCH   3   4
ATOM      4  C   UNL A   1      35.799  33.776  33.662  1.00  0.00     0.012 C 
BRANCH   4   5
ATOM      5  C   UNL A   1      35.828  33.937  35.191  1.00  0.00     0.010 C 
BRANCH   5   6
ATOM      6  C   UNL A   1      37.183  33.741  35.871  1.00  0.00     0.100 C 
BRANCH   6   7
ATOM      7  C   UNL A   1      37.845  32.460  35.530  1.00  0.00     0.226 A 
ATOM      8  C   UNL A   1      38.983  30.878  34.791  1.00  0.00     0.172 A 
ATOM      9  N   UNL A   1      38.414  30.353  35.882  1.00  0.00    -0.063 NA
ATOM     10  N   UNL A   1      38.645  32.181  34.529  1.00  0.00    -0.196 NA
ATOM     11  O   UNL A   1      37.677  31.415  36.392  1.00  0.00    -0.339 OA
BRANCH   8  12
ATOM     12  C   UNL A   1      39.992  30.148  33.991  1.00  0.00     0.084 C 
BRANCH  12  13
ATOM     13  C   UNL A   1      40.774  29.128  34.839  1.00  0.00    -0.010 C 
ATOM     14  C   UNL A   1      41.280  27.950  33.999  1.00  0.00     0.008 C 
ATOM     15  C   UNL A   1      41.947  29.816  35.534  1.00  0.00     0.008 C 
ENDBRANCH  12  13
ENDBRANCH   8  12
ENDBRANCH   6   7
ENDBRANCH   5   6
ENDBRANCH   4   5
ENDBRANCH   3   4
ENDBRANCH   1   3
BRANCH   1  16
ATOM     16  O   UNL A   1      33.854  36.457  31.888  1.00  0.00    -0.462 OA
BRANCH  16  17
ATOM     17  C   UNL A   1      32.650  36.563  31.106  1.00  0.00     0.274 C 
BRANCH  17  18
ATOM     18  C   UNL A   1      32.895  36.014  29.701  1.00  0.00     0.275 C 
BRANCH  18  19
ATOM     19  O   UNL A   1      32.603  34.605  29.669  1.00  0.00    -0.458 OA
BRANCH  19  20
ATOM     20  C   UNL A   1      33.093  33.915  28.613  1.00  0.00     0.338 C 
ATOM     21  O   UNL A   1      32.558  33.699  27.541  1.00  0.00    -0.246 OA
BRANCH  20  22
ATOM     22  C   UNL A   1      34.452  33.469  28.947  1.00  0.00     0.060 A 
ATOM     23  C   UNL A   1      34.651  32.655  30.064  1.00  0.00     0.016 A 
ATOM     24  C   UNL A   1      35.532  33.888  28.172  1.00  0.00     0.016 A 
ATOM     25  C   UNL A   1      35.935  32.241  30.407  1.00  0.00     0.010 A 
ATOM     26  C   UNL A   1      36.817  33.445  28.497  1.00  0.00     0.010 A 
ATOM     27  C   UNL A   1      37.025  32.614  29.614  1.00  0.00    -0.014 A 
BRANCH  27  28
ATOM     28  C   UNL A   1      38.388  32.124  29.927  1.00  0.00     0.031 A 
ATOM     29  C   UNL A   1      38.849  30.799  29.400  1.00  0.00     0.074 A 
ATOM     30  C   UNL A   1      39.192  32.858  30.719  1.00  0.00     0.049 A 
ATOM     31  N   UNL A   1      39.916  30.112  29.713  1.00  0.00    -0.248 NA
ATOM     32  C   UNL A   1      37.992  30.162  28.389  1.00  0.00     0.031 C 
ATOM     33  C   UNL A   1      38.873  34.184  31.252  1.00  0.00     0.029 A 
ATOM     34  N   UNL A   1      40.434  32.582  31.231  1.00  0.00    -0.354 N 
ATOM     35  C   UNL A   1      39.847  28.948  28.961  1.00  0.00     0.074 A 
ATOM     36  C   UNL A   1      38.629  29.018  28.181  1.00  0.00     0.031 C 
ATOM     37  C   UNL A   1      39.891  34.604  32.020  1.00  0.00     0.029 A 
ATOM     38  C   UNL A   1      40.897  33.550  32.089  1.00  0.00     0.049 A 
ATOM     39  H   UNL A   1      40.944  31.770  31.006  1.00  0.00     0.167 HD
ATOM     40  C   UNL A   1      40.724  27.916  28.929  1.00  0.00     0.037 A 
ATOM     41  C   UNL A   1      41.985  33.563  32.883  1.00  0.00     0.037 A 
ATOM     42  C   UNL A   1      41.940  27.865  29.697  1.00  0.00     0.049 A 
ATOM     43  C   UNL A   1      42.893  32.368  32.899  1.00  0.00     0.074 A 
ATOM     44  C   UNL A   1      42.911  26.878  29.713  1.00  0.00     0.029 A 
ATOM     45  N   UNL A   1      42.351  28.845  30.589  1.00  0.00    -0.354 N 
ATOM     46  N   UNL A   1      42.816  31.263  32.196  1.00  0.00    -0.248 NA
ATOM     47  C   UNL A   1      44.025  32.408  33.835  1.00  0.00     0.031 C 
ATOM     48  C   UNL A   1      43.886  27.240  30.649  1.00  0.00     0.029 A 
ATOM     49  C   UNL A   1      43.543  28.470  31.186  1.00  0.00     0.049 A 
ATOM     50  H   UNL A   1      41.866  29.682  30.771  1.00  0.00     0.167 HD
ATOM     51  C   UNL A   1      43.890  30.482  32.597  1.00  0.00     0.074 A 
ATOM     52  C   UNL A   1      44.615  31.245  33.593  1.00  0.00     0.031 C 
ATOM     53  C   UNL A   1      44.243  29.241  32.182  1.00  0.00     0.037 A 
BRANCH  40  54
ATOM     54  C   UNL A   1      40.381  26.743  28.060  1.00  0.00     0.057 A 
ATOM     55  C   UNL A   1      39.497  25.742  28.480  1.00  0.00     0.134 A 
ATOM     56  C   UNL A   1      40.920  26.633  26.773  1.00  0.00     0.134 A 
ATOM     57  F   UNL A   1      38.956  25.782  29.707  1.00  0.00    -0.206 F 
ATOM     58  C   UNL A   1      39.176  24.661  27.655  1.00  0.00     0.040 A 
ATOM     59  C   UNL A   1      40.591  25.569  25.931  1.00  0.00     0.040 A 
ATOM     60  F   UNL A   1      41.771  27.560  26.309  1.00  0.00    -0.206 F 
ATOM     61  C   UNL A   1      39.720  24.576  26.375  1.00  0.00     0.006 A 
ENDBRANCH  40  54
BRANCH  41  62
ATOM     62  C   UNL A   1      42.240  34.728  33.765  1.00  0.00     0.057 A 
ATOM     63  C   UNL A   1      42.907  35.863  33.291  1.00  0.00     0.134 A 
ATOM     64  C   UNL A   1      41.821  34.737  35.102  1.00  0.00     0.134 A 
ATOM     65  F   UNL A   1      43.354  35.903  32.028  1.00  0.00    -0.206 F 
ATOM     66  C   UNL A   1      43.149  36.964  34.114  1.00  0.00     0.040 A 
ATOM     67  C   UNL A   1      42.035  35.840  35.928  1.00  0.00     0.040 A 
ATOM     68  F   UNL A   1      41.178  33.679  35.617  1.00  0.00    -0.206 F 
ATOM     69  C   UNL A   1      42.707  36.957  35.435  1.00  0.00     0.006 A 
ENDBRANCH  41  62
BRANCH  53  70
ATOM     70  C   UNL A   1      45.468  28.638  32.797  1.00  0.00     0.057 A 
ATOM     71  C   UNL A   1      45.393  27.844  33.948  1.00  0.00     0.134 A 
ATOM     72  C   UNL A   1      46.728  28.816  32.210  1.00  0.00     0.134 A 
ATOM     73  F   UNL A   1      44.218  27.649  34.564  1.00  0.00    -0.206 F 
ATOM     74  C   UNL A   1      46.532  27.254  34.499  1.00  0.00     0.040 A 
ATOM     75  C   UNL A   1      47.869  28.216  32.741  1.00  0.00     0.040 A 
ATOM     76  F   UNL A   1      46.864  29.563  31.104  1.00  0.00    -0.206 F 
ATOM     77  C   UNL A   1      47.773  27.433  33.891  1.00  0.00     0.006 A 
ENDBRANCH  53  70
ENDBRANCH  27  28
ENDBRANCH  20  22
ENDBRANCH  19  20
ENDBRANCH  18  19
ENDBRANCH  17  18
ENDBRANCH  16  17
ENDBRANCH   1  16
TORSDOF 17
ENDMDL
MODEL 2
REMARK VINA RESULT:      -8.6      5.723     11.185
REMARK SMILES CC(C)Cc1noc(CCCCC(=O)OCCOC(=O)c2ccc(-c3c4nc(c(-c5c(F)cccc5F)c5ccc([nH]5)c(-c5c(F)cccc5F)c5nc(c(-c6c(F)cccc6F)c6ccc3[nH]6)C=C5)C=C4)cc2)n1
REMARK SMILES IDX 13 1 14 2 12 3 11 4 10 5 9 6 8 7 5 8 6 9 75 10 7 11 4 12
REMARK SMILES IDX 2 13 1 14 3 15 15 16 16 17 17 18 18 19 19 20 20 21 21 22
REMARK SMILES IDX 22 23 74 24 23 25 73 26 24 27 25 28 26 29 67 30 27 31 72 32
REMARK SMILES IDX 66 33 68 34 28 35 71 36 65 37 64 38 29 40 55 41 38 42 54 43
REMARK SMILES IDX 39 44 42 45 53 46 69 47 40 48 41 49 52 51 70 52 43 53 30 54
REMARK SMILES IDX 31 55 36 56 32 57 33 58 35 59 37 60 34 61 56 62 57 63 62 64
REMARK SMILES IDX 58 65 59 66 61 67 63 68 60 69 44 70 45 71 50 72 46 73 47 74
REMARK SMILES IDX 49 75 51 76 48 77
REMARK H PARENT 68 39 42 50
REMARK Flexibility Score: inf
ROOT
ATOM      1  C   UNL A   1      45.513  21.387  24.512  1.00  0.00     0.305 C 
ATOM      2  O   UNL A   1      44.848  21.585  23.503  1.00  0.00    -0.252 OA
ENDROOT
BRANCH   1   3
ATOM      3  C   UNL A   1      46.075  22.511  25.350  1.00  0.00     0.123 C 
BRANCH   3   4
ATOM      4  C   UNL A   1      46.273  23.839  24.612  1.00  0.00     0.012 C 
BRANCH   4   5
ATOM      5  C   UNL A   1      47.436  24.721  25.097  1.00  0.00     0.010 C 
BRANCH   5   6
ATOM      6  C   UNL A   1      47.680  26.014  24.319  1.00  0.00     0.100 C 
BRANCH   6   7
ATOM      7  C   UNL A   1      46.970  27.190  24.874  1.00  0.00     0.226 A 
ATOM      8  C   UNL A   1      45.930  28.618  25.981  1.00  0.00     0.172 A 
ATOM      9  N   UNL A   1      46.391  29.323  24.941  1.00  0.00    -0.063 NA
ATOM     10  N   UNL A   1      46.255  27.286  25.970  1.00  0.00    -0.196 NA
ATOM     11  O   UNL A   1      47.109  28.378  24.217  1.00  0.00    -0.339 OA
BRANCH   8  12
ATOM     12  C   UNL A   1      45.219  29.248  27.117  1.00  0.00     0.084 C 
BRANCH  12  13
ATOM     13  C   UNL A   1      45.452  30.770  27.169  1.00  0.00    -0.010 C 
ATOM     14  C   UNL A   1      44.217  31.521  27.678  1.00  0.00     0.008 C 
ATOM     15  C   UNL A   1      46.655  31.085  28.054  1.00  0.00     0.008 C 
ENDBRANCH  12  13
ENDBRANCH   8  12
ENDBRANCH   6   7
ENDBRANCH   5   6
ENDBRANCH   4   5
ENDBRANCH   3   4
ENDBRANCH   1   3
BRANCH   1  16
ATOM     16  O   UNL A   1      45.852  20.168  25.000  1.00  0.00    -0.462 OA
BRANCH  16  17
ATOM     17  C   UNL A   1      45.028  19.063  24.590  1.00  0.00     0.274 C 
BRANCH  17  18
ATOM     18  C   UNL A   1      43.881  18.875  25.583  1.00  0.00     0.275 C 
BRANCH  18  19
ATOM     19  O   UNL A   1      42.659  19.387  25.021  1.00  0.00    -0.458 OA
BRANCH  19  20
ATOM     20  C   UNL A   1      41.686  19.718  25.902  1.00  0.00     0.338 C 
ATOM     21  O   UNL A   1      40.724  19.057  26.246  1.00  0.00    -0.246 OA
BRANCH  20  22
ATOM     22  C   UNL A   1      41.991  21.050  26.442  1.00  0.00     0.060 A 
ATOM     23  C   UNL A   1      42.232  22.108  25.562  1.00  0.00     0.016 A 
ATOM     24  C   UNL A   1      42.073  21.239  27.820  1.00  0.00     0.016 A 
ATOM     25  C   UNL A   1      42.543  23.370  26.057  1.00  0.00     0.010 A 
ATOM     26  C   UNL A   1      42.354  22.515  28.317  1.00  0.00     0.010 A 
ATOM     27  C   UNL A   1      42.585  23.589  27.439  1.00  0.00    -0.014 A 
BRANCH  27  28
ATOM     28  C   UNL A   1      42.847  24.943  27.979  1.00  0.00     0.031 A 
ATOM     29  C   UNL A   1      44.218  25.306  28.463  1.00  0.00     0.074 A 
ATOM     30  C   UNL A   1      41.838  25.830  28.069  1.00  0.00     0.049 A 
ATOM     31  N   UNL A   1      44.606  26.357  29.138  1.00  0.00    -0.248 NA
ATOM     32  C   UNL A   1      45.297  24.359  28.147  1.00  0.00     0.031 C 
ATOM     33  C   UNL A   1      40.473  25.609  27.587  1.00  0.00     0.029 A 
ATOM     34  N   UNL A   1      41.800  27.087  28.616  1.00  0.00    -0.354 N 
ATOM     35  C   UNL A   1      45.965  26.185  29.354  1.00  0.00     0.074 A 
ATOM     36  C   UNL A   1      46.336  24.926  28.744  1.00  0.00     0.031 C 
ATOM     37  C   UNL A   1      39.730  26.692  27.865  1.00  0.00     0.029 A 
ATOM     38  C   UNL A   1      40.547  27.649  28.604  1.00  0.00     0.049 A 
ATOM     39  H   UNL A   1      42.593  27.542  28.982  1.00  0.00     0.167 HD
ATOM     40  C   UNL A   1      46.822  27.007  30.005  1.00  0.00     0.037 A 
ATOM     41  C   UNL A   1      40.094  28.784  29.171  1.00  0.00     0.037 A 
ATOM     42  C   UNL A   1      46.445  28.266  30.593  1.00  0.00     0.049 A 
ATOM     43  C   UNL A   1      41.044  29.633  29.966  1.00  0.00     0.074 A 
ATOM     44  C   UNL A   1      47.244  29.187  31.249  1.00  0.00     0.029 A 
ATOM     45  N   UNL A   1      45.156  28.778  30.599  1.00  0.00    -0.354 N 
ATOM     46  N   UNL A   1      42.325  29.459  30.179  1.00  0.00    -0.248 NA
ATOM     47  C   UNL A   1      40.481  30.822  30.620  1.00  0.00     0.031 C 
ATOM     48  C   UNL A   1      46.430  30.235  31.691  1.00  0.00     0.029 A 
ATOM     49  C   UNL A   1      45.131  29.986  31.276  1.00  0.00     0.049 A 
ATOM     50  H   UNL A   1      44.375  28.347  30.185  1.00  0.00     0.167 HD
ATOM     51  C   UNL A   1      42.724  30.517  30.983  1.00  0.00     0.074 A 
ATOM     52  C   UNL A   1      41.552  31.339  31.206  1.00  0.00     0.031 C 
ATOM     53  C   UNL A   1      43.951  30.784  31.495  1.00  0.00     0.037 A 
BRANCH  40  54
ATOM     54  C   UNL A   1      48.245  26.555  30.144  1.00  0.00     0.057 A 
ATOM     55  C   UNL A   1      49.216  26.855  29.181  1.00  0.00     0.134 A 
ATOM     56  C   UNL A   1      48.653  25.835  31.273  1.00  0.00     0.134 A 
ATOM     57  F   UNL A   1      48.887  27.530  28.071  1.00  0.00    -0.206 F 
ATOM     58  C   UNL A   1      50.541  26.438  29.330  1.00  0.00     0.040 A 
ATOM     59  C   UNL A   1      49.978  25.430  31.443  1.00  0.00     0.040 A 
ATOM     60  F   UNL A   1      47.771  25.517  32.234  1.00  0.00    -0.206 F 
ATOM     61  C   UNL A   1      50.926  25.728  30.466  1.00  0.00     0.006 A 
ENDBRANCH  40  54
BRANCH  41  62
ATOM     62  C   UNL A   1      38.662  29.150  29.049  1.00  0.00     0.057 A 
ATOM     63  C   UNL A   1      37.786  29.017  30.132  1.00  0.00     0.134 A 
ATOM     64  C   UNL A   1      38.134  29.645  27.849  1.00  0.00     0.134 A 
ATOM     65  F   UNL A   1      38.227  28.525  31.299  1.00  0.00    -0.206 F 
ATOM     66  C   UNL A   1      36.437  29.361  30.027  1.00  0.00     0.040 A 
ATOM     67  C   UNL A   1      36.795  30.015  27.737  1.00  0.00     0.040 A 
ATOM     68  F   UNL A   1      38.922  29.794  26.774  1.00  0.00    -0.206 F 
ATOM     69  C   UNL A   1      35.940  29.869  28.828  1.00  0.00     0.006 A 
ENDBRANCH  41  62
BRANCH  53  70
ATOM     70  C   UNL A   1      44.086  32.014  32.338  1.00  0.00     0.057 A 
ATOM     71  C   UNL A   1      43.872  31.981  33.721  1.00  0.00     0.134 A 
ATOM     72  C   UNL A   1      44.476  33.233  31.768  1.00  0.00     0.134 A 
ATOM     73  F   UNL A   1      43.482  30.847  34.321  1.00  0.00    -0.206 F 
ATOM     74  C   UNL A   1      44.033  33.122  34.509  1.00  0.00     0.040 A 
ATOM     75  C   UNL A   1      44.660  34.375  32.549  1.00  0.00     0.040 A 
ATOM     76  F   UNL A   1      44.701  33.328  30.449  1.00  0.00    -0.206 F 
ATOM     77  C   UNL A   1      44.436  34.321  33.924  1.00  0.00     0.006 A 
ENDBRANCH  53  70
ENDBRANCH  27  28
ENDBRANCH  20  22
ENDBRANCH  19  20
ENDBRANCH  18  19
ENDBRANCH  17  18
ENDBRANCH  16  17
ENDBRANCH   1  16
TORSDOF 17
ENDMDL
MODEL 3
REMARK VINA RESULT:      -8.5      5.760     11.173
REMARK SMILES CC(C)Cc1noc(CCCCC(=O)OCCOC(=O)c2ccc(-c3c4nc(c(-c5c(F)cccc5F)c5ccc([nH]5)c(-c5c(F)cccc5F)c5nc(c(-c6c(F)cccc6F)c6ccc3[nH]6)C=C5)C=C4)cc2)n1
REMARK SMILES IDX 13 1 14 2 12 3 11 4 10 5 9 6 8 7 5 8 6 9 75 10 7 11 4 12
REMARK SMILES IDX 2 13 1 14 3 15 15 16 16 17 17 18 18 19 19 20 20 21 21 22
REMARK SMILES IDX 22 23 74 24 23 25 73 26 24 27 25 28 26 29 67 30 27 31 72 32
REMARK SMILES IDX 66 33 68 34 28 35 71 36 65 37 64 38 29 40 55 41 38 42 54 43
REMARK SMILES IDX 39 44 42 45 53 46 69 47 40 48 41 49 52 51 70 52 43 53 30 54
REMARK SMILES IDX 31 55 36 56 32 57 33 58 35 59 37 60 34 61 56 62 57 63 62 64
REMARK SMILES IDX 58 65 59 66 61 67 63 68 60 69 44 70 45 71 50 72 46 73 47 74
REMARK SMILES IDX 49 75 51 76 48 77
REMARK H PARENT 68 39 42 50
REMARK Flexibility Score: inf
ROOT
ATOM      1  C   UNL A   1      45.261  21.229  24.688  1.00  0.00     0.305 C 
ATOM      2  O   UNL A   1      44.718  21.390  23.602  1.00  0.00    -0.252 OA
ENDROOT
BRANCH   1   3
ATOM      3  C   UNL A   1      45.711  22.381  25.553  1.00  0.00     0.123 C 
BRANCH   3   4
ATOM      4  C   UNL A   1      46.225  23.607  24.791  1.00  0.00     0.012 C 
BRANCH   4   5
ATOM      5  C   UNL A   1      47.607  24.139  25.208  1.00  0.00     0.010 C 
BRANCH   5   6
ATOM      6  C   UNL A   1      47.943  25.567  24.782  1.00  0.00     0.100 C 
BRANCH   6   7
ATOM      7  C   UNL A   1      46.847  26.536  25.017  1.00  0.00     0.226 A 
ATOM      8  C   UNL A   1      45.303  27.748  25.717  1.00  0.00     0.172 A 
ATOM      9  N   UNL A   1      45.629  28.323  24.553  1.00  0.00    -0.063 NA
ATOM     10  N   UNL A   1      46.026  26.628  26.036  1.00  0.00    -0.196 NA
ATOM     11  O   UNL A   1      46.678  27.532  24.099  1.00  0.00    -0.339 OA
BRANCH   8  12
ATOM     12  C   UNL A   1      44.314  28.341  26.647  1.00  0.00     0.084 C 
BRANCH  12  13
ATOM     13  C   UNL A   1      42.873  27.929  26.296  1.00  0.00    -0.010 C 
ATOM     14  C   UNL A   1      42.007  29.135  25.918  1.00  0.00     0.008 C 
ATOM     15  C   UNL A   1      42.882  26.914  25.155  1.00  0.00     0.008 C 
ENDBRANCH  12  13
ENDBRANCH   8  12
ENDBRANCH   6   7
ENDBRANCH   5   6
ENDBRANCH   4   5
ENDBRANCH   3   4
ENDBRANCH   1   3
BRANCH   1  16
ATOM     16  O   UNL A   1      45.550  20.027  25.247  1.00  0.00    -0.462 OA
BRANCH  16  17
ATOM     17  C   UNL A   1      44.732  18.917  24.837  1.00  0.00     0.274 C 
BRANCH  17  18
ATOM     18  C   UNL A   1      43.497  18.824  25.732  1.00  0.00     0.275 C 
BRANCH  18  19
ATOM     19  O   UNL A   1      42.359  19.392  25.058  1.00  0.00    -0.458 OA
BRANCH  19  20
ATOM     20  C   UNL A   1      41.309  19.736  25.838  1.00  0.00     0.338 C 
ATOM     21  O   UNL A   1      40.278  19.118  26.028  1.00  0.00    -0.246 OA
BRANCH  20  22
ATOM     22  C   UNL A   1      41.621  21.015  26.489  1.00  0.00     0.060 A 
ATOM     23  C   UNL A   1      41.547  21.113  27.880  1.00  0.00     0.016 A 
ATOM     24  C   UNL A   1      41.953  22.126  25.716  1.00  0.00     0.016 A 
ATOM     25  C   UNL A   1      41.819  22.323  28.511  1.00  0.00     0.010 A 
ATOM     26  C   UNL A   1      42.258  23.333  26.352  1.00  0.00     0.010 A 
ATOM     27  C   UNL A   1      42.198  23.437  27.754  1.00  0.00    -0.014 A 
BRANCH  27  28
ATOM     28  C   UNL A   1      42.558  24.712  28.417  1.00  0.00     0.031 A 
ATOM     29  C   UNL A   1      41.524  25.781  28.599  1.00  0.00     0.074 A 
ATOM     30  C   UNL A   1      43.826  24.917  28.819  1.00  0.00     0.049 A 
ATOM     31  N   UNL A   1      41.677  27.024  28.974  1.00  0.00    -0.248 NA
ATOM     32  C   UNL A   1      40.131  25.402  28.316  1.00  0.00     0.031 C 
ATOM     33  C   UNL A   1      44.908  23.934  28.741  1.00  0.00     0.029 A 
ATOM     34  N   UNL A   1      44.423  26.030  29.355  1.00  0.00    -0.354 N 
ATOM     35  C   UNL A   1      40.408  27.585  28.946  1.00  0.00     0.074 A 
ATOM     36  C   UNL A   1      39.496  26.549  28.509  1.00  0.00     0.031 C 
ATOM     37  C   UNL A   1      46.038  24.489  29.206  1.00  0.00     0.029 A 
ATOM     38  C   UNL A   1      45.775  25.882  29.548  1.00  0.00     0.049 A 
ATOM     39  H   UNL A   1      43.932  26.853  29.580  1.00  0.00     0.167 HD
ATOM     40  C   UNL A   1      40.043  28.852  29.256  1.00  0.00     0.037 A 
ATOM     41  C   UNL A   1      46.708  26.784  29.909  1.00  0.00     0.037 A 
ATOM     42  C   UNL A   1      40.958  29.869  29.706  1.00  0.00     0.049 A 
ATOM     43  C   UNL A   1      46.292  28.205  30.158  1.00  0.00     0.074 A 
ATOM     44  C   UNL A   1      40.683  31.175  30.074  1.00  0.00     0.029 A 
ATOM     45  N   UNL A   1      42.327  29.693  29.844  1.00  0.00    -0.354 N 
ATOM     46  N   UNL A   1      45.094  28.734  30.116  1.00  0.00    -0.248 NA
ATOM     47  C   UNL A   1      47.361  29.162  30.481  1.00  0.00     0.031 C 
ATOM     48  C   UNL A   1      41.893  31.802  30.392  1.00  0.00     0.029 A 
ATOM     49  C   UNL A   1      42.915  30.875  30.260  1.00  0.00     0.049 A 
ATOM     50  H   UNL A   1      42.808  28.852  29.672  1.00  0.00     0.167 HD
ATOM     51  C   UNL A   1      45.260  30.079  30.414  1.00  0.00     0.074 A 
ATOM     52  C   UNL A   1      46.675  30.284  30.652  1.00  0.00     0.031 C 
ATOM     53  C   UNL A   1      44.327  31.060  30.481  1.00  0.00     0.037 A 
BRANCH  40  54
ATOM     54  C   UNL A   1      38.599  29.217  29.088  1.00  0.00     0.057 A 
ATOM     55  C   UNL A   1      38.075  29.623  27.854  1.00  0.00     0.134 A 
ATOM     56  C   UNL A   1      37.715  29.131  30.170  1.00  0.00     0.134 A 
ATOM     57  F   UNL A   1      38.872  29.737  26.782  1.00  0.00    -0.206 F 
ATOM     58  C   UNL A   1      36.725  29.947  27.709  1.00  0.00     0.040 A 
ATOM     59  C   UNL A   1      36.359  29.433  30.032  1.00  0.00     0.040 A 
ATOM     60  F   UNL A   1      38.153  28.746  31.379  1.00  0.00    -0.206 F 
ATOM     61  C   UNL A   1      35.862  29.847  28.798  1.00  0.00     0.006 A 
ENDBRANCH  40  54
BRANCH  41  62
ATOM     62  C   UNL A   1      48.131  26.377  30.002  1.00  0.00     0.057 A 
ATOM     63  C   UNL A   1      48.637  25.773  31.158  1.00  0.00     0.134 A 
ATOM     64  C   UNL A   1      49.019  26.577  28.937  1.00  0.00     0.134 A 
ATOM     65  F   UNL A   1      47.842  25.578  32.220  1.00  0.00    -0.206 F 
ATOM     66  C   UNL A   1      49.975  25.385  31.253  1.00  0.00     0.040 A 
ATOM     67  C   UNL A   1      50.352  26.173  29.009  1.00  0.00     0.040 A 
ATOM     68  F   UNL A   1      48.596  27.153  27.801  1.00  0.00    -0.206 F 
ATOM     69  C   UNL A   1      50.834  25.579  30.174  1.00  0.00     0.006 A 
ENDBRANCH  41  62
BRANCH  53  70
ATOM     70  C   UNL A   1      44.805  32.435  30.831  1.00  0.00     0.057 A 
ATOM     71  C   UNL A   1      44.925  32.851  32.162  1.00  0.00     0.134 A 
ATOM     72  C   UNL A   1      45.192  33.336  29.830  1.00  0.00     0.134 A 
ATOM     73  F   UNL A   1      44.556  32.040  33.164  1.00  0.00    -0.206 F 
ATOM     74  C   UNL A   1      45.405  34.122  32.486  1.00  0.00     0.040 A 
ATOM     75  C   UNL A   1      45.691  34.600  30.142  1.00  0.00     0.040 A 
ATOM     76  F   UNL A   1      45.105  32.994  28.536  1.00  0.00    -0.206 F 
ATOM     77  C   UNL A   1      45.797  34.996  31.475  1.00  0.00     0.006 A 
ENDBRANCH  53  70
ENDBRANCH  27  28
ENDBRANCH  20  22
ENDBRANCH  19  20
ENDBRANCH  18  19
ENDBRANCH  17  18
ENDBRANCH  16  17
ENDBRANCH   1  16
TORSDOF 17
ENDMDL
