MODEL 1
REMARK VINA RESULT:     -12.3      0.000      0.000
REMARK SMILES C[C@H]1CC[C@H]([NH2+]Cc2c(C(=O)OCCOC(=O)c3ccc(-c4c5nc(c(-c6c(F)cccc6F)c6ccc([nH]6)c(-c6c(F)cccc6F)c6nc(c(-c7c(F)cccc7F)c7ccc4[nH]7)C=C6)C=C5)cc3)n(Cc3ccccc3F)c3ccccc23)CC1
REMARK SMILES IDX 13 1 12 2 10 3 11 4 9 5 8 6 86 7 72 8 81 9 85 10 82 11 84 12
REMARK SMILES IDX 83 13 7 14 6 15 5 18 1 19 2 20 3 21 88 22 4 23 87 24 73 25
REMARK SMILES IDX 74 26 75 27 79 28 76 29 78 30 80 31 77 32 14 33 15 34 16 35
REMARK SMILES IDX 17 36 18 37 19 38 71 39 20 40 70 41 21 42 22 43 23 44 64 45
REMARK SMILES IDX 24 46 69 47 63 48 65 49 25 50 68 51 62 52 61 53 26 55 52 56
REMARK SMILES IDX 35 57 51 58 36 59 39 60 50 61 66 62 37 63 38 64 49 66 67 67
REMARK SMILES IDX 40 68 27 69 28 70 33 71 29 72 30 73 32 74 34 75 31 76 53 77
REMARK SMILES IDX 54 78 59 79 55 80 56 81 58 82 60 83 57 84 41 85 42 86 47 87
REMARK SMILES IDX 43 88 44 89 46 90 48 91 45 92
REMARK H PARENT 6 16 6 17 65 54 39 65
REMARK Flexibility Score: inf
ROOT
ATOM      1  C   UNL A   1      37.455  23.698  26.126  1.00  0.00     0.275 C 
ENDROOT
BRANCH   1   2
ATOM      2  O   UNL A   1      36.576  22.534  26.123  1.00  0.00    -0.457 OA
BRANCH   2   3
ATOM      3  C   UNL A   1      35.577  22.554  25.205  1.00  0.00     0.355 C 
ATOM      4  O   UNL A   1      35.748  22.248  24.034  1.00  0.00    -0.244 OA
BRANCH   3   5
ATOM      5  C   UNL A   1      34.319  23.090  25.684  1.00  0.00     0.137 A 
ATOM      6  C   UNL A   1      33.787  24.380  25.507  1.00  0.00     0.047 A 
ATOM      7  C   UNL A   1      32.438  24.336  26.024  1.00  0.00     0.009 A 
ATOM      8  N   UNL A   1      33.282  22.269  26.181  1.00  0.00    -0.330 N 
ATOM      9  C   UNL A   1      32.113  23.007  26.278  1.00  0.00     0.050 A 
ATOM     10  C   UNL A   1      31.421  25.312  26.162  1.00  0.00     0.011 A 
ATOM     11  C   UNL A   1      30.780  22.617  26.499  1.00  0.00     0.027 A 
ATOM     12  C   UNL A   1      30.116  24.933  26.493  1.00  0.00     0.001 A 
ATOM     13  C   UNL A   1      29.794  23.593  26.627  1.00  0.00     0.002 A 
BRANCH   6  14
ATOM     14  C   UNL A   1      34.306  25.643  24.827  1.00  0.00     0.300 C 
BRANCH  14  15
ATOM     15  N   UNL A   1      34.290  26.891  25.585  1.00  0.00    -0.340 N 
ATOM     16  H   UNL A   1      33.809  26.701  26.464  1.00  0.00     0.346 HD
ATOM     17  H   UNL A   1      35.276  27.148  25.653  1.00  0.00     0.346 HD
BRANCH  15  18
ATOM     18  C   UNL A   1      33.653  28.079  24.987  1.00  0.00     0.182 C 
ATOM     19  C   UNL A   1      29.790  29.762  23.502  1.00  0.00     0.007 C 
ATOM     20  C   UNL A   1      30.942  28.931  24.061  1.00  0.00    -0.014 C 
ATOM     21  C   UNL A   1      31.611  29.638  25.235  1.00  0.00     0.009 C 
ATOM     22  C   UNL A   1      32.026  28.643  23.022  1.00  0.00     0.009 C 
ATOM     23  C   UNL A   1      32.599  28.693  25.902  1.00  0.00     0.065 C 
ATOM     24  C   UNL A   1      33.109  27.708  23.585  1.00  0.00     0.065 C 
ENDBRANCH  15  18
ENDBRANCH  14  15
ENDBRANCH   6  14
BRANCH   8  25
ATOM     25  C   UNL A   1      33.285  20.794  26.181  1.00  0.00     0.161 C 
BRANCH  25  26
ATOM     26  C   UNL A   1      32.734  20.004  25.010  1.00  0.00     0.008 A 
ATOM     27  C   UNL A   1      32.527  20.569  23.741  1.00  0.00     0.008 A 
ATOM     28  C   UNL A   1      32.688  18.604  25.093  1.00  0.00     0.128 A 
ATOM     29  C   UNL A   1      32.331  19.770  22.607  1.00  0.00     0.001 A 
ATOM     30  C   UNL A   1      32.506  17.799  23.966  1.00  0.00     0.039 A 
ATOM     31  F   UNL A   1      32.911  17.999  26.268  1.00  0.00    -0.207 F 
ATOM     32  C   UNL A   1      32.340  18.384  22.714  1.00  0.00     0.003 A 
ENDBRANCH  25  26
ENDBRANCH   8  25
ENDBRANCH   3   5
ENDBRANCH   2   3
ENDBRANCH   1   2
BRANCH   1  33
ATOM     33  C   UNL A   1      38.942  23.483  26.460  1.00  0.00     0.275 C 
BRANCH  33  34
ATOM     34  O   UNL A   1      39.266  24.282  27.620  1.00  0.00    -0.458 OA
BRANCH  34  35
ATOM     35  C   UNL A   1      40.018  25.388  27.381  1.00  0.00     0.338 C 
ATOM     36  O   UNL A   1      40.854  25.508  26.502  1.00  0.00    -0.246 OA
BRANCH  35  37
ATOM     37  C   UNL A   1      39.409  26.520  28.135  1.00  0.00     0.060 A 
ATOM     38  C   UNL A   1      39.607  27.855  27.764  1.00  0.00     0.016 A 
ATOM     39  C   UNL A   1      38.917  26.221  29.406  1.00  0.00     0.016 A 
ATOM     40  C   UNL A   1      39.501  28.865  28.729  1.00  0.00     0.010 A 
ATOM     41  C   UNL A   1      38.809  27.236  30.357  1.00  0.00     0.010 A 
ATOM     42  C   UNL A   1      39.208  28.549  30.063  1.00  0.00    -0.014 A 
BRANCH  42  43
ATOM     43  C   UNL A   1      39.213  29.588  31.108  1.00  0.00     0.031 A 
ATOM     44  C   UNL A   1      38.049  30.486  31.171  1.00  0.00     0.074 A 
ATOM     45  C   UNL A   1      40.057  29.790  32.144  1.00  0.00     0.049 A 
ATOM     46  N   UNL A   1      37.894  31.581  30.512  1.00  0.00    -0.248 NA
ATOM     47  C   UNL A   1      36.920  30.117  32.033  1.00  0.00     0.031 C 
ATOM     48  C   UNL A   1      40.986  28.860  32.753  1.00  0.00     0.029 A 
ATOM     49  N   UNL A   1      40.207  30.925  32.904  1.00  0.00    -0.354 N 
ATOM     50  C   UNL A   1      36.731  32.145  31.002  1.00  0.00     0.074 A 
ATOM     51  C   UNL A   1      36.081  31.126  31.793  1.00  0.00     0.031 C 
ATOM     52  C   UNL A   1      41.581  29.435  33.827  1.00  0.00     0.029 A 
ATOM     53  C   UNL A   1      41.153  30.823  33.917  1.00  0.00     0.049 A 
ATOM     54  H   UNL A   1      39.685  31.745  32.744  1.00  0.00     0.167 HD
ATOM     55  C   UNL A   1      36.489  33.477  30.902  1.00  0.00     0.037 A 
ATOM     56  C   UNL A   1      41.580  31.808  34.750  1.00  0.00     0.037 A 
ATOM     57  C   UNL A   1      37.495  34.161  30.129  1.00  0.00     0.049 A 
ATOM     58  C   UNL A   1      41.242  33.112  34.126  1.00  0.00     0.074 A 
ATOM     59  C   UNL A   1      37.999  34.042  28.848  1.00  0.00     0.029 A 
ATOM     60  N   UNL A   1      38.421  34.900  30.825  1.00  0.00    -0.354 N 
ATOM     61  N   UNL A   1      41.842  33.605  33.081  1.00  0.00    -0.248 NA
ATOM     62  C   UNL A   1      40.013  33.792  34.512  1.00  0.00     0.031 C 
ATOM     63  C   UNL A   1      39.393  34.335  28.957  1.00  0.00     0.029 A 
ATOM     64  C   UNL A   1      39.660  34.626  30.296  1.00  0.00     0.049 A 
ATOM     65  H   UNL A   1      38.232  35.516  31.570  1.00  0.00     0.167 HD
ATOM     66  C   UNL A   1      40.875  34.362  32.443  1.00  0.00     0.074 A 
ATOM     67  C   UNL A   1      39.844  34.579  33.447  1.00  0.00     0.031 C 
ATOM     68  C   UNL A   1      40.865  34.482  31.085  1.00  0.00     0.037 A 
BRANCH  55  69
ATOM     69  C   UNL A   1      35.498  34.211  31.748  1.00  0.00     0.057 A 
ATOM     70  C   UNL A   1      35.681  34.484  33.117  1.00  0.00     0.134 A 
ATOM     71  C   UNL A   1      34.397  34.833  31.142  1.00  0.00     0.134 A 
ATOM     72  F   UNL A   1      36.776  34.077  33.776  1.00  0.00    -0.206 F 
ATOM     73  C   UNL A   1      34.783  35.258  33.854  1.00  0.00     0.040 A 
ATOM     74  C   UNL A   1      33.523  35.657  31.856  1.00  0.00     0.040 A 
ATOM     75  F   UNL A   1      34.168  34.691  29.828  1.00  0.00    -0.206 F 
ATOM     76  C   UNL A   1      33.705  35.858  33.221  1.00  0.00     0.006 A 
ENDBRANCH  55  69
BRANCH  56  77
ATOM     77  C   UNL A   1      42.272  31.745  36.057  1.00  0.00     0.057 A 
ATOM     78  C   UNL A   1      41.605  32.066  37.249  1.00  0.00     0.134 A 
ATOM     79  C   UNL A   1      43.664  31.588  36.159  1.00  0.00     0.134 A 
ATOM     80  F   UNL A   1      40.291  32.326  37.250  1.00  0.00    -0.206 F 
ATOM     81  C   UNL A   1      42.275  32.217  38.469  1.00  0.00     0.040 A 
ATOM     82  C   UNL A   1      44.350  31.746  37.371  1.00  0.00     0.040 A 
ATOM     83  F   UNL A   1      44.406  31.327  35.073  1.00  0.00    -0.206 F 
ATOM     84  C   UNL A   1      43.655  32.066  38.533  1.00  0.00     0.006 A 
ENDBRANCH  56  77
BRANCH  68  85
ATOM     85  C   UNL A   1      42.139  34.149  30.357  1.00  0.00     0.057 A 
ATOM     86  C   UNL A   1      43.054  35.173  30.089  1.00  0.00     0.134 A 
ATOM     87  C   UNL A   1      42.441  32.879  29.839  1.00  0.00     0.134 A 
ATOM     88  F   UNL A   1      42.809  36.425  30.507  1.00  0.00    -0.206 F 
ATOM     89  C   UNL A   1      44.222  34.947  29.356  1.00  0.00     0.040 A 
ATOM     90  C   UNL A   1      43.625  32.631  29.138  1.00  0.00     0.040 A 
ATOM     91  F   UNL A   1      41.584  31.858  29.961  1.00  0.00    -0.206 F 
ATOM     92  C   UNL A   1      44.518  33.669  28.890  1.00  0.00     0.006 A 
ENDBRANCH  68  85
ENDBRANCH  42  43
ENDBRANCH  35  37
ENDBRANCH  34  35
ENDBRANCH  33  34
ENDBRANCH   1  33
TORSDOF 16
ENDMDL
MODEL 2
REMARK VINA RESULT:     -12.2      4.970      9.926
REMARK SMILES C[C@H]1CC[C@H]([NH2+]Cc2c(C(=O)OCCOC(=O)c3ccc(-c4c5nc(c(-c6c(F)cccc6F)c6ccc([nH]6)c(-c6c(F)cccc6F)c6nc(c(-c7c(F)cccc7F)c7ccc4[nH]7)C=C6)C=C5)cc3)n(Cc3ccccc3F)c3ccccc23)CC1
REMARK SMILES IDX 13 1 12 2 10 3 11 4 9 5 8 6 86 7 72 8 81 9 85 10 82 11 84 12
REMARK SMILES IDX 83 13 7 14 6 15 5 18 1 19 2 20 3 21 88 22 4 23 87 24 73 25
REMARK SMILES IDX 74 26 75 27 79 28 76 29 78 30 80 31 77 32 14 33 15 34 16 35
REMARK SMILES IDX 17 36 18 37 19 38 71 39 20 40 70 41 21 42 22 43 23 44 64 45
REMARK SMILES IDX 24 46 69 47 63 48 65 49 25 50 68 51 62 52 61 53 26 55 52 56
REMARK SMILES IDX 35 57 51 58 36 59 39 60 50 61 66 62 37 63 38 64 49 66 67 67
REMARK SMILES IDX 40 68 27 69 28 70 33 71 29 72 30 73 32 74 34 75 31 76 53 77
REMARK SMILES IDX 54 78 59 79 55 80 56 81 58 82 60 83 57 84 41 85 42 86 47 87
REMARK SMILES IDX 43 88 44 89 46 90 48 91 45 92
REMARK H PARENT 6 16 6 17 65 54 39 65
REMARK Flexibility Score: inf
ROOT
ATOM      1  C   UNL A   1      34.070  29.716  26.684  1.00  0.00     0.275 C 
ENDROOT
BRANCH   1   2
ATOM      2  O   UNL A   1      34.165  28.262  26.625  1.00  0.00    -0.457 OA
BRANCH   2   3
ATOM      3  C   UNL A   1      33.071  27.622  26.141  1.00  0.00     0.355 C 
ATOM      4  O   UNL A   1      31.968  27.714  26.659  1.00  0.00    -0.244 OA
BRANCH   3   5
ATOM      5  C   UNL A   1      33.330  26.715  25.041  1.00  0.00     0.137 A 
ATOM      6  C   UNL A   1      33.698  25.359  25.085  1.00  0.00     0.047 A 
ATOM      7  C   UNL A   1      33.654  24.883  23.721  1.00  0.00     0.009 A 
ATOM      8  N   UNL A   1      32.962  27.011  23.709  1.00  0.00    -0.330 N 
ATOM      9  C   UNL A   1      33.055  25.863  22.937  1.00  0.00     0.050 A 
ATOM     10  C   UNL A   1      33.952  23.636  23.121  1.00  0.00     0.011 A 
ATOM     11  C   UNL A   1      32.601  25.575  21.638  1.00  0.00     0.027 A 
ATOM     12  C   UNL A   1      33.599  23.388  21.789  1.00  0.00     0.001 A 
ATOM     13  C   UNL A   1      32.900  24.340  21.067  1.00  0.00     0.002 A 
BRANCH   6  14
ATOM     14  C   UNL A   1      33.988  24.389  26.226  1.00  0.00     0.300 C 
BRANCH  14  15
ATOM     15  N   UNL A   1      35.197  23.575  26.149  1.00  0.00    -0.340 N 
ATOM     16  H   UNL A   1      35.631  23.767  25.246  1.00  0.00     0.346 HD
ATOM     17  H   UNL A   1      35.730  23.848  26.976  1.00  0.00     0.346 HD
BRANCH  15  18
ATOM     18  C   UNL A   1      35.079  22.110  26.271  1.00  0.00     0.182 C 
ATOM     19  C   UNL A   1      33.714  18.396  24.198  1.00  0.00     0.007 C 
ATOM     20  C   UNL A   1      34.073  19.807  24.653  1.00  0.00    -0.014 C 
ATOM     21  C   UNL A   1      35.554  19.914  25.001  1.00  0.00     0.009 C 
ATOM     22  C   UNL A   1      33.280  20.256  25.881  1.00  0.00     0.009 C 
ATOM     23  C   UNL A   1      35.918  21.372  25.234  1.00  0.00     0.065 C 
ATOM     24  C   UNL A   1      33.580  21.720  26.239  1.00  0.00     0.065 C 
ENDBRANCH  15  18
ENDBRANCH  14  15
ENDBRANCH   6  14
BRANCH   8  25
ATOM     25  C   UNL A   1      32.190  28.191  23.277  1.00  0.00     0.161 C 
BRANCH  25  26
ATOM     26  C   UNL A   1      30.691  28.117  23.060  1.00  0.00     0.008 A 
ATOM     27  C   UNL A   1      29.867  27.214  23.749  1.00  0.00     0.008 A 
ATOM     28  C   UNL A   1      30.050  29.156  22.368  1.00  0.00     0.128 A 
ATOM     29  C   UNL A   1      28.474  27.370  23.781  1.00  0.00     0.001 A 
ATOM     30  C   UNL A   1      28.664  29.327  22.405  1.00  0.00     0.039 A 
ATOM     31  F   UNL A   1      30.780  30.073  21.717  1.00  0.00    -0.207 F 
ATOM     32  C   UNL A   1      27.873  28.439  23.126  1.00  0.00     0.003 A 
ENDBRANCH  25  26
ENDBRANCH   8  25
ENDBRANCH   3   5
ENDBRANCH   2   3
ENDBRANCH   1   2
BRANCH   1  33
ATOM     33  C   UNL A   1      34.765  30.441  27.852  1.00  0.00     0.275 C 
BRANCH  33  34
ATOM     34  O   UNL A   1      36.193  30.261  27.711  1.00  0.00    -0.458 OA
BRANCH  34  35
ATOM     35  C   UNL A   1      36.840  29.807  28.816  1.00  0.00     0.338 C 
ATOM     36  O   UNL A   1      36.430  29.872  29.962  1.00  0.00    -0.246 OA
BRANCH  35  37
ATOM     37  C   UNL A   1      37.947  28.920  28.358  1.00  0.00     0.060 A 
ATOM     38  C   UNL A   1      38.500  27.933  29.182  1.00  0.00     0.016 A 
ATOM     39  C   UNL A   1      38.632  29.329  27.213  1.00  0.00     0.016 A 
ATOM     40  C   UNL A   1      39.817  27.507  28.963  1.00  0.00     0.010 A 
ATOM     41  C   UNL A   1      39.940  28.893  27.002  1.00  0.00     0.010 A 
ATOM     42  C   UNL A   1      40.586  28.067  27.934  1.00  0.00    -0.014 A 
BRANCH  42  43
ATOM     43  C   UNL A   1      42.008  27.714  27.772  1.00  0.00     0.031 A 
ATOM     44  C   UNL A   1      42.314  26.456  27.072  1.00  0.00     0.074 A 
ATOM     45  C   UNL A   1      43.126  28.425  28.035  1.00  0.00     0.049 A 
ATOM     46  N   UNL A   1      42.402  25.288  27.607  1.00  0.00    -0.248 NA
ATOM     47  C   UNL A   1      42.516  26.489  25.619  1.00  0.00     0.031 C 
ATOM     48  C   UNL A   1      43.273  29.856  28.212  1.00  0.00     0.029 A 
ATOM     49  N   UNL A   1      44.415  27.962  28.157  1.00  0.00    -0.354 N 
ATOM     50  C   UNL A   1      42.848  24.454  26.599  1.00  0.00     0.074 A 
ATOM     51  C   UNL A   1      42.724  25.196  25.366  1.00  0.00     0.031 C 
ATOM     52  C   UNL A   1      44.582  30.172  28.372  1.00  0.00     0.029 A 
ATOM     53  C   UNL A   1      45.362  28.945  28.419  1.00  0.00     0.049 A 
ATOM     54  H   UNL A   1      44.648  27.009  28.066  1.00  0.00     0.167 HD
ATOM     55  C   UNL A   1      43.490  23.289  26.871  1.00  0.00     0.037 A 
ATOM     56  C   UNL A   1      46.682  28.768  28.686  1.00  0.00     0.037 A 
ATOM     57  C   UNL A   1      43.512  22.992  28.282  1.00  0.00     0.049 A 
ATOM     58  C   UNL A   1      46.877  27.363  29.119  1.00  0.00     0.074 A 
ATOM     59  C   UNL A   1      42.557  22.827  29.267  1.00  0.00     0.029 A 
ATOM     60  N   UNL A   1      44.697  23.207  28.945  1.00  0.00    -0.354 N 
ATOM     61  N   UNL A   1      46.484  26.885  30.266  1.00  0.00    -0.248 NA
ATOM     62  C   UNL A   1      47.294  26.364  28.144  1.00  0.00     0.031 C 
ATOM     63  C   UNL A   1      43.130  23.384  30.451  1.00  0.00     0.029 A 
ATOM     64  C   UNL A   1      44.406  23.847  30.125  1.00  0.00     0.049 A 
ATOM     65  H   UNL A   1      45.594  22.948  28.631  1.00  0.00     0.167 HD
ATOM     66  C   UNL A   1      46.206  25.552  30.016  1.00  0.00     0.074 A 
ATOM     67  C   UNL A   1      46.882  25.255  28.762  1.00  0.00     0.031 C 
ATOM     68  C   UNL A   1      45.212  24.907  30.693  1.00  0.00     0.037 A 
BRANCH  55  69
ATOM     69  C   UNL A   1      44.351  22.561  25.889  1.00  0.00     0.057 A 
ATOM     70  C   UNL A   1      45.574  23.056  25.398  1.00  0.00     0.134 A 
ATOM     71  C   UNL A   1      44.048  21.235  25.552  1.00  0.00     0.134 A 
ATOM     72  F   UNL A   1      46.052  24.252  25.773  1.00  0.00    -0.206 F 
ATOM     73  C   UNL A   1      46.404  22.308  24.560  1.00  0.00     0.040 A 
ATOM     74  C   UNL A   1      44.898  20.457  24.761  1.00  0.00     0.040 A 
ATOM     75  F   UNL A   1      42.938  20.646  26.021  1.00  0.00    -0.206 F 
ATOM     76  C   UNL A   1      46.072  20.999  24.248  1.00  0.00     0.006 A 
ENDBRANCH  55  69
BRANCH  56  77
ATOM     77  C   UNL A   1      47.824  29.708  28.611  1.00  0.00     0.057 A 
ATOM     78  C   UNL A   1      48.497  29.941  27.402  1.00  0.00     0.134 A 
ATOM     79  C   UNL A   1      48.435  30.234  29.762  1.00  0.00     0.134 A 
ATOM     80  F   UNL A   1      48.050  29.409  26.257  1.00  0.00    -0.206 F 
ATOM     81  C   UNL A   1      49.698  30.656  27.335  1.00  0.00     0.040 A 
ATOM     82  C   UNL A   1      49.643  30.943  29.712  1.00  0.00     0.040 A 
ATOM     83  F   UNL A   1      47.904  30.028  30.975  1.00  0.00    -0.206 F 
ATOM     84  C   UNL A   1      50.282  31.153  28.494  1.00  0.00     0.006 A 
ENDBRANCH  56  77
BRANCH  68  85
ATOM     85  C   UNL A   1      44.740  25.531  31.978  1.00  0.00     0.057 A 
ATOM     86  C   UNL A   1      45.206  25.015  33.192  1.00  0.00     0.134 A 
ATOM     87  C   UNL A   1      43.780  26.553  32.051  1.00  0.00     0.134 A 
ATOM     88  F   UNL A   1      46.087  24.002  33.204  1.00  0.00    -0.206 F 
ATOM     89  C   UNL A   1      44.754  25.501  34.423  1.00  0.00     0.040 A 
ATOM     90  C   UNL A   1      43.349  27.074  33.275  1.00  0.00     0.040 A 
ATOM     91  F   UNL A   1      43.204  27.045  30.947  1.00  0.00    -0.206 F 
ATOM     92  C   UNL A   1      43.832  26.543  34.467  1.00  0.00     0.006 A 
ENDBRANCH  68  85
ENDBRANCH  42  43
ENDBRANCH  35  37
ENDBRANCH  34  35
ENDBRANCH  33  34
ENDBRANCH   1  33
TORSDOF 16
ENDMDL
MODEL 3
REMARK VINA RESULT:     -12.1      2.210      6.211
REMARK SMILES C[C@H]1CC[C@H]([NH2+]Cc2c(C(=O)OCCOC(=O)c3ccc(-c4c5nc(c(-c6c(F)cccc6F)c6ccc([nH]6)c(-c6c(F)cccc6F)c6nc(c(-c7c(F)cccc7F)c7ccc4[nH]7)C=C6)C=C5)cc3)n(Cc3ccccc3F)c3ccccc23)CC1
REMARK SMILES IDX 13 1 12 2 10 3 11 4 9 5 8 6 86 7 72 8 81 9 85 10 82 11 84 12
REMARK SMILES IDX 83 13 7 14 6 15 5 18 1 19 2 20 3 21 88 22 4 23 87 24 73 25
REMARK SMILES IDX 74 26 75 27 79 28 76 29 78 30 80 31 77 32 14 33 15 34 16 35
REMARK SMILES IDX 17 36 18 37 19 38 71 39 20 40 70 41 21 42 22 43 23 44 64 45
REMARK SMILES IDX 24 46 69 47 63 48 65 49 25 50 68 51 62 52 61 53 26 55 52 56
REMARK SMILES IDX 35 57 51 58 36 59 39 60 50 61 66 62 37 63 38 64 49 66 67 67
REMARK SMILES IDX 40 68 27 69 28 70 33 71 29 72 30 73 32 74 34 75 31 76 53 77
REMARK SMILES IDX 54 78 59 79 55 80 56 81 58 82 60 83 57 84 41 85 42 86 47 87
REMARK SMILES IDX 43 88 44 89 46 90 48 91 45 92
REMARK H PARENT 6 16 6 17 65 54 39 65
REMARK Flexibility Score: inf
ROOT
ATOM      1  C   UNL A   1      37.774  21.314  25.034  1.00  0.00     0.275 C 
ENDROOT
BRANCH   1   2
ATOM      2  O   UNL A   1      36.527  21.842  25.578  1.00  0.00    -0.457 OA
BRANCH   2   3
ATOM      3  C   UNL A   1      35.616  22.256  24.662  1.00  0.00     0.355 C 
ATOM      4  O   UNL A   1      35.825  22.222  23.458  1.00  0.00    -0.244 OA
BRANCH   3   5
ATOM      5  C   UNL A   1      34.425  22.865  25.218  1.00  0.00     0.137 A 
ATOM      6  C   UNL A   1      33.918  24.159  25.010  1.00  0.00     0.047 A 
ATOM      7  C   UNL A   1      32.621  24.194  25.648  1.00  0.00     0.009 A 
ATOM      8  N   UNL A   1      33.414  22.112  25.858  1.00  0.00    -0.330 N 
ATOM      9  C   UNL A   1      32.281  22.896  26.014  1.00  0.00     0.050 A 
ATOM     10  C   UNL A   1      31.651  25.212  25.817  1.00  0.00     0.011 A 
ATOM     11  C   UNL A   1      30.963  22.567  26.379  1.00  0.00     0.027 A 
ATOM     12  C   UNL A   1      30.371  24.901  26.288  1.00  0.00     0.001 A 
ATOM     13  C   UNL A   1      30.023  23.584  26.535  1.00  0.00     0.002 A 
BRANCH   6  14
ATOM     14  C   UNL A   1      34.408  25.360  24.207  1.00  0.00     0.300 C 
BRANCH  14  15
ATOM     15  N   UNL A   1      33.989  25.477  22.814  1.00  0.00    -0.340 N 
ATOM     16  H   UNL A   1      34.836  25.477  22.245  1.00  0.00     0.346 HD
ATOM     17  H   UNL A   1      33.354  24.689  22.682  1.00  0.00     0.346 HD
BRANCH  15  18
ATOM     18  C   UNL A   1      33.191  26.648  22.406  1.00  0.00     0.182 C 
ATOM     19  C   UNL A   1      29.956  29.454  23.679  1.00  0.00     0.007 C 
ATOM     20  C   UNL A   1      31.007  28.359  23.517  1.00  0.00    -0.014 C 
ATOM     21  C   UNL A   1      32.383  28.954  23.240  1.00  0.00     0.009 C 
ATOM     22  C   UNL A   1      30.687  27.392  22.376  1.00  0.00     0.009 C 
ATOM     23  C   UNL A   1      33.434  27.856  23.305  1.00  0.00     0.065 C 
ATOM     24  C   UNL A   1      31.700  26.239  22.318  1.00  0.00     0.065 C 
ENDBRANCH  15  18
ENDBRANCH  14  15
ENDBRANCH   6  14
BRANCH   8  25
ATOM     25  C   UNL A   1      33.373  20.641  25.950  1.00  0.00     0.161 C 
BRANCH  25  26
ATOM     26  C   UNL A   1      32.805  19.795  24.827  1.00  0.00     0.008 A 
ATOM     27  C   UNL A   1      32.522  20.313  23.553  1.00  0.00     0.008 A 
ATOM     28  C   UNL A   1      32.817  18.397  24.952  1.00  0.00     0.128 A 
ATOM     29  C   UNL A   1      32.309  19.473  22.451  1.00  0.00     0.001 A 
ATOM     30  C   UNL A   1      32.619  17.552  23.857  1.00  0.00     0.039 A 
ATOM     31  F   UNL A   1      33.113  17.837  26.133  1.00  0.00    -0.207 F 
ATOM     32  C   UNL A   1      32.377  18.092  22.598  1.00  0.00     0.003 A 
ENDBRANCH  25  26
ENDBRANCH   8  25
ENDBRANCH   3   5
ENDBRANCH   2   3
ENDBRANCH   1   2
BRANCH   1  33
ATOM     33  C   UNL A   1      38.922  21.013  26.015  1.00  0.00     0.275 C 
BRANCH  33  34
ATOM     34  O   UNL A   1      39.209  22.218  26.760  1.00  0.00    -0.458 OA
BRANCH  34  35
ATOM     35  C   UNL A   1      40.403  22.237  27.410  1.00  0.00     0.338 C 
ATOM     36  O   UNL A   1      41.067  21.262  27.713  1.00  0.00    -0.246 OA
BRANCH  35  37
ATOM     37  C   UNL A   1      40.914  23.636  27.374  1.00  0.00     0.060 A 
ATOM     38  C   UNL A   1      41.731  24.158  28.384  1.00  0.00     0.016 A 
ATOM     39  C   UNL A   1      40.281  24.502  26.481  1.00  0.00     0.016 A 
ATOM     40  C   UNL A   1      41.751  25.540  28.615  1.00  0.00     0.010 A 
ATOM     41  C   UNL A   1      40.313  25.877  26.716  1.00  0.00     0.010 A 
ATOM     42  C   UNL A   1      40.953  26.401  27.850  1.00  0.00    -0.014 A 
BRANCH  42  43
ATOM     43  C   UNL A   1      40.875  27.840  28.162  1.00  0.00     0.031 A 
ATOM     44  C   UNL A   1      41.979  28.692  27.695  1.00  0.00     0.074 A 
ATOM     45  C   UNL A   1      39.872  28.569  28.699  1.00  0.00     0.049 A 
ATOM     46  N   UNL A   1      43.078  28.928  28.322  1.00  0.00    -0.248 NA
ATOM     47  C   UNL A   1      41.870  29.328  26.377  1.00  0.00     0.031 C 
ATOM     48  C   UNL A   1      38.463  28.245  28.797  1.00  0.00     0.029 A 
ATOM     49  N   UNL A   1      39.943  29.828  29.249  1.00  0.00    -0.354 N 
ATOM     50  C   UNL A   1      43.732  29.887  27.571  1.00  0.00     0.074 A 
ATOM     51  C   UNL A   1      43.042  29.960  26.305  1.00  0.00     0.031 C 
ATOM     52  C   UNL A   1      37.783  29.291  29.327  1.00  0.00     0.029 A 
ATOM     53  C   UNL A   1      38.730  30.327  29.711  1.00  0.00     0.049 A 
ATOM     54  H   UNL A   1      40.785  30.335  29.312  1.00  0.00     0.167 HD
ATOM     55  C   UNL A   1      44.664  30.708  28.121  1.00  0.00     0.037 A 
ATOM     56  C   UNL A   1      38.518  31.486  30.385  1.00  0.00     0.037 A 
ATOM     57  C   UNL A   1      44.961  30.362  29.489  1.00  0.00     0.049 A 
ATOM     58  C   UNL A   1      39.812  31.918  30.969  1.00  0.00     0.074 A 
ATOM     59  C   UNL A   1      45.410  29.230  30.141  1.00  0.00     0.029 A 
ATOM     60  N   UNL A   1      44.420  31.164  30.465  1.00  0.00    -0.354 N 
ATOM     61  N   UNL A   1      40.399  31.332  31.973  1.00  0.00    -0.248 NA
ATOM     62  C   UNL A   1      40.632  32.886  30.253  1.00  0.00     0.031 C 
ATOM     63  C   UNL A   1      44.727  29.216  31.396  1.00  0.00     0.029 A 
ATOM     64  C   UNL A   1      43.908  30.345  31.443  1.00  0.00     0.049 A 
ATOM     65  H   UNL A   1      44.402  32.148  30.465  1.00  0.00     0.167 HD
ATOM     66  C   UNL A   1      41.751  31.532  31.757  1.00  0.00     0.074 A 
ATOM     67  C   UNL A   1      41.822  32.627  30.801  1.00  0.00     0.031 C 
ATOM     68  C   UNL A   1      42.667  30.598  32.145  1.00  0.00     0.037 A 
BRANCH  55  69
ATOM     69  C   UNL A   1      45.096  32.005  27.514  1.00  0.00     0.057 A 
ATOM     70  C   UNL A   1      44.356  33.198  27.600  1.00  0.00     0.134 A 
ATOM     71  C   UNL A   1      46.385  32.122  26.976  1.00  0.00     0.134 A 
ATOM     72  F   UNL A   1      43.174  33.250  28.233  1.00  0.00    -0.206 F 
ATOM     73  C   UNL A   1      44.834  34.415  27.110  1.00  0.00     0.040 A 
ATOM     74  C   UNL A   1      46.898  33.344  26.534  1.00  0.00     0.040 A 
ATOM     75  F   UNL A   1      47.198  31.056  26.908  1.00  0.00    -0.206 F 
ATOM     76  C   UNL A   1      46.114  34.493  26.585  1.00  0.00     0.006 A 
ENDBRANCH  55  69
BRANCH  56  77
ATOM     77  C   UNL A   1      37.286  32.281  30.591  1.00  0.00     0.057 A 
ATOM     78  C   UNL A   1      36.347  31.928  31.571  1.00  0.00     0.134 A 
ATOM     79  C   UNL A   1      36.880  33.277  29.687  1.00  0.00     0.134 A 
ATOM     80  F   UNL A   1      36.596  30.928  32.428  1.00  0.00    -0.206 F 
ATOM     81  C   UNL A   1      35.085  32.527  31.656  1.00  0.00     0.040 A 
ATOM     82  C   UNL A   1      35.616  33.879  29.752  1.00  0.00     0.040 A 
ATOM     83  F   UNL A   1      37.680  33.657  28.680  1.00  0.00    -0.206 F 
ATOM     84  C   UNL A   1      34.711  33.501  30.738  1.00  0.00     0.006 A 
ENDBRANCH  56  77
BRANCH  68  85
ATOM     85  C   UNL A   1      42.225  29.587  33.167  1.00  0.00     0.057 A 
ATOM     86  C   UNL A   1      42.526  29.810  34.515  1.00  0.00     0.134 A 
ATOM     87  C   UNL A   1      41.600  28.369  32.852  1.00  0.00     0.134 A 
ATOM     88  F   UNL A   1      43.169  30.928  34.888  1.00  0.00    -0.206 F 
ATOM     89  C   UNL A   1      42.208  28.879  35.507  1.00  0.00     0.040 A 
ATOM     90  C   UNL A   1      41.241  27.447  33.839  1.00  0.00     0.040 A 
ATOM     91  F   UNL A   1      41.357  28.022  31.582  1.00  0.00    -0.206 F 
ATOM     92  C   UNL A   1      41.551  27.698  35.172  1.00  0.00     0.006 A 
ENDBRANCH  68  85
ENDBRANCH  42  43
ENDBRANCH  35  37
ENDBRANCH  34  35
ENDBRANCH  33  34
ENDBRANCH   1  33
TORSDOF 16
ENDMDL
