MODEL 1
REMARK VINA RESULT:     -11.6      0.000      0.000
REMARK SMILES Cc1cc(C)cc(CSc2cc(C(=O)OCCOC(=O)c3ccc(-c4c5nc(c(-c6c(F)cccc6F)c6ccc([nH]6)c(-c6c(F)cccc6F)c6nc(c(-c7c(F)cccc7F)c7ccc4[nH]7)C=C6)C=C5)cc3)cc(Cl)n2)c1
REMARK SMILES IDX 16 1 15 2 13 3 14 4 12 5 10 6 11 7 78 8 76 9 75 10 77 11
REMARK SMILES IDX 9 12 8 13 7 14 1 15 2 16 3 17 79 18 4 19 5 20 6 21 17 22
REMARK SMILES IDX 18 23 19 24 20 25 21 26 22 27 74 28 23 29 73 30 24 31 25 32
REMARK SMILES IDX 26 33 67 34 27 35 72 36 66 37 68 38 28 39 71 40 65 41 64 42
REMARK SMILES IDX 29 44 55 45 38 46 54 47 39 48 42 49 53 50 69 51 40 52 41 53
REMARK SMILES IDX 52 55 70 56 43 57 30 58 31 59 36 60 32 61 33 62 35 63 37 64
REMARK SMILES IDX 34 65 56 66 57 67 62 68 58 69 59 70 61 71 63 72 60 73 44 74
REMARK SMILES IDX 45 75 50 76 46 77 47 78 49 79 51 80 48 81
REMARK H PARENT 68 43 42 54
REMARK Flexibility Score: inf
ROOT
ATOM      1  C   UNL A   1      33.711  34.570  29.606  1.00  0.00     0.275 C 
ENDROOT
BRANCH   1   2
ATOM      2  O   UNL A   1      34.136  33.696  28.540  1.00  0.00    -0.458 OA
BRANCH   2   3
ATOM      3  C   UNL A   1      33.156  33.052  27.864  1.00  0.00     0.338 C 
ATOM      4  O   UNL A   1      32.147  33.543  27.385  1.00  0.00    -0.246 OA
BRANCH   3   5
ATOM      5  C   UNL A   1      33.545  31.644  27.633  1.00  0.00     0.065 A 
ATOM      6  C   UNL A   1      32.962  29.508  26.742  1.00  0.00     0.099 A 
ATOM      7  C   UNL A   1      32.577  30.778  27.122  1.00  0.00     0.051 A 
ATOM      8  N   UNL A   1      34.206  29.037  26.941  1.00  0.00    -0.230 NA
ATOM      9  C   UNL A   1      35.091  29.869  27.525  1.00  0.00     0.131 A 
ATOM     10  C   UNL A   1      34.833  31.183  27.864  1.00  0.00     0.056 A 
ATOM     11  Cl  UNL A   1      36.630  29.175  27.826  1.00  0.00    -0.062 Cl
BRANCH   6  12
ATOM     12  S   UNL A   1      31.830  28.509  25.798  1.00  0.00    -0.102 SA
BRANCH  12  13
ATOM     13  C   UNL A   1      33.009  27.527  24.821  1.00  0.00     0.112 C 
BRANCH  13  14
ATOM     14  C   UNL A   1      33.159  26.108  25.306  1.00  0.00    -0.037 A 
ATOM     15  C   UNL A   1      31.006  23.358  26.830  1.00  0.00     0.044 C 
ATOM     16  C   UNL A   1      32.188  24.102  26.282  1.00  0.00    -0.051 A 
ATOM     17  C   UNL A   1      33.457  23.510  26.303  1.00  0.00     0.006 A 
ATOM     18  C   UNL A   1      32.048  25.402  25.785  1.00  0.00     0.008 A 
ATOM     19  C   UNL A   1      34.577  24.193  25.817  1.00  0.00    -0.051 A 
ATOM     20  C   UNL A   1      35.936  23.566  25.889  1.00  0.00     0.044 C 
ATOM     21  C   UNL A   1      34.416  25.483  25.305  1.00  0.00     0.008 A 
ENDBRANCH  13  14
ENDBRANCH  12  13
ENDBRANCH   6  12
ENDBRANCH   3   5
ENDBRANCH   2   3
ENDBRANCH   1   2
BRANCH   1  22
ATOM     22  C   UNL A   1      34.328  34.147  30.940  1.00  0.00     0.275 C 
BRANCH  22  23
ATOM     23  O   UNL A   1      34.608  32.735  30.941  1.00  0.00    -0.458 OA
BRANCH  23  24
ATOM     24  C   UNL A   1      35.445  32.308  31.911  1.00  0.00     0.338 C 
ATOM     25  O   UNL A   1      35.305  32.403  33.117  1.00  0.00    -0.246 OA
BRANCH  24  26
ATOM     26  C   UNL A   1      36.592  31.622  31.297  1.00  0.00     0.060 A 
ATOM     27  C   UNL A   1      37.205  30.591  32.003  1.00  0.00     0.016 A 
ATOM     28  C   UNL A   1      37.142  32.081  30.104  1.00  0.00     0.016 A 
ATOM     29  C   UNL A   1      38.427  30.076  31.578  1.00  0.00     0.010 A 
ATOM     30  C   UNL A   1      38.315  31.489  29.621  1.00  0.00     0.010 A 
ATOM     31  C   UNL A   1      38.989  30.503  30.369  1.00  0.00    -0.014 A 
BRANCH  31  32
ATOM     32  C   UNL A   1      40.286  29.951  29.886  1.00  0.00     0.031 A 
ATOM     33  C   UNL A   1      41.495  30.844  29.801  1.00  0.00     0.074 A 
ATOM     34  C   UNL A   1      40.387  28.664  29.498  1.00  0.00     0.049 A 
ATOM     35  N   UNL A   1      42.620  30.658  29.159  1.00  0.00    -0.248 NA
ATOM     36  C   UNL A   1      41.418  32.123  30.523  1.00  0.00     0.031 C 
ATOM     37  C   UNL A   1      39.325  27.661  29.585  1.00  0.00     0.029 A 
ATOM     38  N   UNL A   1      41.439  27.981  28.936  1.00  0.00    -0.354 N 
ATOM     39  C   UNL A   1      43.356  31.822  29.341  1.00  0.00     0.074 A 
ATOM     40  C   UNL A   1      42.556  32.704  30.165  1.00  0.00     0.031 C 
ATOM     41  C   UNL A   1      39.782  26.492  29.113  1.00  0.00     0.029 A 
ATOM     42  C   UNL A   1      41.133  26.684  28.599  1.00  0.00     0.049 A 
ATOM     43  H   UNL A   1      42.327  28.382  28.790  1.00  0.00     0.167 HD
ATOM     44  C   UNL A   1      44.583  32.127  28.856  1.00  0.00     0.037 A 
ATOM     45  C   UNL A   1      41.831  25.769  27.900  1.00  0.00     0.037 A 
ATOM     46  C   UNL A   1      45.399  31.222  28.090  1.00  0.00     0.049 A 
ATOM     47  C   UNL A   1      43.174  26.139  27.340  1.00  0.00     0.074 A 
ATOM     48  C   UNL A   1      46.658  31.433  27.556  1.00  0.00     0.029 A 
ATOM     49  N   UNL A   1      45.042  29.921  27.768  1.00  0.00    -0.354 N 
ATOM     50  N   UNL A   1      43.827  27.270  27.445  1.00  0.00    -0.248 NA
ATOM     51  C   UNL A   1      43.865  25.116  26.542  1.00  0.00     0.031 C 
ATOM     52  C   UNL A   1      47.052  30.270  26.889  1.00  0.00     0.029 A 
ATOM     53  C   UNL A   1      46.055  29.320  27.040  1.00  0.00     0.049 A 
ATOM     54  H   UNL A   1      44.194  29.489  28.021  1.00  0.00     0.167 HD
ATOM     55  C   UNL A   1      45.012  27.089  26.746  1.00  0.00     0.074 A 
ATOM     56  C   UNL A   1      44.993  25.738  26.225  1.00  0.00     0.031 C 
ATOM     57  C   UNL A   1      46.025  27.967  26.551  1.00  0.00     0.037 A 
BRANCH  44  58
ATOM     58  C   UNL A   1      45.106  33.511  29.104  1.00  0.00     0.057 A 
ATOM     59  C   UNL A   1      45.945  33.811  30.184  1.00  0.00     0.134 A 
ATOM     60  C   UNL A   1      44.792  34.553  28.219  1.00  0.00     0.134 A 
ATOM     61  F   UNL A   1      46.273  32.862  31.073  1.00  0.00    -0.206 F 
ATOM     62  C   UNL A   1      46.438  35.102  30.386  1.00  0.00     0.040 A 
ATOM     63  C   UNL A   1      45.298  35.840  28.398  1.00  0.00     0.040 A 
ATOM     64  F   UNL A   1      43.999  34.331  27.161  1.00  0.00    -0.206 F 
ATOM     65  C   UNL A   1      46.120  36.120  29.487  1.00  0.00     0.006 A 
ENDBRANCH  44  58
BRANCH  45  66
ATOM     66  C   UNL A   1      41.241  24.431  27.646  1.00  0.00     0.057 A 
ATOM     67  C   UNL A   1      41.670  23.306  28.358  1.00  0.00     0.134 A 
ATOM     68  C   UNL A   1      40.226  24.248  26.699  1.00  0.00     0.134 A 
ATOM     69  F   UNL A   1      42.655  23.414  29.261  1.00  0.00    -0.206 F 
ATOM     70  C   UNL A   1      41.113  22.045  28.135  1.00  0.00     0.040 A 
ATOM     71  C   UNL A   1      39.642  22.998  26.484  1.00  0.00     0.040 A 
ATOM     72  F   UNL A   1      39.769  25.287  25.985  1.00  0.00    -0.206 F 
ATOM     73  C   UNL A   1      40.090  21.891  27.202  1.00  0.00     0.006 A 
ENDBRANCH  45  66
BRANCH  57  74
ATOM     74  C   UNL A   1      47.219  27.480  25.788  1.00  0.00     0.057 A 
ATOM     75  C   UNL A   1      48.284  26.830  26.421  1.00  0.00     0.134 A 
ATOM     76  C   UNL A   1      47.271  27.612  24.395  1.00  0.00     0.134 A 
ATOM     77  F   UNL A   1      48.297  26.686  27.755  1.00  0.00    -0.206 F 
ATOM     78  C   UNL A   1      49.365  26.332  25.694  1.00  0.00     0.040 A 
ATOM     79  C   UNL A   1      48.338  27.103  23.655  1.00  0.00     0.040 A 
ATOM     80  F   UNL A   1      46.277  28.222  23.732  1.00  0.00    -0.206 F 
ATOM     81  C   UNL A   1      49.390  26.462  24.305  1.00  0.00     0.006 A 
ENDBRANCH  57  74
ENDBRANCH  31  32
ENDBRANCH  24  26
ENDBRANCH  23  24
ENDBRANCH  22  23
ENDBRANCH   1  22
TORSDOF 14
ENDMDL
MODEL 2
REMARK VINA RESULT:     -11.4      5.305      9.960
REMARK SMILES Cc1cc(C)cc(CSc2cc(C(=O)OCCOC(=O)c3ccc(-c4c5nc(c(-c6c(F)cccc6F)c6ccc([nH]6)c(-c6c(F)cccc6F)c6nc(c(-c7c(F)cccc7F)c7ccc4[nH]7)C=C6)C=C5)cc3)cc(Cl)n2)c1
REMARK SMILES IDX 16 1 15 2 13 3 14 4 12 5 10 6 11 7 78 8 76 9 75 10 77 11
REMARK SMILES IDX 9 12 8 13 7 14 1 15 2 16 3 17 79 18 4 19 5 20 6 21 17 22
REMARK SMILES IDX 18 23 19 24 20 25 21 26 22 27 74 28 23 29 73 30 24 31 25 32
REMARK SMILES IDX 26 33 67 34 27 35 72 36 66 37 68 38 28 39 71 40 65 41 64 42
REMARK SMILES IDX 29 44 55 45 38 46 54 47 39 48 42 49 53 50 69 51 40 52 41 53
REMARK SMILES IDX 52 55 70 56 43 57 30 58 31 59 36 60 32 61 33 62 35 63 37 64
REMARK SMILES IDX 34 65 56 66 57 67 62 68 58 69 59 70 61 71 63 72 60 73 44 74
REMARK SMILES IDX 45 75 50 76 46 77 47 78 49 79 51 80 48 81
REMARK H PARENT 68 43 42 54
REMARK Flexibility Score: inf
ROOT
ATOM      1  C   UNL A   1      42.920  20.265  25.900  1.00  0.00     0.275 C 
ENDROOT
BRANCH   1   2
ATOM      2  O   UNL A   1      41.524  20.477  25.605  1.00  0.00    -0.458 OA
BRANCH   2   3
ATOM      3  C   UNL A   1      40.696  20.600  26.668  1.00  0.00     0.338 C 
ATOM      4  O   UNL A   1      40.770  20.006  27.731  1.00  0.00    -0.246 OA
BRANCH   3   5
ATOM      5  C   UNL A   1      39.736  21.700  26.434  1.00  0.00     0.065 A 
ATOM      6  C   UNL A   1      37.693  22.418  25.430  1.00  0.00     0.099 A 
ATOM      7  C   UNL A   1      38.692  21.471  25.536  1.00  0.00     0.051 A 
ATOM      8  N   UNL A   1      37.737  23.595  26.078  1.00  0.00    -0.230 NA
ATOM      9  C   UNL A   1      38.808  23.823  26.864  1.00  0.00     0.131 A 
ATOM     10  C   UNL A   1      39.817  22.911  27.105  1.00  0.00     0.056 A 
ATOM     11  Cl  UNL A   1      38.842  25.376  27.590  1.00  0.00    -0.062 Cl
BRANCH   6  12
ATOM     12  S   UNL A   1      36.205  22.005  24.544  1.00  0.00    -0.102 SA
BRANCH  12  13
ATOM     13  C   UNL A   1      34.973  22.865  25.571  1.00  0.00     0.112 C 
BRANCH  13  14
ATOM     14  C   UNL A   1      34.475  24.151  24.966  1.00  0.00    -0.037 A 
ATOM     15  C   UNL A   1      33.767  27.739  26.041  1.00  0.00     0.044 C 
ATOM     16  C   UNL A   1      33.889  26.501  25.201  1.00  0.00    -0.051 A 
ATOM     17  C   UNL A   1      33.453  26.515  23.870  1.00  0.00     0.006 A 
ATOM     18  C   UNL A   1      34.395  25.315  25.742  1.00  0.00     0.008 A 
ATOM     19  C   UNL A   1      33.538  25.368  23.074  1.00  0.00    -0.051 A 
ATOM     20  C   UNL A   1      33.025  25.384  21.665  1.00  0.00     0.044 C 
ATOM     21  C   UNL A   1      34.065  24.197  23.624  1.00  0.00     0.008 A 
ENDBRANCH  13  14
ENDBRANCH  12  13
ENDBRANCH   6  12
ENDBRANCH   3   5
ENDBRANCH   2   3
ENDBRANCH   1   2
BRANCH   1  22
ATOM     22  C   UNL A   1      43.761  21.467  25.468  1.00  0.00     0.275 C 
BRANCH  22  23
ATOM     23  O   UNL A   1      42.929  22.632  25.309  1.00  0.00    -0.458 OA
BRANCH  23  24
ATOM     24  C   UNL A   1      43.586  23.810  25.230  1.00  0.00     0.338 C 
ATOM     25  O   UNL A   1      44.478  24.121  24.461  1.00  0.00    -0.246 OA
BRANCH  24  26
ATOM     26  C   UNL A   1      43.022  24.748  26.212  1.00  0.00     0.060 A 
ATOM     27  C   UNL A   1      42.952  26.097  25.878  1.00  0.00     0.016 A 
ATOM     28  C   UNL A   1      42.695  24.324  27.497  1.00  0.00     0.016 A 
ATOM     29  C   UNL A   1      42.653  27.049  26.850  1.00  0.00     0.010 A 
ATOM     30  C   UNL A   1      42.291  25.271  28.445  1.00  0.00     0.010 A 
ATOM     31  C   UNL A   1      42.297  26.647  28.143  1.00  0.00    -0.014 A 
BRANCH  31  32
ATOM     32  C   UNL A   1      41.954  27.648  29.192  1.00  0.00     0.031 A 
ATOM     33  C   UNL A   1      42.771  27.718  30.455  1.00  0.00     0.074 A 
ATOM     34  C   UNL A   1      40.903  28.477  29.038  1.00  0.00     0.049 A 
ATOM     35  N   UNL A   1      42.489  28.298  31.593  1.00  0.00    -0.248 NA
ATOM     36  C   UNL A   1      44.072  27.031  30.435  1.00  0.00     0.031 C 
ATOM     37  C   UNL A   1      40.061  28.574  27.846  1.00  0.00     0.029 A 
ATOM     38  N   UNL A   1      40.355  29.393  29.904  1.00  0.00    -0.354 N 
ATOM     39  C   UNL A   1      43.542  27.988  32.446  1.00  0.00     0.074 A 
ATOM     40  C   UNL A   1      44.475  27.180  31.690  1.00  0.00     0.031 C 
ATOM     41  C   UNL A   1      39.117  29.506  28.047  1.00  0.00     0.029 A 
ATOM     42  C   UNL A   1      39.224  30.002  29.413  1.00  0.00     0.049 A 
ATOM     43  H   UNL A   1      40.736  29.595  30.789  1.00  0.00     0.167 HD
ATOM     44  C   UNL A   1      43.706  28.340  33.743  1.00  0.00     0.037 A 
ATOM     45  C   UNL A   1      38.335  30.817  30.011  1.00  0.00     0.037 A 
ATOM     46  C   UNL A   1      42.805  29.196  34.470  1.00  0.00     0.049 A 
ATOM     47  C   UNL A   1      38.515  31.166  31.461  1.00  0.00     0.074 A 
ATOM     48  C   UNL A   1      42.885  29.615  35.787  1.00  0.00     0.029 A 
ATOM     49  N   UNL A   1      41.670  29.781  33.932  1.00  0.00    -0.354 N 
ATOM     50  N   UNL A   1      39.467  30.801  32.284  1.00  0.00    -0.248 NA
ATOM     51  C   UNL A   1      37.484  32.018  32.071  1.00  0.00     0.031 C 
ATOM     52  C   UNL A   1      41.783  30.434  36.053  1.00  0.00     0.029 A 
ATOM     53  C   UNL A   1      41.038  30.555  34.892  1.00  0.00     0.049 A 
ATOM     54  H   UNL A   1      41.359  29.664  33.006  1.00  0.00     0.167 HD
ATOM     55  C   UNL A   1      39.163  31.393  33.501  1.00  0.00     0.074 A 
ATOM     56  C   UNL A   1      37.941  32.146  33.310  1.00  0.00     0.031 C 
ATOM     57  C   UNL A   1      39.836  31.315  34.674  1.00  0.00     0.037 A 
BRANCH  44  58
ATOM     58  C   UNL A   1      44.884  27.769  34.476  1.00  0.00     0.057 A 
ATOM     59  C   UNL A   1      44.832  26.529  35.124  1.00  0.00     0.134 A 
ATOM     60  C   UNL A   1      46.103  28.461  34.498  1.00  0.00     0.134 A 
ATOM     61  F   UNL A   1      43.693  25.823  35.150  1.00  0.00    -0.206 F 
ATOM     62  C   UNL A   1      45.947  26.006  35.784  1.00  0.00     0.040 A 
ATOM     63  C   UNL A   1      47.229  27.937  35.133  1.00  0.00     0.040 A 
ATOM     64  F   UNL A   1      46.222  29.651  33.891  1.00  0.00    -0.206 F 
ATOM     65  C   UNL A   1      47.152  26.708  35.783  1.00  0.00     0.006 A 
ENDBRANCH  44  58
BRANCH  45  66
ATOM     66  C   UNL A   1      37.163  31.313  29.248  1.00  0.00     0.057 A 
ATOM     67  C   UNL A   1      37.142  32.606  28.715  1.00  0.00     0.134 A 
ATOM     68  C   UNL A   1      36.043  30.503  29.020  1.00  0.00     0.134 A 
ATOM     69  F   UNL A   1      38.174  33.437  28.920  1.00  0.00    -0.206 F 
ATOM     70  C   UNL A   1      36.049  33.078  27.985  1.00  0.00     0.040 A 
ATOM     71  C   UNL A   1      34.955  30.952  28.270  1.00  0.00     0.040 A 
ATOM     72  F   UNL A   1      36.002  29.252  29.502  1.00  0.00    -0.206 F 
ATOM     73  C   UNL A   1      34.955  32.246  27.754  1.00  0.00     0.006 A 
ENDBRANCH  45  66
BRANCH  57  74
ATOM     74  C   UNL A   1      39.298  32.105  35.828  1.00  0.00     0.057 A 
ATOM     75  C   UNL A   1      39.684  33.430  36.058  1.00  0.00     0.134 A 
ATOM     76  C   UNL A   1      38.337  31.548  36.681  1.00  0.00     0.134 A 
ATOM     77  F   UNL A   1      40.611  34.014  35.283  1.00  0.00    -0.206 F 
ATOM     78  C   UNL A   1      39.136  34.174  37.103  1.00  0.00     0.040 A 
ATOM     79  C   UNL A   1      37.768  32.287  37.718  1.00  0.00     0.040 A 
ATOM     80  F   UNL A   1      37.924  30.284  36.507  1.00  0.00    -0.206 F 
ATOM     81  C   UNL A   1      38.169  33.605  37.932  1.00  0.00     0.006 A 
ENDBRANCH  57  74
ENDBRANCH  31  32
ENDBRANCH  24  26
ENDBRANCH  23  24
ENDBRANCH  22  23
ENDBRANCH   1  22
TORSDOF 14
ENDMDL
MODEL 3
REMARK VINA RESULT:     -11.4      5.182      7.532
REMARK SMILES Cc1cc(C)cc(CSc2cc(C(=O)OCCOC(=O)c3ccc(-c4c5nc(c(-c6c(F)cccc6F)c6ccc([nH]6)c(-c6c(F)cccc6F)c6nc(c(-c7c(F)cccc7F)c7ccc4[nH]7)C=C6)C=C5)cc3)cc(Cl)n2)c1
REMARK SMILES IDX 16 1 15 2 13 3 14 4 12 5 10 6 11 7 78 8 76 9 75 10 77 11
REMARK SMILES IDX 9 12 8 13 7 14 1 15 2 16 3 17 79 18 4 19 5 20 6 21 17 22
REMARK SMILES IDX 18 23 19 24 20 25 21 26 22 27 74 28 23 29 73 30 24 31 25 32
REMARK SMILES IDX 26 33 67 34 27 35 72 36 66 37 68 38 28 39 71 40 65 41 64 42
REMARK SMILES IDX 29 44 55 45 38 46 54 47 39 48 42 49 53 50 69 51 40 52 41 53
REMARK SMILES IDX 52 55 70 56 43 57 30 58 31 59 36 60 32 61 33 62 35 63 37 64
REMARK SMILES IDX 34 65 56 66 57 67 62 68 58 69 59 70 61 71 63 72 60 73 44 74
REMARK SMILES IDX 45 75 50 76 46 77 47 78 49 79 51 80 48 81
REMARK H PARENT 68 43 42 54
REMARK Flexibility Score: inf
ROOT
ATOM      1  C   UNL A   1      33.995  35.689  28.878  1.00  0.00     0.275 C 
ENDROOT
BRANCH   1   2
ATOM      2  O   UNL A   1      34.054  34.266  29.107  1.00  0.00    -0.458 OA
BRANCH   2   3
ATOM      3  C   UNL A   1      33.365  33.488  28.239  1.00  0.00     0.338 C 
ATOM      4  O   UNL A   1      32.360  33.791  27.617  1.00  0.00    -0.246 OA
BRANCH   3   5
ATOM      5  C   UNL A   1      34.095  32.223  28.010  1.00  0.00     0.065 A 
ATOM      6  C   UNL A   1      34.036  29.974  27.213  1.00  0.00     0.099 A 
ATOM      7  C   UNL A   1      33.357  31.114  27.593  1.00  0.00     0.051 A 
ATOM      8  N   UNL A   1      35.372  29.853  27.325  1.00  0.00    -0.230 NA
ATOM      9  C   UNL A   1      36.043  30.911  27.822  1.00  0.00     0.131 A 
ATOM     10  C   UNL A   1      35.471  32.124  28.151  1.00  0.00     0.056 A 
ATOM     11  Cl  UNL A   1      37.727  30.656  28.019  1.00  0.00    -0.062 Cl
BRANCH   6  12
ATOM     12  S   UNL A   1      33.146  28.676  26.380  1.00  0.00    -0.102 SA
BRANCH  12  13
ATOM     13  C   UNL A   1      32.403  29.624  25.016  1.00  0.00     0.112 C 
BRANCH  13  14
ATOM     14  C   UNL A   1      31.246  28.923  24.354  1.00  0.00    -0.037 A 
ATOM     15  C   UNL A   1      28.000  29.811  22.565  1.00  0.00     0.044 C 
ATOM     16  C   UNL A   1      29.118  29.020  23.177  1.00  0.00    -0.051 A 
ATOM     17  C   UNL A   1      29.044  27.621  23.215  1.00  0.00     0.006 A 
ATOM     18  C   UNL A   1      30.220  29.663  23.752  1.00  0.00     0.008 A 
ATOM     19  C   UNL A   1      30.065  26.864  23.800  1.00  0.00    -0.051 A 
ATOM     20  C   UNL A   1      29.951  25.371  23.876  1.00  0.00     0.044 C 
ATOM     21  C   UNL A   1      31.168  27.521  24.351  1.00  0.00     0.008 A 
ENDBRANCH  13  14
ENDBRANCH  12  13
ENDBRANCH   6  12
ENDBRANCH   3   5
ENDBRANCH   2   3
ENDBRANCH   1   2
BRANCH   1  22
ATOM     22  C   UNL A   1      32.901  36.337  29.727  1.00  0.00     0.275 C 
BRANCH  22  23
ATOM     23  O   UNL A   1      32.520  35.465  30.808  1.00  0.00    -0.458 OA
BRANCH  23  24
ATOM     24  C   UNL A   1      32.761  35.938  32.051  1.00  0.00     0.338 C 
ATOM     25  O   UNL A   1      32.174  36.827  32.641  1.00  0.00    -0.246 OA
BRANCH  24  26
ATOM     26  C   UNL A   1      33.852  35.165  32.662  1.00  0.00     0.060 A 
ATOM     27  C   UNL A   1      35.143  35.684  32.613  1.00  0.00     0.016 A 
ATOM     28  C   UNL A   1      33.628  33.883  33.155  1.00  0.00     0.016 A 
ATOM     29  C   UNL A   1      36.234  34.892  32.960  1.00  0.00     0.010 A 
ATOM     30  C   UNL A   1      34.717  33.126  33.604  1.00  0.00     0.010 A 
ATOM     31  C   UNL A   1      36.035  33.608  33.481  1.00  0.00    -0.014 A 
BRANCH  31  32
ATOM     32  C   UNL A   1      37.187  32.751  33.877  1.00  0.00     0.031 A 
ATOM     33  C   UNL A   1      37.866  32.975  35.203  1.00  0.00     0.074 A 
ATOM     34  C   UNL A   1      37.650  31.791  33.052  1.00  0.00     0.049 A 
ATOM     35  N   UNL A   1      39.032  32.551  35.619  1.00  0.00    -0.248 NA
ATOM     36  C   UNL A   1      37.139  33.798  36.182  1.00  0.00     0.031 C 
ATOM     37  C   UNL A   1      37.058  31.411  31.769  1.00  0.00     0.029 A 
ATOM     38  N   UNL A   1      38.742  30.964  33.168  1.00  0.00    -0.354 N 
ATOM     39  C   UNL A   1      39.209  33.112  36.879  1.00  0.00     0.074 A 
ATOM     40  C   UNL A   1      38.026  33.895  37.163  1.00  0.00     0.031 C 
ATOM     41  C   UNL A   1      37.779  30.419  31.227  1.00  0.00     0.029 A 
ATOM     42  C   UNL A   1      38.938  30.159  32.072  1.00  0.00     0.049 A 
ATOM     43  H   UNL A   1      39.326  30.949  33.961  1.00  0.00     0.167 HD
ATOM     44  C   UNL A   1      40.269  32.989  37.712  1.00  0.00     0.037 A 
ATOM     45  C   UNL A   1      39.964  29.349  31.749  1.00  0.00     0.037 A 
ATOM     46  C   UNL A   1      41.415  32.158  37.449  1.00  0.00     0.049 A 
ATOM     47  C   UNL A   1      41.146  29.254  32.670  1.00  0.00     0.074 A 
ATOM     48  C   UNL A   1      42.539  31.963  38.233  1.00  0.00     0.029 A 
ATOM     49  N   UNL A   1      41.571  31.367  36.322  1.00  0.00    -0.354 N 
ATOM     50  N   UNL A   1      41.344  29.852  33.819  1.00  0.00    -0.248 NA
ATOM     51  C   UNL A   1      42.257  28.394  32.238  1.00  0.00     0.031 C 
ATOM     52  C   UNL A   1      43.387  31.073  37.567  1.00  0.00     0.029 A 
ATOM     53  C   UNL A   1      42.774  30.685  36.387  1.00  0.00     0.049 A 
ATOM     54  H   UNL A   1      40.922  31.301  35.584  1.00  0.00     0.167 HD
ATOM     55  C   UNL A   1      42.590  29.427  34.257  1.00  0.00     0.074 A 
ATOM     56  C   UNL A   1      43.101  28.515  33.255  1.00  0.00     0.031 C 
ATOM     57  C   UNL A   1      43.253  29.765  35.389  1.00  0.00     0.037 A 
BRANCH  44  58
ATOM     58  C   UNL A   1      40.260  33.801  38.974  1.00  0.00     0.057 A 
ATOM     59  C   UNL A   1      40.883  35.051  39.063  1.00  0.00     0.134 A 
ATOM     60  C   UNL A   1      39.579  33.335  40.108  1.00  0.00     0.134 A 
ATOM     61  F   UNL A   1      41.562  35.548  38.018  1.00  0.00    -0.206 F 
ATOM     62  C   UNL A   1      40.846  35.801  40.241  1.00  0.00     0.040 A 
ATOM     63  C   UNL A   1      39.515  34.086  41.282  1.00  0.00     0.040 A 
ATOM     64  F   UNL A   1      38.954  32.148  40.086  1.00  0.00    -0.206 F 
ATOM     65  C   UNL A   1      40.154  35.321  41.353  1.00  0.00     0.006 A 
ENDBRANCH  44  58
BRANCH  45  66
ATOM     66  C   UNL A   1      39.938  28.606  30.464  1.00  0.00     0.057 A 
ATOM     67  C   UNL A   1      40.625  29.079  29.341  1.00  0.00     0.134 A 
ATOM     68  C   UNL A   1      39.240  27.398  30.333  1.00  0.00     0.134 A 
ATOM     69  F   UNL A   1      41.292  30.241  29.399  1.00  0.00    -0.206 F 
ATOM     70  C   UNL A   1      40.617  28.381  28.132  1.00  0.00     0.040 A 
ATOM     71  C   UNL A   1      39.244  26.677  29.138  1.00  0.00     0.040 A 
ATOM     72  F   UNL A   1      38.563  26.890  31.373  1.00  0.00    -0.206 F 
ATOM     73  C   UNL A   1      39.931  27.172  28.032  1.00  0.00     0.006 A 
ENDBRANCH  45  66
BRANCH  57  74
ATOM     74  C   UNL A   1      44.577  29.108  35.632  1.00  0.00     0.057 A 
ATOM     75  C   UNL A   1      44.683  27.893  36.318  1.00  0.00     0.134 A 
ATOM     76  C   UNL A   1      45.752  29.672  35.119  1.00  0.00     0.134 A 
ATOM     77  F   UNL A   1      43.594  27.311  36.844  1.00  0.00    -0.206 F 
ATOM     78  C   UNL A   1      45.916  27.263  36.491  1.00  0.00     0.040 A 
ATOM     79  C   UNL A   1      46.988  29.043  35.270  1.00  0.00     0.040 A 
ATOM     80  F   UNL A   1      45.713  30.833  34.449  1.00  0.00    -0.206 F 
ATOM     81  C   UNL A   1      47.071  27.834  35.959  1.00  0.00     0.006 A 
ENDBRANCH  57  74
ENDBRANCH  31  32
ENDBRANCH  24  26
ENDBRANCH  23  24
ENDBRANCH  22  23
ENDBRANCH   1  22
TORSDOF 14
ENDMDL
