MODEL 1
REMARK VINA RESULT:     -11.9      0.000      0.000
REMARK SMILES CCOc1cccc(C(=O)Nc2ccc(Cl)c(C(=O)OCCOC(=O)c3ccc(-c4c5nc(c(-c6c(F)cccc6F)c6ccc([nH]6)c(-c6c(F)cccc6F)c6nc(c(-c7c(F)cccc7F)c7ccc4[nH]7)C=C6)C=C5)cc3)c2)c1
REMARK SMILES IDX 21 1 20 2 18 3 19 4 17 5 12 6 13 7 80 8 14 9 15 10 16 11
REMARK SMILES IDX 11 12 9 13 10 14 8 16 4 17 5 18 81 19 6 20 7 21 3 22 2 23
REMARK SMILES IDX 1 24 22 25 23 26 24 27 25 28 26 29 27 30 79 31 28 32 78 33
REMARK SMILES IDX 29 34 30 35 31 36 72 37 32 38 77 39 71 40 73 41 33 42 76 43
REMARK SMILES IDX 70 44 69 45 34 47 60 48 43 49 59 50 44 51 47 52 58 53 74 54
REMARK SMILES IDX 45 55 46 56 57 58 75 59 48 60 35 61 36 62 41 63 37 64 38 65
REMARK SMILES IDX 40 66 42 67 39 68 61 69 62 70 67 71 63 72 64 73 66 74 68 75
REMARK SMILES IDX 65 76 49 77 50 78 55 79 51 80 52 81 54 82 56 83 53 84
REMARK H PARENT 11 15 73 46 47 57
REMARK Flexibility Score: inf
ROOT
ATOM      1  C   UNL A   1      33.091  29.530  24.758  1.00  0.00     0.275 C 
ENDROOT
BRANCH   1   2
ATOM      2  O   UNL A   1      33.247  28.095  24.772  1.00  0.00    -0.458 OA
BRANCH   2   3
ATOM      3  C   UNL A   1      32.888  27.450  23.636  1.00  0.00     0.339 C 
ATOM      4  O   UNL A   1      33.559  27.374  22.618  1.00  0.00    -0.246 OA
BRANCH   3   5
ATOM      5  C   UNL A   1      31.504  26.936  23.733  1.00  0.00     0.080 A 
ATOM      6  C   UNL A   1      30.007  25.562  25.046  1.00  0.00     0.042 A 
ATOM      7  C   UNL A   1      28.903  26.130  24.412  1.00  0.00     0.028 A 
ATOM      8  C   UNL A   1      31.296  25.859  24.606  1.00  0.00     0.043 A 
ATOM      9  C   UNL A   1      29.098  27.161  23.501  1.00  0.00     0.023 A 
ATOM     10  C   UNL A   1      30.392  27.611  23.212  1.00  0.00     0.055 A 
ATOM     11  Cl  UNL A   1      30.468  29.035  22.262  1.00  0.00    -0.083 Cl
BRANCH   6  12
ATOM     12  N   UNL A   1      29.756  24.821  26.204  1.00  0.00    -0.322 N 
ATOM     13  C   UNL A   1      30.319  23.648  26.676  1.00  0.00     0.255 C 
ATOM     14  O   UNL A   1      29.813  23.134  27.676  1.00  0.00    -0.269 OA
ATOM     15  H   UNL A   1      29.057  25.199  26.786  1.00  0.00     0.170 HD
BRANCH  13  16
ATOM     16  C   UNL A   1      31.542  23.009  26.092  1.00  0.00     0.043 A 
ATOM     17  C   UNL A   1      32.687  21.351  24.742  1.00  0.00     0.120 A 
ATOM     18  C   UNL A   1      33.910  21.733  25.281  1.00  0.00     0.046 A 
ATOM     19  C   UNL A   1      31.521  22.039  25.082  1.00  0.00     0.060 A 
ATOM     20  C   UNL A   1      33.966  22.802  26.172  1.00  0.00     0.005 A 
ATOM     21  C   UNL A   1      32.785  23.419  26.596  1.00  0.00     0.014 A 
BRANCH  17  22
ATOM     22  O   UNL A   1      32.617  20.149  24.095  1.00  0.00    -0.494 OA
BRANCH  22  23
ATOM     23  C   UNL A   1      32.814  19.003  24.923  1.00  0.00     0.226 C 
ATOM     24  C   UNL A   1      33.864  18.070  24.342  1.00  0.00     0.049 C 
ENDBRANCH  22  23
ENDBRANCH  17  22
ENDBRANCH  13  16
ENDBRANCH   6  12
ENDBRANCH   3   5
ENDBRANCH   2   3
ENDBRANCH   1   2
BRANCH   1  25
ATOM     25  C   UNL A   1      31.961  29.972  25.684  1.00  0.00     0.275 C 
BRANCH  25  26
ATOM     26  O   UNL A   1      32.448  30.130  27.028  1.00  0.00    -0.458 OA
BRANCH  26  27
ATOM     27  C   UNL A   1      33.076  31.303  27.279  1.00  0.00     0.338 C 
ATOM     28  O   UNL A   1      32.591  32.418  27.286  1.00  0.00    -0.246 OA
BRANCH  27  29
ATOM     29  C   UNL A   1      34.491  31.052  27.605  1.00  0.00     0.060 A 
ATOM     30  C   UNL A   1      34.899  29.757  27.889  1.00  0.00     0.016 A 
ATOM     31  C   UNL A   1      35.356  32.119  27.832  1.00  0.00     0.016 A 
ATOM     32  C   UNL A   1      36.095  29.537  28.563  1.00  0.00     0.010 A 
ATOM     33  C   UNL A   1      36.624  31.873  28.373  1.00  0.00     0.010 A 
ATOM     34  C   UNL A   1      36.987  30.583  28.805  1.00  0.00    -0.014 A 
BRANCH  34  35
ATOM     35  C   UNL A   1      38.251  30.351  29.563  1.00  0.00     0.031 A 
ATOM     36  C   UNL A   1      39.334  29.497  28.954  1.00  0.00     0.074 A 
ATOM     37  C   UNL A   1      38.455  30.899  30.780  1.00  0.00     0.049 A 
ATOM     38  N   UNL A   1      40.331  28.882  29.536  1.00  0.00    -0.248 NA
ATOM     39  C   UNL A   1      39.273  29.290  27.497  1.00  0.00     0.031 C 
ATOM     40  C   UNL A   1      37.563  31.840  31.461  1.00  0.00     0.029 A 
ATOM     41  N   UNL A   1      39.489  30.732  31.671  1.00  0.00    -0.354 N 
ATOM     42  C   UNL A   1      40.957  28.145  28.536  1.00  0.00     0.074 A 
ATOM     43  C   UNL A   1      40.244  28.407  27.306  1.00  0.00     0.031 C 
ATOM     44  C   UNL A   1      38.096  32.187  32.641  1.00  0.00     0.029 A 
ATOM     45  C   UNL A   1      39.290  31.386  32.865  1.00  0.00     0.049 A 
ATOM     46  H   UNL A   1      40.292  30.197  31.475  1.00  0.00     0.167 HD
ATOM     47  C   UNL A   1      42.018  27.313  28.651  1.00  0.00     0.037 A 
ATOM     48  C   UNL A   1      39.935  31.288  34.042  1.00  0.00     0.037 A 
ATOM     49  C   UNL A   1      42.766  27.133  29.868  1.00  0.00     0.049 A 
ATOM     50  C   UNL A   1      41.070  30.313  34.166  1.00  0.00     0.074 A 
ATOM     51  C   UNL A   1      43.863  26.319  30.095  1.00  0.00     0.029 A 
ATOM     52  N   UNL A   1      42.508  27.800  31.055  1.00  0.00    -0.354 N 
ATOM     53  N   UNL A   1      41.592  29.533  33.251  1.00  0.00    -0.248 NA
ATOM     54  C   UNL A   1      41.688  30.181  35.492  1.00  0.00     0.031 C 
ATOM     55  C   UNL A   1      44.242  26.464  31.433  1.00  0.00     0.029 A 
ATOM     56  C   UNL A   1      43.417  27.408  32.022  1.00  0.00     0.049 A 
ATOM     57  H   UNL A   1      41.785  28.455  31.191  1.00  0.00     0.167 HD
ATOM     58  C   UNL A   1      42.617  28.841  33.881  1.00  0.00     0.074 A 
ATOM     59  C   UNL A   1      42.649  29.300  35.254  1.00  0.00     0.031 C 
ATOM     60  C   UNL A   1      43.454  27.907  33.372  1.00  0.00     0.037 A 
BRANCH  47  61
ATOM     61  C   UNL A   1      42.410  26.491  27.458  1.00  0.00     0.057 A 
ATOM     62  C   UNL A   1      43.320  26.941  26.496  1.00  0.00     0.134 A 
ATOM     63  C   UNL A   1      41.914  25.186  27.315  1.00  0.00     0.134 A 
ATOM     64  F   UNL A   1      43.823  28.183  26.564  1.00  0.00    -0.206 F 
ATOM     65  C   UNL A   1      43.715  26.129  25.429  1.00  0.00     0.040 A 
ATOM     66  C   UNL A   1      42.320  24.357  26.270  1.00  0.00     0.040 A 
ATOM     67  F   UNL A   1      41.043  24.689  28.207  1.00  0.00    -0.206 F 
ATOM     68  C   UNL A   1      43.224  24.829  25.321  1.00  0.00     0.006 A 
ENDBRANCH  47  61
BRANCH  48  69
ATOM     69  C   UNL A   1      39.460  32.055  35.225  1.00  0.00     0.057 A 
ATOM     70  C   UNL A   1      38.548  31.504  36.132  1.00  0.00     0.134 A 
ATOM     71  C   UNL A   1      39.884  33.370  35.462  1.00  0.00     0.134 A 
ATOM     72  F   UNL A   1      38.083  30.258  35.948  1.00  0.00    -0.206 F 
ATOM     73  C   UNL A   1      38.060  32.235  37.216  1.00  0.00     0.040 A 
ATOM     74  C   UNL A   1      39.434  34.100  36.562  1.00  0.00     0.040 A 
ATOM     75  F   UNL A   1      40.758  33.962  34.634  1.00  0.00    -0.206 F 
ATOM     76  C   UNL A   1      38.508  33.536  37.437  1.00  0.00     0.006 A 
ENDBRANCH  48  69
BRANCH  60  77
ATOM     77  C   UNL A   1      44.525  27.379  34.276  1.00  0.00     0.057 A 
ATOM     78  C   UNL A   1      44.354  26.211  35.028  1.00  0.00     0.134 A 
ATOM     79  C   UNL A   1      45.767  28.024  34.347  1.00  0.00     0.134 A 
ATOM     80  F   UNL A   1      43.182  25.557  35.012  1.00  0.00    -0.206 F 
ATOM     81  C   UNL A   1      45.378  25.709  35.832  1.00  0.00     0.040 A 
ATOM     82  C   UNL A   1      46.805  27.518  35.127  1.00  0.00     0.040 A 
ATOM     83  F   UNL A   1      45.994  29.144  33.644  1.00  0.00    -0.206 F 
ATOM     84  C   UNL A   1      46.610  26.359  35.876  1.00  0.00     0.006 A 
ENDBRANCH  60  77
ENDBRANCH  34  35
ENDBRANCH  27  29
ENDBRANCH  26  27
ENDBRANCH  25  26
ENDBRANCH   1  25
TORSDOF 15
ENDMDL
MODEL 2
REMARK VINA RESULT:     -11.9      3.876      8.811
REMARK SMILES CCOc1cccc(C(=O)Nc2ccc(Cl)c(C(=O)OCCOC(=O)c3ccc(-c4c5nc(c(-c6c(F)cccc6F)c6ccc([nH]6)c(-c6c(F)cccc6F)c6nc(c(-c7c(F)cccc7F)c7ccc4[nH]7)C=C6)C=C5)cc3)c2)c1
REMARK SMILES IDX 21 1 20 2 18 3 19 4 17 5 12 6 13 7 80 8 14 9 15 10 16 11
REMARK SMILES IDX 11 12 9 13 10 14 8 16 4 17 5 18 81 19 6 20 7 21 3 22 2 23
REMARK SMILES IDX 1 24 22 25 23 26 24 27 25 28 26 29 27 30 79 31 28 32 78 33
REMARK SMILES IDX 29 34 30 35 31 36 72 37 32 38 77 39 71 40 73 41 33 42 76 43
REMARK SMILES IDX 70 44 69 45 34 47 60 48 43 49 59 50 44 51 47 52 58 53 74 54
REMARK SMILES IDX 45 55 46 56 57 58 75 59 48 60 35 61 36 62 41 63 37 64 38 65
REMARK SMILES IDX 40 66 42 67 39 68 61 69 62 70 67 71 63 72 64 73 66 74 68 75
REMARK SMILES IDX 65 76 49 77 50 78 55 79 51 80 52 81 54 82 56 83 53 84
REMARK H PARENT 11 15 73 46 47 57
REMARK Flexibility Score: inf
ROOT
ATOM      1  C   UNL A   1      35.552  21.427  26.143  1.00  0.00     0.275 C 
ENDROOT
BRANCH   1   2
ATOM      2  O   UNL A   1      34.679  22.577  26.122  1.00  0.00    -0.458 OA
BRANCH   2   3
ATOM      3  C   UNL A   1      33.353  22.315  26.222  1.00  0.00     0.339 C 
ATOM      4  O   UNL A   1      32.723  22.216  27.264  1.00  0.00    -0.246 OA
BRANCH   3   5
ATOM      5  C   UNL A   1      32.765  22.039  24.892  1.00  0.00     0.080 A 
ATOM      6  C   UNL A   1      32.549  22.870  22.631  1.00  0.00     0.042 A 
ATOM      7  C   UNL A   1      32.134  21.613  22.192  1.00  0.00     0.028 A 
ATOM      8  C   UNL A   1      32.722  23.112  23.992  1.00  0.00     0.043 A 
ATOM      9  C   UNL A   1      32.118  20.551  23.087  1.00  0.00     0.023 A 
ATOM     10  C   UNL A   1      32.499  20.747  24.419  1.00  0.00     0.055 A 
ATOM     11  Cl  UNL A   1      32.661  19.314  25.345  1.00  0.00    -0.083 Cl
BRANCH   6  12
ATOM     12  N   UNL A   1      32.912  23.793  21.646  1.00  0.00    -0.322 N 
ATOM     13  C   UNL A   1      32.827  25.174  21.615  1.00  0.00     0.255 C 
ATOM     14  O   UNL A   1      33.102  25.739  20.555  1.00  0.00    -0.269 OA
ATOM     15  H   UNL A   1      33.296  23.391  20.833  1.00  0.00     0.170 HD
BRANCH  13  16
ATOM     16  C   UNL A   1      32.492  26.022  22.805  1.00  0.00     0.043 A 
ATOM     17  C   UNL A   1      33.019  27.121  24.901  1.00  0.00     0.120 A 
ATOM     18  C   UNL A   1      31.673  27.389  25.119  1.00  0.00     0.046 A 
ATOM     19  C   UNL A   1      33.435  26.516  23.715  1.00  0.00     0.060 A 
ATOM     20  C   UNL A   1      30.736  27.041  24.147  1.00  0.00     0.005 A 
ATOM     21  C   UNL A   1      31.140  26.337  23.010  1.00  0.00     0.014 A 
BRANCH  17  22
ATOM     22  O   UNL A   1      33.874  27.219  25.964  1.00  0.00    -0.494 OA
BRANCH  22  23
ATOM     23  C   UNL A   1      33.527  28.211  26.930  1.00  0.00     0.226 C 
ATOM     24  C   UNL A   1      34.600  29.283  27.037  1.00  0.00     0.049 C 
ENDBRANCH  22  23
ENDBRANCH  17  22
ENDBRANCH  13  16
ENDBRANCH   6  12
ENDBRANCH   3   5
ENDBRANCH   2   3
ENDBRANCH   1   2
BRANCH   1  25
ATOM     25  C   UNL A   1      36.131  21.146  24.760  1.00  0.00     0.275 C 
BRANCH  25  26
ATOM     26  O   UNL A   1      37.415  21.780  24.618  1.00  0.00    -0.458 OA
BRANCH  26  27
ATOM     27  C   UNL A   1      38.393  21.283  25.411  1.00  0.00     0.338 C 
ATOM     28  O   UNL A   1      38.813  20.143  25.447  1.00  0.00    -0.246 OA
BRANCH  27  29
ATOM     29  C   UNL A   1      38.953  22.361  26.246  1.00  0.00     0.060 A 
ATOM     30  C   UNL A   1      38.487  23.657  26.079  1.00  0.00     0.016 A 
ATOM     31  C   UNL A   1      40.074  22.122  27.036  1.00  0.00     0.016 A 
ATOM     32  C   UNL A   1      39.236  24.731  26.547  1.00  0.00     0.010 A 
ATOM     33  C   UNL A   1      40.738  23.202  27.631  1.00  0.00     0.010 A 
ATOM     34  C   UNL A   1      40.365  24.528  27.343  1.00  0.00    -0.014 A 
BRANCH  34  35
ATOM     35  C   UNL A   1      41.188  25.680  27.811  1.00  0.00     0.031 A 
ATOM     36  C   UNL A   1      40.558  26.734  28.687  1.00  0.00     0.074 A 
ATOM     37  C   UNL A   1      42.491  25.798  27.478  1.00  0.00     0.049 A 
ATOM     38  N   UNL A   1      40.948  27.960  28.920  1.00  0.00    -0.248 NA
ATOM     39  C   UNL A   1      39.311  26.362  29.377  1.00  0.00     0.031 C 
ATOM     40  C   UNL A   1      43.282  24.814  26.737  1.00  0.00     0.029 A 
ATOM     41  N   UNL A   1      43.385  26.816  27.719  1.00  0.00    -0.354 N 
ATOM     42  C   UNL A   1      39.951  28.532  29.703  1.00  0.00     0.074 A 
ATOM     43  C   UNL A   1      38.949  27.514  29.927  1.00  0.00     0.031 C 
ATOM     44  C   UNL A   1      44.541  25.257  26.608  1.00  0.00     0.029 A 
ATOM     45  C   UNL A   1      44.611  26.615  27.127  1.00  0.00     0.049 A 
ATOM     46  H   UNL A   1      43.169  27.609  28.260  1.00  0.00     0.167 HD
ATOM     47  C   UNL A   1      39.880  29.801  30.170  1.00  0.00     0.037 A 
ATOM     48  C   UNL A   1      45.645  27.454  26.936  1.00  0.00     0.037 A 
ATOM     49  C   UNL A   1      40.928  30.774  30.008  1.00  0.00     0.049 A 
ATOM     50  C   UNL A   1      45.520  28.875  27.407  1.00  0.00     0.074 A 
ATOM     51  C   UNL A   1      40.964  32.086  30.446  1.00  0.00     0.029 A 
ATOM     52  N   UNL A   1      42.139  30.527  29.379  1.00  0.00    -0.354 N 
ATOM     53  N   UNL A   1      44.532  29.448  28.049  1.00  0.00    -0.248 NA
ATOM     54  C   UNL A   1      46.641  29.774  27.102  1.00  0.00     0.031 C 
ATOM     55  C   UNL A   1      42.180  32.646  30.046  1.00  0.00     0.029 A 
ATOM     56  C   UNL A   1      42.923  31.666  29.407  1.00  0.00     0.049 A 
ATOM     57  H   UNL A   1      42.401  29.670  28.972  1.00  0.00     0.167 HD
ATOM     58  C   UNL A   1      44.923  30.765  28.250  1.00  0.00     0.074 A 
ATOM     59  C   UNL A   1      46.242  30.903  27.671  1.00  0.00     0.031 C 
ATOM     60  C   UNL A   1      44.250  31.770  28.858  1.00  0.00     0.037 A 
BRANCH  47  61
ATOM     61  C   UNL A   1      38.616  30.237  30.853  1.00  0.00     0.057 A 
ATOM     62  C   UNL A   1      38.450  30.186  32.240  1.00  0.00     0.134 A 
ATOM     63  C   UNL A   1      37.570  30.790  30.099  1.00  0.00     0.134 A 
ATOM     64  F   UNL A   1      39.405  29.658  33.021  1.00  0.00    -0.206 F 
ATOM     65  C   UNL A   1      37.286  30.659  32.854  1.00  0.00     0.040 A 
ATOM     66  C   UNL A   1      36.415  31.289  30.700  1.00  0.00     0.040 A 
ATOM     67  F   UNL A   1      37.667  30.875  28.762  1.00  0.00    -0.206 F 
ATOM     68  C   UNL A   1      36.270  31.223  32.084  1.00  0.00     0.006 A 
ENDBRANCH  47  61
BRANCH  48  69
ATOM     69  C   UNL A   1      46.844  27.008  26.177  1.00  0.00     0.057 A 
ATOM     70  C   UNL A   1      47.921  26.386  26.818  1.00  0.00     0.134 A 
ATOM     71  C   UNL A   1      46.956  27.220  24.795  1.00  0.00     0.134 A 
ATOM     72  F   UNL A   1      47.888  26.177  28.143  1.00  0.00    -0.206 F 
ATOM     73  C   UNL A   1      49.071  26.010  26.120  1.00  0.00     0.040 A 
ATOM     74  C   UNL A   1      48.082  26.816  24.079  1.00  0.00     0.040 A 
ATOM     75  F   UNL A   1      45.961  27.811  24.117  1.00  0.00    -0.206 F 
ATOM     76  C   UNL A   1      49.150  26.220  24.745  1.00  0.00     0.006 A 
ENDBRANCH  48  69
BRANCH  60  77
ATOM     77  C   UNL A   1      44.957  33.083  28.998  1.00  0.00     0.057 A 
ATOM     78  C   UNL A   1      45.814  33.354  30.071  1.00  0.00     0.134 A 
ATOM     79  C   UNL A   1      44.818  34.066  28.010  1.00  0.00     0.134 A 
ATOM     80  F   UNL A   1      45.977  32.457  31.055  1.00  0.00    -0.206 F 
ATOM     81  C   UNL A   1      46.499  34.567  30.163  1.00  0.00     0.040 A 
ATOM     82  C   UNL A   1      45.516  35.270  28.079  1.00  0.00     0.040 A 
ATOM     83  F   UNL A   1      44.015  33.862  26.954  1.00  0.00    -0.206 F 
ATOM     84  C   UNL A   1      46.358  35.524  29.161  1.00  0.00     0.006 A 
ENDBRANCH  60  77
ENDBRANCH  34  35
ENDBRANCH  27  29
ENDBRANCH  26  27
ENDBRANCH  25  26
ENDBRANCH   1  25
TORSDOF 15
ENDMDL
MODEL 3
REMARK VINA RESULT:     -11.8      1.154      2.179
REMARK SMILES CCOc1cccc(C(=O)Nc2ccc(Cl)c(C(=O)OCCOC(=O)c3ccc(-c4c5nc(c(-c6c(F)cccc6F)c6ccc([nH]6)c(-c6c(F)cccc6F)c6nc(c(-c7c(F)cccc7F)c7ccc4[nH]7)C=C6)C=C5)cc3)c2)c1
REMARK SMILES IDX 21 1 20 2 18 3 19 4 17 5 12 6 13 7 80 8 14 9 15 10 16 11
REMARK SMILES IDX 11 12 9 13 10 14 8 16 4 17 5 18 81 19 6 20 7 21 3 22 2 23
REMARK SMILES IDX 1 24 22 25 23 26 24 27 25 28 26 29 27 30 79 31 28 32 78 33
REMARK SMILES IDX 29 34 30 35 31 36 72 37 32 38 77 39 71 40 73 41 33 42 76 43
REMARK SMILES IDX 70 44 69 45 34 47 60 48 43 49 59 50 44 51 47 52 58 53 74 54
REMARK SMILES IDX 45 55 46 56 57 58 75 59 48 60 35 61 36 62 41 63 37 64 38 65
REMARK SMILES IDX 40 66 42 67 39 68 61 69 62 70 67 71 63 72 64 73 66 74 68 75
REMARK SMILES IDX 65 76 49 77 50 78 55 79 51 80 52 81 54 82 56 83 53 84
REMARK H PARENT 11 15 73 46 47 57
REMARK Flexibility Score: inf
ROOT
ATOM      1  C   UNL A   1      32.708  29.571  24.736  1.00  0.00     0.275 C 
ENDROOT
BRANCH   1   2
ATOM      2  O   UNL A   1      33.319  28.292  25.008  1.00  0.00    -0.458 OA
BRANCH   2   3
ATOM      3  C   UNL A   1      33.464  27.467  23.943  1.00  0.00     0.339 C 
ATOM      4  O   UNL A   1      34.120  27.706  22.941  1.00  0.00    -0.246 OA
BRANCH   3   5
ATOM      5  C   UNL A   1      32.619  26.261  24.088  1.00  0.00     0.080 A 
ATOM      6  C   UNL A   1      32.024  24.447  25.574  1.00  0.00     0.042 A 
ATOM      7  C   UNL A   1      30.880  24.185  24.822  1.00  0.00     0.028 A 
ATOM      8  C   UNL A   1      32.957  25.381  25.125  1.00  0.00     0.043 A 
ATOM      9  C   UNL A   1      30.561  25.017  23.755  1.00  0.00     0.023 A 
ATOM     10  C   UNL A   1      31.393  26.094  23.430  1.00  0.00     0.055 A 
ATOM     11  Cl  UNL A   1      30.759  27.169  22.255  1.00  0.00    -0.083 Cl
BRANCH   6  12
ATOM     12  N   UNL A   1      32.102  23.847  26.834  1.00  0.00    -0.322 N 
ATOM     13  C   UNL A   1      32.835  22.763  27.283  1.00  0.00     0.255 C 
ATOM     14  O   UNL A   1      32.613  22.358  28.427  1.00  0.00    -0.269 OA
ATOM     15  H   UNL A   1      31.537  24.268  27.521  1.00  0.00     0.170 HD
BRANCH  13  16
ATOM     16  C   UNL A   1      33.925  22.100  26.496  1.00  0.00     0.043 A 
ATOM     17  C   UNL A   1      36.098  22.048  25.422  1.00  0.00     0.120 A 
ATOM     18  C   UNL A   1      35.773  20.856  24.785  1.00  0.00     0.046 A 
ATOM     19  C   UNL A   1      35.214  22.623  26.335  1.00  0.00     0.060 A 
ATOM     20  C   UNL A   1      34.553  20.241  25.056  1.00  0.00     0.005 A 
ATOM     21  C   UNL A   1      33.622  20.874  25.885  1.00  0.00     0.014 A 
BRANCH  17  22
ATOM     22  O   UNL A   1      37.161  22.763  24.944  1.00  0.00    -0.494 OA
BRANCH  22  23
ATOM     23  C   UNL A   1      37.574  23.855  25.766  1.00  0.00     0.226 C 
ATOM     24  C   UNL A   1      38.801  23.499  26.589  1.00  0.00     0.049 C 
ENDBRANCH  22  23
ENDBRANCH  17  22
ENDBRANCH  13  16
ENDBRANCH   6  12
ENDBRANCH   3   5
ENDBRANCH   2   3
ENDBRANCH   1   2
BRANCH   1  25
ATOM     25  C   UNL A   1      31.748  29.975  25.851  1.00  0.00     0.275 C 
BRANCH  25  26
ATOM     26  O   UNL A   1      32.454  30.096  27.099  1.00  0.00    -0.458 OA
BRANCH  26  27
ATOM     27  C   UNL A   1      33.074  31.283  27.297  1.00  0.00     0.338 C 
ATOM     28  O   UNL A   1      32.581  32.393  27.252  1.00  0.00    -0.246 OA
BRANCH  27  29
ATOM     29  C   UNL A   1      34.489  31.057  27.639  1.00  0.00     0.060 A 
ATOM     30  C   UNL A   1      34.920  29.767  27.915  1.00  0.00     0.016 A 
ATOM     31  C   UNL A   1      35.330  32.138  27.886  1.00  0.00     0.016 A 
ATOM     32  C   UNL A   1      36.111  29.564  28.602  1.00  0.00     0.010 A 
ATOM     33  C   UNL A   1      36.596  31.911  28.441  1.00  0.00     0.010 A 
ATOM     34  C   UNL A   1      36.979  30.625  28.865  1.00  0.00    -0.014 A 
BRANCH  34  35
ATOM     35  C   UNL A   1      38.238  30.411  29.636  1.00  0.00     0.031 A 
ATOM     36  C   UNL A   1      39.340  29.571  29.038  1.00  0.00     0.074 A 
ATOM     37  C   UNL A   1      38.422  30.961  30.855  1.00  0.00     0.049 A 
ATOM     38  N   UNL A   1      40.339  28.971  29.631  1.00  0.00    -0.248 NA
ATOM     39  C   UNL A   1      39.297  29.365  27.580  1.00  0.00     0.031 C 
ATOM     40  C   UNL A   1      37.510  31.889  31.527  1.00  0.00     0.029 A 
ATOM     41  N   UNL A   1      39.449  30.807  31.757  1.00  0.00    -0.354 N 
ATOM     42  C   UNL A   1      40.985  28.243  28.637  1.00  0.00     0.074 A 
ATOM     43  C   UNL A   1      40.282  28.495  27.399  1.00  0.00     0.031 C 
ATOM     44  C   UNL A   1      38.025  32.243  32.712  1.00  0.00     0.029 A 
ATOM     45  C   UNL A   1      39.228  31.459  32.949  1.00  0.00     0.049 A 
ATOM     46  H   UNL A   1      40.261  30.284  31.569  1.00  0.00     0.167 HD
ATOM     47  C   UNL A   1      42.057  27.426  28.763  1.00  0.00     0.037 A 
ATOM     48  C   UNL A   1      39.862  31.369  34.132  1.00  0.00     0.037 A 
ATOM     49  C   UNL A   1      42.795  27.256  29.987  1.00  0.00     0.049 A 
ATOM     50  C   UNL A   1      41.010  30.410  34.268  1.00  0.00     0.074 A 
ATOM     51  C   UNL A   1      43.900  26.457  30.226  1.00  0.00     0.029 A 
ATOM     52  N   UNL A   1      42.514  27.919  31.172  1.00  0.00    -0.354 N 
ATOM     53  N   UNL A   1      41.552  29.638  33.358  1.00  0.00    -0.248 NA
ATOM     54  C   UNL A   1      41.615  30.286  35.600  1.00  0.00     0.031 C 
ATOM     55  C   UNL A   1      44.264  26.607  31.568  1.00  0.00     0.029 A 
ATOM     56  C   UNL A   1      43.419  27.539  32.148  1.00  0.00     0.049 A 
ATOM     57  H   UNL A   1      41.782  28.563  31.301  1.00  0.00     0.167 HD
ATOM     58  C   UNL A   1      42.579  28.960  33.999  1.00  0.00     0.074 A 
ATOM     59  C   UNL A   1      42.591  29.419  35.373  1.00  0.00     0.031 C 
ATOM     60  C   UNL A   1      43.435  28.038  33.498  1.00  0.00     0.037 A 
BRANCH  47  61
ATOM     61  C   UNL A   1      42.473  26.609  27.574  1.00  0.00     0.057 A 
ATOM     62  C   UNL A   1      42.013  25.308  27.352  1.00  0.00     0.134 A 
ATOM     63  C   UNL A   1      43.300  27.177  26.593  1.00  0.00     0.134 A 
ATOM     64  F   UNL A   1      41.229  24.700  28.256  1.00  0.00    -0.206 F 
ATOM     65  C   UNL A   1      42.367  24.595  26.202  1.00  0.00     0.040 A 
ATOM     66  C   UNL A   1      43.640  26.485  25.429  1.00  0.00     0.040 A 
ATOM     67  F   UNL A   1      43.773  28.425  26.740  1.00  0.00    -0.206 F 
ATOM     68  C   UNL A   1      43.173  25.189  25.233  1.00  0.00     0.006 A 
ENDBRANCH  47  61
BRANCH  48  69
ATOM     69  C   UNL A   1      39.364  32.128  35.311  1.00  0.00     0.057 A 
ATOM     70  C   UNL A   1      38.435  31.572  36.196  1.00  0.00     0.134 A 
ATOM     71  C   UNL A   1      39.783  33.443  35.564  1.00  0.00     0.134 A 
ATOM     72  F   UNL A   1      37.974  30.327  35.996  1.00  0.00    -0.206 F 
ATOM     73  C   UNL A   1      37.925  32.297  37.275  1.00  0.00     0.040 A 
ATOM     74  C   UNL A   1      39.311  34.166  36.660  1.00  0.00     0.040 A 
ATOM     75  F   UNL A   1      40.673  34.039  34.756  1.00  0.00    -0.206 F 
ATOM     76  C   UNL A   1      38.369  33.596  37.512  1.00  0.00     0.006 A 
ENDBRANCH  48  69
BRANCH  60  77
ATOM     77  C   UNL A   1      44.504  27.524  34.413  1.00  0.00     0.057 A 
ATOM     78  C   UNL A   1      45.734  28.176  34.559  1.00  0.00     0.134 A 
ATOM     79  C   UNL A   1      44.269  26.390  35.202  1.00  0.00     0.134 A 
ATOM     80  F   UNL A   1      46.022  29.258  33.821  1.00  0.00    -0.206 F 
ATOM     81  C   UNL A   1      46.702  27.708  35.449  1.00  0.00     0.040 A 
ATOM     82  C   UNL A   1      45.218  25.929  36.113  1.00  0.00     0.040 A 
ATOM     83  F   UNL A   1      43.106  25.727  35.113  1.00  0.00    -0.206 F 
ATOM     84  C   UNL A   1      46.441  26.587  36.235  1.00  0.00     0.006 A 
ENDBRANCH  60  77
ENDBRANCH  34  35
ENDBRANCH  27  29
ENDBRANCH  26  27
ENDBRANCH  25  26
ENDBRANCH   1  25
TORSDOF 15
ENDMDL
