MODEL 1
REMARK VINA RESULT:     -12.4      0.000      0.000
REMARK SMILES O=C(OCCOC(=O)c1ccc(-c2c3nc(c(-c4c(F)cccc4F)c4ccc([nH]4)c(-c4c(F)cccc4F)c4nc(c(-c5c(F)cccc5F)c5ccc2[nH]5)C=C4)C=C3)cc1)C1=Cc2cc(S(F)(F)(F)(F)F)ccc2O[C@@H]1C(F)(F)F
REMARK SMILES IDX 5 1 4 2 3 3 2 4 1 5 63 6 64 7 78 8 65 9 77 10 66 11 76 12
REMARK SMILES IDX 67 13 75 14 74 15 79 16 80 17 81 18 82 19 68 20 69 21 70 22
REMARK SMILES IDX 71 23 72 24 73 25 6 26 7 27 8 28 9 29 10 30 62 31 11 32
REMARK SMILES IDX 61 33 12 34 13 35 14 36 55 37 15 38 60 39 54 40 56 41 16 42
REMARK SMILES IDX 59 43 53 44 52 45 17 47 43 48 26 49 42 50 27 51 30 52 41 53
REMARK SMILES IDX 57 54 28 55 29 56 40 58 58 59 31 60 18 61 19 62 24 63 20 64
REMARK SMILES IDX 21 65 23 66 25 67 22 68 44 69 45 70 50 71 46 72 47 73 49 74
REMARK SMILES IDX 51 75 48 76 32 77 33 78 38 79 34 80 35 81 37 82 39 83 36 84
REMARK H PARENT 56 46 30 57
REMARK Flexibility Score: inf
ROOT
ATOM      1  C   UNL A   1      38.278  23.126  26.123  1.00  0.00     0.275 C 
ENDROOT
BRANCH   1   2
ATOM      2  C   UNL A   1      36.805  23.494  26.055  1.00  0.00     0.275 C 
BRANCH   2   3
ATOM      3  O   UNL A   1      36.466  23.848  24.722  1.00  0.00    -0.459 OA
BRANCH   3   4
ATOM      4  C   UNL A   1      35.561  23.042  23.981  1.00  0.00     0.338 C 
ATOM      5  O   UNL A   1      35.735  22.874  22.735  1.00  0.00    -0.246 OA
BRANCH   4   6
ATOM      6  C   UNL A   1      34.384  22.380  24.681  1.00  0.00     0.087 C 
ATOM      7  C   UNL A   1      33.388  23.144  25.206  1.00  0.00     0.027 C 
ATOM      8  C   UNL A   1      34.320  20.866  24.792  1.00  0.00     0.316 C 
ATOM      9  C   UNL A   1      33.453  24.659  25.094  1.00  0.00     0.019 A 
ATOM     10  O   UNL A   1      34.269  24.324  22.888  1.00  0.00    -0.475 OA
ATOM     11  C   UNL A   1      33.132  25.470  26.169  1.00  0.00     0.036 A 
ATOM     12  C   UNL A   1      33.793  25.176  23.919  1.00  0.00     0.128 A 
ATOM     13  C   UNL A   1      32.919  26.825  25.823  1.00  0.00     0.107 A 
ATOM     14  C   UNL A   1      33.687  26.526  23.692  1.00  0.00     0.048 A 
ATOM     15  C   UNL A   1      33.319  27.381  24.694  1.00  0.00     0.028 A 
BRANCH   8  16
ATOM     16  C   UNL A   1      33.064  20.360  24.101  1.00  0.00     0.430 C 
ATOM     17  F   UNL A   1      33.264  19.116  23.674  1.00  0.00    -0.167 F 
ATOM     18  F   UNL A   1      32.049  20.375  24.960  1.00  0.00    -0.167 F 
ATOM     19  F   UNL A   1      32.781  21.144  23.065  1.00  0.00    -0.167 F 
ENDBRANCH   8  16
BRANCH  13  20
ATOM     20  S   UNL A   1      32.034  27.869  27.007  1.00  0.00     0.310 S 
ATOM     21  F   UNL A   1      31.885  29.050  25.959  1.00  0.00    -0.094 F 
ATOM     22  F   UNL A   1      33.412  28.508  27.427  1.00  0.00    -0.094 F 
ATOM     23  F   UNL A   1      31.277  28.764  28.029  1.00  0.00    -0.094 F 
ATOM     24  F   UNL A   1      30.652  27.319  26.475  1.00  0.00    -0.094 F 
ATOM     25  F   UNL A   1      32.779  27.038  25.887  1.00  0.00    -0.094 F 
ENDBRANCH  13  20
ENDBRANCH   4   6
ENDBRANCH   3   4
ENDBRANCH   2   3
ENDBRANCH   1   2
BRANCH   1  26
ATOM     26  O   UNL A   1      39.064  24.251  25.760  1.00  0.00    -0.458 OA
BRANCH  26  27
ATOM     27  C   UNL A   1      40.248  24.553  26.484  1.00  0.00     0.338 C 
ATOM     28  O   UNL A   1      41.301  23.867  26.294  1.00  0.00    -0.246 OA
BRANCH  27  29
ATOM     29  C   UNL A   1      40.256  25.697  27.485  1.00  0.00     0.060 A 
ATOM     30  C   UNL A   1      41.109  26.782  27.371  1.00  0.00     0.016 A 
ATOM     31  C   UNL A   1      39.365  25.622  28.467  1.00  0.00     0.016 A 
ATOM     32  C   UNL A   1      41.141  27.609  28.518  1.00  0.00     0.010 A 
ATOM     33  C   UNL A   1      39.366  26.544  29.485  1.00  0.00     0.010 A 
ATOM     34  C   UNL A   1      40.223  27.610  29.467  1.00  0.00    -0.014 A 
BRANCH  34  35
ATOM     35  C   UNL A   1      40.123  28.735  30.485  1.00  0.00     0.031 A 
ATOM     36  C   UNL A   1      40.984  28.616  31.577  1.00  0.00     0.074 A 
ATOM     37  C   UNL A   1      39.187  29.744  30.343  1.00  0.00     0.049 A 
ATOM     38  N   UNL A   1      41.087  29.434  32.624  1.00  0.00    -0.248 NA
ATOM     39  C   UNL A   1      41.956  27.525  31.745  1.00  0.00     0.031 C 
ATOM     40  C   UNL A   1      38.321  29.876  29.241  1.00  0.00     0.029 A 
ATOM     41  N   UNL A   1      38.923  30.780  31.213  1.00  0.00    -0.354 N 
ATOM     42  C   UNL A   1      42.037  29.002  33.456  1.00  0.00     0.074 A 
ATOM     43  C   UNL A   1      42.605  27.764  32.905  1.00  0.00     0.031 C 
ATOM     44  C   UNL A   1      37.537  30.967  29.448  1.00  0.00     0.029 A 
ATOM     45  C   UNL A   1      37.901  31.537  30.682  1.00  0.00     0.049 A 
ATOM     46  H   UNL A   1      39.384  30.948  32.066  1.00  0.00     0.167 HD
ATOM     47  C   UNL A   1      42.453  29.592  34.651  1.00  0.00     0.037 A 
ATOM     48  C   UNL A   1      37.307  32.662  31.231  1.00  0.00     0.037 A 
ATOM     49  C   UNL A   1      41.888  30.744  35.177  1.00  0.00     0.049 A 
ATOM     50  C   UNL A   1      37.684  33.220  32.455  1.00  0.00     0.074 A 
ATOM     51  C   UNL A   1      42.300  31.355  36.376  1.00  0.00     0.029 A 
ATOM     52  N   UNL A   1      40.850  31.486  34.659  1.00  0.00    -0.354 N 
ATOM     53  N   UNL A   1      38.660  32.810  33.266  1.00  0.00    -0.248 NA
ATOM     54  C   UNL A   1      37.039  34.393  33.060  1.00  0.00     0.031 C 
ATOM     55  C   UNL A   1      41.517  32.448  36.583  1.00  0.00     0.029 A 
ATOM     56  C   UNL A   1      40.601  32.534  35.517  1.00  0.00     0.049 A 
ATOM     57  H   UNL A   1      40.369  31.300  33.820  1.00  0.00     0.167 HD
ATOM     58  C   UNL A   1      38.734  33.606  34.335  1.00  0.00     0.074 A 
ATOM     59  C   UNL A   1      37.687  34.631  34.222  1.00  0.00     0.031 C 
ATOM     60  C   UNL A   1      39.634  33.520  35.397  1.00  0.00     0.037 A 
BRANCH  47  61
ATOM     61  C   UNL A   1      43.591  28.937  35.416  1.00  0.00     0.057 A 
ATOM     62  C   UNL A   1      44.895  29.334  35.176  1.00  0.00     0.134 A 
ATOM     63  C   UNL A   1      43.315  27.950  36.261  1.00  0.00     0.134 A 
ATOM     64  F   UNL A   1      45.206  30.464  34.547  1.00  0.00    -0.206 F 
ATOM     65  C   UNL A   1      45.870  28.430  35.662  1.00  0.00     0.040 A 
ATOM     66  C   UNL A   1      44.325  27.192  36.805  1.00  0.00     0.040 A 
ATOM     67  F   UNL A   1      42.052  27.692  36.584  1.00  0.00    -0.206 F 
ATOM     68  C   UNL A   1      45.637  27.492  36.562  1.00  0.00     0.006 A 
ENDBRANCH  47  61
BRANCH  48  69
ATOM     69  C   UNL A   1      36.181  33.327  30.456  1.00  0.00     0.057 A 
ATOM     70  C   UNL A   1      34.863  33.082  30.806  1.00  0.00     0.134 A 
ATOM     71  C   UNL A   1      36.489  34.185  29.491  1.00  0.00     0.134 A 
ATOM     72  F   UNL A   1      34.515  32.438  31.915  1.00  0.00    -0.206 F 
ATOM     73  C   UNL A   1      33.921  33.581  29.874  1.00  0.00     0.040 A 
ATOM     74  C   UNL A   1      35.507  34.740  28.707  1.00  0.00     0.040 A 
ATOM     75  F   UNL A   1      37.761  34.512  29.281  1.00  0.00    -0.206 F 
ATOM     76  C   UNL A   1      34.185  34.494  28.958  1.00  0.00     0.006 A 
ENDBRANCH  48  69
BRANCH  60  77
ATOM     77  C   UNL A   1      39.550  34.573  36.491  1.00  0.00     0.057 A 
ATOM     78  C   UNL A   1      40.143  35.818  36.350  1.00  0.00     0.134 A 
ATOM     79  C   UNL A   1      38.864  34.257  37.582  1.00  0.00     0.134 A 
ATOM     80  F   UNL A   1      40.616  36.269  35.192  1.00  0.00    -0.206 F 
ATOM     81  C   UNL A   1      40.198  36.565  37.549  1.00  0.00     0.040 A 
ATOM     82  C   UNL A   1      38.850  35.098  38.669  1.00  0.00     0.040 A 
ATOM     83  F   UNL A   1      38.183  33.115  37.624  1.00  0.00    -0.206 F 
ATOM     84  C   UNL A   1      39.465  36.318  38.621  1.00  0.00     0.006 A 
ENDBRANCH  60  77
ENDBRANCH  34  35
ENDBRANCH  27  29
ENDBRANCH  26  27
ENDBRANCH   1  26
TORSDOF 13
ENDMDL
MODEL 2
REMARK VINA RESULT:     -12.4      4.597      8.856
REMARK SMILES O=C(OCCOC(=O)c1ccc(-c2c3nc(c(-c4c(F)cccc4F)c4ccc([nH]4)c(-c4c(F)cccc4F)c4nc(c(-c5c(F)cccc5F)c5ccc2[nH]5)C=C4)C=C3)cc1)C1=Cc2cc(S(F)(F)(F)(F)F)ccc2O[C@@H]1C(F)(F)F
REMARK SMILES IDX 5 1 4 2 3 3 2 4 1 5 63 6 64 7 78 8 65 9 77 10 66 11 76 12
REMARK SMILES IDX 67 13 75 14 74 15 79 16 80 17 81 18 82 19 68 20 69 21 70 22
REMARK SMILES IDX 71 23 72 24 73 25 6 26 7 27 8 28 9 29 10 30 62 31 11 32
REMARK SMILES IDX 61 33 12 34 13 35 14 36 55 37 15 38 60 39 54 40 56 41 16 42
REMARK SMILES IDX 59 43 53 44 52 45 17 47 43 48 26 49 42 50 27 51 30 52 41 53
REMARK SMILES IDX 57 54 28 55 29 56 40 58 58 59 31 60 18 61 19 62 24 63 20 64
REMARK SMILES IDX 21 65 23 66 25 67 22 68 44 69 45 70 50 71 46 72 47 73 49 74
REMARK SMILES IDX 51 75 48 76 32 77 33 78 38 79 34 80 35 81 37 82 39 83 36 84
REMARK H PARENT 56 46 30 57
REMARK Flexibility Score: inf
ROOT
ATOM      1  C   UNL A   1      33.549  28.589  27.165  1.00  0.00     0.275 C 
ENDROOT
BRANCH   1   2
ATOM      2  C   UNL A   1      32.119  28.346  27.619  1.00  0.00     0.275 C 
BRANCH   2   3
ATOM      3  O   UNL A   1      31.799  26.972  27.460  1.00  0.00    -0.459 OA
BRANCH   3   4
ATOM      4  C   UNL A   1      31.067  26.541  26.322  1.00  0.00     0.338 C 
ATOM      5  O   UNL A   1      29.951  25.953  26.470  1.00  0.00    -0.246 OA
BRANCH   4   6
ATOM      6  C   UNL A   1      31.619  26.782  24.925  1.00  0.00     0.087 C 
ATOM      7  C   UNL A   1      32.658  26.032  24.466  1.00  0.00     0.027 C 
ATOM      8  C   UNL A   1      31.011  27.860  24.044  1.00  0.00     0.316 C 
ATOM      9  C   UNL A   1      33.265  24.953  25.349  1.00  0.00     0.019 A 
ATOM     10  O   UNL A   1      31.043  24.440  26.015  1.00  0.00    -0.475 OA
ATOM     11  C   UNL A   1      34.637  24.793  25.440  1.00  0.00     0.036 A 
ATOM     12  C   UNL A   1      32.433  24.151  26.001  1.00  0.00     0.128 A 
ATOM     13  C   UNL A   1      35.034  23.565  26.020  1.00  0.00     0.107 A 
ATOM     14  C   UNL A   1      32.905  23.042  26.660  1.00  0.00     0.048 A 
ATOM     15  C   UNL A   1      34.246  22.788  26.741  1.00  0.00     0.028 A 
BRANCH   8  16
ATOM     16  C   UNL A   1      30.474  27.229  22.769  1.00  0.00     0.430 C 
ATOM     17  F   UNL A   1      31.458  27.117  21.882  1.00  0.00    -0.167 F 
ATOM     18  F   UNL A   1      29.986  26.022  23.044  1.00  0.00    -0.167 F 
ATOM     19  F   UNL A   1      29.509  27.993  22.268  1.00  0.00    -0.167 F 
ENDBRANCH   8  16
BRANCH  13  20
ATOM     20  S   UNL A   1      36.739  23.019  25.757  1.00  0.00     0.310 S 
ATOM     21  F   UNL A   1      36.970  24.075  24.595  1.00  0.00    -0.094 F 
ATOM     22  F   UNL A   1      36.219  22.023  24.654  1.00  0.00    -0.094 F 
ATOM     23  F   UNL A   1      38.204  22.546  25.533  1.00  0.00    -0.094 F 
ATOM     24  F   UNL A   1      37.258  24.122  26.763  1.00  0.00    -0.094 F 
ATOM     25  F   UNL A   1      35.273  23.589  25.912  1.00  0.00    -0.094 F 
ENDBRANCH  13  20
ENDBRANCH   4   6
ENDBRANCH   3   4
ENDBRANCH   2   3
ENDBRANCH   1   2
BRANCH   1  26
ATOM     26  O   UNL A   1      33.775  29.984  27.038  1.00  0.00    -0.458 OA
BRANCH  26  27
ATOM     27  C   UNL A   1      34.559  30.668  28.005  1.00  0.00     0.338 C 
ATOM     28  O   UNL A   1      34.094  31.696  28.589  1.00  0.00    -0.246 OA
BRANCH  27  29
ATOM     29  C   UNL A   1      35.956  30.171  28.341  1.00  0.00     0.060 A 
ATOM     30  C   UNL A   1      36.284  29.652  29.583  1.00  0.00     0.016 A 
ATOM     31  C   UNL A   1      36.849  30.223  27.359  1.00  0.00     0.016 A 
ATOM     32  C   UNL A   1      37.673  29.476  29.782  1.00  0.00     0.010 A 
ATOM     33  C   UNL A   1      38.165  29.905  27.592  1.00  0.00     0.010 A 
ATOM     34  C   UNL A   1      38.570  29.442  28.813  1.00  0.00    -0.014 A 
BRANCH  34  35
ATOM     35  C   UNL A   1      39.979  28.917  29.044  1.00  0.00     0.031 A 
ATOM     36  C   UNL A   1      40.868  29.844  29.589  1.00  0.00     0.074 A 
ATOM     37  C   UNL A   1      40.334  27.636  28.660  1.00  0.00     0.049 A 
ATOM     38  N   UNL A   1      42.160  29.666  29.864  1.00  0.00    -0.248 NA
ATOM     39  C   UNL A   1      40.500  31.217  29.965  1.00  0.00     0.031 C 
ATOM     40  C   UNL A   1      39.441  26.692  28.117  1.00  0.00     0.029 A 
ATOM     41  N   UNL A   1      41.578  27.048  28.729  1.00  0.00    -0.354 N 
ATOM     42  C   UNL A   1      42.675  30.777  30.398  1.00  0.00     0.074 A 
ATOM     43  C   UNL A   1      41.616  31.792  30.464  1.00  0.00     0.031 C 
ATOM     44  C   UNL A   1      40.138  25.556  27.850  1.00  0.00     0.029 A 
ATOM     45  C   UNL A   1      41.478  25.770  28.224  1.00  0.00     0.049 A 
ATOM     46  H   UNL A   1      42.396  27.469  29.078  1.00  0.00     0.167 HD
ATOM     47  C   UNL A   1      43.986  30.981  30.833  1.00  0.00     0.037 A 
ATOM     48  C   UNL A   1      42.488  24.831  28.086  1.00  0.00     0.037 A 
ATOM     49  C   UNL A   1      44.986  30.026  30.736  1.00  0.00     0.049 A 
ATOM     50  C   UNL A   1      43.813  25.056  28.468  1.00  0.00     0.074 A 
ATOM     51  C   UNL A   1      46.310  30.213  31.176  1.00  0.00     0.029 A 
ATOM     52  N   UNL A   1      44.892  28.757  30.207  1.00  0.00    -0.354 N 
ATOM     53  N   UNL A   1      44.318  26.151  29.037  1.00  0.00    -0.248 NA
ATOM     54  C   UNL A   1      44.897  24.080  28.297  1.00  0.00     0.031 C 
ATOM     55  C   UNL A   1      47.008  29.076  30.909  1.00  0.00     0.029 A 
ATOM     56  C   UNL A   1      46.130  28.161  30.297  1.00  0.00     0.049 A 
ATOM     57  H   UNL A   1      44.080  28.348  29.831  1.00  0.00     0.167 HD
ATOM     58  C   UNL A   1      45.621  25.987  29.274  1.00  0.00     0.074 A 
ATOM     59  C   UNL A   1      46.015  24.655  28.794  1.00  0.00     0.031 C 
ATOM     60  C   UNL A   1      46.497  26.893  29.873  1.00  0.00     0.037 A 
BRANCH  47  61
ATOM     61  C   UNL A   1      44.336  32.326  31.448  1.00  0.00     0.057 A 
ATOM     62  C   UNL A   1      44.783  33.354  30.634  1.00  0.00     0.134 A 
ATOM     63  C   UNL A   1      44.263  32.471  32.765  1.00  0.00     0.134 A 
ATOM     64  F   UNL A   1      44.637  33.350  29.313  1.00  0.00    -0.206 F 
ATOM     65  C   UNL A   1      45.409  34.411  31.338  1.00  0.00     0.040 A 
ATOM     66  C   UNL A   1      44.774  33.592  33.375  1.00  0.00     0.040 A 
ATOM     67  F   UNL A   1      43.690  31.525  33.502  1.00  0.00    -0.206 F 
ATOM     68  C   UNL A   1      45.286  34.623  32.635  1.00  0.00     0.006 A 
ENDBRANCH  47  61
BRANCH  48  69
ATOM     69  C   UNL A   1      42.134  23.481  27.487  1.00  0.00     0.057 A 
ATOM     70  C   UNL A   1      42.170  23.303  26.114  1.00  0.00     0.134 A 
ATOM     71  C   UNL A   1      41.854  22.472  28.304  1.00  0.00     0.134 A 
ATOM     72  F   UNL A   1      42.685  24.201  25.279  1.00  0.00    -0.206 F 
ATOM     73  C   UNL A   1      41.608  22.078  25.679  1.00  0.00     0.040 A 
ATOM     74  C   UNL A   1      41.442  21.259  27.806  1.00  0.00     0.040 A 
ATOM     75  F   UNL A   1      41.975  22.636  29.618  1.00  0.00    -0.206 F 
ATOM     76  C   UNL A   1      41.397  21.034  26.458  1.00  0.00     0.006 A 
ENDBRANCH  48  69
BRANCH  60  77
ATOM     77  C   UNL A   1      47.941  26.464  30.075  1.00  0.00     0.057 A 
ATOM     78  C   UNL A   1      48.907  26.678  29.105  1.00  0.00     0.134 A 
ATOM     79  C   UNL A   1      48.244  25.891  31.233  1.00  0.00     0.134 A 
ATOM     80  F   UNL A   1      48.713  27.464  28.049  1.00  0.00    -0.206 F 
ATOM     81  C   UNL A   1      50.118  25.987  29.339  1.00  0.00     0.040 A 
ATOM     82  C   UNL A   1      49.492  25.355  31.444  1.00  0.00     0.040 A 
ATOM     83  F   UNL A   1      47.332  25.835  32.199  1.00  0.00    -0.206 F 
ATOM     84  C   UNL A   1      50.477  25.478  30.504  1.00  0.00     0.006 A 
ENDBRANCH  60  77
ENDBRANCH  34  35
ENDBRANCH  27  29
ENDBRANCH  26  27
ENDBRANCH   1  26
TORSDOF 13
ENDMDL
MODEL 3
REMARK VINA RESULT:     -12.3      0.408      6.161
REMARK SMILES O=C(OCCOC(=O)c1ccc(-c2c3nc(c(-c4c(F)cccc4F)c4ccc([nH]4)c(-c4c(F)cccc4F)c4nc(c(-c5c(F)cccc5F)c5ccc2[nH]5)C=C4)C=C3)cc1)C1=Cc2cc(S(F)(F)(F)(F)F)ccc2O[C@@H]1C(F)(F)F
REMARK SMILES IDX 5 1 4 2 3 3 2 4 1 5 63 6 64 7 78 8 65 9 77 10 66 11 76 12
REMARK SMILES IDX 67 13 75 14 74 15 79 16 80 17 81 18 82 19 68 20 69 21 70 22
REMARK SMILES IDX 71 23 72 24 73 25 6 26 7 27 8 28 9 29 10 30 62 31 11 32
REMARK SMILES IDX 61 33 12 34 13 35 14 36 55 37 15 38 60 39 54 40 56 41 16 42
REMARK SMILES IDX 59 43 53 44 52 45 17 47 43 48 26 49 42 50 27 51 30 52 41 53
REMARK SMILES IDX 57 54 28 55 29 56 40 58 58 59 31 60 18 61 19 62 24 63 20 64
REMARK SMILES IDX 21 65 23 66 25 67 22 68 44 69 45 70 50 71 46 72 47 73 49 74
REMARK SMILES IDX 51 75 48 76 32 77 33 78 38 79 34 80 35 81 37 82 39 83 36 84
REMARK H PARENT 56 46 30 57
REMARK Flexibility Score: inf
ROOT
ATOM      1  C   UNL A   1      38.364  23.219  26.102  1.00  0.00     0.275 C 
ENDROOT
BRANCH   1   2
ATOM      2  C   UNL A   1      36.857  23.403  26.018  1.00  0.00     0.275 C 
BRANCH   2   3
ATOM      3  O   UNL A   1      36.506  23.858  24.720  1.00  0.00    -0.459 OA
BRANCH   3   4
ATOM      4  C   UNL A   1      35.546  23.146  23.953  1.00  0.00     0.338 C 
ATOM      5  O   UNL A   1      35.740  22.954  22.712  1.00  0.00    -0.246 OA
BRANCH   4   6
ATOM      6  C   UNL A   1      34.286  22.614  24.616  1.00  0.00     0.087 C 
ATOM      7  C   UNL A   1      33.334  23.479  25.061  1.00  0.00     0.027 C 
ATOM      8  C   UNL A   1      34.088  21.116  24.781  1.00  0.00     0.316 C 
ATOM      9  C   UNL A   1      33.532  24.978  24.895  1.00  0.00     0.019 A 
ATOM     10  O   UNL A   1      34.420  24.484  22.747  1.00  0.00    -0.475 OA
ATOM     11  C   UNL A   1      33.231  25.857  25.922  1.00  0.00     0.036 A 
ATOM     12  C   UNL A   1      33.970  25.414  23.721  1.00  0.00     0.128 A 
ATOM     13  C   UNL A   1      33.150  27.209  25.514  1.00  0.00     0.107 A 
ATOM     14  C   UNL A   1      33.990  26.759  23.438  1.00  0.00     0.048 A 
ATOM     15  C   UNL A   1      33.649  27.682  24.386  1.00  0.00     0.028 A 
BRANCH   8  16
ATOM     16  C   UNL A   1      32.828  20.687  24.047  1.00  0.00     0.430 C 
ATOM     17  F   UNL A   1      32.663  21.449  22.969  1.00  0.00    -0.167 F 
ATOM     18  F   UNL A   1      32.942  19.415  23.676  1.00  0.00    -0.167 F 
ATOM     19  F   UNL A   1      31.778  20.822  24.851  1.00  0.00    -0.167 F 
ENDBRANCH   8  16
BRANCH  13  20
ATOM     20  S   UNL A   1      32.302  28.371  26.612  1.00  0.00     0.310 S 
ATOM     21  F   UNL A   1      31.744  27.204  27.530  1.00  0.00    -0.094 F 
ATOM     22  F   UNL A   1      31.004  28.208  25.734  1.00  0.00    -0.094 F 
ATOM     23  F   UNL A   1      31.573  29.374  27.551  1.00  0.00    -0.094 F 
ATOM     24  F   UNL A   1      33.566  28.414  27.558  1.00  0.00    -0.094 F 
ATOM     25  F   UNL A   1      33.017  27.269  25.733  1.00  0.00    -0.094 F 
ENDBRANCH  13  20
ENDBRANCH   4   6
ENDBRANCH   3   4
ENDBRANCH   2   3
ENDBRANCH   1   2
BRANCH   1  26
ATOM     26  O   UNL A   1      39.007  24.455  25.829  1.00  0.00    -0.458 OA
BRANCH  26  27
ATOM     27  C   UNL A   1      40.230  24.776  26.475  1.00  0.00     0.338 C 
ATOM     28  O   UNL A   1      41.304  24.191  26.130  1.00  0.00    -0.246 OA
BRANCH  27  29
ATOM     29  C   UNL A   1      40.255  25.820  27.580  1.00  0.00     0.060 A 
ATOM     30  C   UNL A   1      41.186  26.846  27.616  1.00  0.00     0.016 A 
ATOM     31  C   UNL A   1      39.304  25.721  28.501  1.00  0.00     0.016 A 
ATOM     32  C   UNL A   1      41.205  27.560  28.837  1.00  0.00     0.010 A 
ATOM     33  C   UNL A   1      39.306  26.543  29.602  1.00  0.00     0.010 A 
ATOM     34  C   UNL A   1      40.232  27.541  29.731  1.00  0.00    -0.014 A 
BRANCH  34  35
ATOM     35  C   UNL A   1      40.148  28.572  30.845  1.00  0.00     0.031 A 
ATOM     36  C   UNL A   1      39.226  29.597  30.627  1.00  0.00     0.074 A 
ATOM     37  C   UNL A   1      40.990  28.508  31.942  1.00  0.00     0.049 A 
ATOM     38  N   UNL A   1      38.969  30.641  31.416  1.00  0.00    -0.248 NA
ATOM     39  C   UNL A   1      38.355  29.685  29.446  1.00  0.00     0.031 C 
ATOM     40  C   UNL A   1      41.917  27.473  32.173  1.00  0.00     0.029 A 
ATOM     41  N   UNL A   1      41.089  29.403  32.985  1.00  0.00    -0.354 N 
ATOM     42  C   UNL A   1      38.007  31.397  30.882  1.00  0.00     0.074 A 
ATOM     43  C   UNL A   1      37.603  30.795  29.603  1.00  0.00     0.031 C 
ATOM     44  C   UNL A   1      42.574  27.746  33.331  1.00  0.00     0.029 A 
ATOM     45  C   UNL A   1      42.068  28.955  33.844  1.00  0.00     0.049 A 
ATOM     46  H   UNL A   1      40.553  30.221  33.095  1.00  0.00     0.167 HD
ATOM     47  C   UNL A   1      37.451  32.562  31.411  1.00  0.00     0.037 A 
ATOM     48  C   UNL A   1      42.509  29.555  35.013  1.00  0.00     0.037 A 
ATOM     49  C   UNL A   1      37.862  33.138  32.604  1.00  0.00     0.049 A 
ATOM     50  C   UNL A   1      41.992  30.752  35.514  1.00  0.00     0.074 A 
ATOM     51  C   UNL A   1      37.307  34.309  33.154  1.00  0.00     0.029 A 
ATOM     52  N   UNL A   1      38.858  32.704  33.450  1.00  0.00    -0.354 N 
ATOM     53  N   UNL A   1      41.004  31.486  35.000  1.00  0.00    -0.248 NA
ATOM     54  C   UNL A   1      42.475  31.413  36.734  1.00  0.00     0.031 C 
ATOM     55  C   UNL A   1      37.964  34.581  34.314  1.00  0.00     0.029 A 
ATOM     56  C   UNL A   1      38.941  33.586  34.504  1.00  0.00     0.049 A 
ATOM     57  H   UNL A   1      39.414  31.901  33.323  1.00  0.00     0.167 HD
ATOM     58  C   UNL A   1      40.776  32.553  35.768  1.00  0.00     0.074 A 
ATOM     59  C   UNL A   1      41.724  32.526  36.891  1.00  0.00     0.031 C 
ATOM     60  C   UNL A   1      39.814  33.546  35.580  1.00  0.00     0.037 A 
BRANCH  47  61
ATOM     61  C   UNL A   1      36.330  33.237  30.638  1.00  0.00     0.057 A 
ATOM     62  C   UNL A   1      35.012  32.948  30.952  1.00  0.00     0.134 A 
ATOM     63  C   UNL A   1      36.637  34.048  29.633  1.00  0.00     0.134 A 
ATOM     64  F   UNL A   1      34.649  32.357  32.086  1.00  0.00    -0.206 F 
ATOM     65  C   UNL A   1      34.086  33.341  29.956  1.00  0.00     0.040 A 
ATOM     66  C   UNL A   1      35.662  34.503  28.778  1.00  0.00     0.040 A 
ATOM     67  F   UNL A   1      37.899  34.424  29.451  1.00  0.00    -0.206 F 
ATOM     68  C   UNL A   1      34.344  34.208  28.994  1.00  0.00     0.006 A 
ENDBRANCH  47  61
BRANCH  48  69
ATOM     69  C   UNL A   1      43.618  28.871  35.795  1.00  0.00     0.057 A 
ATOM     70  C   UNL A   1      44.926  29.310  35.668  1.00  0.00     0.134 A 
ATOM     71  C   UNL A   1      43.299  27.896  36.638  1.00  0.00     0.134 A 
ATOM     72  F   UNL A   1      45.255  30.434  35.039  1.00  0.00    -0.206 F 
ATOM     73  C   UNL A   1      45.879  28.454  36.270  1.00  0.00     0.040 A 
ATOM     74  C   UNL A   1      44.276  27.190  37.297  1.00  0.00     0.040 A 
ATOM     75  F   UNL A   1      42.019  27.600  36.848  1.00  0.00    -0.206 F 
ATOM     76  C   UNL A   1      45.594  27.533  37.171  1.00  0.00     0.006 A 
ENDBRANCH  48  69
BRANCH  60  77
ATOM     77  C   UNL A   1      39.716  34.651  36.620  1.00  0.00     0.057 A 
ATOM     78  C   UNL A   1      40.323  35.883  36.433  1.00  0.00     0.134 A 
ATOM     79  C   UNL A   1      39.004  34.393  37.709  1.00  0.00     0.134 A 
ATOM     80  F   UNL A   1      40.825  36.274  35.264  1.00  0.00    -0.206 F 
ATOM     81  C   UNL A   1      40.359  36.687  37.595  1.00  0.00     0.040 A 
ATOM     82  C   UNL A   1      38.975  35.286  38.754  1.00  0.00     0.040 A 
ATOM     83  F   UNL A   1      38.312  33.260  37.792  1.00  0.00    -0.206 F 
ATOM     84  C   UNL A   1      39.602  36.497  38.661  1.00  0.00     0.006 A 
ENDBRANCH  60  77
ENDBRANCH  34  35
ENDBRANCH  27  29
ENDBRANCH  26  27
ENDBRANCH   1  26
TORSDOF 13
ENDMDL
