MODEL 1
REMARK VINA RESULT:     -10.6      0.000      0.000
REMARK SMILES O=C(OCCOC(=O)[C@@H]1CCCN(C(=O)/C=C/c2c(F)cccc2Cl)C1)c1ccc(-c2c3nc(c(-c4c(F)cccc4F)c4ccc([nH]4)c(-c4c(F)cccc4F)c4nc(c(-c5c(F)cccc5F)c5ccc2[nH]5)C=C4)C=C3)cc1
REMARK SMILES IDX 5 1 4 2 3 3 2 4 1 5 27 6 28 7 80 8 29 9 79 10 30 11 31 12
REMARK SMILES IDX 32 13 73 14 33 15 78 16 72 17 74 18 34 19 77 20 71 21 70 22
REMARK SMILES IDX 35 24 61 25 44 26 60 27 45 28 48 29 59 30 75 31 46 32 47 33
REMARK SMILES IDX 58 35 76 36 49 37 36 38 37 39 42 40 38 41 39 42 41 43 43 44
REMARK SMILES IDX 40 45 62 46 63 47 68 48 64 49 65 50 67 51 69 52 66 53 50 54
REMARK SMILES IDX 51 55 56 56 52 57 53 58 55 59 57 60 54 61 6 62 7 63 8 64
REMARK SMILES IDX 9 65 10 66 26 67 11 68 13 69 12 70 14 71 15 72 16 73 17 74
REMARK SMILES IDX 18 75 19 76 24 77 20 78 21 79 23 80 25 81 22 82
REMARK H PARENT 74 23 48 34
REMARK Flexibility Score: inf
ROOT
ATOM      1  C   UNL A   1      33.277  34.274  28.350  1.00  0.00     0.274 C 
ENDROOT
BRANCH   1   2
ATOM      2  C   UNL A   1      34.209  33.069  28.487  1.00  0.00     0.275 C 
BRANCH   2   3
ATOM      3  O   UNL A   1      33.657  31.842  27.969  1.00  0.00    -0.458 OA
BRANCH   3   4
ATOM      4  C   UNL A   1      34.259  30.718  27.514  1.00  0.00     0.338 C 
ATOM      5  O   UNL A   1      33.622  29.990  26.753  1.00  0.00    -0.246 OA
BRANCH   4   6
ATOM      6  C   UNL A   1      35.601  30.214  27.969  1.00  0.00     0.060 A 
ATOM      7  C   UNL A   1      36.797  30.251  27.248  1.00  0.00     0.016 A 
ATOM      8  C   UNL A   1      35.652  29.688  29.279  1.00  0.00     0.016 A 
ATOM      9  C   UNL A   1      38.012  29.854  27.826  1.00  0.00     0.010 A 
ATOM     10  C   UNL A   1      36.861  29.302  29.866  1.00  0.00     0.010 A 
ATOM     11  C   UNL A   1      38.055  29.382  29.137  1.00  0.00    -0.014 A 
BRANCH  11  12
ATOM     12  C   UNL A   1      39.297  28.787  29.683  1.00  0.00     0.031 A 
ATOM     13  C   UNL A   1      39.911  29.451  30.876  1.00  0.00     0.074 A 
ATOM     14  C   UNL A   1      39.867  27.691  29.145  1.00  0.00     0.049 A 
ATOM     15  N   UNL A   1      40.987  29.123  31.539  1.00  0.00    -0.248 NA
ATOM     16  C   UNL A   1      39.196  30.619  31.420  1.00  0.00     0.031 C 
ATOM     17  C   UNL A   1      39.300  26.880  28.078  1.00  0.00     0.029 A 
ATOM     18  N   UNL A   1      41.065  27.077  29.410  1.00  0.00    -0.354 N 
ATOM     19  C   UNL A   1      41.053  30.014  32.598  1.00  0.00     0.074 A 
ATOM     20  C   UNL A   1      39.952  30.940  32.457  1.00  0.00     0.031 C 
ATOM     21  C   UNL A   1      40.187  25.951  27.689  1.00  0.00     0.029 A 
ATOM     22  C   UNL A   1      41.372  26.066  28.527  1.00  0.00     0.049 A 
ATOM     23  H   UNL A   1      41.650  27.334  30.160  1.00  0.00     0.167 HD
ATOM     24  C   UNL A   1      41.940  30.033  33.616  1.00  0.00     0.037 A 
ATOM     25  C   UNL A   1      42.479  25.309  28.417  1.00  0.00     0.037 A 
ATOM     26  C   UNL A   1      43.044  29.121  33.726  1.00  0.00     0.049 A 
ATOM     27  C   UNL A   1      43.535  25.448  29.476  1.00  0.00     0.074 A 
ATOM     28  C   UNL A   1      43.999  29.040  34.720  1.00  0.00     0.029 A 
ATOM     29  N   UNL A   1      43.353  28.148  32.785  1.00  0.00    -0.354 N 
ATOM     30  N   UNL A   1      43.546  26.242  30.521  1.00  0.00    -0.248 NA
ATOM     31  C   UNL A   1      44.701  24.562  29.379  1.00  0.00     0.031 C 
ATOM     32  C   UNL A   1      44.925  28.059  34.348  1.00  0.00     0.029 A 
ATOM     33  C   UNL A   1      44.517  27.495  33.149  1.00  0.00     0.049 A 
ATOM     34  H   UNL A   1      42.822  27.952  31.980  1.00  0.00     0.167 HD
ATOM     35  C   UNL A   1      44.692  25.918  31.231  1.00  0.00     0.074 A 
ATOM     36  C   UNL A   1      45.350  24.855  30.497  1.00  0.00     0.031 C 
ATOM     37  C   UNL A   1      45.150  26.443  32.394  1.00  0.00     0.037 A 
BRANCH  24  38
ATOM     38  C   UNL A   1      41.755  31.094  34.657  1.00  0.00     0.057 A 
ATOM     39  C   UNL A   1      40.885  30.922  35.742  1.00  0.00     0.134 A 
ATOM     40  C   UNL A   1      42.437  32.311  34.558  1.00  0.00     0.134 A 
ATOM     41  F   UNL A   1      40.179  29.789  35.877  1.00  0.00    -0.206 F 
ATOM     42  C   UNL A   1      40.683  31.935  36.682  1.00  0.00     0.040 A 
ATOM     43  C   UNL A   1      42.262  33.322  35.502  1.00  0.00     0.040 A 
ATOM     44  F   UNL A   1      43.275  32.540  33.536  1.00  0.00    -0.206 F 
ATOM     45  C   UNL A   1      41.378  33.138  36.565  1.00  0.00     0.006 A 
ENDBRANCH  24  38
BRANCH  25  46
ATOM     46  C   UNL A   1      42.627  24.343  27.295  1.00  0.00     0.057 A 
ATOM     47  C   UNL A   1      42.210  23.013  27.409  1.00  0.00     0.134 A 
ATOM     48  C   UNL A   1      43.216  24.728  26.082  1.00  0.00     0.134 A 
ATOM     49  F   UNL A   1      41.652  22.576  28.547  1.00  0.00    -0.206 F 
ATOM     50  C   UNL A   1      42.395  22.094  26.372  1.00  0.00     0.040 A 
ATOM     51  C   UNL A   1      43.388  23.825  25.029  1.00  0.00     0.040 A 
ATOM     52  F   UNL A   1      43.634  25.989  25.902  1.00  0.00    -0.206 F 
ATOM     53  C   UNL A   1      42.986  22.500  25.177  1.00  0.00     0.006 A 
ENDBRANCH  25  46
BRANCH  37  54
ATOM     54  C   UNL A   1      46.418  25.869  32.945  1.00  0.00     0.057 A 
ATOM     55  C   UNL A   1      46.407  24.803  33.854  1.00  0.00     0.134 A 
ATOM     56  C   UNL A   1      47.662  26.341  32.511  1.00  0.00     0.134 A 
ATOM     57  F   UNL A   1      45.246  24.317  34.318  1.00  0.00    -0.206 F 
ATOM     58  C   UNL A   1      47.591  24.236  34.322  1.00  0.00     0.040 A 
ATOM     59  C   UNL A   1      48.853  25.763  32.949  1.00  0.00     0.040 A 
ATOM     60  F   UNL A   1      47.739  27.354  31.634  1.00  0.00    -0.206 F 
ATOM     61  C   UNL A   1      48.819  24.710  33.860  1.00  0.00     0.006 A 
ENDBRANCH  37  54
ENDBRANCH  11  12
ENDBRANCH   4   6
ENDBRANCH   3   4
ENDBRANCH   2   3
ENDBRANCH   1   2
BRANCH   1  62
ATOM     62  O   UNL A   1      32.788  34.676  29.633  1.00  0.00    -0.462 OA
BRANCH  62  63
ATOM     63  C   UNL A   1      33.071  35.942  30.060  1.00  0.00     0.310 C 
ATOM     64  O   UNL A   1      33.615  36.805  29.392  1.00  0.00    -0.252 OA
BRANCH  63  65
ATOM     65  C   UNL A   1      32.475  36.151  31.444  1.00  0.00     0.119 C 
ATOM     66  C   UNL A   1      33.045  37.337  32.225  1.00  0.00     0.019 C 
ATOM     67  C   UNL A   1      32.556  34.872  32.262  1.00  0.00     0.135 C 
ATOM     68  C   UNL A   1      34.403  37.040  32.865  1.00  0.00     0.022 C 
ATOM     69  N   UNL A   1      33.911  34.648  32.740  1.00  0.00    -0.338 N 
ATOM     70  C   UNL A   1      34.400  35.709  33.616  1.00  0.00     0.120 C 
BRANCH  69  71
ATOM     71  C   UNL A   1      34.591  33.521  32.316  1.00  0.00     0.246 C 
ATOM     72  O   UNL A   1      34.028  32.492  31.944  1.00  0.00    -0.270 OA
BRANCH  71  73
ATOM     73  C   UNL A   1      36.071  33.530  32.310  1.00  0.00     0.072 C 
ATOM     74  C   UNL A   1      36.764  34.342  31.499  1.00  0.00     0.018 C 
BRANCH  74  75
ATOM     75  C   UNL A   1      38.225  34.306  31.411  1.00  0.00     0.029 A 
ATOM     76  C   UNL A   1      38.967  34.579  32.565  1.00  0.00     0.131 A 
ATOM     77  C   UNL A   1      38.919  33.985  30.234  1.00  0.00     0.051 A 
ATOM     78  F   UNL A   1      38.342  34.885  33.712  1.00  0.00    -0.206 F 
ATOM     79  C   UNL A   1      40.359  34.534  32.562  1.00  0.00     0.040 A 
ATOM     80  C   UNL A   1      40.319  33.936  30.228  1.00  0.00     0.021 A 
ATOM     81  Cl  UNL A   1      38.102  33.621  28.754  1.00  0.00    -0.084 Cl
ATOM     82  C   UNL A   1      41.038  34.209  31.391  1.00  0.00     0.005 A 
ENDBRANCH  74  75
ENDBRANCH  71  73
ENDBRANCH  69  71
ENDBRANCH  63  65
ENDBRANCH  62  63
ENDBRANCH   1  62
TORSDOF 14
ENDMDL
MODEL 2
REMARK VINA RESULT:     -10.3      5.258      9.799
REMARK SMILES O=C(OCCOC(=O)[C@@H]1CCCN(C(=O)/C=C/c2c(F)cccc2Cl)C1)c1ccc(-c2c3nc(c(-c4c(F)cccc4F)c4ccc([nH]4)c(-c4c(F)cccc4F)c4nc(c(-c5c(F)cccc5F)c5ccc2[nH]5)C=C4)C=C3)cc1
REMARK SMILES IDX 5 1 4 2 3 3 2 4 1 5 27 6 28 7 80 8 29 9 79 10 30 11 31 12
REMARK SMILES IDX 32 13 73 14 33 15 78 16 72 17 74 18 34 19 77 20 71 21 70 22
REMARK SMILES IDX 35 24 61 25 44 26 60 27 45 28 48 29 59 30 75 31 46 32 47 33
REMARK SMILES IDX 58 35 76 36 49 37 36 38 37 39 42 40 38 41 39 42 41 43 43 44
REMARK SMILES IDX 40 45 62 46 63 47 68 48 64 49 65 50 67 51 69 52 66 53 50 54
REMARK SMILES IDX 51 55 56 56 52 57 53 58 55 59 57 60 54 61 6 62 7 63 8 64
REMARK SMILES IDX 9 65 10 66 26 67 11 68 13 69 12 70 14 71 15 72 16 73 17 74
REMARK SMILES IDX 18 75 19 76 24 77 20 78 21 79 23 80 25 81 22 82
REMARK H PARENT 74 23 48 34
REMARK Flexibility Score: inf
ROOT
ATOM      1  C   UNL A   1      37.766  21.533  25.436  1.00  0.00     0.274 C 
ENDROOT
BRANCH   1   2
ATOM      2  C   UNL A   1      38.164  20.159  24.895  1.00  0.00     0.275 C 
BRANCH   2   3
ATOM      3  O   UNL A   1      39.125  19.465  25.717  1.00  0.00    -0.458 OA
BRANCH   3   4
ATOM      4  C   UNL A   1      40.437  19.706  25.948  1.00  0.00     0.338 C 
ATOM      5  O   UNL A   1      41.233  18.784  25.770  1.00  0.00    -0.246 OA
BRANCH   4   6
ATOM      6  C   UNL A   1      40.991  20.976  26.532  1.00  0.00     0.060 A 
ATOM      7  C   UNL A   1      41.026  21.330  27.883  1.00  0.00     0.016 A 
ATOM      8  C   UNL A   1      41.569  21.878  25.612  1.00  0.00     0.016 A 
ATOM      9  C   UNL A   1      41.675  22.496  28.316  1.00  0.00     0.010 A 
ATOM     10  C   UNL A   1      42.229  23.036  26.037  1.00  0.00     0.010 A 
ATOM     11  C   UNL A   1      42.284  23.353  27.401  1.00  0.00    -0.014 A 
BRANCH  11  12
ATOM     12  C   UNL A   1      42.801  24.672  27.833  1.00  0.00     0.031 A 
ATOM     13  C   UNL A   1      41.800  25.762  28.062  1.00  0.00     0.074 A 
ATOM     14  C   UNL A   1      44.115  24.905  28.023  1.00  0.00     0.049 A 
ATOM     15  N   UNL A   1      41.996  26.994  28.447  1.00  0.00    -0.248 NA
ATOM     16  C   UNL A   1      40.383  25.405  27.869  1.00  0.00     0.031 C 
ATOM     17  C   UNL A   1      45.168  23.901  27.967  1.00  0.00     0.029 A 
ATOM     18  N   UNL A   1      44.796  26.067  28.284  1.00  0.00    -0.354 N 
ATOM     19  C   UNL A   1      40.731  27.543  28.583  1.00  0.00     0.074 A 
ATOM     20  C   UNL A   1      39.775  26.538  28.176  1.00  0.00     0.031 C 
ATOM     21  C   UNL A   1      46.368  24.493  28.063  1.00  0.00     0.029 A 
ATOM     22  C   UNL A   1      46.164  25.922  28.248  1.00  0.00     0.049 A 
ATOM     23  H   UNL A   1      44.349  26.923  28.478  1.00  0.00     0.167 HD
ATOM     24  C   UNL A   1      40.401  28.771  29.039  1.00  0.00     0.037 A 
ATOM     25  C   UNL A   1      47.144  26.839  28.366  1.00  0.00     0.037 A 
ATOM     26  C   UNL A   1      41.366  29.766  29.413  1.00  0.00     0.049 A 
ATOM     27  C   UNL A   1      46.752  28.243  28.725  1.00  0.00     0.074 A 
ATOM     28  C   UNL A   1      41.146  31.039  29.900  1.00  0.00     0.029 A 
ATOM     29  N   UNL A   1      42.741  29.602  29.311  1.00  0.00    -0.354 N 
ATOM     30  N   UNL A   1      45.551  28.732  28.930  1.00  0.00    -0.248 NA
ATOM     31  C   UNL A   1      47.838  29.211  28.921  1.00  0.00     0.031 C 
ATOM     32  C   UNL A   1      42.388  31.670  30.031  1.00  0.00     0.029 A 
ATOM     33  C   UNL A   1      43.383  30.771  29.677  1.00  0.00     0.049 A 
ATOM     34  H   UNL A   1      43.192  28.776  29.023  1.00  0.00     0.167 HD
ATOM     35  C   UNL A   1      45.738  30.047  29.326  1.00  0.00     0.074 A 
ATOM     36  C   UNL A   1      47.169  30.280  29.331  1.00  0.00     0.031 C 
ATOM     37  C   UNL A   1      44.810  30.974  29.667  1.00  0.00     0.037 A 
BRANCH  24  38
ATOM     38  C   UNL A   1      38.941  29.094  29.119  1.00  0.00     0.057 A 
ATOM     39  C   UNL A   1      38.216  28.954  30.310  1.00  0.00     0.134 A 
ATOM     40  C   UNL A   1      38.247  29.528  27.984  1.00  0.00     0.134 A 
ATOM     41  F   UNL A   1      38.817  28.514  31.425  1.00  0.00    -0.206 F 
ATOM     42  C   UNL A   1      36.845  29.213  30.363  1.00  0.00     0.040 A 
ATOM     43  C   UNL A   1      36.883  29.812  28.029  1.00  0.00     0.040 A 
ATOM     44  F   UNL A   1      38.883  29.671  26.811  1.00  0.00    -0.206 F 
ATOM     45  C   UNL A   1      36.176  29.648  29.220  1.00  0.00     0.006 A 
ENDBRANCH  24  38
BRANCH  25  46
ATOM     46  C   UNL A   1      48.568  26.454  28.177  1.00  0.00     0.057 A 
ATOM     47  C   UNL A   1      49.178  26.486  26.919  1.00  0.00     0.134 A 
ATOM     48  C   UNL A   1      49.349  26.018  29.257  1.00  0.00     0.134 A 
ATOM     49  F   UNL A   1      48.484  26.879  25.841  1.00  0.00    -0.206 F 
ATOM     50  C   UNL A   1      50.502  26.076  26.734  1.00  0.00     0.040 A 
ATOM     51  C   UNL A   1      50.679  25.625  29.091  1.00  0.00     0.040 A 
ATOM     52  F   UNL A   1      48.828  25.967  30.492  1.00  0.00    -0.206 F 
ATOM     53  C   UNL A   1      51.257  25.644  27.823  1.00  0.00     0.006 A 
ENDBRANCH  25  46
BRANCH  37  54
ATOM     54  C   UNL A   1      45.316  32.321  30.083  1.00  0.00     0.057 A 
ATOM     55  C   UNL A   1      45.676  32.591  31.409  1.00  0.00     0.134 A 
ATOM     56  C   UNL A   1      45.508  33.333  29.136  1.00  0.00     0.134 A 
ATOM     57  F   UNL A   1      45.501  31.666  32.364  1.00  0.00    -0.206 F 
ATOM     58  C   UNL A   1      46.198  33.829  31.780  1.00  0.00     0.040 A 
ATOM     59  C   UNL A   1      46.057  34.565  29.489  1.00  0.00     0.040 A 
ATOM     60  F   UNL A   1      45.191  33.131  27.848  1.00  0.00    -0.206 F 
ATOM     61  C   UNL A   1      46.400  34.816  30.816  1.00  0.00     0.006 A 
ENDBRANCH  37  54
ENDBRANCH  11  12
ENDBRANCH   4   6
ENDBRANCH   3   4
ENDBRANCH   2   3
ENDBRANCH   1   2
BRANCH   1  62
ATOM     62  O   UNL A   1      36.422  21.847  25.060  1.00  0.00    -0.462 OA
BRANCH  62  63
ATOM     63  C   UNL A   1      35.511  22.064  26.054  1.00  0.00     0.310 C 
ATOM     64  O   UNL A   1      35.453  23.063  26.751  1.00  0.00    -0.252 OA
BRANCH  63  65
ATOM     65  C   UNL A   1      34.497  20.931  26.063  1.00  0.00     0.119 C 
ATOM     66  C   UNL A   1      34.132  20.373  24.686  1.00  0.00     0.019 C 
ATOM     67  C   UNL A   1      33.250  21.332  26.835  1.00  0.00     0.135 C 
ATOM     68  C   UNL A   1      33.132  21.248  23.928  1.00  0.00     0.022 C 
ATOM     69  N   UNL A   1      32.423  22.234  26.049  1.00  0.00    -0.338 N 
ATOM     70  C   UNL A   1      31.944  21.645  24.802  1.00  0.00     0.120 C 
BRANCH  69  71
ATOM     71  C   UNL A   1      32.204  23.517  26.517  1.00  0.00     0.246 C 
ATOM     72  O   UNL A   1      31.930  23.770  27.690  1.00  0.00    -0.270 OA
BRANCH  71  73
ATOM     73  C   UNL A   1      32.290  24.654  25.574  1.00  0.00     0.072 C 
ATOM     74  C   UNL A   1      33.462  25.235  25.282  1.00  0.00     0.018 C 
BRANCH  74  75
ATOM     75  C   UNL A   1      33.562  26.416  24.423  1.00  0.00     0.029 A 
ATOM     76  C   UNL A   1      33.494  26.238  23.037  1.00  0.00     0.131 A 
ATOM     77  C   UNL A   1      33.694  27.722  24.919  1.00  0.00     0.051 A 
ATOM     78  F   UNL A   1      33.363  25.006  22.521  1.00  0.00    -0.206 F 
ATOM     79  C   UNL A   1      33.553  27.318  22.160  1.00  0.00     0.040 A 
ATOM     80  C   UNL A   1      33.750  28.812  24.041  1.00  0.00     0.021 A 
ATOM     81  Cl  UNL A   1      33.776  28.058  26.613  1.00  0.00    -0.084 Cl
ATOM     82  C   UNL A   1      33.679  28.610  22.663  1.00  0.00     0.005 A 
ENDBRANCH  74  75
ENDBRANCH  71  73
ENDBRANCH  69  71
ENDBRANCH  63  65
ENDBRANCH  62  63
ENDBRANCH   1  62
TORSDOF 14
ENDMDL
MODEL 3
REMARK VINA RESULT:     -10.2      6.050     10.900
REMARK SMILES O=C(OCCOC(=O)[C@@H]1CCCN(C(=O)/C=C/c2c(F)cccc2Cl)C1)c1ccc(-c2c3nc(c(-c4c(F)cccc4F)c4ccc([nH]4)c(-c4c(F)cccc4F)c4nc(c(-c5c(F)cccc5F)c5ccc2[nH]5)C=C4)C=C3)cc1
REMARK SMILES IDX 5 1 4 2 3 3 2 4 1 5 27 6 28 7 80 8 29 9 79 10 30 11 31 12
REMARK SMILES IDX 32 13 73 14 33 15 78 16 72 17 74 18 34 19 77 20 71 21 70 22
REMARK SMILES IDX 35 24 61 25 44 26 60 27 45 28 48 29 59 30 75 31 46 32 47 33
REMARK SMILES IDX 58 35 76 36 49 37 36 38 37 39 42 40 38 41 39 42 41 43 43 44
REMARK SMILES IDX 40 45 62 46 63 47 68 48 64 49 65 50 67 51 69 52 66 53 50 54
REMARK SMILES IDX 51 55 56 56 52 57 53 58 55 59 57 60 54 61 6 62 7 63 8 64
REMARK SMILES IDX 9 65 10 66 26 67 11 68 13 69 12 70 14 71 15 72 16 73 17 74
REMARK SMILES IDX 18 75 19 76 24 77 20 78 21 79 23 80 25 81 22 82
REMARK H PARENT 74 23 48 34
REMARK Flexibility Score: inf
ROOT
ATOM      1  C   UNL A   1      38.032  21.484  25.017  1.00  0.00     0.274 C 
ENDROOT
BRANCH   1   2
ATOM      2  C   UNL A   1      38.163  19.963  24.932  1.00  0.00     0.275 C 
BRANCH   2   3
ATOM      3  O   UNL A   1      39.149  19.411  25.828  1.00  0.00    -0.458 OA
BRANCH   3   4
ATOM      4  C   UNL A   1      40.464  19.693  25.985  1.00  0.00     0.338 C 
ATOM      5  O   UNL A   1      41.280  18.809  25.724  1.00  0.00    -0.246 OA
BRANCH   4   6
ATOM      6  C   UNL A   1      41.009  20.962  26.582  1.00  0.00     0.060 A 
ATOM      7  C   UNL A   1      41.032  21.307  27.935  1.00  0.00     0.016 A 
ATOM      8  C   UNL A   1      41.590  21.872  25.672  1.00  0.00     0.016 A 
ATOM      9  C   UNL A   1      41.673  22.473  28.381  1.00  0.00     0.010 A 
ATOM     10  C   UNL A   1      42.242  23.030  26.110  1.00  0.00     0.010 A 
ATOM     11  C   UNL A   1      42.286  23.338  27.476  1.00  0.00    -0.014 A 
BRANCH  11  12
ATOM     12  C   UNL A   1      42.794  24.657  27.921  1.00  0.00     0.031 A 
ATOM     13  C   UNL A   1      41.789  25.747  28.130  1.00  0.00     0.074 A 
ATOM     14  C   UNL A   1      44.104  24.888  28.139  1.00  0.00     0.049 A 
ATOM     15  N   UNL A   1      41.977  26.978  28.520  1.00  0.00    -0.248 NA
ATOM     16  C   UNL A   1      40.376  25.391  27.907  1.00  0.00     0.031 C 
ATOM     17  C   UNL A   1      45.157  23.884  28.104  1.00  0.00     0.029 A 
ATOM     18  N   UNL A   1      44.780  26.050  28.416  1.00  0.00    -0.354 N 
ATOM     19  C   UNL A   1      40.711  27.528  28.630  1.00  0.00     0.074 A 
ATOM     20  C   UNL A   1      39.762  26.524  28.202  1.00  0.00     0.031 C 
ATOM     21  C   UNL A   1      46.356  24.475  28.226  1.00  0.00     0.029 A 
ATOM     22  C   UNL A   1      46.149  25.904  28.408  1.00  0.00     0.049 A 
ATOM     23  H   UNL A   1      44.329  26.906  28.601  1.00  0.00     0.167 HD
ATOM     24  C   UNL A   1      40.371  28.755  29.080  1.00  0.00     0.037 A 
ATOM     25  C   UNL A   1      47.125  26.820  28.548  1.00  0.00     0.037 A 
ATOM     26  C   UNL A   1      41.329  29.749  29.476  1.00  0.00     0.049 A 
ATOM     27  C   UNL A   1      46.727  28.224  28.901  1.00  0.00     0.074 A 
ATOM     28  C   UNL A   1      41.099  31.022  29.960  1.00  0.00     0.029 A 
ATOM     29  N   UNL A   1      42.706  29.584  29.403  1.00  0.00    -0.354 N 
ATOM     30  N   UNL A   1      45.522  28.713  29.081  1.00  0.00    -0.248 NA
ATOM     31  C   UNL A   1      47.809  29.192  29.121  1.00  0.00     0.031 C 
ATOM     32  C   UNL A   1      42.338  31.652  30.118  1.00  0.00     0.029 A 
ATOM     33  C   UNL A   1      43.340  30.753  29.783  1.00  0.00     0.049 A 
ATOM     34  H   UNL A   1      43.162  28.758  29.123  1.00  0.00     0.167 HD
ATOM     35  C   UNL A   1      45.701  30.028  29.482  1.00  0.00     0.074 A 
ATOM     36  C   UNL A   1      47.132  30.260  29.518  1.00  0.00     0.031 C 
ATOM     37  C   UNL A   1      44.767  30.955  29.805  1.00  0.00     0.037 A 
BRANCH  24  38
ATOM     38  C   UNL A   1      38.910  29.079  29.129  1.00  0.00     0.057 A 
ATOM     39  C   UNL A   1      38.214  29.529  27.999  1.00  0.00     0.134 A 
ATOM     40  C   UNL A   1      38.197  28.963  30.327  1.00  0.00     0.134 A 
ATOM     41  F   UNL A   1      38.848  29.689  26.828  1.00  0.00    -0.206 F 
ATOM     42  C   UNL A   1      36.862  29.874  28.065  1.00  0.00     0.040 A 
ATOM     43  C   UNL A   1      36.841  29.283  30.401  1.00  0.00     0.040 A 
ATOM     44  F   UNL A   1      38.809  28.549  31.446  1.00  0.00    -0.206 F 
ATOM     45  C   UNL A   1      36.172  29.746  29.269  1.00  0.00     0.006 A 
ENDBRANCH  24  38
BRANCH  25  46
ATOM     46  C   UNL A   1      48.553  26.434  28.389  1.00  0.00     0.057 A 
ATOM     47  C   UNL A   1      49.342  26.063  29.483  1.00  0.00     0.134 A 
ATOM     48  C   UNL A   1      49.171  26.452  27.130  1.00  0.00     0.134 A 
ATOM     49  F   UNL A   1      48.816  26.038  30.716  1.00  0.00    -0.206 F 
ATOM     50  C   UNL A   1      50.696  25.749  29.339  1.00  0.00     0.040 A 
ATOM     51  C   UNL A   1      50.519  26.121  26.968  1.00  0.00     0.040 A 
ATOM     52  F   UNL A   1      48.473  26.795  26.037  1.00  0.00    -0.206 F 
ATOM     53  C   UNL A   1      51.288  25.778  28.077  1.00  0.00     0.006 A 
ENDBRANCH  25  46
BRANCH  37  54
ATOM     54  C   UNL A   1      45.265  32.301  30.233  1.00  0.00     0.057 A 
ATOM     55  C   UNL A   1      45.443  33.343  29.315  1.00  0.00     0.134 A 
ATOM     56  C   UNL A   1      45.502  32.575  31.585  1.00  0.00     0.134 A 
ATOM     57  F   UNL A   1      45.246  33.136  28.004  1.00  0.00    -0.206 F 
ATOM     58  C   UNL A   1      45.854  34.610  29.727  1.00  0.00     0.040 A 
ATOM     59  C   UNL A   1      45.884  33.846  32.012  1.00  0.00     0.040 A 
ATOM     60  F   UNL A   1      45.339  31.620  32.513  1.00  0.00    -0.206 F 
ATOM     61  C   UNL A   1      46.065  34.866  31.081  1.00  0.00     0.006 A 
ENDBRANCH  37  54
ENDBRANCH  11  12
ENDBRANCH   4   6
ENDBRANCH   3   4
ENDBRANCH   2   3
ENDBRANCH   1   2
BRANCH   1  62
ATOM     62  O   UNL A   1      36.667  21.878  24.854  1.00  0.00    -0.462 OA
BRANCH  62  63
ATOM     63  C   UNL A   1      36.384  22.846  23.933  1.00  0.00     0.310 C 
ATOM     64  O   UNL A   1      36.490  22.721  22.724  1.00  0.00    -0.252 OA
BRANCH  63  65
ATOM     65  C   UNL A   1      35.784  24.052  24.639  1.00  0.00     0.119 C 
ATOM     66  C   UNL A   1      35.839  24.005  26.167  1.00  0.00     0.019 C 
ATOM     67  C   UNL A   1      34.367  24.309  24.153  1.00  0.00     0.135 C 
ATOM     68  C   UNL A   1      34.754  23.119  26.781  1.00  0.00     0.022 C 
ATOM     69  N   UNL A   1      33.439  23.350  24.733  1.00  0.00    -0.338 N 
ATOM     70  C   UNL A   1      33.376  23.413  26.191  1.00  0.00     0.120 C 
BRANCH  69  71
ATOM     71  C   UNL A   1      32.760  22.486  23.893  1.00  0.00     0.246 C 
ATOM     72  O   UNL A   1      31.843  22.844  23.155  1.00  0.00    -0.270 OA
BRANCH  71  73
ATOM     73  C   UNL A   1      33.134  21.055  23.874  1.00  0.00     0.072 C 
ATOM     74  C   UNL A   1      32.277  20.101  24.263  1.00  0.00     0.018 C 
BRANCH  74  75
ATOM     75  C   UNL A   1      32.653  18.688  24.337  1.00  0.00     0.029 A 
ATOM     76  C   UNL A   1      32.883  18.127  25.598  1.00  0.00     0.131 A 
ATOM     77  C   UNL A   1      32.767  17.859  23.210  1.00  0.00     0.051 A 
ATOM     78  F   UNL A   1      32.779  18.884  26.702  1.00  0.00    -0.206 F 
ATOM     79  C   UNL A   1      33.215  16.783  25.748  1.00  0.00     0.040 A 
ATOM     80  C   UNL A   1      33.097  16.506  23.356  1.00  0.00     0.021 A 
ATOM     81  Cl  UNL A   1      32.494  18.445  21.606  1.00  0.00    -0.084 Cl
ATOM     82  C   UNL A   1      33.320  15.968  24.624  1.00  0.00     0.005 A 
ENDBRANCH  74  75
ENDBRANCH  71  73
ENDBRANCH  69  71
ENDBRANCH  63  65
ENDBRANCH  62  63
ENDBRANCH   1  62
TORSDOF 14
ENDMDL
