MODEL 1
REMARK VINA RESULT:     -10.6      0.000      0.000
REMARK SMILES Cc1noc(C)c1[C@@H](C)NC(=O)N(CC(=O)OCCOC(=O)c1ccc(-c2c3nc(c(-c4c(F)cccc4F)c4ccc([nH]4)c(-c4c(F)cccc4F)c4nc(c(-c5c(F)cccc5F)c5ccc2[nH]5)C=C4)C=C3)cc1)C(C)C
REMARK SMILES IDX 18 1 17 2 15 3 16 4 14 5 13 6 11 7 10 8 12 10 8 11 9 12 7 13
REMARK SMILES IDX 1 14 2 15 3 16 4 17 5 18 6 19 77 20 78 21 79 22 19 23 20 24
REMARK SMILES IDX 21 25 22 26 23 27 24 28 76 29 25 30 75 31 26 32 27 33 28 34
REMARK SMILES IDX 69 35 29 36 74 37 68 38 70 39 30 40 73 41 67 42 66 43 31 45
REMARK SMILES IDX 57 46 40 47 56 48 41 49 44 50 55 51 71 52 42 53 43 54 54 56
REMARK SMILES IDX 72 57 45 58 32 59 33 60 38 61 34 62 35 63 37 64 39 65 36 66
REMARK SMILES IDX 58 67 59 68 64 69 60 70 61 71 63 72 65 73 62 74 46 75 47 76
REMARK SMILES IDX 52 77 48 78 49 79 51 80 53 81 50 82
REMARK H PARENT 10 9 70 44 44 55
REMARK Flexibility Score: inf
ROOT
ATOM      1  C   UNL A   1      34.988  21.231  24.678  1.00  0.00     0.274 C 
ENDROOT
BRANCH   1   2
ATOM      2  O   UNL A   1      33.900  21.060  25.606  1.00  0.00    -0.461 OA
BRANCH   2   3
ATOM      3  C   UNL A   1      33.857  21.945  26.635  1.00  0.00     0.325 C 
ATOM      4  O   UNL A   1      33.906  21.642  27.824  1.00  0.00    -0.250 OA
BRANCH   3   5
ATOM      5  C   UNL A   1      33.904  23.400  26.174  1.00  0.00     0.244 C 
BRANCH   5   6
ATOM      6  N   UNL A   1      32.640  23.964  25.738  1.00  0.00    -0.311 N 
BRANCH   6   7
ATOM      7  C   UNL A   1      31.675  24.442  26.577  1.00  0.00     0.318 C 
ATOM      8  N   UNL A   1      31.418  25.751  26.757  1.00  0.00    -0.331 N 
ATOM      9  H   UNL A   1      30.607  25.864  27.303  1.00  0.00     0.165 HD
ATOM     10  O   UNL A   1      30.948  23.691  27.232  1.00  0.00    -0.249 OA
BRANCH   8  11
ATOM     11  C   UNL A   1      31.967  27.055  26.393  1.00  0.00     0.116 C 
ATOM     12  C   UNL A   1      31.483  28.124  27.371  1.00  0.00     0.036 C 
BRANCH  11  13
ATOM     13  C   UNL A   1      31.622  27.337  24.962  1.00  0.00     0.040 A 
ATOM     14  C   UNL A   1      33.755  28.567  24.030  1.00  0.00     0.071 C 
ATOM     15  C   UNL A   1      32.393  27.989  23.951  1.00  0.00     0.086 A 
ATOM     16  N   UNL A   1      31.738  28.038  22.786  1.00  0.00    -0.085 NA
ATOM     17  O   UNL A   1      30.525  27.431  23.008  1.00  0.00    -0.361 OA
ATOM     18  C   UNL A   1      30.454  27.006  24.294  1.00  0.00     0.139 A 
ATOM     19  C   UNL A   1      29.194  26.325  24.658  1.00  0.00     0.091 C 
ENDBRANCH  11  13
ENDBRANCH   8  11
ENDBRANCH   6   7
BRANCH   6  20
ATOM     20  C   UNL A   1      32.525  24.161  24.272  1.00  0.00     0.081 C 
ATOM     21  C   UNL A   1      33.842  24.506  23.579  1.00  0.00     0.031 C 
ATOM     22  C   UNL A   1      31.813  22.984  23.601  1.00  0.00     0.031 C 
ENDBRANCH   6  20
ENDBRANCH   5   6
ENDBRANCH   3   5
ENDBRANCH   2   3
ENDBRANCH   1   2
BRANCH   1  23
ATOM     23  C   UNL A   1      36.253  20.578  25.232  1.00  0.00     0.275 C 
BRANCH  23  24
ATOM     24  O   UNL A   1      37.388  21.433  24.990  1.00  0.00    -0.458 OA
BRANCH  24  25
ATOM     25  C   UNL A   1      38.535  21.087  25.615  1.00  0.00     0.338 C 
ATOM     26  O   UNL A   1      39.027  19.967  25.694  1.00  0.00    -0.246 OA
BRANCH  25  27
ATOM     27  C   UNL A   1      39.180  22.274  26.203  1.00  0.00     0.060 A 
ATOM     28  C   UNL A   1      38.690  23.554  25.944  1.00  0.00     0.016 A 
ATOM     29  C   UNL A   1      40.361  22.120  26.930  1.00  0.00     0.016 A 
ATOM     30  C   UNL A   1      39.422  24.678  26.318  1.00  0.00     0.010 A 
ATOM     31  C   UNL A   1      41.033  23.249  27.407  1.00  0.00     0.010 A 
ATOM     32  C   UNL A   1      40.588  24.542  27.081  1.00  0.00    -0.014 A 
BRANCH  32  33
ATOM     33  C   UNL A   1      41.338  25.743  27.539  1.00  0.00     0.031 A 
ATOM     34  C   UNL A   1      40.674  26.763  28.424  1.00  0.00     0.074 A 
ATOM     35  C   UNL A   1      42.615  25.932  27.149  1.00  0.00     0.049 A 
ATOM     36  N   UNL A   1      41.080  27.964  28.750  1.00  0.00    -0.248 NA
ATOM     37  C   UNL A   1      39.375  26.390  29.005  1.00  0.00     0.031 C 
ATOM     38  C   UNL A   1      43.397  25.013  26.321  1.00  0.00     0.029 A 
ATOM     39  N   UNL A   1      43.482  26.967  27.401  1.00  0.00    -0.354 N 
ATOM     40  C   UNL A   1      40.062  28.512  29.520  1.00  0.00     0.074 A 
ATOM     41  C   UNL A   1      39.021  27.511  29.620  1.00  0.00     0.031 C 
ATOM     42  C   UNL A   1      44.635  25.505  26.162  1.00  0.00     0.029 A 
ATOM     43  C   UNL A   1      44.708  26.814  26.800  1.00  0.00     0.049 A 
ATOM     44  H   UNL A   1      43.248  27.744  27.958  1.00  0.00     0.167 HD
ATOM     45  C   UNL A   1      40.000  29.742  30.085  1.00  0.00     0.037 A 
ATOM     46  C   UNL A   1      45.760  27.649  26.726  1.00  0.00     0.037 A 
ATOM     47  C   UNL A   1      41.060  30.714  30.036  1.00  0.00     0.049 A 
ATOM     48  C   UNL A   1      45.665  29.007  27.354  1.00  0.00     0.074 A 
ATOM     49  C   UNL A   1      41.098  31.981  30.594  1.00  0.00     0.029 A 
ATOM     50  N   UNL A   1      42.279  30.519  29.405  1.00  0.00    -0.354 N 
ATOM     51  N   UNL A   1      44.670  29.539  28.020  1.00  0.00    -0.248 NA
ATOM     52  C   UNL A   1      46.828  29.891  27.196  1.00  0.00     0.031 C 
ATOM     53  C   UNL A   1      42.333  32.560  30.282  1.00  0.00     0.029 A 
ATOM     54  C   UNL A   1      43.074  31.644  29.555  1.00  0.00     0.049 A 
ATOM     55  H   UNL A   1      42.541  29.703  28.921  1.00  0.00     0.167 HD
ATOM     56  C   UNL A   1      45.085  30.818  28.362  1.00  0.00     0.074 A 
ATOM     57  C   UNL A   1      46.431  30.975  27.849  1.00  0.00     0.031 C 
ATOM     58  C   UNL A   1      44.408  31.780  29.033  1.00  0.00     0.037 A 
BRANCH  45  59
ATOM     59  C   UNL A   1      38.728  30.118  30.784  1.00  0.00     0.057 A 
ATOM     60  C   UNL A   1      37.676  30.760  30.120  1.00  0.00     0.134 A 
ATOM     61  C   UNL A   1      38.543  29.799  32.135  1.00  0.00     0.134 A 
ATOM     62  F   UNL A   1      37.798  31.108  28.830  1.00  0.00    -0.206 F 
ATOM     63  C   UNL A   1      36.489  31.085  30.780  1.00  0.00     0.040 A 
ATOM     64  C   UNL A   1      37.354  30.101  32.801  1.00  0.00     0.040 A 
ATOM     65  F   UNL A   1      39.512  29.181  32.827  1.00  0.00    -0.206 F 
ATOM     66  C   UNL A   1      36.324  30.749  32.124  1.00  0.00     0.006 A 
ENDBRANCH  45  59
BRANCH  46  67
ATOM     67  C   UNL A   1      46.977  27.234  25.987  1.00  0.00     0.057 A 
ATOM     68  C   UNL A   1      48.040  26.608  26.644  1.00  0.00     0.134 A 
ATOM     69  C   UNL A   1      47.095  27.434  24.606  1.00  0.00     0.134 A 
ATOM     70  F   UNL A   1      47.991  26.410  27.971  1.00  0.00    -0.206 F 
ATOM     71  C   UNL A   1      49.181  26.196  25.956  1.00  0.00     0.040 A 
ATOM     72  C   UNL A   1      48.220  27.006  23.901  1.00  0.00     0.040 A 
ATOM     73  F   UNL A   1      46.105  28.025  23.920  1.00  0.00    -0.206 F 
ATOM     74  C   UNL A   1      49.269  26.387  24.577  1.00  0.00     0.006 A 
ENDBRANCH  46  67
BRANCH  58  75
ATOM     75  C   UNL A   1      45.123  33.077  29.257  1.00  0.00     0.057 A 
ATOM     76  C   UNL A   1      45.007  34.141  28.355  1.00  0.00     0.134 A 
ATOM     77  C   UNL A   1      45.921  33.267  30.391  1.00  0.00     0.134 A 
ATOM     78  F   UNL A   1      44.269  34.012  27.242  1.00  0.00    -0.206 F 
ATOM     79  C   UNL A   1      45.675  35.348  28.566  1.00  0.00     0.040 A 
ATOM     80  C   UNL A   1      46.580  34.474  30.621  1.00  0.00     0.040 A 
ATOM     81  F   UNL A   1      46.068  32.284  31.293  1.00  0.00    -0.206 F 
ATOM     82  C   UNL A   1      46.461  35.517  29.705  1.00  0.00     0.006 A 
ENDBRANCH  58  75
ENDBRANCH  32  33
ENDBRANCH  25  27
ENDBRANCH  24  25
ENDBRANCH  23  24
ENDBRANCH   1  23
TORSDOF 16
ENDMDL
MODEL 2
REMARK VINA RESULT:     -10.5      3.631      8.580
REMARK SMILES Cc1noc(C)c1[C@@H](C)NC(=O)N(CC(=O)OCCOC(=O)c1ccc(-c2c3nc(c(-c4c(F)cccc4F)c4ccc([nH]4)c(-c4c(F)cccc4F)c4nc(c(-c5c(F)cccc5F)c5ccc2[nH]5)C=C4)C=C3)cc1)C(C)C
REMARK SMILES IDX 18 1 17 2 15 3 16 4 14 5 13 6 11 7 10 8 12 10 8 11 9 12 7 13
REMARK SMILES IDX 1 14 2 15 3 16 4 17 5 18 6 19 77 20 78 21 79 22 19 23 20 24
REMARK SMILES IDX 21 25 22 26 23 27 24 28 76 29 25 30 75 31 26 32 27 33 28 34
REMARK SMILES IDX 69 35 29 36 74 37 68 38 70 39 30 40 73 41 67 42 66 43 31 45
REMARK SMILES IDX 57 46 40 47 56 48 41 49 44 50 55 51 71 52 42 53 43 54 54 56
REMARK SMILES IDX 72 57 45 58 32 59 33 60 38 61 34 62 35 63 37 64 39 65 36 66
REMARK SMILES IDX 58 67 59 68 64 69 60 70 61 71 63 72 65 73 62 74 46 75 47 76
REMARK SMILES IDX 52 77 48 78 49 79 51 80 53 81 50 82
REMARK H PARENT 10 9 70 44 44 55
REMARK Flexibility Score: inf
ROOT
ATOM      1  C   UNL A   1      32.961  29.064  24.735  1.00  0.00     0.274 C 
ENDROOT
BRANCH   1   2
ATOM      2  O   UNL A   1      32.435  27.744  24.503  1.00  0.00    -0.461 OA
BRANCH   2   3
ATOM      3  C   UNL A   1      32.435  26.911  25.576  1.00  0.00     0.325 C 
ATOM      4  O   UNL A   1      33.430  26.609  26.230  1.00  0.00    -0.250 OA
BRANCH   3   5
ATOM      5  C   UNL A   1      31.031  26.496  26.009  1.00  0.00     0.244 C 
BRANCH   5   6
ATOM      6  N   UNL A   1      30.577  25.206  25.523  1.00  0.00    -0.311 N 
BRANCH   6   7
ATOM      7  C   UNL A   1      30.598  24.053  26.253  1.00  0.00     0.318 C 
ATOM      8  N   UNL A   1      31.388  23.001  25.971  1.00  0.00    -0.331 N 
ATOM      9  H   UNL A   1      31.334  22.333  26.693  1.00  0.00     0.165 HD
ATOM     10  O   UNL A   1      29.889  23.898  27.251  1.00  0.00    -0.249 OA
BRANCH   8  11
ATOM     11  C   UNL A   1      32.302  22.541  24.927  1.00  0.00     0.116 C 
ATOM     12  C   UNL A   1      32.159  21.034  24.727  1.00  0.00     0.036 C 
BRANCH  11  13
ATOM     13  C   UNL A   1      33.691  22.980  25.280  1.00  0.00     0.040 A 
ATOM     14  C   UNL A   1      34.404  24.504  23.256  1.00  0.00     0.071 C 
ATOM     15  C   UNL A   1      34.591  23.822  24.557  1.00  0.00     0.086 A 
ATOM     16  N   UNL A   1      35.745  23.989  25.213  1.00  0.00    -0.085 NA
ATOM     17  O   UNL A   1      35.632  23.256  26.370  1.00  0.00    -0.361 OA
ATOM     18  C   UNL A   1      34.413  22.662  26.420  1.00  0.00     0.139 A 
ATOM     19  C   UNL A   1      34.164  21.848  27.627  1.00  0.00     0.091 C 
ENDBRANCH  11  13
ENDBRANCH   8  11
ENDBRANCH   6   7
BRANCH   6  20
ATOM     20  C   UNL A   1      29.900  25.247  24.204  1.00  0.00     0.081 C 
ATOM     21  C   UNL A   1      29.044  26.491  23.976  1.00  0.00     0.031 C 
ATOM     22  C   UNL A   1      30.888  25.011  23.058  1.00  0.00     0.031 C 
ENDBRANCH   6  20
ENDBRANCH   5   6
ENDBRANCH   3   5
ENDBRANCH   2   3
ENDBRANCH   1   2
BRANCH   1  23
ATOM     23  C   UNL A   1      31.869  29.967  25.307  1.00  0.00     0.275 C 
BRANCH  23  24
ATOM     24  O   UNL A   1      32.098  30.176  26.714  1.00  0.00    -0.458 OA
BRANCH  24  25
ATOM     25  C   UNL A   1      32.700  31.338  27.051  1.00  0.00     0.338 C 
ATOM     26  O   UNL A   1      32.244  32.470  26.936  1.00  0.00    -0.246 OA
BRANCH  25  27
ATOM     27  C   UNL A   1      34.032  31.081  27.628  1.00  0.00     0.060 A 
ATOM     28  C   UNL A   1      34.439  29.781  27.930  1.00  0.00     0.016 A 
ATOM     29  C   UNL A   1      34.843  32.159  27.981  1.00  0.00     0.016 A 
ATOM     30  C   UNL A   1      35.599  29.560  28.669  1.00  0.00     0.010 A 
ATOM     31  C   UNL A   1      36.065  31.927  28.620  1.00  0.00     0.010 A 
ATOM     32  C   UNL A   1      36.443  30.627  28.998  1.00  0.00    -0.014 A 
BRANCH  32  33
ATOM     33  C   UNL A   1      37.716  30.388  29.731  1.00  0.00     0.031 A 
ATOM     34  C   UNL A   1      38.815  29.575  29.101  1.00  0.00     0.074 A 
ATOM     35  C   UNL A   1      37.886  30.885  30.972  1.00  0.00     0.049 A 
ATOM     36  N   UNL A   1      39.896  29.081  29.650  1.00  0.00    -0.248 NA
ATOM     37  C   UNL A   1      38.671  29.264  27.670  1.00  0.00     0.031 C 
ATOM     38  C   UNL A   1      36.922  31.718  31.695  1.00  0.00     0.029 A 
ATOM     39  N   UNL A   1      38.936  30.762  31.848  1.00  0.00    -0.354 N 
ATOM     40  C   UNL A   1      40.527  28.350  28.652  1.00  0.00     0.074 A 
ATOM     41  C   UNL A   1      39.714  28.470  27.460  1.00  0.00     0.031 C 
ATOM     42  C   UNL A   1      37.437  32.058  32.886  1.00  0.00     0.029 A 
ATOM     43  C   UNL A   1      38.726  31.397  33.048  1.00  0.00     0.049 A 
ATOM     44  H   UNL A   1      39.759  30.265  31.638  1.00  0.00     0.167 HD
ATOM     45  C   UNL A   1      41.677  27.638  28.726  1.00  0.00     0.037 A 
ATOM     46  C   UNL A   1      39.462  31.411  34.175  1.00  0.00     0.037 A 
ATOM     47  C   UNL A   1      42.516  27.568  29.893  1.00  0.00     0.049 A 
ATOM     48  C   UNL A   1      40.727  30.610  34.236  1.00  0.00     0.074 A 
ATOM     49  C   UNL A   1      43.711  26.886  30.060  1.00  0.00     0.029 A 
ATOM     50  N   UNL A   1      42.257  28.218  31.090  1.00  0.00    -0.354 N 
ATOM     51  N   UNL A   1      41.277  29.867  33.307  1.00  0.00    -0.248 NA
ATOM     52  C   UNL A   1      41.459  30.627  35.509  1.00  0.00     0.031 C 
ATOM     53  C   UNL A   1      44.163  27.109  31.366  1.00  0.00     0.029 A 
ATOM     54  C   UNL A   1      43.266  27.951  32.001  1.00  0.00     0.049 A 
ATOM     55  H   UNL A   1      41.472  28.785  31.266  1.00  0.00     0.167 HD
ATOM     56  C   UNL A   1      42.420  29.329  33.881  1.00  0.00     0.074 A 
ATOM     57  C   UNL A   1      42.496  29.847  35.232  1.00  0.00     0.031 C 
ATOM     58  C   UNL A   1      43.320  28.473  33.341  1.00  0.00     0.037 A 
BRANCH  45  59
ATOM     59  C   UNL A   1      42.083  26.850  27.517  1.00  0.00     0.057 A 
ATOM     60  C   UNL A   1      42.847  27.408  26.487  1.00  0.00     0.134 A 
ATOM     61  C   UNL A   1      41.729  25.499  27.403  1.00  0.00     0.134 A 
ATOM     62  F   UNL A   1      43.203  28.701  26.528  1.00  0.00    -0.206 F 
ATOM     63  C   UNL A   1      43.235  26.655  25.376  1.00  0.00     0.040 A 
ATOM     64  C   UNL A   1      42.127  24.729  26.308  1.00  0.00     0.040 A 
ATOM     65  F   UNL A   1      41.000  24.903  28.358  1.00  0.00    -0.206 F 
ATOM     66  C   UNL A   1      42.879  25.309  25.288  1.00  0.00     0.006 A 
ENDBRANCH  45  59
BRANCH  46  67
ATOM     67  C   UNL A   1      38.988  32.179  35.352  1.00  0.00     0.057 A 
ATOM     68  C   UNL A   1      38.215  31.570  36.345  1.00  0.00     0.134 A 
ATOM     69  C   UNL A   1      39.314  33.531  35.520  1.00  0.00     0.134 A 
ATOM     70  F   UNL A   1      37.854  30.284  36.226  1.00  0.00    -0.206 F 
ATOM     71  C   UNL A   1      37.780  32.278  37.466  1.00  0.00     0.040 A 
ATOM     72  C   UNL A   1      38.906  34.244  36.647  1.00  0.00     0.040 A 
ATOM     73  F   UNL A   1      40.057  34.167  34.602  1.00  0.00    -0.206 F 
ATOM     74  C   UNL A   1      38.133  33.618  37.622  1.00  0.00     0.006 A 
ENDBRANCH  46  67
BRANCH  58  75
ATOM     75  C   UNL A   1      44.466  28.061  34.212  1.00  0.00     0.057 A 
ATOM     76  C   UNL A   1      44.404  26.910  35.007  1.00  0.00     0.134 A 
ATOM     77  C   UNL A   1      45.646  28.812  34.244  1.00  0.00     0.134 A 
ATOM     78  F   UNL A   1      43.292  26.159  35.029  1.00  0.00    -0.206 F 
ATOM     79  C   UNL A   1      45.473  26.529  35.818  1.00  0.00     0.040 A 
ATOM     80  C   UNL A   1      46.728  28.432  35.039  1.00  0.00     0.040 A 
ATOM     81  F   UNL A   1      45.766  29.924  33.502  1.00  0.00    -0.206 F 
ATOM     82  C   UNL A   1      46.641  27.290  35.831  1.00  0.00     0.006 A 
ENDBRANCH  58  75
ENDBRANCH  32  33
ENDBRANCH  25  27
ENDBRANCH  24  25
ENDBRANCH  23  24
ENDBRANCH   1  23
TORSDOF 16
ENDMDL
MODEL 3
REMARK VINA RESULT:     -10.5      3.798      8.799
REMARK SMILES Cc1noc(C)c1[C@@H](C)NC(=O)N(CC(=O)OCCOC(=O)c1ccc(-c2c3nc(c(-c4c(F)cccc4F)c4ccc([nH]4)c(-c4c(F)cccc4F)c4nc(c(-c5c(F)cccc5F)c5ccc2[nH]5)C=C4)C=C3)cc1)C(C)C
REMARK SMILES IDX 18 1 17 2 15 3 16 4 14 5 13 6 11 7 10 8 12 10 8 11 9 12 7 13
REMARK SMILES IDX 1 14 2 15 3 16 4 17 5 18 6 19 77 20 78 21 79 22 19 23 20 24
REMARK SMILES IDX 21 25 22 26 23 27 24 28 76 29 25 30 75 31 26 32 27 33 28 34
REMARK SMILES IDX 69 35 29 36 74 37 68 38 70 39 30 40 73 41 67 42 66 43 31 45
REMARK SMILES IDX 57 46 40 47 56 48 41 49 44 50 55 51 71 52 42 53 43 54 54 56
REMARK SMILES IDX 72 57 45 58 32 59 33 60 38 61 34 62 35 63 37 64 39 65 36 66
REMARK SMILES IDX 58 67 59 68 64 69 60 70 61 71 63 72 65 73 62 74 46 75 47 76
REMARK SMILES IDX 52 77 48 78 49 79 51 80 53 81 50 82
REMARK H PARENT 10 9 70 44 44 55
REMARK Flexibility Score: inf
ROOT
ATOM      1  C   UNL A   1      31.327  29.050  25.197  1.00  0.00     0.274 C 
ENDROOT
BRANCH   1   2
ATOM      2  O   UNL A   1      32.452  28.231  25.568  1.00  0.00    -0.461 OA
BRANCH   2   3
ATOM      3  C   UNL A   1      32.210  27.289  26.516  1.00  0.00     0.325 C 
ATOM      4  O   UNL A   1      31.525  27.464  27.520  1.00  0.00    -0.250 OA
BRANCH   3   5
ATOM      5  C   UNL A   1      32.746  25.910  26.139  1.00  0.00     0.244 C 
BRANCH   5   6
ATOM      6  N   UNL A   1      32.339  25.410  24.840  1.00  0.00    -0.311 N 
BRANCH   6   7
ATOM      7  C   UNL A   1      33.137  25.391  23.732  1.00  0.00     0.318 C 
ATOM      8  N   UNL A   1      34.124  24.499  23.533  1.00  0.00    -0.331 N 
ATOM      9  H   UNL A   1      34.484  24.589  22.621  1.00  0.00     0.165 HD
ATOM     10  O   UNL A   1      32.996  26.200  22.811  1.00  0.00    -0.249 OA
BRANCH   8  11
ATOM     11  C   UNL A   1      34.828  23.437  24.250  1.00  0.00     0.116 C 
ATOM     12  C   UNL A   1      36.009  22.933  23.422  1.00  0.00     0.036 C 
BRANCH  11  13
ATOM     13  C   UNL A   1      33.840  22.370  24.613  1.00  0.00     0.040 A 
ATOM     14  C   UNL A   1      32.524  21.939  22.375  1.00  0.00     0.071 C 
ATOM     15  C   UNL A   1      32.851  21.730  23.804  1.00  0.00     0.086 A 
ATOM     16  N   UNL A   1      32.166  20.813  24.496  1.00  0.00    -0.085 NA
ATOM     17  O   UNL A   1      32.681  20.836  25.769  1.00  0.00    -0.361 OA
ATOM     18  C   UNL A   1      33.679  21.751  25.843  1.00  0.00     0.139 A 
ATOM     19  C   UNL A   1      34.324  21.866  27.167  1.00  0.00     0.091 C 
ENDBRANCH  11  13
ENDBRANCH   8  11
ENDBRANCH   6   7
BRANCH   6  20
ATOM     20  C   UNL A   1      31.019  24.733  24.825  1.00  0.00     0.081 C 
ATOM     21  C   UNL A   1      30.683  23.985  26.113  1.00  0.00     0.031 C 
ATOM     22  C   UNL A   1      29.900  25.692  24.407  1.00  0.00     0.031 C 
ENDBRANCH   6  20
ENDBRANCH   5   6
ENDBRANCH   3   5
ENDBRANCH   2   3
ENDBRANCH   1   2
BRANCH   1  23
ATOM     23  C   UNL A   1      31.488  30.453  25.780  1.00  0.00     0.275 C 
BRANCH  23  24
ATOM     24  O   UNL A   1      32.884  30.732  25.999  1.00  0.00    -0.458 OA
BRANCH  24  25
ATOM     25  C   UNL A   1      33.167  31.594  27.000  1.00  0.00     0.338 C 
ATOM     26  O   UNL A   1      32.478  32.529  27.390  1.00  0.00    -0.246 OA
BRANCH  25  27
ATOM     27  C   UNL A   1      34.458  31.253  27.625  1.00  0.00     0.060 A 
ATOM     28  C   UNL A   1      34.767  29.932  27.949  1.00  0.00     0.016 A 
ATOM     29  C   UNL A   1      35.327  32.278  28.001  1.00  0.00     0.016 A 
ATOM     30  C   UNL A   1      35.882  29.640  28.729  1.00  0.00     0.010 A 
ATOM     31  C   UNL A   1      36.507  31.970  28.683  1.00  0.00     0.010 A 
ATOM     32  C   UNL A   1      36.784  30.651  29.081  1.00  0.00    -0.014 A 
BRANCH  32  33
ATOM     33  C   UNL A   1      38.012  30.333  29.860  1.00  0.00     0.031 A 
ATOM     34  C   UNL A   1      39.097  29.481  29.257  1.00  0.00     0.074 A 
ATOM     35  C   UNL A   1      38.153  30.795  31.119  1.00  0.00     0.049 A 
ATOM     36  N   UNL A   1      40.128  28.923  29.837  1.00  0.00    -0.248 NA
ATOM     37  C   UNL A   1      38.999  29.209  27.814  1.00  0.00     0.031 C 
ATOM     38  C   UNL A   1      37.201  31.657  31.821  1.00  0.00     0.029 A 
ATOM     39  N   UNL A   1      39.158  30.600  32.035  1.00  0.00    -0.354 N 
ATOM     40  C   UNL A   1      40.765  28.184  28.849  1.00  0.00     0.074 A 
ATOM     41  C   UNL A   1      40.010  28.370  27.628  1.00  0.00     0.031 C 
ATOM     42  C   UNL A   1      37.681  31.946  33.040  1.00  0.00     0.029 A 
ATOM     43  C   UNL A   1      38.929  31.219  33.240  1.00  0.00     0.049 A 
ATOM     44  H   UNL A   1      39.964  30.068  31.846  1.00  0.00     0.167 HD
ATOM     45  C   UNL A   1      41.875  27.415  28.953  1.00  0.00     0.037 A 
ATOM     46  C   UNL A   1      39.616  31.171  34.395  1.00  0.00     0.037 A 
ATOM     47  C   UNL A   1      42.660  27.278  30.152  1.00  0.00     0.049 A 
ATOM     48  C   UNL A   1      40.838  30.309  34.489  1.00  0.00     0.074 A 
ATOM     49  C   UNL A   1      43.812  26.535  30.351  1.00  0.00     0.029 A 
ATOM     50  N   UNL A   1      42.382  27.914  31.352  1.00  0.00    -0.354 N 
ATOM     51  N   UNL A   1      41.390  29.560  33.566  1.00  0.00    -0.248 NA
ATOM     52  C   UNL A   1      41.515  30.261  35.791  1.00  0.00     0.031 C 
ATOM     53  C   UNL A   1      44.219  26.707  31.679  1.00  0.00     0.029 A 
ATOM     54  C   UNL A   1      43.338  27.577  32.298  1.00  0.00     0.049 A 
ATOM     55  H   UNL A   1      41.619  28.515  31.510  1.00  0.00     0.167 HD
ATOM     56  C   UNL A   1      42.480  28.953  34.174  1.00  0.00     0.074 A 
ATOM     57  C   UNL A   1      42.524  29.437  35.538  1.00  0.00     0.031 C 
ATOM     58  C   UNL A   1      43.360  28.067  33.651  1.00  0.00     0.037 A 
BRANCH  45  59
ATOM     59  C   UNL A   1      42.293  26.635  27.743  1.00  0.00     0.057 A 
ATOM     60  C   UNL A   1      41.847  25.329  27.508  1.00  0.00     0.134 A 
ATOM     61  C   UNL A   1      43.127  27.218  26.781  1.00  0.00     0.134 A 
ATOM     62  F   UNL A   1      41.060  24.709  28.401  1.00  0.00    -0.206 F 
ATOM     63  C   UNL A   1      42.228  24.624  26.365  1.00  0.00     0.040 A 
ATOM     64  C   UNL A   1      43.500  26.531  25.623  1.00  0.00     0.040 A 
ATOM     65  F   UNL A   1      43.586  28.467  26.944  1.00  0.00    -0.206 F 
ATOM     66  C   UNL A   1      43.053  25.228  25.416  1.00  0.00     0.006 A 
ENDBRANCH  45  59
BRANCH  46  67
ATOM     67  C   UNL A   1      39.130  31.936  35.570  1.00  0.00     0.057 A 
ATOM     68  C   UNL A   1      39.498  33.270  35.763  1.00  0.00     0.134 A 
ATOM     69  C   UNL A   1      38.272  31.356  36.513  1.00  0.00     0.134 A 
ATOM     70  F   UNL A   1      40.336  33.870  34.904  1.00  0.00    -0.206 F 
ATOM     71  C   UNL A   1      39.032  34.004  36.854  1.00  0.00     0.040 A 
ATOM     72  C   UNL A   1      37.779  32.084  37.596  1.00  0.00     0.040 A 
ATOM     73  F   UNL A   1      37.880  30.080  36.378  1.00  0.00    -0.206 F 
ATOM     74  C   UNL A   1      38.162  33.412  37.770  1.00  0.00     0.006 A 
ENDBRANCH  46  67
BRANCH  58  75
ATOM     75  C   UNL A   1      44.447  27.579  34.558  1.00  0.00     0.057 A 
ATOM     76  C   UNL A   1      45.660  28.267  34.683  1.00  0.00     0.134 A 
ATOM     77  C   UNL A   1      44.272  26.421  35.324  1.00  0.00     0.134 A 
ATOM     78  F   UNL A   1      45.890  29.374  33.962  1.00  0.00    -0.206 F 
ATOM     79  C   UNL A   1      46.671  27.809  35.528  1.00  0.00     0.040 A 
ATOM     80  C   UNL A   1      45.269  25.962  36.185  1.00  0.00     0.040 A 
ATOM     81  F   UNL A   1      43.130  25.720  35.249  1.00  0.00    -0.206 F 
ATOM     82  C   UNL A   1      46.474  26.655  36.286  1.00  0.00     0.006 A 
ENDBRANCH  58  75
ENDBRANCH  32  33
ENDBRANCH  25  27
ENDBRANCH  24  25
ENDBRANCH  23  24
ENDBRANCH   1  23
TORSDOF 16
ENDMDL
