MODEL 1
REMARK VINA RESULT:     -11.5      0.000      0.000
REMARK SMILES O=C(C[C@H]1CC[C@@H](C(=O)OCCOC(=O)c2ccc(-c3c4nc(c(-c5c(F)cccc5F)c5ccc([nH]5)c(-c5c(F)cccc5F)c5nc(c(-c6c(F)cccc6F)c6ccc3[nH]6)C=C5)C=C4)cc2)C1)c1ccc(Cl)cc1
REMARK SMILES IDX 11 1 10 2 8 3 9 4 7 5 4 6 5 7 70 8 6 9 3 10 2 11 1 12 71 13
REMARK SMILES IDX 72 14 77 15 73 16 76 17 74 18 75 19 12 20 13 21 14 22 15 23
REMARK SMILES IDX 16 24 17 25 69 26 18 27 68 28 19 29 20 30 21 31 62 32 22 33
REMARK SMILES IDX 67 34 61 35 63 36 23 37 66 38 60 39 59 40 24 42 50 43 33 44
REMARK SMILES IDX 49 45 34 46 37 47 48 48 64 49 35 50 36 51 47 53 65 54 38 55
REMARK SMILES IDX 25 56 26 57 31 58 27 59 28 60 30 61 32 62 29 63 51 64 52 65
REMARK SMILES IDX 57 66 53 67 54 68 56 69 58 70 55 71 39 72 40 73 45 74 41 75
REMARK SMILES IDX 42 76 44 77 46 78 43 79
REMARK H PARENT 63 41 37 52
REMARK Flexibility Score: inf
ROOT
ATOM      1  C   UNL A   1      31.906  29.702  25.142  1.00  0.00     0.274 C 
ENDROOT
BRANCH   1   2
ATOM      2  O   UNL A   1      33.296  29.341  24.994  1.00  0.00    -0.462 OA
BRANCH   2   3
ATOM      3  C   UNL A   1      33.499  28.019  24.758  1.00  0.00     0.309 C 
ATOM      4  O   UNL A   1      33.524  27.527  23.649  1.00  0.00    -0.252 OA
BRANCH   3   5
ATOM      5  C   UNL A   1      33.640  27.195  26.022  1.00  0.00     0.099 C 
ATOM      6  C   UNL A   1      31.493  25.992  26.163  1.00  0.00    -0.003 C 
ATOM      7  C   UNL A   1      32.564  25.036  25.601  1.00  0.00     0.005 C 
ATOM      8  C   UNL A   1      32.316  27.131  26.780  1.00  0.00     0.019 C 
ATOM      9  C   UNL A   1      33.930  25.726  25.746  1.00  0.00     0.015 C 
BRANCH   6  10
ATOM     10  C   UNL A   1      30.255  26.205  25.241  1.00  0.00     0.084 C 
BRANCH  10  11
ATOM     11  C   UNL A   1      30.211  26.437  23.720  1.00  0.00     0.163 C 
ATOM     12  O   UNL A   1      30.642  25.571  22.953  1.00  0.00    -0.294 OA
BRANCH  11  13
ATOM     13  C   UNL A   1      29.546  27.633  23.110  1.00  0.00     0.018 A 
ATOM     14  C   UNL A   1      28.202  27.930  23.326  1.00  0.00     0.013 A 
ATOM     15  C   UNL A   1      30.327  28.533  22.363  1.00  0.00     0.013 A 
ATOM     16  C   UNL A   1      27.698  29.191  22.991  1.00  0.00     0.021 A 
ATOM     17  C   UNL A   1      29.805  29.770  21.968  1.00  0.00     0.021 A 
ATOM     18  C   UNL A   1      28.508  30.114  22.335  1.00  0.00     0.041 A 
ATOM     19  Cl  UNL A   1      27.914  31.696  22.011  1.00  0.00    -0.084 Cl
ENDBRANCH  11  13
ENDBRANCH  10  11
ENDBRANCH   6  10
ENDBRANCH   3   5
ENDBRANCH   2   3
ENDBRANCH   1   2
BRANCH   1  20
ATOM     20  C   UNL A   1      31.667  30.854  26.121  1.00  0.00     0.275 C 
BRANCH  20  21
ATOM     21  O   UNL A   1      32.521  30.770  27.278  1.00  0.00    -0.458 OA
BRANCH  21  22
ATOM     22  C   UNL A   1      33.290  31.858  27.501  1.00  0.00     0.338 C 
ATOM     23  O   UNL A   1      32.914  33.017  27.599  1.00  0.00    -0.246 OA
BRANCH  22  24
ATOM     24  C   UNL A   1      34.701  31.495  27.710  1.00  0.00     0.060 A 
ATOM     25  C   UNL A   1      34.995  30.165  27.975  1.00  0.00     0.016 A 
ATOM     26  C   UNL A   1      35.666  32.471  27.941  1.00  0.00     0.016 A 
ATOM     27  C   UNL A   1      36.174  29.810  28.613  1.00  0.00     0.010 A 
ATOM     28  C   UNL A   1      36.907  32.100  28.484  1.00  0.00     0.010 A 
ATOM     29  C   UNL A   1      37.145  30.772  28.885  1.00  0.00    -0.014 A 
BRANCH  29  30
ATOM     30  C   UNL A   1      38.327  30.387  29.701  1.00  0.00     0.031 A 
ATOM     31  C   UNL A   1      39.385  29.508  29.090  1.00  0.00     0.074 A 
ATOM     32  C   UNL A   1      38.512  30.892  30.937  1.00  0.00     0.049 A 
ATOM     33  N   UNL A   1      40.378  28.882  29.667  1.00  0.00    -0.248 NA
ATOM     34  C   UNL A   1      39.318  29.304  27.632  1.00  0.00     0.031 C 
ATOM     35  C   UNL A   1      37.635  31.860  31.602  1.00  0.00     0.029 A 
ATOM     36  N   UNL A   1      39.512  30.673  31.853  1.00  0.00    -0.354 N 
ATOM     37  C   UNL A   1      40.997  28.148  28.663  1.00  0.00     0.074 A 
ATOM     38  C   UNL A   1      40.292  28.427  27.432  1.00  0.00     0.031 C 
ATOM     39  C   UNL A   1      38.147  32.168  32.803  1.00  0.00     0.029 A 
ATOM     40  C   UNL A   1      39.319  31.337  33.042  1.00  0.00     0.049 A 
ATOM     41  H   UNL A   1      40.290  30.097  31.675  1.00  0.00     0.167 HD
ATOM     42  C   UNL A   1      42.049  27.304  28.772  1.00  0.00     0.037 A 
ATOM     43  C   UNL A   1      39.968  31.231  34.217  1.00  0.00     0.037 A 
ATOM     44  C   UNL A   1      42.787  27.099  29.990  1.00  0.00     0.049 A 
ATOM     45  C   UNL A   1      41.097  30.243  34.328  1.00  0.00     0.074 A 
ATOM     46  C   UNL A   1      43.868  26.266  30.215  1.00  0.00     0.029 A 
ATOM     47  N   UNL A   1      42.529  27.754  31.184  1.00  0.00    -0.354 N 
ATOM     48  N   UNL A   1      41.618  29.474  33.403  1.00  0.00    -0.248 NA
ATOM     49  C   UNL A   1      41.709  30.086  35.655  1.00  0.00     0.031 C 
ATOM     50  C   UNL A   1      44.238  26.386  31.558  1.00  0.00     0.029 A 
ATOM     51  C   UNL A   1      43.418  27.330  32.156  1.00  0.00     0.049 A 
ATOM     52  H   UNL A   1      41.818  28.422  31.321  1.00  0.00     0.167 HD
ATOM     53  C   UNL A   1      42.624  28.753  34.028  1.00  0.00     0.074 A 
ATOM     54  C   UNL A   1      42.657  29.194  35.408  1.00  0.00     0.031 C 
ATOM     55  C   UNL A   1      43.441  27.801  33.515  1.00  0.00     0.037 A 
BRANCH  42  56
ATOM     56  C   UNL A   1      42.425  26.489  27.570  1.00  0.00     0.057 A 
ATOM     57  C   UNL A   1      41.878  25.229  27.310  1.00  0.00     0.134 A 
ATOM     58  C   UNL A   1      43.321  27.013  26.628  1.00  0.00     0.134 A 
ATOM     59  F   UNL A   1      41.028  24.662  28.179  1.00  0.00    -0.206 F 
ATOM     60  C   UNL A   1      42.216  24.513  26.158  1.00  0.00     0.040 A 
ATOM     61  C   UNL A   1      43.649  26.319  25.464  1.00  0.00     0.040 A 
ATOM     62  F   UNL A   1      43.880  28.218  26.819  1.00  0.00    -0.206 F 
ATOM     63  C   UNL A   1      43.096  25.063  25.226  1.00  0.00     0.006 A 
ENDBRANCH  42  56
BRANCH  43  64
ATOM     64  C   UNL A   1      39.502  31.992  35.407  1.00  0.00     0.057 A 
ATOM     65  C   UNL A   1      38.526  31.480  36.268  1.00  0.00     0.134 A 
ATOM     66  C   UNL A   1      39.998  33.273  35.689  1.00  0.00     0.134 A 
ATOM     67  F   UNL A   1      37.988  30.273  36.039  1.00  0.00    -0.206 F 
ATOM     68  C   UNL A   1      38.045  32.220  37.351  1.00  0.00     0.040 A 
ATOM     69  C   UNL A   1      39.554  34.008  36.787  1.00  0.00     0.040 A 
ATOM     70  F   UNL A   1      40.932  33.828  34.901  1.00  0.00    -0.206 F 
ATOM     71  C   UNL A   1      38.565  33.486  37.617  1.00  0.00     0.006 A 
ENDBRANCH  43  64
BRANCH  55  72
ATOM     72  C   UNL A   1      44.463  27.214  34.439  1.00  0.00     0.057 A 
ATOM     73  C   UNL A   1      44.205  26.060  35.189  1.00  0.00     0.134 A 
ATOM     74  C   UNL A   1      45.734  27.791  34.550  1.00  0.00     0.134 A 
ATOM     75  F   UNL A   1      43.000  25.470  35.136  1.00  0.00    -0.206 F 
ATOM     76  C   UNL A   1      45.168  25.514  36.036  1.00  0.00     0.040 A 
ATOM     77  C   UNL A   1      46.715  27.239  35.373  1.00  0.00     0.040 A 
ATOM     78  F   UNL A   1      46.046  28.893  33.850  1.00  0.00    -0.206 F 
ATOM     79  C   UNL A   1      46.430  26.100  36.124  1.00  0.00     0.006 A 
ENDBRANCH  55  72
ENDBRANCH  29  30
ENDBRANCH  22  24
ENDBRANCH  21  22
ENDBRANCH  20  21
ENDBRANCH   1  20
TORSDOF 14
ENDMDL
MODEL 2
REMARK VINA RESULT:     -11.5      2.229      7.052
REMARK SMILES O=C(C[C@H]1CC[C@@H](C(=O)OCCOC(=O)c2ccc(-c3c4nc(c(-c5c(F)cccc5F)c5ccc([nH]5)c(-c5c(F)cccc5F)c5nc(c(-c6c(F)cccc6F)c6ccc3[nH]6)C=C5)C=C4)cc2)C1)c1ccc(Cl)cc1
REMARK SMILES IDX 11 1 10 2 8 3 9 4 7 5 4 6 5 7 70 8 6 9 3 10 2 11 1 12 71 13
REMARK SMILES IDX 72 14 77 15 73 16 76 17 74 18 75 19 12 20 13 21 14 22 15 23
REMARK SMILES IDX 16 24 17 25 69 26 18 27 68 28 19 29 20 30 21 31 62 32 22 33
REMARK SMILES IDX 67 34 61 35 63 36 23 37 66 38 60 39 59 40 24 42 50 43 33 44
REMARK SMILES IDX 49 45 34 46 37 47 48 48 64 49 35 50 36 51 47 53 65 54 38 55
REMARK SMILES IDX 25 56 26 57 31 58 27 59 28 60 30 61 32 62 29 63 51 64 52 65
REMARK SMILES IDX 57 66 53 67 54 68 56 69 58 70 55 71 39 72 40 73 45 74 41 75
REMARK SMILES IDX 42 76 44 77 46 78 43 79
REMARK H PARENT 63 41 37 52
REMARK Flexibility Score: inf
ROOT
ATOM      1  C   UNL A   1      31.391  31.804  26.588  1.00  0.00     0.274 C 
ENDROOT
BRANCH   1   2
ATOM      2  O   UNL A   1      32.278  30.802  26.045  1.00  0.00    -0.462 OA
BRANCH   2   3
ATOM      3  C   UNL A   1      31.645  29.673  25.633  1.00  0.00     0.309 C 
ATOM      4  O   UNL A   1      30.964  29.609  24.631  1.00  0.00    -0.252 OA
BRANCH   3   5
ATOM      5  C   UNL A   1      31.824  28.501  26.577  1.00  0.00     0.099 C 
ATOM      6  C   UNL A   1      33.035  26.845  25.209  1.00  0.00    -0.003 C 
ATOM      7  C   UNL A   1      34.040  27.554  26.140  1.00  0.00     0.005 C 
ATOM      8  C   UNL A   1      31.672  27.175  25.833  1.00  0.00     0.019 C 
ATOM      9  C   UNL A   1      33.236  28.400  27.139  1.00  0.00     0.015 C 
BRANCH   6  10
ATOM     10  C   UNL A   1      33.353  26.962  23.688  1.00  0.00     0.084 C 
BRANCH  10  11
ATOM     11  C   UNL A   1      33.550  25.840  22.653  1.00  0.00     0.163 C 
ATOM     12  O   UNL A   1      33.663  26.121  21.455  1.00  0.00    -0.294 OA
BRANCH  11  13
ATOM     13  C   UNL A   1      33.740  24.408  23.049  1.00  0.00     0.018 A 
ATOM     14  C   UNL A   1      34.873  23.966  23.729  1.00  0.00     0.013 A 
ATOM     15  C   UNL A   1      32.699  23.495  22.801  1.00  0.00     0.013 A 
ATOM     16  C   UNL A   1      34.882  22.705  24.334  1.00  0.00     0.021 A 
ATOM     17  C   UNL A   1      32.734  22.208  23.351  1.00  0.00     0.021 A 
ATOM     18  C   UNL A   1      33.803  21.841  24.163  1.00  0.00     0.041 A 
ATOM     19  Cl  UNL A   1      33.776  20.332  24.988  1.00  0.00    -0.084 Cl
ENDBRANCH  11  13
ENDBRANCH  10  11
ENDBRANCH   6  10
ENDBRANCH   3   5
ENDBRANCH   2   3
ENDBRANCH   1   2
BRANCH   1  20
ATOM     20  C   UNL A   1      32.021  33.195  26.694  1.00  0.00     0.275 C 
BRANCH  20  21
ATOM     21  O   UNL A   1      32.135  33.638  28.061  1.00  0.00    -0.458 OA
BRANCH  21  22
ATOM     22  C   UNL A   1      33.248  34.352  28.338  1.00  0.00     0.338 C 
ATOM     23  O   UNL A   1      33.313  35.548  28.583  1.00  0.00    -0.246 OA
BRANCH  22  24
ATOM     24  C   UNL A   1      34.443  33.496  28.406  1.00  0.00     0.060 A 
ATOM     25  C   UNL A   1      34.264  32.159  28.733  1.00  0.00     0.016 A 
ATOM     26  C   UNL A   1      35.720  34.048  28.447  1.00  0.00     0.016 A 
ATOM     27  C   UNL A   1      35.307  31.407  29.251  1.00  0.00     0.010 A 
ATOM     28  C   UNL A   1      36.801  33.256  28.866  1.00  0.00     0.010 A 
ATOM     29  C   UNL A   1      36.590  31.945  29.334  1.00  0.00    -0.014 A 
BRANCH  29  30
ATOM     30  C   UNL A   1      37.650  31.169  30.031  1.00  0.00     0.031 A 
ATOM     31  C   UNL A   1      37.835  31.349  31.515  1.00  0.00     0.074 A 
ATOM     32  C   UNL A   1      38.374  30.239  29.377  1.00  0.00     0.049 A 
ATOM     33  N   UNL A   1      38.814  30.946  32.283  1.00  0.00    -0.248 NA
ATOM     34  C   UNL A   1      36.776  32.081  32.231  1.00  0.00     0.031 C 
ATOM     35  C   UNL A   1      38.210  29.866  27.970  1.00  0.00     0.029 A 
ATOM     36  N   UNL A   1      39.390  29.425  29.815  1.00  0.00    -0.354 N 
ATOM     37  C   UNL A   1      38.532  31.447  33.548  1.00  0.00     0.074 A 
ATOM     38  C   UNL A   1      37.276  32.157  33.457  1.00  0.00     0.031 C 
ATOM     39  C   UNL A   1      39.071  28.883  27.669  1.00  0.00     0.029 A 
ATOM     40  C   UNL A   1      39.927  28.639  28.823  1.00  0.00     0.049 A 
ATOM     41  H   UNL A   1      39.703  29.406  30.749  1.00  0.00     0.167 HD
ATOM     42  C   UNL A   1      39.271  31.335  34.675  1.00  0.00     0.037 A 
ATOM     43  C   UNL A   1      41.029  27.866  28.821  1.00  0.00     0.037 A 
ATOM     44  C   UNL A   1      40.480  30.558  34.765  1.00  0.00     0.049 A 
ATOM     45  C   UNL A   1      41.866  27.804  30.069  1.00  0.00     0.074 A 
ATOM     46  C   UNL A   1      41.311  30.377  35.856  1.00  0.00     0.029 A 
ATOM     47  N   UNL A   1      41.016  29.817  33.723  1.00  0.00    -0.354 N 
ATOM     48  N   UNL A   1      41.652  28.359  31.237  1.00  0.00    -0.248 NA
ATOM     49  C   UNL A   1      43.114  27.032  29.990  1.00  0.00     0.031 C 
ATOM     50  C   UNL A   1      42.373  29.557  35.462  1.00  0.00     0.029 A 
ATOM     51  C   UNL A   1      42.177  29.190  34.140  1.00  0.00     0.049 A 
ATOM     52  H   UNL A   1      40.628  29.746  32.821  1.00  0.00     0.167 HD
ATOM     53  C   UNL A   1      42.727  27.996  32.034  1.00  0.00     0.074 A 
ATOM     54  C   UNL A   1      43.581  27.151  31.224  1.00  0.00     0.031 C 
ATOM     55  C   UNL A   1      42.996  28.339  33.318  1.00  0.00     0.037 A 
BRANCH  42  56
ATOM     56  C   UNL A   1      38.841  32.116  35.880  1.00  0.00     0.057 A 
ATOM     57  C   UNL A   1      38.121  31.546  36.934  1.00  0.00     0.134 A 
ATOM     58  C   UNL A   1      39.208  33.463  36.002  1.00  0.00     0.134 A 
ATOM     59  F   UNL A   1      37.722  30.266  36.874  1.00  0.00    -0.206 F 
ATOM     60  C   UNL A   1      37.773  32.291  38.065  1.00  0.00     0.040 A 
ATOM     61  C   UNL A   1      38.887  34.212  37.135  1.00  0.00     0.040 A 
ATOM     62  F   UNL A   1      39.901  34.070  35.026  1.00  0.00    -0.206 F 
ATOM     63  C   UNL A   1      38.166  33.625  38.171  1.00  0.00     0.006 A 
ENDBRANCH  42  56
BRANCH  43  64
ATOM     64  C   UNL A   1      41.468  27.181  27.575  1.00  0.00     0.057 A 
ATOM     65  C   UNL A   1      41.140  25.845  27.319  1.00  0.00     0.134 A 
ATOM     66  C   UNL A   1      42.261  27.840  26.626  1.00  0.00     0.134 A 
ATOM     67  F   UNL A   1      40.409  25.147  28.201  1.00  0.00    -0.206 F 
ATOM     68  C   UNL A   1      41.602  25.185  26.178  1.00  0.00     0.040 A 
ATOM     69  C   UNL A   1      42.700  27.204  25.465  1.00  0.00     0.040 A 
ATOM     70  F   UNL A   1      42.618  29.120  26.810  1.00  0.00    -0.206 F 
ATOM     71  C   UNL A   1      42.379  25.867  25.244  1.00  0.00     0.006 A 
ENDBRANCH  43  64
BRANCH  55  72
ATOM     72  C   UNL A   1      44.234  27.761  33.931  1.00  0.00     0.057 A 
ATOM     73  C   UNL A   1      45.457  28.441  33.906  1.00  0.00     0.134 A 
ATOM     74  C   UNL A   1      44.191  26.523  34.583  1.00  0.00     0.134 A 
ATOM     75  F   UNL A   1      45.564  29.625  33.283  1.00  0.00    -0.206 F 
ATOM     76  C   UNL A   1      46.601  27.900  34.492  1.00  0.00     0.040 A 
ATOM     77  C   UNL A   1      45.322  25.983  35.196  1.00  0.00     0.040 A 
ATOM     78  F   UNL A   1      43.046  25.825  34.648  1.00  0.00    -0.206 F 
ATOM     79  C   UNL A   1      46.533  26.670  35.145  1.00  0.00     0.006 A 
ENDBRANCH  55  72
ENDBRANCH  29  30
ENDBRANCH  22  24
ENDBRANCH  21  22
ENDBRANCH  20  21
ENDBRANCH   1  20
TORSDOF 14
ENDMDL
MODEL 3
REMARK VINA RESULT:     -11.5      4.242      8.869
REMARK SMILES O=C(C[C@H]1CC[C@@H](C(=O)OCCOC(=O)c2ccc(-c3c4nc(c(-c5c(F)cccc5F)c5ccc([nH]5)c(-c5c(F)cccc5F)c5nc(c(-c6c(F)cccc6F)c6ccc3[nH]6)C=C5)C=C4)cc2)C1)c1ccc(Cl)cc1
REMARK SMILES IDX 11 1 10 2 8 3 9 4 7 5 4 6 5 7 70 8 6 9 3 10 2 11 1 12 71 13
REMARK SMILES IDX 72 14 77 15 73 16 76 17 74 18 75 19 12 20 13 21 14 22 15 23
REMARK SMILES IDX 16 24 17 25 69 26 18 27 68 28 19 29 20 30 21 31 62 32 22 33
REMARK SMILES IDX 67 34 61 35 63 36 23 37 66 38 60 39 59 40 24 42 50 43 33 44
REMARK SMILES IDX 49 45 34 46 37 47 48 48 64 49 35 50 36 51 47 53 65 54 38 55
REMARK SMILES IDX 25 56 26 57 31 58 27 59 28 60 30 61 32 62 29 63 51 64 52 65
REMARK SMILES IDX 57 66 53 67 54 68 56 69 58 70 55 71 39 72 40 73 45 74 41 75
REMARK SMILES IDX 42 76 44 77 46 78 43 79
REMARK H PARENT 63 41 37 52
REMARK Flexibility Score: inf
ROOT
ATOM      1  C   UNL A   1      35.327  21.549  25.376  1.00  0.00     0.274 C 
ENDROOT
BRANCH   1   2
ATOM      2  O   UNL A   1      34.379  21.594  24.288  1.00  0.00    -0.462 OA
BRANCH   2   3
ATOM      3  C   UNL A   1      34.269  22.815  23.703  1.00  0.00     0.309 C 
ATOM      4  O   UNL A   1      34.895  23.791  24.059  1.00  0.00    -0.252 OA
BRANCH   3   5
ATOM      5  C   UNL A   1      33.244  22.861  22.589  1.00  0.00     0.099 C 
ATOM      6  C   UNL A   1      31.224  23.727  23.706  1.00  0.00    -0.003 C 
ATOM      7  C   UNL A   1      31.896  24.877  22.930  1.00  0.00     0.005 C 
ATOM      8  C   UNL A   1      31.861  22.467  23.105  1.00  0.00     0.019 C 
ATOM      9  C   UNL A   1      33.005  24.268  22.058  1.00  0.00     0.015 C 
BRANCH   6  10
ATOM     10  C   UNL A   1      31.052  23.978  25.234  1.00  0.00     0.084 C 
BRANCH  10  11
ATOM     11  C   UNL A   1      30.693  25.285  25.965  1.00  0.00     0.163 C 
ATOM     12  O   UNL A   1      29.526  25.499  26.305  1.00  0.00    -0.294 OA
BRANCH  11  13
ATOM     13  C   UNL A   1      31.733  26.272  26.401  1.00  0.00     0.018 A 
ATOM     14  C   UNL A   1      33.064  26.176  26.004  1.00  0.00     0.013 A 
ATOM     15  C   UNL A   1      31.331  27.381  27.166  1.00  0.00     0.013 A 
ATOM     16  C   UNL A   1      33.931  27.261  26.182  1.00  0.00     0.021 A 
ATOM     17  C   UNL A   1      32.216  28.440  27.404  1.00  0.00     0.021 A 
ATOM     18  C   UNL A   1      33.496  28.397  26.860  1.00  0.00     0.041 A 
ATOM     19  Cl  UNL A   1      34.532  29.763  26.991  1.00  0.00    -0.084 Cl
ENDBRANCH  11  13
ENDBRANCH  10  11
ENDBRANCH   6  10
ENDBRANCH   3   5
ENDBRANCH   2   3
ENDBRANCH   1   2
BRANCH   1  20
ATOM     20  C   UNL A   1      36.576  20.717  25.075  1.00  0.00     0.275 C 
BRANCH  20  21
ATOM     21  O   UNL A   1      37.746  21.539  24.892  1.00  0.00    -0.458 OA
BRANCH  21  22
ATOM     22  C   UNL A   1      38.800  21.214  25.671  1.00  0.00     0.338 C 
ATOM     23  O   UNL A   1      39.422  20.162  25.667  1.00  0.00    -0.246 OA
BRANCH  22  24
ATOM     24  C   UNL A   1      39.213  22.340  26.525  1.00  0.00     0.060 A 
ATOM     25  C   UNL A   1      38.737  23.603  26.206  1.00  0.00     0.016 A 
ATOM     26  C   UNL A   1      40.271  22.210  27.420  1.00  0.00     0.016 A 
ATOM     27  C   UNL A   1      39.396  24.743  26.640  1.00  0.00     0.010 A 
ATOM     28  C   UNL A   1      40.872  23.364  27.951  1.00  0.00     0.010 A 
ATOM     29  C   UNL A   1      40.479  24.642  27.512  1.00  0.00    -0.014 A 
BRANCH  29  30
ATOM     30  C   UNL A   1      41.255  25.868  27.837  1.00  0.00     0.031 A 
ATOM     31  C   UNL A   1      40.621  26.932  28.693  1.00  0.00     0.074 A 
ATOM     32  C   UNL A   1      42.544  25.994  27.463  1.00  0.00     0.049 A 
ATOM     33  N   UNL A   1      41.020  28.156  28.926  1.00  0.00    -0.248 NA
ATOM     34  C   UNL A   1      39.369  26.572  29.380  1.00  0.00     0.031 C 
ATOM     35  C   UNL A   1      43.326  24.983  26.746  1.00  0.00     0.029 A 
ATOM     36  N   UNL A   1      43.433  27.024  27.649  1.00  0.00    -0.354 N 
ATOM     37  C   UNL A   1      40.030  28.733  29.711  1.00  0.00     0.074 A 
ATOM     38  C   UNL A   1      39.024  27.721  29.944  1.00  0.00     0.031 C 
ATOM     39  C   UNL A   1      44.578  25.431  26.576  1.00  0.00     0.029 A 
ATOM     40  C   UNL A   1      44.658  26.801  27.064  1.00  0.00     0.049 A 
ATOM     41  H   UNL A   1      43.215  27.842  28.151  1.00  0.00     0.167 HD
ATOM     42  C   UNL A   1      39.966  30.002  30.176  1.00  0.00     0.037 A 
ATOM     43  C   UNL A   1      45.701  27.632  26.876  1.00  0.00     0.037 A 
ATOM     44  C   UNL A   1      41.014  30.973  29.999  1.00  0.00     0.049 A 
ATOM     45  C   UNL A   1      45.582  29.054  27.350  1.00  0.00     0.074 A 
ATOM     46  C   UNL A   1      41.053  32.288  30.424  1.00  0.00     0.029 A 
ATOM     47  N   UNL A   1      42.217  30.721  29.358  1.00  0.00    -0.354 N 
ATOM     48  N   UNL A   1      44.602  29.628  28.005  1.00  0.00    -0.248 NA
ATOM     49  C   UNL A   1      46.700  29.952  27.033  1.00  0.00     0.031 C 
ATOM     50  C   UNL A   1      42.265  32.845  30.006  1.00  0.00     0.029 A 
ATOM     51  C   UNL A   1      42.999  31.862  29.360  1.00  0.00     0.049 A 
ATOM     52  H   UNL A   1      42.476  29.858  28.960  1.00  0.00     0.167 HD
ATOM     53  C   UNL A   1      44.988  30.948  28.189  1.00  0.00     0.074 A 
ATOM     54  C   UNL A   1      46.304  31.083  27.599  1.00  0.00     0.031 C 
ATOM     55  C   UNL A   1      44.313  31.963  28.782  1.00  0.00     0.037 A 
BRANCH  42  56
ATOM     56  C   UNL A   1      38.704  30.439  30.857  1.00  0.00     0.057 A 
ATOM     57  C   UNL A   1      37.605  30.950  30.159  1.00  0.00     0.134 A 
ATOM     58  C   UNL A   1      38.577  30.292  32.245  1.00  0.00     0.134 A 
ATOM     59  F   UNL A   1      37.666  31.133  28.831  1.00  0.00    -0.206 F 
ATOM     60  C   UNL A   1      36.425  31.307  30.819  1.00  0.00     0.040 A 
ATOM     61  C   UNL A   1      37.398  30.624  32.913  1.00  0.00     0.040 A 
ATOM     62  F   UNL A   1      39.594  29.807  32.973  1.00  0.00    -0.206 F 
ATOM     63  C   UNL A   1      36.317  31.135  32.198  1.00  0.00     0.006 A 
ENDBRANCH  42  56
BRANCH  43  64
ATOM     64  C   UNL A   1      46.896  27.181  26.114  1.00  0.00     0.057 A 
ATOM     65  C   UNL A   1      46.974  27.317  24.724  1.00  0.00     0.134 A 
ATOM     66  C   UNL A   1      47.977  26.564  26.760  1.00  0.00     0.134 A 
ATOM     67  F   UNL A   1      45.961  27.871  24.041  1.00  0.00    -0.206 F 
ATOM     68  C   UNL A   1      48.071  26.839  24.003  1.00  0.00     0.040 A 
ATOM     69  C   UNL A   1      49.095  26.115  26.056  1.00  0.00     0.040 A 
ATOM     70  F   UNL A   1      47.967  26.395  28.090  1.00  0.00    -0.206 F 
ATOM     71  C   UNL A   1      49.138  26.242  24.670  1.00  0.00     0.006 A 
ENDBRANCH  43  64
BRANCH  55  72
ATOM     72  C   UNL A   1      45.009  33.287  28.859  1.00  0.00     0.057 A 
ATOM     73  C   UNL A   1      45.868  33.610  29.917  1.00  0.00     0.134 A 
ATOM     74  C   UNL A   1      44.842  34.236  27.844  1.00  0.00     0.134 A 
ATOM     75  F   UNL A   1      46.057  32.747  30.927  1.00  0.00    -0.206 F 
ATOM     76  C   UNL A   1      46.520  34.841  29.971  1.00  0.00     0.040 A 
ATOM     77  C   UNL A   1      45.509  35.460  27.874  1.00  0.00     0.040 A 
ATOM     78  F   UNL A   1      44.038  33.983  26.799  1.00  0.00    -0.206 F 
ATOM     79  C   UNL A   1      46.347  35.767  28.944  1.00  0.00     0.006 A 
ENDBRANCH  55  72
ENDBRANCH  29  30
ENDBRANCH  22  24
ENDBRANCH  21  22
ENDBRANCH  20  21
ENDBRANCH   1  20
TORSDOF 14
ENDMDL
