MODEL 1
REMARK VINA RESULT:     -10.7      0.000      0.000
REMARK SMILES Cc1cc(CNC(=O)C[C@H](C)CC(=O)OCCOC(=O)c2ccc(-c3c4nc(c(-c5c(F)cccc5F)c5ccc([nH]5)c(-c5c(F)cccc5F)c5nc(c(-c6c(F)cccc6F)c6ccc3[nH]6)C=C5)C=C4)cc2)cc(C)c1F
REMARK SMILES IDX 15 1 13 2 14 3 12 4 10 5 11 6 9 7 7 8 6 9 8 11 5 12 4 13
REMARK SMILES IDX 1 14 2 15 3 16 78 17 76 18 79 19 75 20 77 21 16 22 17 23
REMARK SMILES IDX 18 24 19 25 20 26 21 27 22 28 74 29 23 30 73 31 24 32 25 33
REMARK SMILES IDX 26 34 67 35 27 36 72 37 66 38 68 39 28 40 71 41 65 42 64 43
REMARK SMILES IDX 29 45 55 46 38 47 54 48 39 49 42 50 53 51 69 52 40 53 41 54
REMARK SMILES IDX 52 56 70 57 43 58 30 59 31 60 36 61 32 62 33 63 35 64 37 65
REMARK SMILES IDX 34 66 56 67 57 68 62 69 58 70 59 71 61 72 63 73 60 74 44 75
REMARK SMILES IDX 45 76 50 77 46 78 47 79 49 80 51 81 48 82
REMARK H PARENT 6 10 68 44 42 55
REMARK Flexibility Score: inf
ROOT
ATOM      1  O   UNL A   1      33.588  34.310  30.733  1.00  0.00    -0.462 OA
ENDROOT
BRANCH   1   2
ATOM      2  C   UNL A   1      33.258  35.014  29.623  1.00  0.00     0.306 C 
ATOM      3  O   UNL A   1      33.057  36.222  29.594  1.00  0.00    -0.252 OA
BRANCH   2   4
ATOM      4  C   UNL A   1      33.221  34.157  28.371  1.00  0.00     0.126 C 
BRANCH   4   5
ATOM      5  C   UNL A   1      34.523  33.413  28.014  1.00  0.00     0.006 C 
ATOM      6  C   UNL A   1      35.713  34.260  28.487  1.00  0.00     0.009 C 
BRANCH   5   7
ATOM      7  C   UNL A   1      34.481  31.983  28.592  1.00  0.00     0.104 C 
BRANCH   7   8
ATOM      8  C   UNL A   1      34.842  30.877  27.618  1.00  0.00     0.220 C 
ATOM      9  N   UNL A   1      33.919  30.345  26.777  1.00  0.00    -0.352 N 
ATOM     10  H   UNL A   1      34.285  29.745  26.087  1.00  0.00     0.163 HD
ATOM     11  O   UNL A   1      36.002  30.462  27.554  1.00  0.00    -0.275 OA
BRANCH   9  12
ATOM     12  C   UNL A   1      32.481  30.517  26.731  1.00  0.00     0.151 C 
BRANCH  12  13
ATOM     13  C   UNL A   1      31.775  29.401  25.992  1.00  0.00    -0.028 A 
ATOM     14  C   UNL A   1      31.493  25.617  26.288  1.00  0.00     0.047 C 
ATOM     15  C   UNL A   1      31.317  27.006  25.756  1.00  0.00    -0.015 A 
ATOM     16  C   UNL A   1      31.812  28.091  26.486  1.00  0.00     0.012 A 
ATOM     17  C   UNL A   1      30.738  27.251  24.514  1.00  0.00     0.129 A 
ATOM     18  C   UNL A   1      30.643  28.549  24.001  1.00  0.00    -0.015 A 
ATOM     19  F   UNL A   1      30.281  26.219  23.790  1.00  0.00    -0.206 F 
ATOM     20  C   UNL A   1      31.170  29.619  24.745  1.00  0.00     0.012 A 
ATOM     21  C   UNL A   1      29.994  28.799  22.673  1.00  0.00     0.047 C 
ENDBRANCH  12  13
ENDBRANCH   9  12
ENDBRANCH   7   8
ENDBRANCH   5   7
ENDBRANCH   4   5
ENDBRANCH   2   4
ENDBRANCH   1   2
BRANCH   1  22
ATOM     22  C   UNL A   1      34.022  35.044  31.892  1.00  0.00     0.274 C 
BRANCH  22  23
ATOM     23  C   UNL A   1      35.414  34.566  32.310  1.00  0.00     0.275 C 
BRANCH  23  24
ATOM     24  O   UNL A   1      35.618  33.202  31.897  1.00  0.00    -0.458 OA
BRANCH  24  25
ATOM     25  C   UNL A   1      36.349  32.440  32.741  1.00  0.00     0.338 C 
ATOM     26  O   UNL A   1      36.121  32.174  33.908  1.00  0.00    -0.246 OA
BRANCH  25  27
ATOM     27  C   UNL A   1      37.424  31.806  31.969  1.00  0.00     0.060 A 
ATOM     28  C   UNL A   1      38.436  31.158  32.677  1.00  0.00     0.016 A 
ATOM     29  C   UNL A   1      37.469  31.892  30.578  1.00  0.00     0.016 A 
ATOM     30  C   UNL A   1      39.519  30.608  32.009  1.00  0.00     0.010 A 
ATOM     31  C   UNL A   1      38.553  31.324  29.901  1.00  0.00     0.010 A 
ATOM     32  C   UNL A   1      39.588  30.695  30.616  1.00  0.00    -0.014 A 
BRANCH  32  33
ATOM     33  C   UNL A   1      40.783  30.169  29.925  1.00  0.00     0.031 A 
ATOM     34  C   UNL A   1      41.961  31.069  29.707  1.00  0.00     0.074 A 
ATOM     35  C   UNL A   1      40.816  28.882  29.539  1.00  0.00     0.049 A 
ATOM     36  N   UNL A   1      43.078  30.829  29.073  1.00  0.00    -0.248 NA
ATOM     37  C   UNL A   1      41.872  32.421  30.284  1.00  0.00     0.031 C 
ATOM     38  C   UNL A   1      39.749  27.903  29.757  1.00  0.00     0.029 A 
ATOM     39  N   UNL A   1      41.786  28.177  28.875  1.00  0.00    -0.354 N 
ATOM     40  C   UNL A   1      43.820  31.999  29.161  1.00  0.00     0.074 A 
ATOM     41  C   UNL A   1      43.021  32.956  29.896  1.00  0.00     0.031 C 
ATOM     42  C   UNL A   1      40.118  26.727  29.224  1.00  0.00     0.029 A 
ATOM     43  C   UNL A   1      41.425  26.882  28.594  1.00  0.00     0.049 A 
ATOM     44  H   UNL A   1      42.657  28.562  28.625  1.00  0.00     0.167 HD
ATOM     45  C   UNL A   1      45.057  32.247  28.673  1.00  0.00     0.037 A 
ATOM     46  C   UNL A   1      42.070  25.942  27.879  1.00  0.00     0.037 A 
ATOM     47  C   UNL A   1      45.846  31.286  27.949  1.00  0.00     0.049 A 
ATOM     48  C   UNL A   1      43.407  26.276  27.276  1.00  0.00     0.074 A 
ATOM     49  C   UNL A   1      47.117  31.432  27.424  1.00  0.00     0.029 A 
ATOM     50  N   UNL A   1      45.432  29.998  27.646  1.00  0.00    -0.354 N 
ATOM     51  N   UNL A   1      44.105  27.382  27.371  1.00  0.00    -0.248 NA
ATOM     52  C   UNL A   1      44.043  25.232  26.462  1.00  0.00     0.031 C 
ATOM     53  C   UNL A   1      47.457  30.244  26.767  1.00  0.00     0.029 A 
ATOM     54  C   UNL A   1      46.413  29.346  26.917  1.00  0.00     0.049 A 
ATOM     55  H   UNL A   1      44.569  29.604  27.909  1.00  0.00     0.167 HD
ATOM     56  C   UNL A   1      45.270  27.159  26.650  1.00  0.00     0.074 A 
ATOM     57  C   UNL A   1      45.192  25.806  26.138  1.00  0.00     0.031 C 
ATOM     58  C   UNL A   1      46.313  27.997  26.426  1.00  0.00     0.037 A 
BRANCH  45  59
ATOM     59  C   UNL A   1      45.620  33.620  28.878  1.00  0.00     0.057 A 
ATOM     60  C   UNL A   1      46.356  33.920  30.031  1.00  0.00     0.134 A 
ATOM     61  C   UNL A   1      45.407  34.653  27.958  1.00  0.00     0.134 A 
ATOM     62  F   UNL A   1      46.596  32.974  30.951  1.00  0.00    -0.206 F 
ATOM     63  C   UNL A   1      46.852  35.204  30.266  1.00  0.00     0.040 A 
ATOM     64  C   UNL A   1      45.914  35.936  28.173  1.00  0.00     0.040 A 
ATOM     65  F   UNL A   1      44.726  34.425  26.824  1.00  0.00    -0.206 F 
ATOM     66  C   UNL A   1      46.634  36.215  29.334  1.00  0.00     0.006 A 
ENDBRANCH  45  59
BRANCH  46  67
ATOM     67  C   UNL A   1      41.453  24.612  27.650  1.00  0.00     0.057 A 
ATOM     68  C   UNL A   1      41.839  23.494  28.399  1.00  0.00     0.134 A 
ATOM     69  C   UNL A   1      40.423  24.440  26.718  1.00  0.00     0.134 A 
ATOM     70  F   UNL A   1      42.819  23.593  29.310  1.00  0.00    -0.206 F 
ATOM     71  C   UNL A   1      41.221  22.254  28.234  1.00  0.00     0.040 A 
ATOM     72  C   UNL A   1      39.779  23.212  26.560  1.00  0.00     0.040 A 
ATOM     73  F   UNL A   1      39.994  25.480  25.989  1.00  0.00    -0.206 F 
ATOM     74  C   UNL A   1      40.179  22.114  27.319  1.00  0.00     0.006 A 
ENDBRANCH  46  67
BRANCH  58  75
ATOM     75  C   UNL A   1      47.454  27.455  25.621  1.00  0.00     0.057 A 
ATOM     76  C   UNL A   1      47.472  27.592  24.228  1.00  0.00     0.134 A 
ATOM     77  C   UNL A   1      48.528  26.788  26.223  1.00  0.00     0.134 A 
ATOM     78  F   UNL A   1      46.470  28.216  23.591  1.00  0.00    -0.206 F 
ATOM     79  C   UNL A   1      48.520  27.085  23.460  1.00  0.00     0.040 A 
ATOM     80  C   UNL A   1      49.595  26.298  25.468  1.00  0.00     0.040 A 
ATOM     81  F   UNL A   1      48.577  26.640  27.555  1.00  0.00    -0.206 F 
ATOM     82  C   UNL A   1      49.590  26.442  24.081  1.00  0.00     0.006 A 
ENDBRANCH  58  75
ENDBRANCH  32  33
ENDBRANCH  25  27
ENDBRANCH  24  25
ENDBRANCH  23  24
ENDBRANCH  22  23
ENDBRANCH   1  22
TORSDOF 16
ENDMDL
MODEL 2
REMARK VINA RESULT:     -10.7      3.649      8.364
REMARK SMILES Cc1cc(CNC(=O)C[C@H](C)CC(=O)OCCOC(=O)c2ccc(-c3c4nc(c(-c5c(F)cccc5F)c5ccc([nH]5)c(-c5c(F)cccc5F)c5nc(c(-c6c(F)cccc6F)c6ccc3[nH]6)C=C5)C=C4)cc2)cc(C)c1F
REMARK SMILES IDX 15 1 13 2 14 3 12 4 10 5 11 6 9 7 7 8 6 9 8 11 5 12 4 13
REMARK SMILES IDX 1 14 2 15 3 16 78 17 76 18 79 19 75 20 77 21 16 22 17 23
REMARK SMILES IDX 18 24 19 25 20 26 21 27 22 28 74 29 23 30 73 31 24 32 25 33
REMARK SMILES IDX 26 34 67 35 27 36 72 37 66 38 68 39 28 40 71 41 65 42 64 43
REMARK SMILES IDX 29 45 55 46 38 47 54 48 39 49 42 50 53 51 69 52 40 53 41 54
REMARK SMILES IDX 52 56 70 57 43 58 30 59 31 60 36 61 32 62 33 63 35 64 37 65
REMARK SMILES IDX 34 66 56 67 57 68 62 69 58 70 59 71 61 72 63 73 60 74 44 75
REMARK SMILES IDX 45 76 50 77 46 78 47 79 49 80 51 81 48 82
REMARK H PARENT 6 10 68 44 42 55
REMARK Flexibility Score: inf
ROOT
ATOM      1  O   UNL A   1      35.254  21.554  26.300  1.00  0.00    -0.462 OA
ENDROOT
BRANCH   1   2
ATOM      2  C   UNL A   1      33.983  21.635  26.760  1.00  0.00     0.306 C 
ATOM      3  O   UNL A   1      33.671  21.864  27.923  1.00  0.00    -0.252 OA
BRANCH   2   4
ATOM      4  C   UNL A   1      32.947  21.474  25.662  1.00  0.00     0.126 C 
BRANCH   4   5
ATOM      5  C   UNL A   1      32.383  22.776  25.060  1.00  0.00     0.006 C 
ATOM      6  C   UNL A   1      32.832  22.870  23.594  1.00  0.00     0.009 C 
BRANCH   5   7
ATOM      7  C   UNL A   1      30.856  22.828  25.270  1.00  0.00     0.104 C 
BRANCH   7   8
ATOM      8  C   UNL A   1      30.397  23.528  26.536  1.00  0.00     0.220 C 
ATOM      9  N   UNL A   1      29.864  24.776  26.501  1.00  0.00    -0.352 N 
ATOM     10  H   UNL A   1      29.462  25.078  27.349  1.00  0.00     0.163 HD
ATOM     11  O   UNL A   1      30.472  22.953  27.624  1.00  0.00    -0.275 OA
BRANCH   9  12
ATOM     12  C   UNL A   1      29.792  25.737  25.418  1.00  0.00     0.151 C 
BRANCH  12  13
ATOM     13  C   UNL A   1      31.137  26.337  25.071  1.00  0.00    -0.028 A 
ATOM     14  C   UNL A   1      33.688  28.601  26.759  1.00  0.00     0.047 C 
ATOM     15  C   UNL A   1      33.026  27.759  25.712  1.00  0.00    -0.015 A 
ATOM     16  C   UNL A   1      31.862  27.053  26.031  1.00  0.00     0.012 A 
ATOM     17  C   UNL A   1      33.490  27.714  24.401  1.00  0.00     0.129 A 
ATOM     18  C   UNL A   1      32.821  26.976  23.419  1.00  0.00    -0.015 A 
ATOM     19  F   UNL A   1      34.591  28.406  24.072  1.00  0.00    -0.206 F 
ATOM     20  C   UNL A   1      31.639  26.294  23.761  1.00  0.00     0.012 A 
ATOM     21  C   UNL A   1      33.348  26.917  22.016  1.00  0.00     0.047 C 
ENDBRANCH  12  13
ENDBRANCH   9  12
ENDBRANCH   7   8
ENDBRANCH   5   7
ENDBRANCH   4   5
ENDBRANCH   2   4
ENDBRANCH   1   2
BRANCH   1  22
ATOM     22  C   UNL A   1      35.511  20.691  25.178  1.00  0.00     0.274 C 
BRANCH  22  23
ATOM     23  C   UNL A   1      37.020  20.577  24.953  1.00  0.00     0.275 C 
BRANCH  23  24
ATOM     24  O   UNL A   1      37.715  21.581  25.717  1.00  0.00    -0.458 OA
BRANCH  24  25
ATOM     25  C   UNL A   1      38.959  21.247  26.126  1.00  0.00     0.338 C 
ATOM     26  O   UNL A   1      39.528  20.175  26.014  1.00  0.00    -0.246 OA
BRANCH  25  27
ATOM     27  C   UNL A   1      39.628  22.464  26.598  1.00  0.00     0.060 A 
ATOM     28  C   UNL A   1      39.149  23.690  26.135  1.00  0.00     0.016 A 
ATOM     29  C   UNL A   1      40.741  22.404  27.436  1.00  0.00     0.016 A 
ATOM     30  C   UNL A   1      39.788  24.870  26.483  1.00  0.00     0.010 A 
ATOM     31  C   UNL A   1      41.377  23.596  27.801  1.00  0.00     0.010 A 
ATOM     32  C   UNL A   1      40.911  24.829  27.312  1.00  0.00    -0.014 A 
BRANCH  32  33
ATOM     33  C   UNL A   1      41.623  26.088  27.614  1.00  0.00     0.031 A 
ATOM     34  C   UNL A   1      40.925  27.157  28.398  1.00  0.00     0.074 A 
ATOM     35  C   UNL A   1      42.899  26.241  27.219  1.00  0.00     0.049 A 
ATOM     36  N   UNL A   1      41.342  28.353  28.716  1.00  0.00    -0.248 NA
ATOM     37  C   UNL A   1      39.576  26.836  28.893  1.00  0.00     0.031 C 
ATOM     38  C   UNL A   1      43.692  25.239  26.505  1.00  0.00     0.029 A 
ATOM     39  N   UNL A   1      43.752  27.305  27.360  1.00  0.00    -0.354 N 
ATOM     40  C   UNL A   1      40.308  28.934  29.437  1.00  0.00     0.074 A 
ATOM     41  C   UNL A   1      39.234  27.966  29.496  1.00  0.00     0.031 C 
ATOM     42  C   UNL A   1      44.913  25.742  26.258  1.00  0.00     0.029 A 
ATOM     43  C   UNL A   1      44.972  27.111  26.760  1.00  0.00     0.049 A 
ATOM     44  H   UNL A   1      43.513  28.128  27.845  1.00  0.00     0.167 HD
ATOM     45  C   UNL A   1      40.263  30.164  29.998  1.00  0.00     0.037 A 
ATOM     46  C   UNL A   1      46.004  27.961  26.608  1.00  0.00     0.037 A 
ATOM     47  C   UNL A   1      41.340  31.117  29.940  1.00  0.00     0.049 A 
ATOM     48  C   UNL A   1      45.891  29.352  27.171  1.00  0.00     0.074 A 
ATOM     49  C   UNL A   1      41.400  32.385  30.489  1.00  0.00     0.029 A 
ATOM     50  N   UNL A   1      42.544  30.903  29.288  1.00  0.00    -0.354 N 
ATOM     51  N   UNL A   1      44.911  29.890  27.857  1.00  0.00    -0.248 NA
ATOM     52  C   UNL A   1      47.024  30.254  26.930  1.00  0.00     0.031 C 
ATOM     53  C   UNL A   1      42.628  32.956  30.133  1.00  0.00     0.029 A 
ATOM     54  C   UNL A   1      43.345  32.027  29.397  1.00  0.00     0.049 A 
ATOM     55  H   UNL A   1      42.793  30.076  28.817  1.00  0.00     0.167 HD
ATOM     56  C   UNL A   1      45.320  31.183  28.151  1.00  0.00     0.074 A 
ATOM     57  C   UNL A   1      46.643  31.343  27.583  1.00  0.00     0.031 C 
ATOM     58  C   UNL A   1      44.661  32.157  28.828  1.00  0.00     0.037 A 
BRANCH  45  59
ATOM     59  C   UNL A   1      38.999  30.560  30.698  1.00  0.00     0.057 A 
ATOM     60  C   UNL A   1      38.796  30.224  32.042  1.00  0.00     0.134 A 
ATOM     61  C   UNL A   1      37.969  31.241  30.037  1.00  0.00     0.134 A 
ATOM     62  F   UNL A   1      39.744  29.573  32.731  1.00  0.00    -0.206 F 
ATOM     63  C   UNL A   1      37.608  30.542  32.702  1.00  0.00     0.040 A 
ATOM     64  C   UNL A   1      36.784  31.582  30.692  1.00  0.00     0.040 A 
ATOM     65  F   UNL A   1      38.110  31.609  28.755  1.00  0.00    -0.206 F 
ATOM     66  C   UNL A   1      36.599  31.226  32.028  1.00  0.00     0.006 A 
ENDBRANCH  45  59
BRANCH  46  67
ATOM     67  C   UNL A   1      47.216  27.550  25.859  1.00  0.00     0.057 A 
ATOM     68  C   UNL A   1      48.313  26.973  26.513  1.00  0.00     0.134 A 
ATOM     69  C   UNL A   1      47.286  27.669  24.466  1.00  0.00     0.134 A 
ATOM     70  F   UNL A   1      48.308  26.829  27.846  1.00  0.00    -0.206 F 
ATOM     71  C   UNL A   1      49.432  26.526  25.809  1.00  0.00     0.040 A 
ATOM     72  C   UNL A   1      48.388  27.203  23.747  1.00  0.00     0.040 A 
ATOM     73  F   UNL A   1      46.257  28.190  23.783  1.00  0.00    -0.206 F 
ATOM     74  C   UNL A   1      49.466  26.631  24.420  1.00  0.00     0.006 A 
ENDBRANCH  46  67
BRANCH  58  75
ATOM     75  C   UNL A   1      45.381  33.458  29.010  1.00  0.00     0.057 A 
ATOM     76  C   UNL A   1      45.232  34.491  28.077  1.00  0.00     0.134 A 
ATOM     77  C   UNL A   1      46.229  33.684  30.101  1.00  0.00     0.134 A 
ATOM     78  F   UNL A   1      44.439  34.335  27.007  1.00  0.00    -0.206 F 
ATOM     79  C   UNL A   1      45.902  35.706  28.223  1.00  0.00     0.040 A 
ATOM     80  C   UNL A   1      46.885  34.904  30.272  1.00  0.00     0.040 A 
ATOM     81  F   UNL A   1      46.399  32.739  31.038  1.00  0.00    -0.206 F 
ATOM     82  C   UNL A   1      46.726  35.918  29.327  1.00  0.00     0.006 A 
ENDBRANCH  58  75
ENDBRANCH  32  33
ENDBRANCH  25  27
ENDBRANCH  24  25
ENDBRANCH  23  24
ENDBRANCH  22  23
ENDBRANCH   1  22
TORSDOF 16
ENDMDL
MODEL 3
REMARK VINA RESULT:     -10.7      5.133     10.865
REMARK SMILES Cc1cc(CNC(=O)C[C@H](C)CC(=O)OCCOC(=O)c2ccc(-c3c4nc(c(-c5c(F)cccc5F)c5ccc([nH]5)c(-c5c(F)cccc5F)c5nc(c(-c6c(F)cccc6F)c6ccc3[nH]6)C=C5)C=C4)cc2)cc(C)c1F
REMARK SMILES IDX 15 1 13 2 14 3 12 4 10 5 11 6 9 7 7 8 6 9 8 11 5 12 4 13
REMARK SMILES IDX 1 14 2 15 3 16 78 17 76 18 79 19 75 20 77 21 16 22 17 23
REMARK SMILES IDX 18 24 19 25 20 26 21 27 22 28 74 29 23 30 73 31 24 32 25 33
REMARK SMILES IDX 26 34 67 35 27 36 72 37 66 38 68 39 28 40 71 41 65 42 64 43
REMARK SMILES IDX 29 45 55 46 38 47 54 48 39 49 42 50 53 51 69 52 40 53 41 54
REMARK SMILES IDX 52 56 70 57 43 58 30 59 31 60 36 61 32 62 33 63 35 64 37 65
REMARK SMILES IDX 34 66 56 67 57 68 62 69 58 70 59 71 61 72 63 73 60 74 44 75
REMARK SMILES IDX 45 76 50 77 46 78 47 79 49 80 51 81 48 82
REMARK H PARENT 6 10 68 44 42 55
REMARK Flexibility Score: inf
ROOT
ATOM      1  O   UNL A   1      43.082  20.273  25.359  1.00  0.00    -0.462 OA
ENDROOT
BRANCH   1   2
ATOM      2  C   UNL A   1      42.275  19.721  26.297  1.00  0.00     0.306 C 
ATOM      3  O   UNL A   1      42.653  18.985  27.201  1.00  0.00    -0.252 OA
BRANCH   2   4
ATOM      4  C   UNL A   1      40.828  20.159  26.161  1.00  0.00     0.126 C 
BRANCH   4   5
ATOM      5  C   UNL A   1      40.388  21.345  27.043  1.00  0.00     0.006 C 
ATOM      6  C   UNL A   1      41.466  21.584  28.110  1.00  0.00     0.009 C 
BRANCH   5   7
ATOM      7  C   UNL A   1      40.079  22.567  26.154  1.00  0.00     0.104 C 
BRANCH   7   8
ATOM      8  C   UNL A   1      38.769  23.273  26.452  1.00  0.00     0.220 C 
ATOM      9  N   UNL A   1      37.578  22.747  26.066  1.00  0.00    -0.352 N 
ATOM     10  H   UNL A   1      36.786  23.201  26.436  1.00  0.00     0.163 HD
ATOM     11  O   UNL A   1      38.765  24.332  27.085  1.00  0.00    -0.275 OA
BRANCH   9  12
ATOM     12  C   UNL A   1      37.285  21.625  25.197  1.00  0.00     0.151 C 
BRANCH  12  13
ATOM     13  C   UNL A   1      35.869  21.647  24.662  1.00  0.00    -0.028 A 
ATOM     14  C   UNL A   1      33.607  24.145  22.893  1.00  0.00     0.047 C 
ATOM     15  C   UNL A   1      34.063  22.886  23.565  1.00  0.00    -0.015 A 
ATOM     16  C   UNL A   1      35.404  22.750  23.936  1.00  0.00     0.012 A 
ATOM     17  C   UNL A   1      33.176  21.868  23.902  1.00  0.00     0.129 A 
ATOM     18  C   UNL A   1      33.606  20.728  24.589  1.00  0.00    -0.015 A 
ATOM     19  F   UNL A   1      31.881  21.993  23.575  1.00  0.00    -0.206 F 
ATOM     20  C   UNL A   1      34.956  20.628  24.971  1.00  0.00     0.012 A 
ATOM     21  C   UNL A   1      32.643  19.628  24.922  1.00  0.00     0.047 C 
ENDBRANCH  12  13
ENDBRANCH   9  12
ENDBRANCH   7   8
ENDBRANCH   5   7
ENDBRANCH   4   5
ENDBRANCH   2   4
ENDBRANCH   1   2
BRANCH   1  22
ATOM     22  C   UNL A   1      43.757  21.500  25.688  1.00  0.00     0.274 C 
BRANCH  22  23
ATOM     23  C   UNL A   1      43.823  22.396  24.450  1.00  0.00     0.275 C 
BRANCH  23  24
ATOM     24  O   UNL A   1      43.227  23.677  24.730  1.00  0.00    -0.458 OA
BRANCH  24  25
ATOM     25  C   UNL A   1      44.085  24.648  25.114  1.00  0.00     0.338 C 
ATOM     26  O   UNL A   1      45.160  24.945  24.623  1.00  0.00    -0.246 OA
BRANCH  25  27
ATOM     27  C   UNL A   1      43.432  25.449  26.156  1.00  0.00     0.060 A 
ATOM     28  C   UNL A   1      43.893  26.750  26.360  1.00  0.00     0.016 A 
ATOM     29  C   UNL A   1      42.423  24.917  26.958  1.00  0.00     0.016 A 
ATOM     30  C   UNL A   1      43.370  27.529  27.381  1.00  0.00     0.010 A 
ATOM     31  C   UNL A   1      41.883  25.706  27.978  1.00  0.00     0.010 A 
ATOM     32  C   UNL A   1      42.366  27.008  28.201  1.00  0.00    -0.014 A 
BRANCH  32  33
ATOM     33  C   UNL A   1      41.871  27.823  29.330  1.00  0.00     0.031 A 
ATOM     34  C   UNL A   1      42.575  27.752  30.651  1.00  0.00     0.074 A 
ATOM     35  C   UNL A   1      40.825  28.646  29.147  1.00  0.00     0.049 A 
ATOM     36  N   UNL A   1      42.270  28.333  31.781  1.00  0.00    -0.248 NA
ATOM     37  C   UNL A   1      43.787  26.919  30.707  1.00  0.00     0.031 C 
ATOM     38  C   UNL A   1      40.106  28.838  27.886  1.00  0.00     0.029 A 
ATOM     39  N   UNL A   1      40.180  29.475  30.029  1.00  0.00    -0.354 N 
ATOM     40  C   UNL A   1      43.241  27.927  32.686  1.00  0.00     0.074 A 
ATOM     41  C   UNL A   1      44.138  27.038  31.980  1.00  0.00     0.031 C 
ATOM     42  C   UNL A   1      39.110  29.718  28.079  1.00  0.00     0.029 A 
ATOM     43  C   UNL A   1      39.097  30.118  29.482  1.00  0.00     0.049 A 
ATOM     44  H   UNL A   1      40.466  29.596  30.963  1.00  0.00     0.167 HD
ATOM     45  C   UNL A   1      43.370  28.271  33.989  1.00  0.00     0.037 A 
ATOM     46  C   UNL A   1      38.182  30.915  30.065  1.00  0.00     0.037 A 
ATOM     47  C   UNL A   1      42.477  29.163  34.680  1.00  0.00     0.049 A 
ATOM     48  C   UNL A   1      38.305  31.211  31.534  1.00  0.00     0.074 A 
ATOM     49  C   UNL A   1      42.528  29.587  35.996  1.00  0.00     0.029 A 
ATOM     50  N   UNL A   1      41.367  29.763  34.107  1.00  0.00    -0.354 N 
ATOM     51  N   UNL A   1      39.231  30.830  32.381  1.00  0.00    -0.248 NA
ATOM     52  C   UNL A   1      37.251  32.042  32.130  1.00  0.00     0.031 C 
ATOM     53  C   UNL A   1      41.424  30.413  36.230  1.00  0.00     0.029 A 
ATOM     54  C   UNL A   1      40.708  30.534  35.050  1.00  0.00     0.049 A 
ATOM     55  H   UNL A   1      41.087  29.657  33.169  1.00  0.00     0.167 HD
ATOM     56  C   UNL A   1      38.884  31.394  33.602  1.00  0.00     0.074 A 
ATOM     57  C   UNL A   1      37.673  32.156  33.380  1.00  0.00     0.031 C 
ATOM     58  C   UNL A   1      39.508  31.289  34.801  1.00  0.00     0.037 A 
BRANCH  45  59
ATOM     59  C   UNL A   1      44.500  27.657  34.758  1.00  0.00     0.057 A 
ATOM     60  C   UNL A   1      45.751  28.287  34.806  1.00  0.00     0.134 A 
ATOM     61  C   UNL A   1      44.365  26.432  35.420  1.00  0.00     0.134 A 
ATOM     62  F   UNL A   1      45.944  29.464  34.194  1.00  0.00    -0.206 F 
ATOM     63  C   UNL A   1      46.830  27.712  35.479  1.00  0.00     0.040 A 
ATOM     64  C   UNL A   1      45.433  25.856  36.112  1.00  0.00     0.040 A 
ATOM     65  F   UNL A   1      43.188  25.788  35.428  1.00  0.00    -0.206 F 
ATOM     66  C   UNL A   1      46.672  26.495  36.137  1.00  0.00     0.006 A 
ENDBRANCH  45  59
BRANCH  46  67
ATOM     67  C   UNL A   1      37.045  31.457  29.281  1.00  0.00     0.057 A 
ATOM     68  C   UNL A   1      35.880  30.706  29.078  1.00  0.00     0.134 A 
ATOM     69  C   UNL A   1      37.072  32.758  28.766  1.00  0.00     0.134 A 
ATOM     70  F   UNL A   1      35.791  29.453  29.548  1.00  0.00    -0.206 F 
ATOM     71  C   UNL A   1      34.782  31.230  28.396  1.00  0.00     0.040 A 
ATOM     72  C   UNL A   1      35.971  33.304  28.103  1.00  0.00     0.040 A 
ATOM     73  F   UNL A   1      38.150  33.534  28.950  1.00  0.00    -0.206 F 
ATOM     74  C   UNL A   1      34.822  32.539  27.916  1.00  0.00     0.006 A 
ENDBRANCH  46  67
BRANCH  58  75
ATOM     75  C   UNL A   1      38.903  32.044  35.945  1.00  0.00     0.057 A 
ATOM     76  C   UNL A   1      38.069  31.395  36.865  1.00  0.00     0.134 A 
ATOM     77  C   UNL A   1      39.134  33.412  36.130  1.00  0.00     0.134 A 
ATOM     78  F   UNL A   1      37.803  30.087  36.739  1.00  0.00    -0.206 F 
ATOM     79  C   UNL A   1      37.487  32.082  37.930  1.00  0.00     0.040 A 
ATOM     80  C   UNL A   1      38.579  34.105  37.206  1.00  0.00     0.040 A 
ATOM     81  F   UNL A   1      39.938  34.085  35.293  1.00  0.00    -0.206 F 
ATOM     82  C   UNL A   1      37.747  33.440  38.107  1.00  0.00     0.006 A 
ENDBRANCH  58  75
ENDBRANCH  32  33
ENDBRANCH  25  27
ENDBRANCH  24  25
ENDBRANCH  23  24
ENDBRANCH  22  23
ENDBRANCH   1  22
TORSDOF 16
ENDMDL
