MODEL 1
REMARK VINA RESULT:     -10.9      0.000      0.000
REMARK SMILES COc1ccc(OCc2cccs2)c(C(=O)OCCOC(=O)c2ccc(-c3c4nc(c(-c5c(F)cccc5F)c5ccc([nH]5)c(-c5c(F)cccc5F)c5nc(c(-c6c(F)cccc6F)c6ccc3[nH]6)C=C5)C=C4)cc2)c1
REMARK SMILES IDX 18 1 17 2 15 3 16 4 14 5 3 6 4 7 77 8 5 9 6 10 2 11 1 12
REMARK SMILES IDX 7 13 8 14 9 15 10 16 13 17 11 18 12 19 19 20 20 21 21 22
REMARK SMILES IDX 22 23 23 24 24 25 76 26 25 27 75 28 26 29 27 30 28 31 69 32
REMARK SMILES IDX 29 33 74 34 68 35 70 36 30 37 73 38 67 39 66 40 31 42 57 43
REMARK SMILES IDX 40 44 56 45 41 46 44 47 55 48 71 49 42 50 43 51 54 53 72 54
REMARK SMILES IDX 45 55 32 56 33 57 38 58 34 59 35 60 37 61 39 62 36 63 58 64
REMARK SMILES IDX 59 65 64 66 60 67 61 68 63 69 65 70 62 71 46 72 47 73 52 74
REMARK SMILES IDX 48 75 49 76 51 77 53 78 50 79
REMARK H PARENT 70 41 44 52
REMARK Flexibility Score: inf
ROOT
ATOM      1  C   UNL A   1      37.211  20.122  25.026  1.00  0.00     0.275 C 
ENDROOT
BRANCH   1   2
ATOM      2  O   UNL A   1      37.044  21.357  24.300  1.00  0.00    -0.458 OA
BRANCH   2   3
ATOM      3  C   UNL A   1      36.274  22.280  24.941  1.00  0.00     0.342 C 
ATOM      4  O   UNL A   1      36.632  22.816  25.970  1.00  0.00    -0.246 OA
BRANCH   3   5
ATOM      5  C   UNL A   1      35.018  22.615  24.194  1.00  0.00     0.105 A 
ATOM      6  C   UNL A   1      33.853  24.265  22.799  1.00  0.00     0.119 A 
ATOM      7  C   UNL A   1      32.658  23.590  22.969  1.00  0.00     0.050 A 
ATOM      8  C   UNL A   1      35.009  23.815  23.440  1.00  0.00     0.066 A 
ATOM      9  C   UNL A   1      32.660  22.388  23.665  1.00  0.00     0.051 A 
ATOM     10  C   UNL A   1      33.836  21.845  24.230  1.00  0.00     0.134 A 
BRANCH   6  11
ATOM     11  O   UNL A   1      33.827  25.400  22.039  1.00  0.00    -0.497 OA
ATOM     12  C   UNL A   1      32.508  25.684  21.570  1.00  0.00     0.278 C 
ENDBRANCH   6  11
BRANCH  10  13
ATOM     13  O   UNL A   1      33.547  20.591  24.675  1.00  0.00    -0.487 OA
BRANCH  13  14
ATOM     14  C   UNL A   1      32.521  19.704  24.243  1.00  0.00     0.276 C 
BRANCH  14  15
ATOM     15  C   UNL A   1      32.952  18.264  24.180  1.00  0.00     0.042 A 
ATOM     16  C   UNL A   1      33.596  17.537  23.194  1.00  0.00     0.019 A 
ATOM     17  S   UNL A   1      32.706  17.297  25.585  1.00  0.00    -0.145 S 
ATOM     18  C   UNL A   1      34.012  16.250  23.643  1.00  0.00     0.012 A 
ATOM     19  C   UNL A   1      33.580  15.988  24.922  1.00  0.00     0.065 A 
ENDBRANCH  14  15
ENDBRANCH  13  14
ENDBRANCH  10  13
ENDBRANCH   3   5
ENDBRANCH   2   3
ENDBRANCH   1   2
BRANCH   1  20
ATOM     20  C   UNL A   1      38.660  19.604  25.047  1.00  0.00     0.275 C 
BRANCH  20  21
ATOM     21  O   UNL A   1      39.286  19.693  26.345  1.00  0.00    -0.458 OA
BRANCH  21  22
ATOM     22  C   UNL A   1      40.610  19.993  26.324  1.00  0.00     0.338 C 
ATOM     23  O   UNL A   1      41.491  19.325  25.804  1.00  0.00    -0.246 OA
BRANCH  22  24
ATOM     24  C   UNL A   1      40.862  21.351  26.866  1.00  0.00     0.060 A 
ATOM     25  C   UNL A   1      40.289  22.429  26.179  1.00  0.00     0.016 A 
ATOM     26  C   UNL A   1      41.657  21.592  27.990  1.00  0.00     0.016 A 
ATOM     27  C   UNL A   1      40.486  23.740  26.614  1.00  0.00     0.010 A 
ATOM     28  C   UNL A   1      41.895  22.914  28.401  1.00  0.00     0.010 A 
ATOM     29  C   UNL A   1      41.322  23.996  27.706  1.00  0.00    -0.014 A 
BRANCH  29  30
ATOM     30  C   UNL A   1      41.759  25.394  27.954  1.00  0.00     0.031 A 
ATOM     31  C   UNL A   1      43.113  25.814  27.454  1.00  0.00     0.074 A 
ATOM     32  C   UNL A   1      40.963  26.299  28.551  1.00  0.00     0.049 A 
ATOM     33  N   UNL A   1      43.699  26.984  27.510  1.00  0.00    -0.248 NA
ATOM     34  C   UNL A   1      43.909  24.769  26.794  1.00  0.00     0.031 C 
ATOM     35  C   UNL A   1      39.611  26.047  29.041  1.00  0.00     0.029 A 
ATOM     36  N   UNL A   1      41.188  27.623  28.845  1.00  0.00    -0.354 N 
ATOM     37  C   UNL A   1      44.923  26.819  26.875  1.00  0.00     0.074 A 
ATOM     38  C   UNL A   1      45.012  25.429  26.483  1.00  0.00     0.031 C 
ATOM     39  C   UNL A   1      39.131  27.177  29.591  1.00  0.00     0.029 A 
ATOM     40  C   UNL A   1      40.149  28.225  29.512  1.00  0.00     0.049 A 
ATOM     41  H   UNL A   1      42.016  28.095  28.600  1.00  0.00     0.167 HD
ATOM     42  C   UNL A   1      45.887  27.739  26.632  1.00  0.00     0.037 A 
ATOM     43  C   UNL A   1      40.043  29.472  30.015  1.00  0.00     0.037 A 
ATOM     44  C   UNL A   1      45.831  29.109  27.066  1.00  0.00     0.049 A 
ATOM     45  C   UNL A   1      41.172  30.456  29.828  1.00  0.00     0.074 A 
ATOM     46  C   UNL A   1      46.773  30.108  26.895  1.00  0.00     0.029 A 
ATOM     47  N   UNL A   1      44.781  29.669  27.781  1.00  0.00    -0.354 N 
ATOM     48  N   UNL A   1      42.316  30.300  29.207  1.00  0.00    -0.248 NA
ATOM     49  C   UNL A   1      40.985  31.798  30.404  1.00  0.00     0.031 C 
ATOM     50  C   UNL A   1      46.320  31.256  27.557  1.00  0.00     0.029 A 
ATOM     51  C   UNL A   1      45.064  30.993  28.078  1.00  0.00     0.049 A 
ATOM     52  H   UNL A   1      43.958  29.195  28.038  1.00  0.00     0.167 HD
ATOM     53  C   UNL A   1      42.967  31.527  29.284  1.00  0.00     0.074 A 
ATOM     54  C   UNL A   1      42.087  32.421  30.006  1.00  0.00     0.031 C 
ATOM     55  C   UNL A   1      44.180  31.883  28.791  1.00  0.00     0.037 A 
BRANCH  42  56
ATOM     56  C   UNL A   1      47.107  27.257  25.901  1.00  0.00     0.057 A 
ATOM     57  C   UNL A   1      47.229  27.373  24.508  1.00  0.00     0.134 A 
ATOM     58  C   UNL A   1      48.156  26.641  26.591  1.00  0.00     0.134 A 
ATOM     59  F   UNL A   1      46.251  27.938  23.784  1.00  0.00    -0.206 F 
ATOM     60  C   UNL A   1      48.330  26.852  23.826  1.00  0.00     0.040 A 
ATOM     61  C   UNL A   1      49.278  26.145  25.924  1.00  0.00     0.040 A 
ATOM     62  F   UNL A   1      48.107  26.500  27.924  1.00  0.00    -0.206 F 
ATOM     63  C   UNL A   1      49.359  26.237  24.536  1.00  0.00     0.006 A 
ENDBRANCH  42  56
BRANCH  43  64
ATOM     64  C   UNL A   1      38.822  29.866  30.767  1.00  0.00     0.057 A 
ATOM     65  C   UNL A   1      38.670  29.573  32.127  1.00  0.00     0.134 A 
ATOM     66  C   UNL A   1      37.760  30.518  30.127  1.00  0.00     0.134 A 
ATOM     67  F   UNL A   1      39.637  28.923  32.790  1.00  0.00    -0.206 F 
ATOM     68  C   UNL A   1      37.502  29.901  32.821  1.00  0.00     0.040 A 
ATOM     69  C   UNL A   1      36.598  30.876  30.815  1.00  0.00     0.040 A 
ATOM     70  F   UNL A   1      37.837  30.821  28.823  1.00  0.00    -0.206 F 
ATOM     71  C   UNL A   1      36.465  30.560  32.165  1.00  0.00     0.006 A 
ENDBRANCH  43  64
BRANCH  55  72
ATOM     72  C   UNL A   1      44.611  33.316  28.958  1.00  0.00     0.057 A 
ATOM     73  C   UNL A   1      44.325  34.304  28.007  1.00  0.00     0.134 A 
ATOM     74  C   UNL A   1      45.288  33.719  30.118  1.00  0.00     0.134 A 
ATOM     75  F   UNL A   1      43.687  33.990  26.870  1.00  0.00    -0.206 F 
ATOM     76  C   UNL A   1      44.723  35.631  28.189  1.00  0.00     0.040 A 
ATOM     77  C   UNL A   1      45.663  35.047  30.326  1.00  0.00     0.040 A 
ATOM     78  F   UNL A   1      45.585  32.829  31.078  1.00  0.00    -0.206 F 
ATOM     79  C   UNL A   1      45.388  36.007  29.356  1.00  0.00     0.006 A 
ENDBRANCH  55  72
ENDBRANCH  29  30
ENDBRANCH  22  24
ENDBRANCH  21  22
ENDBRANCH  20  21
ENDBRANCH   1  20
TORSDOF 15
ENDMDL
MODEL 2
REMARK VINA RESULT:     -10.9      5.286     10.403
REMARK SMILES COc1ccc(OCc2cccs2)c(C(=O)OCCOC(=O)c2ccc(-c3c4nc(c(-c5c(F)cccc5F)c5ccc([nH]5)c(-c5c(F)cccc5F)c5nc(c(-c6c(F)cccc6F)c6ccc3[nH]6)C=C5)C=C4)cc2)c1
REMARK SMILES IDX 18 1 17 2 15 3 16 4 14 5 3 6 4 7 77 8 5 9 6 10 2 11 1 12
REMARK SMILES IDX 7 13 8 14 9 15 10 16 13 17 11 18 12 19 19 20 20 21 21 22
REMARK SMILES IDX 22 23 23 24 24 25 76 26 25 27 75 28 26 29 27 30 28 31 69 32
REMARK SMILES IDX 29 33 74 34 68 35 70 36 30 37 73 38 67 39 66 40 31 42 57 43
REMARK SMILES IDX 40 44 56 45 41 46 44 47 55 48 71 49 42 50 43 51 54 53 72 54
REMARK SMILES IDX 45 55 32 56 33 57 38 58 34 59 35 60 37 61 39 62 36 63 58 64
REMARK SMILES IDX 59 65 64 66 60 67 61 68 63 69 65 70 62 71 46 72 47 73 52 74
REMARK SMILES IDX 48 75 49 76 51 77 53 78 50 79
REMARK H PARENT 70 41 44 52
REMARK Flexibility Score: inf
ROOT
ATOM      1  C   UNL A   1      31.994  31.042  26.838  1.00  0.00     0.275 C 
ENDROOT
BRANCH   1   2
ATOM      2  O   UNL A   1      31.658  30.396  25.593  1.00  0.00    -0.458 OA
BRANCH   2   3
ATOM      3  C   UNL A   1      32.322  29.226  25.376  1.00  0.00     0.342 C 
ATOM      4  O   UNL A   1      33.531  29.147  25.453  1.00  0.00    -0.246 OA
BRANCH   3   5
ATOM      5  C   UNL A   1      31.402  28.066  25.139  1.00  0.00     0.105 A 
ATOM      6  C   UNL A   1      30.662  25.857  25.912  1.00  0.00     0.119 A 
ATOM      7  C   UNL A   1      29.981  25.652  24.726  1.00  0.00     0.050 A 
ATOM      8  C   UNL A   1      31.403  27.025  26.100  1.00  0.00     0.066 A 
ATOM      9  C   UNL A   1      29.931  26.680  23.794  1.00  0.00     0.051 A 
ATOM     10  C   UNL A   1      30.576  27.920  24.004  1.00  0.00     0.134 A 
BRANCH   6  11
ATOM     11  O   UNL A   1      30.620  24.855  26.839  1.00  0.00    -0.497 OA
ATOM     12  C   UNL A   1      31.791  24.038  26.778  1.00  0.00     0.278 C 
ENDBRANCH   6  11
BRANCH  10  13
ATOM     13  O   UNL A   1      30.190  28.767  23.010  1.00  0.00    -0.487 OA
BRANCH  13  14
ATOM     14  C   UNL A   1      28.876  29.056  22.542  1.00  0.00     0.276 C 
BRANCH  14  15
ATOM     15  C   UNL A   1      28.666  30.501  22.180  1.00  0.00     0.042 A 
ATOM     16  C   UNL A   1      28.255  31.107  21.006  1.00  0.00     0.019 A 
ATOM     17  S   UNL A   1      28.880  31.672  23.426  1.00  0.00    -0.145 S 
ATOM     18  C   UNL A   1      27.978  32.494  21.173  1.00  0.00     0.012 A 
ATOM     19  C   UNL A   1      28.288  32.933  22.439  1.00  0.00     0.065 A 
ENDBRANCH  14  15
ENDBRANCH  13  14
ENDBRANCH  10  13
ENDBRANCH   3   5
ENDBRANCH   2   3
ENDBRANCH   1   2
BRANCH   1  20
ATOM     20  C   UNL A   1      31.692  32.551  26.857  1.00  0.00     0.275 C 
BRANCH  20  21
ATOM     21  O   UNL A   1      32.874  33.378  26.807  1.00  0.00    -0.458 OA
BRANCH  21  22
ATOM     22  C   UNL A   1      33.335  33.793  28.014  1.00  0.00     0.338 C 
ATOM     23  O   UNL A   1      32.741  34.510  28.804  1.00  0.00    -0.246 OA
BRANCH  22  24
ATOM     24  C   UNL A   1      34.610  33.118  28.363  1.00  0.00     0.060 A 
ATOM     25  C   UNL A   1      34.540  31.766  28.722  1.00  0.00     0.016 A 
ATOM     26  C   UNL A   1      35.845  33.773  28.378  1.00  0.00     0.016 A 
ATOM     27  C   UNL A   1      35.689  31.059  29.076  1.00  0.00     0.010 A 
ATOM     28  C   UNL A   1      36.996  33.075  28.781  1.00  0.00     0.010 A 
ATOM     29  C   UNL A   1      36.921  31.718  29.145  1.00  0.00    -0.014 A 
BRANCH  29  30
ATOM     30  C   UNL A   1      38.057  31.032  29.814  1.00  0.00     0.031 A 
ATOM     31  C   UNL A   1      38.336  31.362  31.255  1.00  0.00     0.074 A 
ATOM     32  C   UNL A   1      38.793  30.093  29.195  1.00  0.00     0.049 A 
ATOM     33  N   UNL A   1      39.239  30.870  32.065  1.00  0.00    -0.248 NA
ATOM     34  C   UNL A   1      37.470  32.384  31.861  1.00  0.00     0.031 C 
ATOM     35  C   UNL A   1      38.605  29.637  27.820  1.00  0.00     0.029 A 
ATOM     36  N   UNL A   1      39.856  29.351  29.655  1.00  0.00    -0.354 N 
ATOM     37  C   UNL A   1      39.036  31.508  33.282  1.00  0.00     0.074 A 
ATOM     38  C   UNL A   1      37.955  32.451  33.089  1.00  0.00     0.031 C 
ATOM     39  C   UNL A   1      39.534  28.704  27.541  1.00  0.00     0.029 A 
ATOM     40  C   UNL A   1      40.394  28.513  28.710  1.00  0.00     0.049 A 
ATOM     41  H   UNL A   1      40.198  29.415  30.575  1.00  0.00     0.167 HD
ATOM     42  C   UNL A   1      39.682  31.324  34.458  1.00  0.00     0.037 A 
ATOM     43  C   UNL A   1      41.469  27.700  28.776  1.00  0.00     0.037 A 
ATOM     44  C   UNL A   1      40.792  30.428  34.644  1.00  0.00     0.049 A 
ATOM     45  C   UNL A   1      42.245  27.586  30.065  1.00  0.00     0.074 A 
ATOM     46  C   UNL A   1      41.531  30.196  35.790  1.00  0.00     0.029 A 
ATOM     47  N   UNL A   1      41.338  29.630  33.649  1.00  0.00    -0.354 N 
ATOM     48  N   UNL A   1      42.034  28.175  31.218  1.00  0.00    -0.248 NA
ATOM     49  C   UNL A   1      43.405  26.680  30.064  1.00  0.00     0.031 C 
ATOM     50  C   UNL A   1      42.562  29.304  35.474  1.00  0.00     0.029 A 
ATOM     51  C   UNL A   1      42.420  28.923  34.150  1.00  0.00     0.049 A 
ATOM     52  H   UNL A   1      41.006  29.574  32.724  1.00  0.00     0.167 HD
ATOM     53  C   UNL A   1      43.005  27.685  32.086  1.00  0.00     0.074 A 
ATOM     54  C   UNL A   1      43.804  26.745  31.328  1.00  0.00     0.031 C 
ATOM     55  C   UNL A   1      43.209  27.981  33.393  1.00  0.00     0.037 A 
BRANCH  42  56
ATOM     56  C   UNL A   1      39.220  32.159  35.617  1.00  0.00     0.057 A 
ATOM     57  C   UNL A   1      38.300  31.675  36.559  1.00  0.00     0.134 A 
ATOM     58  C   UNL A   1      39.673  33.474  35.775  1.00  0.00     0.134 A 
ATOM     59  F   UNL A   1      37.811  30.430  36.455  1.00  0.00    -0.206 F 
ATOM     60  C   UNL A   1      37.814  32.485  37.587  1.00  0.00     0.040 A 
ATOM     61  C   UNL A   1      39.220  34.282  36.818  1.00  0.00     0.040 A 
ATOM     62  F   UNL A   1      40.557  33.999  34.913  1.00  0.00    -0.206 F 
ATOM     63  C   UNL A   1      38.277  33.792  37.719  1.00  0.00     0.006 A 
ENDBRANCH  42  56
BRANCH  43  64
ATOM     64  C   UNL A   1      41.895  26.935  27.574  1.00  0.00     0.057 A 
ATOM     65  C   UNL A   1      42.714  27.504  26.592  1.00  0.00     0.134 A 
ATOM     66  C   UNL A   1      41.461  25.619  27.366  1.00  0.00     0.134 A 
ATOM     67  F   UNL A   1      43.138  28.770  26.718  1.00  0.00    -0.206 F 
ATOM     68  C   UNL A   1      43.074  26.801  25.440  1.00  0.00     0.040 A 
ATOM     69  C   UNL A   1      41.836  24.895  26.232  1.00  0.00     0.040 A 
ATOM     70  F   UNL A   1      40.668  25.017  28.263  1.00  0.00    -0.206 F 
ATOM     71  C   UNL A   1      42.638  25.490  25.262  1.00  0.00     0.006 A 
ENDBRANCH  43  64
BRANCH  55  72
ATOM     72  C   UNL A   1      44.302  27.240  34.116  1.00  0.00     0.057 A 
ATOM     73  C   UNL A   1      45.612  27.730  34.207  1.00  0.00     0.134 A 
ATOM     74  C   UNL A   1      44.024  26.032  34.772  1.00  0.00     0.134 A 
ATOM     75  F   UNL A   1      45.952  28.876  33.597  1.00  0.00    -0.206 F 
ATOM     76  C   UNL A   1      46.608  27.033  34.895  1.00  0.00     0.040 A 
ATOM     77  C   UNL A   1      45.002  25.342  35.490  1.00  0.00     0.040 A 
ATOM     78  F   UNL A   1      42.789  25.509  34.740  1.00  0.00    -0.206 F 
ATOM     79  C   UNL A   1      46.302  25.839  35.545  1.00  0.00     0.006 A 
ENDBRANCH  55  72
ENDBRANCH  29  30
ENDBRANCH  22  24
ENDBRANCH  21  22
ENDBRANCH  20  21
ENDBRANCH   1  20
TORSDOF 15
ENDMDL
MODEL 3
REMARK VINA RESULT:     -10.7      0.392      1.429
REMARK SMILES COc1ccc(OCc2cccs2)c(C(=O)OCCOC(=O)c2ccc(-c3c4nc(c(-c5c(F)cccc5F)c5ccc([nH]5)c(-c5c(F)cccc5F)c5nc(c(-c6c(F)cccc6F)c6ccc3[nH]6)C=C5)C=C4)cc2)c1
REMARK SMILES IDX 18 1 17 2 15 3 16 4 14 5 3 6 4 7 77 8 5 9 6 10 2 11 1 12
REMARK SMILES IDX 7 13 8 14 9 15 10 16 13 17 11 18 12 19 19 20 20 21 21 22
REMARK SMILES IDX 22 23 23 24 24 25 76 26 25 27 75 28 26 29 27 30 28 31 69 32
REMARK SMILES IDX 29 33 74 34 68 35 70 36 30 37 73 38 67 39 66 40 31 42 57 43
REMARK SMILES IDX 40 44 56 45 41 46 44 47 55 48 71 49 42 50 43 51 54 53 72 54
REMARK SMILES IDX 45 55 32 56 33 57 38 58 34 59 35 60 37 61 39 62 36 63 58 64
REMARK SMILES IDX 59 65 64 66 60 67 61 68 63 69 65 70 62 71 46 72 47 73 52 74
REMARK SMILES IDX 48 75 49 76 51 77 53 78 50 79
REMARK H PARENT 70 41 44 52
REMARK Flexibility Score: inf
ROOT
ATOM      1  C   UNL A   1      37.136  20.263  25.034  1.00  0.00     0.275 C 
ENDROOT
BRANCH   1   2
ATOM      2  O   UNL A   1      36.969  21.436  24.212  1.00  0.00    -0.458 OA
BRANCH   2   3
ATOM      3  C   UNL A   1      36.252  22.432  24.804  1.00  0.00     0.342 C 
ATOM      4  O   UNL A   1      36.669  23.042  25.767  1.00  0.00    -0.246 OA
BRANCH   3   5
ATOM      5  C   UNL A   1      34.973  22.741  24.084  1.00  0.00     0.105 A 
ATOM      6  C   UNL A   1      33.724  24.386  22.759  1.00  0.00     0.119 A 
ATOM      7  C   UNL A   1      32.560  23.659  22.922  1.00  0.00     0.050 A 
ATOM      8  C   UNL A   1      34.906  23.963  23.370  1.00  0.00     0.066 A 
ATOM      9  C   UNL A   1      32.619  22.436  23.578  1.00  0.00     0.051 A 
ATOM     10  C   UNL A   1      33.824  21.923  24.109  1.00  0.00     0.134 A 
BRANCH   6  11
ATOM     11  O   UNL A   1      33.642  25.544  22.038  1.00  0.00    -0.497 OA
ATOM     12  C   UNL A   1      32.646  25.454  21.017  1.00  0.00     0.278 C 
ENDBRANCH   6  11
BRANCH  10  13
ATOM     13  O   UNL A   1      33.591  20.645  24.517  1.00  0.00    -0.487 OA
BRANCH  13  14
ATOM     14  C   UNL A   1      32.783  19.645  23.905  1.00  0.00     0.276 C 
BRANCH  14  15
ATOM     15  C   UNL A   1      32.969  18.272  24.493  1.00  0.00     0.042 A 
ATOM     16  C   UNL A   1      32.601  17.736  25.714  1.00  0.00     0.019 A 
ATOM     17  S   UNL A   1      33.692  17.069  23.493  1.00  0.00    -0.145 S 
ATOM     18  C   UNL A   1      32.779  16.323  25.769  1.00  0.00     0.012 A 
ATOM     19  C   UNL A   1      33.376  15.835  24.630  1.00  0.00     0.065 A 
ENDBRANCH  14  15
ENDBRANCH  13  14
ENDBRANCH  10  13
ENDBRANCH   3   5
ENDBRANCH   2   3
ENDBRANCH   1   2
BRANCH   1  20
ATOM     20  C   UNL A   1      38.560  19.678  24.999  1.00  0.00     0.275 C 
BRANCH  20  21
ATOM     21  O   UNL A   1      39.199  19.636  26.292  1.00  0.00    -0.458 OA
BRANCH  21  22
ATOM     22  C   UNL A   1      40.529  19.907  26.284  1.00  0.00     0.338 C 
ATOM     23  O   UNL A   1      41.400  19.223  25.768  1.00  0.00    -0.246 OA
BRANCH  22  24
ATOM     24  C   UNL A   1      40.806  21.257  26.833  1.00  0.00     0.060 A 
ATOM     25  C   UNL A   1      40.171  22.341  26.212  1.00  0.00     0.016 A 
ATOM     26  C   UNL A   1      41.679  21.486  27.900  1.00  0.00     0.016 A 
ATOM     27  C   UNL A   1      40.386  23.646  26.658  1.00  0.00     0.010 A 
ATOM     28  C   UNL A   1      41.932  22.803  28.318  1.00  0.00     0.010 A 
ATOM     29  C   UNL A   1      41.297  23.891  27.690  1.00  0.00    -0.014 A 
BRANCH  29  30
ATOM     30  C   UNL A   1      41.735  25.290  27.934  1.00  0.00     0.031 A 
ATOM     31  C   UNL A   1      43.084  25.711  27.419  1.00  0.00     0.074 A 
ATOM     32  C   UNL A   1      40.945  26.194  28.539  1.00  0.00     0.049 A 
ATOM     33  N   UNL A   1      43.670  26.881  27.470  1.00  0.00    -0.248 NA
ATOM     34  C   UNL A   1      43.874  24.666  26.751  1.00  0.00     0.031 C 
ATOM     35  C   UNL A   1      39.598  25.941  29.043  1.00  0.00     0.029 A 
ATOM     36  N   UNL A   1      41.172  27.518  28.830  1.00  0.00    -0.354 N 
ATOM     37  C   UNL A   1      44.887  26.717  26.822  1.00  0.00     0.074 A 
ATOM     38  C   UNL A   1      44.973  25.327  26.428  1.00  0.00     0.031 C 
ATOM     39  C   UNL A   1      39.123  27.071  29.598  1.00  0.00     0.029 A 
ATOM     40  C   UNL A   1      40.140  28.119  29.508  1.00  0.00     0.049 A 
ATOM     41  H   UNL A   1      41.997  27.991  28.577  1.00  0.00     0.167 HD
ATOM     42  C   UNL A   1      45.848  27.638  26.569  1.00  0.00     0.037 A 
ATOM     43  C   UNL A   1      40.038  29.367  30.013  1.00  0.00     0.037 A 
ATOM     44  C   UNL A   1      45.795  29.008  27.003  1.00  0.00     0.049 A 
ATOM     45  C   UNL A   1      41.164  30.352  29.814  1.00  0.00     0.074 A 
ATOM     46  C   UNL A   1      46.734  30.008  26.822  1.00  0.00     0.029 A 
ATOM     47  N   UNL A   1      44.752  29.567  27.728  1.00  0.00    -0.354 N 
ATOM     48  N   UNL A   1      42.302  30.196  29.181  1.00  0.00    -0.248 NA
ATOM     49  C   UNL A   1      40.982  31.693  30.391  1.00  0.00     0.031 C 
ATOM     50  C   UNL A   1      46.287  31.155  27.488  1.00  0.00     0.029 A 
ATOM     51  C   UNL A   1      45.037  30.891  28.023  1.00  0.00     0.049 A 
ATOM     52  H   UNL A   1      43.932  29.093  27.995  1.00  0.00     0.167 HD
ATOM     53  C   UNL A   1      42.953  31.424  29.250  1.00  0.00     0.074 A 
ATOM     54  C   UNL A   1      42.079  32.317  29.982  1.00  0.00     0.031 C 
ATOM     55  C   UNL A   1      44.160  31.780  28.745  1.00  0.00     0.037 A 
BRANCH  42  56
ATOM     56  C   UNL A   1      47.060  27.157  25.824  1.00  0.00     0.057 A 
ATOM     57  C   UNL A   1      48.103  26.475  26.469  1.00  0.00     0.134 A 
ATOM     58  C   UNL A   1      47.203  27.407  24.455  1.00  0.00     0.134 A 
ATOM     59  F   UNL A   1      48.038  26.220  27.785  1.00  0.00    -0.206 F 
ATOM     60  C   UNL A   1      49.262  26.102  25.787  1.00  0.00     0.040 A 
ATOM     61  C   UNL A   1      48.343  27.010  23.755  1.00  0.00     0.040 A 
ATOM     62  F   UNL A   1      46.242  28.050  23.776  1.00  0.00    -0.206 F 
ATOM     63  C   UNL A   1      49.382  26.368  24.425  1.00  0.00     0.006 A 
ENDBRANCH  42  56
BRANCH  43  64
ATOM     64  C   UNL A   1      38.824  29.760  30.777  1.00  0.00     0.057 A 
ATOM     65  C   UNL A   1      37.762  30.439  30.170  1.00  0.00     0.134 A 
ATOM     66  C   UNL A   1      38.716  29.492  32.148  1.00  0.00     0.134 A 
ATOM     67  F   UNL A   1      37.817  30.753  28.868  1.00  0.00    -0.206 F 
ATOM     68  C   UNL A   1      36.643  30.851  30.899  1.00  0.00     0.040 A 
ATOM     69  C   UNL A   1      37.592  29.873  32.883  1.00  0.00     0.040 A 
ATOM     70  F   UNL A   1      39.702  28.851  32.793  1.00  0.00    -0.206 F 
ATOM     71  C   UNL A   1      36.555  30.561  32.260  1.00  0.00     0.006 A 
ENDBRANCH  43  64
BRANCH  55  72
ATOM     72  C   UNL A   1      44.591  33.214  28.908  1.00  0.00     0.057 A 
ATOM     73  C   UNL A   1      44.276  34.206  27.970  1.00  0.00     0.134 A 
ATOM     74  C   UNL A   1      45.300  33.613  30.050  1.00  0.00     0.134 A 
ATOM     75  F   UNL A   1      43.608  33.896  26.850  1.00  0.00    -0.206 F 
ATOM     76  C   UNL A   1      44.676  35.534  28.148  1.00  0.00     0.040 A 
ATOM     77  C   UNL A   1      45.676  34.941  30.255  1.00  0.00     0.040 A 
ATOM     78  F   UNL A   1      45.626  32.719  30.997  1.00  0.00    -0.206 F 
ATOM     79  C   UNL A   1      45.371  35.905  29.298  1.00  0.00     0.006 A 
ENDBRANCH  55  72
ENDBRANCH  29  30
ENDBRANCH  22  24
ENDBRANCH  21  22
ENDBRANCH  20  21
ENDBRANCH   1  20
TORSDOF 15
ENDMDL
