MODEL 1
REMARK VINA RESULT:     -12.4      0.000      0.000
REMARK SMILES CCOc1cc2c(cc1/C=C1/C(=O)N(c3cccc(C(=O)OCCOC(=O)c4ccc(-c5c6nc(c(-c7c(F)cccc7F)c7ccc([nH]7)c(-c7c(F)cccc7F)c7nc(c(-c8c(F)cccc8F)c8ccc5[nH]8)C=C7)C=C6)cc4)c3)C(=S)N=C1O)OCO2
REMARK SMILES IDX 23 1 22 2 20 3 21 4 19 5 15 6 16 7 82 8 17 9 18 10 14 11
REMARK SMILES IDX 10 12 11 13 12 14 86 15 13 16 85 17 83 18 84 19 9 20 4 21
REMARK SMILES IDX 5 22 6 23 8 24 7 25 90 26 88 27 89 28 3 29 2 30 1 31 87 32
REMARK SMILES IDX 24 34 25 35 26 36 27 37 28 38 29 39 81 40 30 41 80 42 31 43
REMARK SMILES IDX 32 44 33 45 74 46 34 47 79 48 73 49 75 50 35 51 78 52 72 53
REMARK SMILES IDX 71 54 36 56 62 57 45 58 61 59 46 60 49 61 60 62 76 63 47 64
REMARK SMILES IDX 48 65 59 67 77 68 50 69 37 70 38 71 43 72 39 73 40 74 42 75
REMARK SMILES IDX 44 76 41 77 63 78 64 79 69 80 65 81 66 82 68 83 70 84 67 85
REMARK SMILES IDX 51 86 52 87 57 88 53 89 54 90 56 91 58 92 55 93
REMARK H PARENT 87 33 75 55 49 66
REMARK Flexibility Score: inf
ROOT
ATOM      1  C   UNL A   1      40.851  21.014  26.623  1.00  0.00     0.275 C 
ENDROOT
BRANCH   1   2
ATOM      2  O   UNL A   1      39.784  21.392  25.732  1.00  0.00    -0.458 OA
BRANCH   2   3
ATOM      3  C   UNL A   1      38.904  22.320  26.192  1.00  0.00     0.338 C 
ATOM      4  O   UNL A   1      39.170  23.354  26.772  1.00  0.00    -0.246 OA
BRANCH   3   5
ATOM      5  C   UNL A   1      37.533  21.962  25.746  1.00  0.00     0.062 A 
ATOM      6  C   UNL A   1      35.152  22.386  25.674  1.00  0.00     0.052 A 
ATOM      7  C   UNL A   1      34.963  21.178  24.983  1.00  0.00     0.027 A 
ATOM      8  C   UNL A   1      36.439  22.753  26.086  1.00  0.00     0.042 A 
ATOM      9  C   UNL A   1      36.058  20.397  24.625  1.00  0.00     0.003 A 
ATOM     10  C   UNL A   1      37.343  20.814  24.965  1.00  0.00     0.016 A 
BRANCH   6  11
ATOM     11  N   UNL A   1      34.066  23.311  25.806  1.00  0.00    -0.251 N 
ATOM     12  C   UNL A   1      32.922  26.402  24.254  1.00  0.00     0.031 C 
ATOM     13  C   UNL A   1      32.845  25.233  24.930  1.00  0.00     0.103 C 
ATOM     14  C   UNL A   1      34.037  24.345  24.855  1.00  0.00     0.270 C 
ATOM     15  C   UNL A   1      31.754  24.672  25.720  1.00  0.00     0.226 C 
ATOM     16  O   UNL A   1      34.891  24.528  23.985  1.00  0.00    -0.268 OA
ATOM     17  N   UNL A   1      31.833  23.714  26.561  1.00  0.00    -0.184 NA
ATOM     18  C   UNL A   1      33.055  23.118  26.769  1.00  0.00     0.210 C 
ATOM     19  S   UNL A   1      33.260  22.215  28.193  1.00  0.00    -0.038 S 
BRANCH  12  20
ATOM     20  C   UNL A   1      31.926  27.481  24.111  1.00  0.00     0.021 A 
ATOM     21  C   UNL A   1      31.993  28.648  24.918  1.00  0.00     0.130 A 
ATOM     22  C   UNL A   1      31.193  29.764  24.652  1.00  0.00     0.097 A 
ATOM     23  C   UNL A   1      30.264  29.654  23.647  1.00  0.00     0.169 A 
ATOM     24  C   UNL A   1      30.882  27.376  23.182  1.00  0.00     0.062 A 
ATOM     25  C   UNL A   1      30.097  28.485  22.949  1.00  0.00     0.166 A 
ATOM     26  O   UNL A   1      29.423  30.635  23.228  1.00  0.00    -0.453 OA
ATOM     27  O   UNL A   1      29.124  28.580  22.003  1.00  0.00    -0.454 OA
ATOM     28  C   UNL A   1      28.772  29.974  22.123  1.00  0.00     0.468 C 
BRANCH  21  29
ATOM     29  O   UNL A   1      32.902  28.750  25.946  1.00  0.00    -0.493 OA
BRANCH  29  30
ATOM     30  C   UNL A   1      32.249  29.005  27.205  1.00  0.00     0.226 C 
ATOM     31  C   UNL A   1      31.403  27.827  27.669  1.00  0.00     0.049 C 
ENDBRANCH  29  30
ENDBRANCH  21  29
ENDBRANCH  12  20
BRANCH  15  32
ATOM     32  O   UNL A   1      30.533  25.159  25.504  1.00  0.00    -0.493 OA
ATOM     33  H   UNL A   1      29.923  25.225  26.213  1.00  0.00     0.295 HD
ENDBRANCH  15  32
ENDBRANCH   6  11
ENDBRANCH   3   5
ENDBRANCH   2   3
ENDBRANCH   1   2
BRANCH   1  34
ATOM     34  C   UNL A   1      42.201  21.433  26.044  1.00  0.00     0.275 C 
BRANCH  34  35
ATOM     35  O   UNL A   1      42.063  22.695  25.369  1.00  0.00    -0.458 OA
BRANCH  35  36
ATOM     36  C   UNL A   1      43.077  23.577  25.532  1.00  0.00     0.338 C 
ATOM     37  O   UNL A   1      44.129  23.633  24.920  1.00  0.00    -0.246 OA
BRANCH  36  38
ATOM     38  C   UNL A   1      42.689  24.550  26.563  1.00  0.00     0.060 A 
ATOM     39  C   UNL A   1      43.137  25.861  26.431  1.00  0.00     0.016 A 
ATOM     40  C   UNL A   1      41.968  24.171  27.689  1.00  0.00     0.016 A 
ATOM     41  C   UNL A   1      42.921  26.792  27.439  1.00  0.00     0.010 A 
ATOM     42  C   UNL A   1      41.659  25.135  28.659  1.00  0.00     0.010 A 
ATOM     43  C   UNL A   1      42.139  26.455  28.549  1.00  0.00    -0.014 A 
BRANCH  43  44
ATOM     44  C   UNL A   1      41.809  27.484  29.572  1.00  0.00     0.031 A 
ATOM     45  C   UNL A   1      42.584  27.554  30.858  1.00  0.00     0.074 A 
ATOM     46  C   UNL A   1      40.804  28.358  29.354  1.00  0.00     0.049 A 
ATOM     47  N   UNL A   1      42.317  28.223  31.950  1.00  0.00    -0.248 NA
ATOM     48  C   UNL A   1      43.820  26.760  30.928  1.00  0.00     0.031 C 
ATOM     49  C   UNL A   1      40.006  28.447  28.127  1.00  0.00     0.029 A 
ATOM     50  N   UNL A   1      40.276  29.338  30.159  1.00  0.00    -0.354 N 
ATOM     51  C   UNL A   1      43.320  27.892  32.853  1.00  0.00     0.074 A 
ATOM     52  C   UNL A   1      44.202  26.961  32.181  1.00  0.00     0.031 C 
ATOM     53  C   UNL A   1      39.112  29.437  28.252  1.00  0.00     0.029 A 
ATOM     54  C   UNL A   1      39.198  29.984  29.599  1.00  0.00     0.049 A 
ATOM     55  H   UNL A   1      40.634  29.557  31.050  1.00  0.00     0.167 HD
ATOM     56  C   UNL A   1      43.480  28.322  34.128  1.00  0.00     0.037 A 
ATOM     57  C   UNL A   1      38.331  30.869  30.127  1.00  0.00     0.037 A 
ATOM     58  C   UNL A   1      42.620  29.280  34.774  1.00  0.00     0.049 A 
ATOM     59  C   UNL A   1      38.480  31.266  31.567  1.00  0.00     0.074 A 
ATOM     60  C   UNL A   1      42.715  29.801  36.053  1.00  0.00     0.029 A 
ATOM     61  N   UNL A   1      41.507  29.864  34.187  1.00  0.00    -0.354 N 
ATOM     62  N   UNL A   1      39.403  30.913  32.428  1.00  0.00    -0.248 NA
ATOM     63  C   UNL A   1      37.450  32.156  32.118  1.00  0.00     0.031 C 
ATOM     64  C   UNL A   1      41.633  30.664  36.256  1.00  0.00     0.029 A 
ATOM     65  C   UNL A   1      40.887  30.714  35.089  1.00  0.00     0.049 A 
ATOM     66  H   UNL A   1      41.201  29.698  33.265  1.00  0.00     0.167 HD
ATOM     67  C   UNL A   1      39.069  31.539  33.620  1.00  0.00     0.074 A 
ATOM     68  C   UNL A   1      37.871  32.315  33.365  1.00  0.00     0.031 C 
ATOM     69  C   UNL A   1      39.692  31.471  34.821  1.00  0.00     0.037 A 
BRANCH  56  70
ATOM     70  C   UNL A   1      44.606  27.731  34.928  1.00  0.00     0.057 A 
ATOM     71  C   UNL A   1      44.457  26.556  35.674  1.00  0.00     0.134 A 
ATOM     72  C   UNL A   1      45.872  28.331  34.913  1.00  0.00     0.134 A 
ATOM     73  F   UNL A   1      43.268  25.938  35.740  1.00  0.00    -0.206 F 
ATOM     74  C   UNL A   1      45.522  26.010  36.393  1.00  0.00     0.040 A 
ATOM     75  C   UNL A   1      46.950  27.781  35.608  1.00  0.00     0.040 A 
ATOM     76  F   UNL A   1      46.085  29.455  34.212  1.00  0.00    -0.206 F 
ATOM     77  C   UNL A   1      46.775  26.619  36.356  1.00  0.00     0.006 A 
ENDBRANCH  56  70
BRANCH  57  78
ATOM     78  C   UNL A   1      37.199  31.375  29.308  1.00  0.00     0.057 A 
ATOM     79  C   UNL A   1      36.070  30.585  29.066  1.00  0.00     0.134 A 
ATOM     80  C   UNL A   1      37.215  32.661  28.754  1.00  0.00     0.134 A 
ATOM     81  F   UNL A   1      36.006  29.334  29.546  1.00  0.00    -0.206 F 
ATOM     82  C   UNL A   1      35.001  31.055  28.302  1.00  0.00     0.040 A 
ATOM     83  C   UNL A   1      36.142  33.155  28.014  1.00  0.00     0.040 A 
ATOM     84  F   UNL A   1      38.270  33.469  28.947  1.00  0.00    -0.206 F 
ATOM     85  C   UNL A   1      35.031  32.347  27.781  1.00  0.00     0.006 A 
ENDBRANCH  57  78
BRANCH  69  86
ATOM     86  C   UNL A   1      39.094  32.263  35.945  1.00  0.00     0.057 A 
ATOM     87  C   UNL A   1      38.183  31.690  36.842  1.00  0.00     0.134 A 
ATOM     88  C   UNL A   1      39.461  33.598  36.156  1.00  0.00     0.134 A 
ATOM     89  F   UNL A   1      37.780  30.419  36.682  1.00  0.00    -0.206 F 
ATOM     90  C   UNL A   1      37.647  32.421  37.901  1.00  0.00     0.040 A 
ATOM     91  C   UNL A   1      38.949  34.332  37.226  1.00  0.00     0.040 A 
ATOM     92  F   UNL A   1      40.332  34.203  35.335  1.00  0.00    -0.206 F 
ATOM     93  C   UNL A   1      38.037  33.745  38.100  1.00  0.00     0.006 A 
ENDBRANCH  69  86
ENDBRANCH  43  44
ENDBRANCH  36  38
ENDBRANCH  35  36
ENDBRANCH  34  35
ENDBRANCH   1  34
TORSDOF 16
ENDMDL
MODEL 2
REMARK VINA RESULT:     -12.4      4.686      9.830
REMARK SMILES CCOc1cc2c(cc1/C=C1/C(=O)N(c3cccc(C(=O)OCCOC(=O)c4ccc(-c5c6nc(c(-c7c(F)cccc7F)c7ccc([nH]7)c(-c7c(F)cccc7F)c7nc(c(-c8c(F)cccc8F)c8ccc5[nH]8)C=C7)C=C6)cc4)c3)C(=S)N=C1O)OCO2
REMARK SMILES IDX 23 1 22 2 20 3 21 4 19 5 15 6 16 7 82 8 17 9 18 10 14 11
REMARK SMILES IDX 10 12 11 13 12 14 86 15 13 16 85 17 83 18 84 19 9 20 4 21
REMARK SMILES IDX 5 22 6 23 8 24 7 25 90 26 88 27 89 28 3 29 2 30 1 31 87 32
REMARK SMILES IDX 24 34 25 35 26 36 27 37 28 38 29 39 81 40 30 41 80 42 31 43
REMARK SMILES IDX 32 44 33 45 74 46 34 47 79 48 73 49 75 50 35 51 78 52 72 53
REMARK SMILES IDX 71 54 36 56 62 57 45 58 61 59 46 60 49 61 60 62 76 63 47 64
REMARK SMILES IDX 48 65 59 67 77 68 50 69 37 70 38 71 43 72 39 73 40 74 42 75
REMARK SMILES IDX 44 76 41 77 63 78 64 79 69 80 65 81 66 82 68 83 70 84 67 85
REMARK SMILES IDX 51 86 52 87 57 88 53 89 54 90 56 91 58 92 55 93
REMARK H PARENT 87 33 75 55 49 66
REMARK Flexibility Score: inf
ROOT
ATOM      1  C   UNL A   1      32.831  30.778  27.351  1.00  0.00     0.275 C 
ENDROOT
BRANCH   1   2
ATOM      2  O   UNL A   1      31.674  30.147  26.768  1.00  0.00    -0.458 OA
BRANCH   2   3
ATOM      3  C   UNL A   1      31.072  30.805  25.743  1.00  0.00     0.338 C 
ATOM      4  O   UNL A   1      30.868  32.000  25.662  1.00  0.00    -0.246 OA
BRANCH   3   5
ATOM      5  C   UNL A   1      30.822  29.856  24.628  1.00  0.00     0.062 A 
ATOM      6  C   UNL A   1      31.484  27.969  23.266  1.00  0.00     0.052 A 
ATOM      7  C   UNL A   1      30.363  28.175  22.445  1.00  0.00     0.027 A 
ATOM      8  C   UNL A   1      31.728  28.839  24.335  1.00  0.00     0.042 A 
ATOM      9  C   UNL A   1      29.447  29.178  22.748  1.00  0.00     0.003 A 
ATOM     10  C   UNL A   1      29.653  29.985  23.866  1.00  0.00     0.016 A 
BRANCH   6  11
ATOM     11  N   UNL A   1      32.274  26.784  23.112  1.00  0.00    -0.251 N 
ATOM     12  C   UNL A   1      32.246  23.329  24.269  1.00  0.00     0.031 C 
ATOM     13  C   UNL A   1      32.521  24.383  23.467  1.00  0.00     0.103 C 
ATOM     14  C   UNL A   1      31.754  25.631  23.727  1.00  0.00     0.270 C 
ATOM     15  C   UNL A   1      33.449  24.495  22.345  1.00  0.00     0.226 C 
ATOM     16  O   UNL A   1      30.730  25.597  24.411  1.00  0.00    -0.268 OA
ATOM     17  N   UNL A   1      33.875  25.574  21.812  1.00  0.00    -0.184 NA
ATOM     18  C   UNL A   1      33.434  26.777  22.313  1.00  0.00     0.210 C 
ATOM     19  S   UNL A   1      34.346  28.164  21.950  1.00  0.00    -0.038 S 
BRANCH  12  20
ATOM     20  C   UNL A   1      32.806  21.964  24.267  1.00  0.00     0.021 A 
ATOM     21  C   UNL A   1      34.009  21.667  24.963  1.00  0.00     0.130 A 
ATOM     22  C   UNL A   1      34.435  20.348  25.148  1.00  0.00     0.097 A 
ATOM     23  C   UNL A   1      33.707  19.354  24.542  1.00  0.00     0.169 A 
ATOM     24  C   UNL A   1      32.171  20.928  23.568  1.00  0.00     0.062 A 
ATOM     25  C   UNL A   1      32.621  19.639  23.754  1.00  0.00     0.166 A 
ATOM     26  O   UNL A   1      33.950  18.020  24.629  1.00  0.00    -0.453 OA
ATOM     27  O   UNL A   1      32.043  18.519  23.241  1.00  0.00    -0.454 OA
ATOM     28  C   UNL A   1      32.834  17.496  23.881  1.00  0.00     0.468 C 
BRANCH  21  29
ATOM     29  O   UNL A   1      34.757  22.663  25.546  1.00  0.00    -0.493 OA
BRANCH  29  30
ATOM     30  C   UNL A   1      36.166  22.468  25.315  1.00  0.00     0.226 C 
ATOM     31  C   UNL A   1      36.685  23.301  24.150  1.00  0.00     0.049 C 
ENDBRANCH  29  30
ENDBRANCH  21  29
ENDBRANCH  12  20
BRANCH  15  32
ATOM     32  O   UNL A   1      33.850  23.362  21.771  1.00  0.00    -0.493 OA
ATOM     33  H   UNL A   1      33.351  22.990  21.070  1.00  0.00     0.295 HD
ENDBRANCH  15  32
ENDBRANCH   6  11
ENDBRANCH   3   5
ENDBRANCH   2   3
ENDBRANCH   1   2
BRANCH   1  34
ATOM     34  C   UNL A   1      34.110  30.105  26.854  1.00  0.00     0.275 C 
BRANCH  34  35
ATOM     35  O   UNL A   1      34.834  29.564  27.974  1.00  0.00    -0.458 OA
BRANCH  35  36
ATOM     36  C   UNL A   1      35.546  30.448  28.711  1.00  0.00     0.338 C 
ATOM     37  O   UNL A   1      35.139  31.433  29.302  1.00  0.00    -0.246 OA
BRANCH  36  38
ATOM     38  C   UNL A   1      36.945  29.999  28.756  1.00  0.00     0.060 A 
ATOM     39  C   UNL A   1      37.688  30.047  27.581  1.00  0.00     0.016 A 
ATOM     40  C   UNL A   1      37.500  29.458  29.910  1.00  0.00     0.016 A 
ATOM     41  C   UNL A   1      38.968  29.509  27.526  1.00  0.00     0.010 A 
ATOM     42  C   UNL A   1      38.828  29.010  29.884  1.00  0.00     0.010 A 
ATOM     43  C   UNL A   1      39.575  29.023  28.689  1.00  0.00    -0.014 A 
BRANCH  43  44
ATOM     44  C   UNL A   1      40.987  28.555  28.657  1.00  0.00     0.031 A 
ATOM     45  C   UNL A   1      42.115  29.517  28.906  1.00  0.00     0.074 A 
ATOM     46  C   UNL A   1      41.264  27.260  28.396  1.00  0.00     0.049 A 
ATOM     47  N   UNL A   1      43.398  29.357  28.711  1.00  0.00    -0.248 NA
ATOM     48  C   UNL A   1      41.748  30.839  29.437  1.00  0.00     0.031 C 
ATOM     49  C   UNL A   1      40.271  26.201  28.196  1.00  0.00     0.029 A 
ATOM     50  N   UNL A   1      42.467  26.611  28.250  1.00  0.00    -0.354 N 
ATOM     51  C   UNL A   1      43.988  30.570  29.045  1.00  0.00     0.074 A 
ATOM     52  C   UNL A   1      42.920  31.458  29.455  1.00  0.00     0.031 C 
ATOM     53  C   UNL A   1      40.900  25.038  27.978  1.00  0.00     0.029 A 
ATOM     54  C   UNL A   1      42.335  25.283  27.917  1.00  0.00     0.049 A 
ATOM     55  H   UNL A   1      43.338  27.054  28.371  1.00  0.00     0.167 HD
ATOM     56  C   UNL A   1      45.299  30.908  29.003  1.00  0.00     0.037 A 
ATOM     57  C   UNL A   1      43.255  24.375  27.539  1.00  0.00     0.037 A 
ATOM     58  C   UNL A   1      46.358  30.004  28.632  1.00  0.00     0.049 A 
ATOM     59  C   UNL A   1      44.690  24.797  27.420  1.00  0.00     0.074 A 
ATOM     60  C   UNL A   1      47.720  30.243  28.587  1.00  0.00     0.029 A 
ATOM     61  N   UNL A   1      46.170  28.685  28.248  1.00  0.00    -0.354 N 
ATOM     62  N   UNL A   1      45.233  25.958  27.693  1.00  0.00    -0.248 NA
ATOM     63  C   UNL A   1      45.634  23.794  26.909  1.00  0.00     0.031 C 
ATOM     64  C   UNL A   1      48.353  29.083  28.128  1.00  0.00     0.029 A 
ATOM     65  C   UNL A   1      47.390  28.107  27.930  1.00  0.00     0.049 A 
ATOM     66  H   UNL A   1      45.300  28.226  28.205  1.00  0.00     0.167 HD
ATOM     67  C   UNL A   1      46.582  25.826  27.391  1.00  0.00     0.074 A 
ATOM     68  C   UNL A   1      46.778  24.464  26.937  1.00  0.00     0.031 C 
ATOM     69  C   UNL A   1      47.566  26.753  27.472  1.00  0.00     0.037 A 
BRANCH  56  70
ATOM     70  C   UNL A   1      45.664  32.328  29.328  1.00  0.00     0.057 A 
ATOM     71  C   UNL A   1      45.696  33.334  28.355  1.00  0.00     0.134 A 
ATOM     72  C   UNL A   1      45.946  32.699  30.650  1.00  0.00     0.134 A 
ATOM     73  F   UNL A   1      45.448  33.044  27.069  1.00  0.00    -0.206 F 
ATOM     74  C   UNL A   1      46.017  34.654  28.681  1.00  0.00     0.040 A 
ATOM     75  C   UNL A   1      46.243  34.019  30.992  1.00  0.00     0.040 A 
ATOM     76  F   UNL A   1      45.925  31.786  31.633  1.00  0.00    -0.206 F 
ATOM     77  C   UNL A   1      46.284  35.000  30.004  1.00  0.00     0.006 A 
ENDBRANCH  56  70
BRANCH  57  78
ATOM     78  C   UNL A   1      42.829  23.000  27.170  1.00  0.00     0.057 A 
ATOM     79  C   UNL A   1      42.544  22.042  28.148  1.00  0.00     0.134 A 
ATOM     80  C   UNL A   1      42.691  22.613  25.830  1.00  0.00     0.134 A 
ATOM     81  F   UNL A   1      42.684  22.342  29.448  1.00  0.00    -0.206 F 
ATOM     82  C   UNL A   1      42.140  20.750  27.809  1.00  0.00     0.040 A 
ATOM     83  C   UNL A   1      42.259  21.335  25.477  1.00  0.00     0.040 A 
ATOM     84  F   UNL A   1      42.951  23.484  24.843  1.00  0.00    -0.206 F 
ATOM     85  C   UNL A   1      41.988  20.396  26.469  1.00  0.00     0.006 A 
ENDBRANCH  57  78
BRANCH  69  86
ATOM     86  C   UNL A   1      48.944  26.320  27.072  1.00  0.00     0.057 A 
ATOM     87  C   UNL A   1      49.825  25.737  27.991  1.00  0.00     0.134 A 
ATOM     88  C   UNL A   1      49.380  26.451  25.747  1.00  0.00     0.134 A 
ATOM     89  F   UNL A   1      49.472  25.599  29.278  1.00  0.00    -0.206 F 
ATOM     90  C   UNL A   1      51.098  25.312  27.610  1.00  0.00     0.040 A 
ATOM     91  C   UNL A   1      50.641  26.009  25.349  1.00  0.00     0.040 A 
ATOM     92  F   UNL A   1      48.581  26.998  24.818  1.00  0.00    -0.206 F 
ATOM     93  C   UNL A   1      51.506  25.441  26.283  1.00  0.00     0.006 A 
ENDBRANCH  69  86
ENDBRANCH  43  44
ENDBRANCH  36  38
ENDBRANCH  35  36
ENDBRANCH  34  35
ENDBRANCH   1  34
TORSDOF 16
ENDMDL
MODEL 3
REMARK VINA RESULT:     -12.4      4.181      8.025
REMARK SMILES CCOc1cc2c(cc1/C=C1/C(=O)N(c3cccc(C(=O)OCCOC(=O)c4ccc(-c5c6nc(c(-c7c(F)cccc7F)c7ccc([nH]7)c(-c7c(F)cccc7F)c7nc(c(-c8c(F)cccc8F)c8ccc5[nH]8)C=C7)C=C6)cc4)c3)C(=S)N=C1O)OCO2
REMARK SMILES IDX 23 1 22 2 20 3 21 4 19 5 15 6 16 7 82 8 17 9 18 10 14 11
REMARK SMILES IDX 10 12 11 13 12 14 86 15 13 16 85 17 83 18 84 19 9 20 4 21
REMARK SMILES IDX 5 22 6 23 8 24 7 25 90 26 88 27 89 28 3 29 2 30 1 31 87 32
REMARK SMILES IDX 24 34 25 35 26 36 27 37 28 38 29 39 81 40 30 41 80 42 31 43
REMARK SMILES IDX 32 44 33 45 74 46 34 47 79 48 73 49 75 50 35 51 78 52 72 53
REMARK SMILES IDX 71 54 36 56 62 57 45 58 61 59 46 60 49 61 60 62 76 63 47 64
REMARK SMILES IDX 48 65 59 67 77 68 50 69 37 70 38 71 43 72 39 73 40 74 42 75
REMARK SMILES IDX 44 76 41 77 63 78 64 79 69 80 65 81 66 82 68 83 70 84 67 85
REMARK SMILES IDX 51 86 52 87 57 88 53 89 54 90 56 91 58 92 55 93
REMARK H PARENT 87 33 75 55 49 66
REMARK Flexibility Score: inf
ROOT
ATOM      1  C   UNL A   1      38.414  20.926  25.125  1.00  0.00     0.275 C 
ENDROOT
BRANCH   1   2
ATOM      2  O   UNL A   1      37.070  20.823  25.635  1.00  0.00    -0.458 OA
BRANCH   2   3
ATOM      3  C   UNL A   1      36.243  19.952  25.001  1.00  0.00     0.338 C 
ATOM      4  O   UNL A   1      36.481  18.795  24.714  1.00  0.00    -0.246 OA
BRANCH   3   5
ATOM      5  C   UNL A   1      34.906  20.578  24.831  1.00  0.00     0.062 A 
ATOM      6  C   UNL A   1      33.485  22.531  24.698  1.00  0.00     0.052 A 
ATOM      7  C   UNL A   1      32.355  21.699  24.631  1.00  0.00     0.027 A 
ATOM      8  C   UNL A   1      34.757  21.962  24.836  1.00  0.00     0.042 A 
ATOM      9  C   UNL A   1      32.505  20.315  24.606  1.00  0.00     0.003 A 
ATOM     10  C   UNL A   1      33.782  19.759  24.658  1.00  0.00     0.016 A 
BRANCH   6  11
ATOM     11  N   UNL A   1      33.351  23.938  24.457  1.00  0.00    -0.251 N 
ATOM     12  C   UNL A   1      32.979  27.003  26.388  1.00  0.00     0.031 C 
ATOM     13  C   UNL A   1      33.306  26.210  25.343  1.00  0.00     0.103 C 
ATOM     14  C   UNL A   1      33.331  24.745  25.607  1.00  0.00     0.270 C 
ATOM     15  C   UNL A   1      33.672  26.559  23.974  1.00  0.00     0.226 C 
ATOM     16  O   UNL A   1      33.361  24.326  26.765  1.00  0.00    -0.268 OA
ATOM     17  N   UNL A   1      33.691  25.776  22.965  1.00  0.00    -0.184 NA
ATOM     18  C   UNL A   1      33.344  24.457  23.147  1.00  0.00     0.210 C 
ATOM     19  S   UNL A   1      32.903  23.561  21.772  1.00  0.00    -0.038 S 
BRANCH  12  20
ATOM     20  C   UNL A   1      32.881  28.474  26.468  1.00  0.00     0.021 A 
ATOM     21  C   UNL A   1      31.781  29.164  25.890  1.00  0.00     0.130 A 
ATOM     22  C   UNL A   1      31.565  30.524  26.139  1.00  0.00     0.097 A 
ATOM     23  C   UNL A   1      32.511  31.194  26.874  1.00  0.00     0.169 A 
ATOM     24  C   UNL A   1      33.877  29.227  27.105  1.00  0.00     0.062 A 
ATOM     25  C   UNL A   1      33.647  30.568  27.323  1.00  0.00     0.166 A 
ATOM     26  O   UNL A   1      32.460  32.501  27.239  1.00  0.00    -0.453 OA
ATOM     27  O   UNL A   1      34.458  31.405  28.024  1.00  0.00    -0.454 OA
ATOM     28  C   UNL A   1      33.650  32.600  28.047  1.00  0.00     0.468 C 
BRANCH  21  29
ATOM     29  O   UNL A   1      30.847  28.503  25.127  1.00  0.00    -0.493 OA
BRANCH  29  30
ATOM     30  C   UNL A   1      30.713  29.099  23.823  1.00  0.00     0.226 C 
ATOM     31  C   UNL A   1      30.524  28.059  22.726  1.00  0.00     0.049 C 
ENDBRANCH  29  30
ENDBRANCH  21  29
ENDBRANCH  12  20
BRANCH  15  32
ATOM     32  O   UNL A   1      34.090  27.804  23.754  1.00  0.00    -0.493 OA
ATOM     33  H   UNL A   1      33.591  28.375  23.202  1.00  0.00     0.295 HD
ENDBRANCH  15  32
ENDBRANCH   6  11
ENDBRANCH   3   5
ENDBRANCH   2   3
ENDBRANCH   1   2
BRANCH   1  34
ATOM     34  C   UNL A   1      39.408  20.337  26.124  1.00  0.00     0.275 C 
BRANCH  34  35
ATOM     35  O   UNL A   1      40.179  19.305  25.483  1.00  0.00    -0.458 OA
BRANCH  35  36
ATOM     36  C   UNL A   1      41.478  19.210  25.851  1.00  0.00     0.338 C 
ATOM     37  O   UNL A   1      42.211  18.240  25.775  1.00  0.00    -0.246 OA
BRANCH  36  38
ATOM     38  C   UNL A   1      41.927  20.528  26.324  1.00  0.00     0.060 A 
ATOM     39  C   UNL A   1      42.188  21.512  25.376  1.00  0.00     0.016 A 
ATOM     40  C   UNL A   1      42.173  20.775  27.669  1.00  0.00     0.016 A 
ATOM     41  C   UNL A   1      42.746  22.728  25.748  1.00  0.00     0.010 A 
ATOM     42  C   UNL A   1      42.637  22.039  28.058  1.00  0.00     0.010 A 
ATOM     43  C   UNL A   1      42.937  23.028  27.101  1.00  0.00    -0.014 A 
BRANCH  43  44
ATOM     44  C   UNL A   1      43.425  24.374  27.508  1.00  0.00     0.031 A 
ATOM     45  C   UNL A   1      42.458  25.421  27.986  1.00  0.00     0.074 A 
ATOM     46  C   UNL A   1      44.741  24.664  27.444  1.00  0.00     0.049 A 
ATOM     47  N   UNL A   1      42.652  26.701  28.176  1.00  0.00    -0.248 NA
ATOM     48  C   UNL A   1      41.089  24.970  28.281  1.00  0.00     0.031 C 
ATOM     49  C   UNL A   1      45.801  23.727  27.059  1.00  0.00     0.029 A 
ATOM     50  N   UNL A   1      45.416  25.834  27.698  1.00  0.00    -0.354 N 
ATOM     51  C   UNL A   1      41.422  27.218  28.562  1.00  0.00     0.074 A 
ATOM     52  C   UNL A   1      40.486  26.112  28.579  1.00  0.00     0.031 C 
ATOM     53  C   UNL A   1      46.986  24.348  27.124  1.00  0.00     0.029 A 
ATOM     54  C   UNL A   1      46.767  25.751  27.452  1.00  0.00     0.049 A 
ATOM     55  H   UNL A   1      44.975  26.652  28.024  1.00  0.00     0.167 HD
ATOM     56  C   UNL A   1      41.105  28.500  28.866  1.00  0.00     0.037 A 
ATOM     57  C   UNL A   1      47.716  26.705  27.426  1.00  0.00     0.037 A 
ATOM     58  C   UNL A   1      42.052  29.585  28.885  1.00  0.00     0.049 A 
ATOM     59  C   UNL A   1      47.325  28.130  27.683  1.00  0.00     0.074 A 
ATOM     60  C   UNL A   1      41.836  30.914  29.207  1.00  0.00     0.029 A 
ATOM     61  N   UNL A   1      43.398  29.464  28.573  1.00  0.00    -0.354 N 
ATOM     62  N   UNL A   1      46.151  28.619  28.002  1.00  0.00    -0.248 NA
ATOM     63  C   UNL A   1      48.382  29.142  27.544  1.00  0.00     0.031 C 
ATOM     64  C   UNL A   1      43.040  31.606  29.044  1.00  0.00     0.029 A 
ATOM     65  C   UNL A   1      44.017  30.701  28.662  1.00  0.00     0.049 A 
ATOM     66  H   UNL A   1      43.848  28.624  28.324  1.00  0.00     0.167 HD
ATOM     67  C   UNL A   1      46.327  29.992  28.106  1.00  0.00     0.074 A 
ATOM     68  C   UNL A   1      47.727  30.257  27.840  1.00  0.00     0.031 C 
ATOM     69  C   UNL A   1      45.409  30.948  28.386  1.00  0.00     0.037 A 
BRANCH  56  70
ATOM     70  C   UNL A   1      39.666  28.812  29.163  1.00  0.00     0.057 A 
ATOM     71  C   UNL A   1      39.136  28.737  30.456  1.00  0.00     0.134 A 
ATOM     72  C   UNL A   1      38.810  29.236  28.137  1.00  0.00     0.134 A 
ATOM     73  F   UNL A   1      39.898  28.327  31.481  1.00  0.00    -0.206 F 
ATOM     74  C   UNL A   1      37.800  29.052  30.715  1.00  0.00     0.040 A 
ATOM     75  C   UNL A   1      37.481  29.577  28.388  1.00  0.00     0.040 A 
ATOM     76  F   UNL A   1      39.257  29.337  26.876  1.00  0.00    -0.206 F 
ATOM     77  C   UNL A   1      36.970  29.480  29.680  1.00  0.00     0.006 A 
ENDBRANCH  56  70
BRANCH  57  78
ATOM     78  C   UNL A   1      49.113  26.349  27.065  1.00  0.00     0.057 A 
ATOM     79  C   UNL A   1      50.053  26.018  28.047  1.00  0.00     0.134 A 
ATOM     80  C   UNL A   1      49.540  26.325  25.731  1.00  0.00     0.134 A 
ATOM     81  F   UNL A   1      49.713  26.049  29.344  1.00  0.00    -0.206 F 
ATOM     82  C   UNL A   1      51.366  25.678  27.716  1.00  0.00     0.040 A 
ATOM     83  C   UNL A   1      50.840  25.958  25.383  1.00  0.00     0.040 A 
ATOM     84  F   UNL A   1      48.689  26.634  24.741  1.00  0.00    -0.206 F 
ATOM     85  C   UNL A   1      51.760  25.639  26.380  1.00  0.00     0.006 A 
ENDBRANCH  57  78
BRANCH  69  86
ATOM     86  C   UNL A   1      45.894  32.365  28.429  1.00  0.00     0.057 A 
ATOM     87  C   UNL A   1      45.836  33.194  27.301  1.00  0.00     0.134 A 
ATOM     88  C   UNL A   1      46.386  32.919  29.618  1.00  0.00     0.134 A 
ATOM     89  F   UNL A   1      45.390  32.717  26.129  1.00  0.00    -0.206 F 
ATOM     90  C   UNL A   1      46.265  34.520  27.350  1.00  0.00     0.040 A 
ATOM     91  C   UNL A   1      46.796  34.250  29.684  1.00  0.00     0.040 A 
ATOM     92  F   UNL A   1      46.463  32.179  30.733  1.00  0.00    -0.206 F 
ATOM     93  C   UNL A   1      46.740  35.054  28.547  1.00  0.00     0.006 A 
ENDBRANCH  69  86
ENDBRANCH  43  44
ENDBRANCH  36  38
ENDBRANCH  35  36
ENDBRANCH  34  35
ENDBRANCH   1  34
TORSDOF 16
ENDMDL
