MODEL 1
REMARK VINA RESULT:     -12.3      0.000      0.000
REMARK SMILES O=C(OCCOC(=O)[C@H]1CCCN(C(=O)C2CCN(S(=O)(=O)c3ccccc3)CC2)C1)c1ccc(-c2c3nc(c(-c4c(F)cccc4F)c4ccc([nH]4)c(-c4c(F)cccc4F)c4nc(c(-c5c(F)cccc5F)c5ccc2[nH]5)C=C4)C=C3)cc1
REMARK SMILES IDX 5 1 4 2 3 3 2 4 1 5 32 6 33 7 85 8 34 9 84 10 35 11 36 12
REMARK SMILES IDX 37 13 78 14 38 15 83 16 77 17 79 18 39 19 82 20 76 21 75 22
REMARK SMILES IDX 40 24 66 25 49 26 65 27 50 28 53 29 64 30 80 31 51 32 52 33
REMARK SMILES IDX 63 35 81 36 54 37 41 38 42 39 47 40 43 41 44 42 46 43 48 44
REMARK SMILES IDX 45 45 67 46 68 47 73 48 69 49 70 50 72 51 74 52 71 53 55 54
REMARK SMILES IDX 56 55 61 56 57 57 58 58 60 59 62 60 59 61 6 62 7 63 8 64
REMARK SMILES IDX 9 65 10 66 31 67 11 68 13 69 12 70 14 71 15 72 16 73 17 74
REMARK SMILES IDX 30 75 18 76 29 77 19 78 20 79 21 80 22 81 23 82 24 83 28 84
REMARK SMILES IDX 25 85 27 86 26 87
REMARK H PARENT 79 23 53 34
REMARK Flexibility Score: inf
ROOT
ATOM      1  C   UNL A   1      31.275  32.018  26.963  1.00  0.00     0.274 C 
ENDROOT
BRANCH   1   2
ATOM      2  C   UNL A   1      32.389  33.059  26.899  1.00  0.00     0.275 C 
BRANCH   2   3
ATOM      3  O   UNL A   1      32.201  34.169  27.798  1.00  0.00    -0.458 OA
BRANCH   3   4
ATOM      4  C   UNL A   1      33.096  34.780  28.612  1.00  0.00     0.338 C 
ATOM      5  O   UNL A   1      32.987  35.989  28.811  1.00  0.00    -0.246 OA
BRANCH   4   6
ATOM      6  C   UNL A   1      34.316  34.108  29.165  1.00  0.00     0.060 A 
ATOM      7  C   UNL A   1      35.628  34.297  28.729  1.00  0.00     0.016 A 
ATOM      8  C   UNL A   1      34.093  33.161  30.186  1.00  0.00     0.016 A 
ATOM      9  C   UNL A   1      36.695  33.609  29.327  1.00  0.00     0.010 A 
ATOM     10  C   UNL A   1      35.155  32.475  30.790  1.00  0.00     0.010 A 
ATOM     11  C   UNL A   1      36.469  32.693  30.360  1.00  0.00    -0.014 A 
BRANCH  11  12
ATOM     12  C   UNL A   1      37.578  31.860  30.890  1.00  0.00     0.031 A 
ATOM     13  C   UNL A   1      38.162  32.216  32.227  1.00  0.00     0.074 A 
ATOM     14  C   UNL A   1      38.044  30.794  30.210  1.00  0.00     0.049 A 
ATOM     15  N   UNL A   1      39.148  31.651  32.871  1.00  0.00    -0.248 NA
ATOM     16  C   UNL A   1      37.532  33.336  32.947  1.00  0.00     0.031 C 
ATOM     17  C   UNL A   1      37.495  30.292  28.955  1.00  0.00     0.029 A 
ATOM     18  N   UNL A   1      39.101  29.951  30.463  1.00  0.00    -0.354 N 
ATOM     19  C   UNL A   1      39.206  32.295  34.100  1.00  0.00     0.074 A 
ATOM     20  C   UNL A   1      38.224  33.355  34.077  1.00  0.00     0.031 C 
ATOM     21  C   UNL A   1      38.264  29.288  28.501  1.00  0.00     0.029 A 
ATOM     22  C   UNL A   1      39.365  29.073  29.433  1.00  0.00     0.049 A 
ATOM     23  H   UNL A   1      39.620  29.974  31.299  1.00  0.00     0.167 HD
ATOM     24  C   UNL A   1      39.972  31.989  35.171  1.00  0.00     0.037 A 
ATOM     25  C   UNL A   1      40.401  28.229  29.246  1.00  0.00     0.037 A 
ATOM     26  C   UNL A   1      40.964  30.950  35.177  1.00  0.00     0.049 A 
ATOM     27  C   UNL A   1      41.430  28.123  30.344  1.00  0.00     0.074 A 
ATOM     28  C   UNL A   1      41.773  30.530  36.216  1.00  0.00     0.029 A 
ATOM     29  N   UNL A   1      41.292  30.181  34.072  1.00  0.00    -0.354 N 
ATOM     30  N   UNL A   1      41.428  28.685  31.531  1.00  0.00    -0.248 NA
ATOM     31  C   UNL A   1      42.605  27.275  30.090  1.00  0.00     0.031 C 
ATOM     32  C   UNL A   1      42.632  29.540  35.722  1.00  0.00     0.029 A 
ATOM     33  C   UNL A   1      42.332  29.325  34.385  1.00  0.00     0.049 A 
ATOM     34  H   UNL A   1      40.851  30.236  33.194  1.00  0.00     0.167 HD
ATOM     35  C   UNL A   1      42.549  28.195  32.187  1.00  0.00     0.074 A 
ATOM     36  C   UNL A   1      43.229  27.317  31.259  1.00  0.00     0.031 C 
ATOM     37  C   UNL A   1      42.969  28.434  33.453  1.00  0.00     0.037 A 
BRANCH  24  38
ATOM     38  C   UNL A   1      39.742  32.775  36.425  1.00  0.00     0.057 A 
ATOM     39  C   UNL A   1      38.760  32.391  37.348  1.00  0.00     0.134 A 
ATOM     40  C   UNL A   1      40.514  33.901  36.726  1.00  0.00     0.134 A 
ATOM     41  F   UNL A   1      37.978  31.328  37.107  1.00  0.00    -0.206 F 
ATOM     42  C   UNL A   1      38.543  33.112  38.523  1.00  0.00     0.040 A 
ATOM     43  C   UNL A   1      40.317  34.621  37.905  1.00  0.00     0.040 A 
ATOM     44  F   UNL A   1      41.467  34.319  35.880  1.00  0.00    -0.206 F 
ATOM     45  C   UNL A   1      39.328  34.228  38.806  1.00  0.00     0.006 A 
ENDBRANCH  24  38
BRANCH  25  46
ATOM     46  C   UNL A   1      40.596  27.505  27.953  1.00  0.00     0.057 A 
ATOM     47  C   UNL A   1      40.149  26.201  27.729  1.00  0.00     0.134 A 
ATOM     48  C   UNL A   1      41.359  28.083  26.932  1.00  0.00     0.134 A 
ATOM     49  F   UNL A   1      39.415  25.570  28.657  1.00  0.00    -0.206 F 
ATOM     50  C   UNL A   1      40.503  25.489  26.576  1.00  0.00     0.040 A 
ATOM     51  C   UNL A   1      41.708  27.399  25.767  1.00  0.00     0.040 A 
ATOM     52  F   UNL A   1      41.778  29.343  27.058  1.00  0.00    -0.206 F 
ATOM     53  C   UNL A   1      41.293  26.085  25.594  1.00  0.00     0.006 A 
ENDBRANCH  25  46
BRANCH  37  54
ATOM     54  C   UNL A   1      44.166  27.670  33.928  1.00  0.00     0.057 A 
ATOM     55  C   UNL A   1      44.056  26.383  34.463  1.00  0.00     0.134 A 
ATOM     56  C   UNL A   1      45.447  28.224  33.811  1.00  0.00     0.134 A 
ATOM     57  F   UNL A   1      42.852  25.813  34.620  1.00  0.00    -0.206 F 
ATOM     58  C   UNL A   1      45.184  25.673  34.876  1.00  0.00     0.040 A 
ATOM     59  C   UNL A   1      46.583  27.515  34.200  1.00  0.00     0.040 A 
ATOM     60  F   UNL A   1      45.614  29.454  33.303  1.00  0.00    -0.206 F 
ATOM     61  C   UNL A   1      46.452  26.236  34.737  1.00  0.00     0.006 A 
ENDBRANCH  37  54
ENDBRANCH  11  12
ENDBRANCH   4   6
ENDBRANCH   3   4
ENDBRANCH   2   3
ENDBRANCH   1   2
BRANCH   1  62
ATOM     62  O   UNL A   1      31.501  30.978  26.008  1.00  0.00    -0.462 OA
BRANCH  62  63
ATOM     63  C   UNL A   1      32.149  29.861  26.459  1.00  0.00     0.310 C 
ATOM     64  O   UNL A   1      32.634  29.727  27.571  1.00  0.00    -0.252 OA
BRANCH  63  65
ATOM     65  C   UNL A   1      32.122  28.801  25.380  1.00  0.00     0.119 C 
ATOM     66  C   UNL A   1      31.396  29.343  24.144  1.00  0.00     0.019 C 
ATOM     67  C   UNL A   1      33.522  28.281  25.041  1.00  0.00     0.134 C 
ATOM     68  C   UNL A   1      31.436  28.342  23.002  1.00  0.00     0.022 C 
ATOM     69  N   UNL A   1      33.471  27.351  23.896  1.00  0.00    -0.342 N 
ATOM     70  C   UNL A   1      32.876  27.943  22.720  1.00  0.00     0.119 C 
BRANCH  69  71
ATOM     71  C   UNL A   1      33.772  26.014  24.070  1.00  0.00     0.225 C 
ATOM     72  O   UNL A   1      34.340  25.650  25.108  1.00  0.00    -0.275 OA
BRANCH  71  73
ATOM     73  C   UNL A   1      33.443  24.910  23.026  1.00  0.00     0.081 C 
ATOM     74  C   UNL A   1      32.058  24.284  23.011  1.00  0.00     0.030 C 
ATOM     75  C   UNL A   1      34.516  23.874  22.739  1.00  0.00     0.030 C 
ATOM     76  C   UNL A   1      31.893  22.935  23.694  1.00  0.00     0.103 C 
ATOM     77  C   UNL A   1      34.426  22.612  23.570  1.00  0.00     0.103 C 
ATOM     78  N   UNL A   1      33.074  21.997  23.657  1.00  0.00    -0.198 NA
BRANCH  78  79
ATOM     79  S   UNL A   1      32.893  20.845  24.966  1.00  0.00     0.243 S 
ATOM     80  O   UNL A   1      33.932  21.161  25.936  1.00  0.00    -0.207 OA
ATOM     81  O   UNL A   1      31.510  20.900  25.372  1.00  0.00    -0.207 OA
BRANCH  79  82
ATOM     82  C   UNL A   1      33.227  19.213  24.340  1.00  0.00     0.082 A 
ATOM     83  C   UNL A   1      34.395  18.563  24.757  1.00  0.00     0.022 A 
ATOM     84  C   UNL A   1      32.478  18.677  23.284  1.00  0.00     0.022 A 
ATOM     85  C   UNL A   1      34.784  17.367  24.148  1.00  0.00     0.001 A 
ATOM     86  C   UNL A   1      32.849  17.462  22.707  1.00  0.00     0.001 A 
ATOM     87  C   UNL A   1      34.001  16.809  23.138  1.00  0.00     0.000 A 
ENDBRANCH  79  82
ENDBRANCH  78  79
ENDBRANCH  71  73
ENDBRANCH  69  71
ENDBRANCH  63  65
ENDBRANCH  62  63
ENDBRANCH   1  62
TORSDOF 15
ENDMDL
MODEL 2
REMARK VINA RESULT:     -12.3      2.827      8.331
REMARK SMILES O=C(OCCOC(=O)[C@H]1CCCN(C(=O)C2CCN(S(=O)(=O)c3ccccc3)CC2)C1)c1ccc(-c2c3nc(c(-c4c(F)cccc4F)c4ccc([nH]4)c(-c4c(F)cccc4F)c4nc(c(-c5c(F)cccc5F)c5ccc2[nH]5)C=C4)C=C3)cc1
REMARK SMILES IDX 5 1 4 2 3 3 2 4 1 5 32 6 33 7 85 8 34 9 84 10 35 11 36 12
REMARK SMILES IDX 37 13 78 14 38 15 83 16 77 17 79 18 39 19 82 20 76 21 75 22
REMARK SMILES IDX 40 24 66 25 49 26 65 27 50 28 53 29 64 30 80 31 51 32 52 33
REMARK SMILES IDX 63 35 81 36 54 37 41 38 42 39 47 40 43 41 44 42 46 43 48 44
REMARK SMILES IDX 45 45 67 46 68 47 73 48 69 49 70 50 72 51 74 52 71 53 55 54
REMARK SMILES IDX 56 55 61 56 57 57 58 58 60 59 62 60 59 61 6 62 7 63 8 64
REMARK SMILES IDX 9 65 10 66 31 67 11 68 13 69 12 70 14 71 15 72 16 73 17 74
REMARK SMILES IDX 30 75 18 76 29 77 19 78 20 79 21 80 22 81 23 82 24 83 28 84
REMARK SMILES IDX 25 85 27 86 26 87
REMARK H PARENT 79 23 53 34
REMARK Flexibility Score: inf
ROOT
ATOM      1  C   UNL A   1      40.361  20.799  26.715  1.00  0.00     0.274 C 
ENDROOT
BRANCH   1   2
ATOM      2  C   UNL A   1      41.740  20.518  26.126  1.00  0.00     0.275 C 
BRANCH   2   3
ATOM      3  O   UNL A   1      42.680  21.596  26.304  1.00  0.00    -0.458 OA
BRANCH   3   4
ATOM      4  C   UNL A   1      42.671  22.843  25.774  1.00  0.00     0.338 C 
ATOM      5  O   UNL A   1      43.028  22.994  24.607  1.00  0.00    -0.246 OA
BRANCH   4   6
ATOM      6  C   UNL A   1      42.404  24.085  26.569  1.00  0.00     0.060 A 
ATOM      7  C   UNL A   1      43.091  25.296  26.458  1.00  0.00     0.016 A 
ATOM      8  C   UNL A   1      41.398  23.990  27.551  1.00  0.00     0.016 A 
ATOM      9  C   UNL A   1      42.749  26.397  27.258  1.00  0.00     0.010 A 
ATOM     10  C   UNL A   1      41.050  25.087  28.350  1.00  0.00     0.010 A 
ATOM     11  C   UNL A   1      41.729  26.302  28.210  1.00  0.00    -0.014 A 
BRANCH  11  12
ATOM     12  C   UNL A   1      41.469  27.418  29.155  1.00  0.00     0.031 A 
ATOM     13  C   UNL A   1      42.284  27.491  30.415  1.00  0.00     0.074 A 
ATOM     14  C   UNL A   1      40.544  28.362  28.891  1.00  0.00     0.049 A 
ATOM     15  N   UNL A   1      42.213  28.356  31.392  1.00  0.00    -0.248 NA
ATOM     16  C   UNL A   1      43.338  26.476  30.580  1.00  0.00     0.031 C 
ATOM     17  C   UNL A   1      39.763  28.454  27.663  1.00  0.00     0.029 A 
ATOM     18  N   UNL A   1      40.084  29.414  29.649  1.00  0.00    -0.354 N 
ATOM     19  C   UNL A   1      43.259  28.035  32.246  1.00  0.00     0.074 A 
ATOM     20  C   UNL A   1      43.889  26.842  31.728  1.00  0.00     0.031 C 
ATOM     21  C   UNL A   1      38.863  29.445  27.778  1.00  0.00     0.029 A 
ATOM     22  C   UNL A   1      39.000  30.061  29.093  1.00  0.00     0.049 A 
ATOM     23  H   UNL A   1      40.488  29.678  30.506  1.00  0.00     0.167 HD
ATOM     24  C   UNL A   1      43.689  28.712  33.336  1.00  0.00     0.037 A 
ATOM     25  C   UNL A   1      38.188  31.008  29.607  1.00  0.00     0.037 A 
ATOM     26  C   UNL A   1      43.041  29.882  33.859  1.00  0.00     0.049 A 
ATOM     27  C   UNL A   1      38.513  31.546  30.979  1.00  0.00     0.074 A 
ATOM     28  C   UNL A   1      43.408  30.668  34.935  1.00  0.00     0.029 A 
ATOM     29  N   UNL A   1      41.871  30.419  33.347  1.00  0.00    -0.354 N 
ATOM     30  N   UNL A   1      39.549  31.284  31.741  1.00  0.00    -0.248 NA
ATOM     31  C   UNL A   1      37.568  32.505  31.571  1.00  0.00     0.031 C 
ATOM     32  C   UNL A   1      42.426  31.652  35.107  1.00  0.00     0.029 A 
ATOM     33  C   UNL A   1      41.468  31.494  34.118  1.00  0.00     0.049 A 
ATOM     34  H   UNL A   1      41.396  30.085  32.552  1.00  0.00     0.167 HD
ATOM     35  C   UNL A   1      39.421  32.102  32.855  1.00  0.00     0.074 A 
ATOM     36  C   UNL A   1      38.191  32.846  32.689  1.00  0.00     0.031 C 
ATOM     37  C   UNL A   1      40.257  32.242  33.912  1.00  0.00     0.037 A 
BRANCH  24  38
ATOM     38  C   UNL A   1      44.929  28.211  34.009  1.00  0.00     0.057 A 
ATOM     39  C   UNL A   1      44.859  27.267  35.042  1.00  0.00     0.134 A 
ATOM     40  C   UNL A   1      46.196  28.653  33.614  1.00  0.00     0.134 A 
ATOM     41  F   UNL A   1      43.672  26.818  35.474  1.00  0.00    -0.206 F 
ATOM     42  C   UNL A   1      46.010  26.789  35.670  1.00  0.00     0.040 A 
ATOM     43  C   UNL A   1      47.354  28.170  34.224  1.00  0.00     0.040 A 
ATOM     44  F   UNL A   1      46.326  29.558  32.633  1.00  0.00    -0.206 F 
ATOM     45  C   UNL A   1      47.263  27.237  35.257  1.00  0.00     0.006 A 
ENDBRANCH  24  38
BRANCH  25  46
ATOM     46  C   UNL A   1      36.940  31.434  28.903  1.00  0.00     0.057 A 
ATOM     47  C   UNL A   1      36.758  32.714  28.374  1.00  0.00     0.134 A 
ATOM     48  C   UNL A   1      35.834  30.578  28.851  1.00  0.00     0.134 A 
ATOM     49  F   UNL A   1      37.763  33.600  28.387  1.00  0.00    -0.206 F 
ATOM     50  C   UNL A   1      35.516  33.137  27.881  1.00  0.00     0.040 A 
ATOM     51  C   UNL A   1      34.595  30.972  28.348  1.00  0.00     0.040 A 
ATOM     52  F   UNL A   1      35.952  29.325  29.293  1.00  0.00    -0.206 F 
ATOM     53  C   UNL A   1      34.427  32.267  27.876  1.00  0.00     0.006 A 
ENDBRANCH  25  46
BRANCH  37  54
ATOM     54  C   UNL A   1      39.910  33.294  34.919  1.00  0.00     0.057 A 
ATOM     55  C   UNL A   1      39.207  32.992  36.090  1.00  0.00     0.134 A 
ATOM     56  C   UNL A   1      40.319  34.619  34.725  1.00  0.00     0.134 A 
ATOM     57  F   UNL A   1      38.769  31.745  36.317  1.00  0.00    -0.206 F 
ATOM     58  C   UNL A   1      38.915  33.978  37.033  1.00  0.00     0.040 A 
ATOM     59  C   UNL A   1      40.052  35.609  35.670  1.00  0.00     0.040 A 
ATOM     60  F   UNL A   1      40.999  34.967  33.622  1.00  0.00    -0.206 F 
ATOM     61  C   UNL A   1      39.345  35.289  36.827  1.00  0.00     0.006 A 
ENDBRANCH  37  54
ENDBRANCH  11  12
ENDBRANCH   4   6
ENDBRANCH   3   4
ENDBRANCH   2   3
ENDBRANCH   1   2
BRANCH   1  62
ATOM     62  O   UNL A   1      39.533  21.471  25.762  1.00  0.00    -0.462 OA
BRANCH  62  63
ATOM     63  C   UNL A   1      38.383  20.832  25.388  1.00  0.00     0.310 C 
ATOM     64  O   UNL A   1      38.311  19.675  25.006  1.00  0.00    -0.252 OA
BRANCH  63  65
ATOM     65  C   UNL A   1      37.210  21.769  25.573  1.00  0.00     0.119 C 
ATOM     66  C   UNL A   1      37.723  23.189  25.842  1.00  0.00     0.019 C 
ATOM     67  C   UNL A   1      36.238  21.724  24.392  1.00  0.00     0.134 C 
ATOM     68  C   UNL A   1      36.574  24.178  25.934  1.00  0.00     0.022 C 
ATOM     69  N   UNL A   1      35.182  22.745  24.544  1.00  0.00    -0.342 N 
ATOM     70  C   UNL A   1      35.712  24.081  24.685  1.00  0.00     0.119 C 
BRANCH  69  71
ATOM     71  C   UNL A   1      33.869  22.365  24.744  1.00  0.00     0.225 C 
ATOM     72  O   UNL A   1      33.537  21.880  25.833  1.00  0.00    -0.275 OA
BRANCH  71  73
ATOM     73  C   UNL A   1      32.754  22.507  23.670  1.00  0.00     0.081 C 
ATOM     74  C   UNL A   1      33.124  22.944  22.262  1.00  0.00     0.030 C 
ATOM     75  C   UNL A   1      31.435  23.121  24.106  1.00  0.00     0.030 C 
ATOM     76  C   UNL A   1      32.909  24.407  21.905  1.00  0.00     0.103 C 
ATOM     77  C   UNL A   1      31.325  24.617  23.900  1.00  0.00     0.103 C 
ATOM     78  N   UNL A   1      31.750  25.112  22.564  1.00  0.00    -0.198 NA
BRANCH  78  79
ATOM     79  S   UNL A   1      32.059  26.837  22.504  1.00  0.00     0.243 S 
ATOM     80  O   UNL A   1      33.254  27.011  21.691  1.00  0.00    -0.207 OA
ATOM     81  O   UNL A   1      30.827  27.460  22.087  1.00  0.00    -0.207 OA
BRANCH  79  82
ATOM     82  C   UNL A   1      32.444  27.405  24.146  1.00  0.00     0.082 A 
ATOM     83  C   UNL A   1      33.630  26.963  24.745  1.00  0.00     0.022 A 
ATOM     84  C   UNL A   1      31.491  28.083  24.918  1.00  0.00     0.022 A 
ATOM     85  C   UNL A   1      33.874  27.235  26.094  1.00  0.00     0.001 A 
ATOM     86  C   UNL A   1      31.758  28.387  26.253  1.00  0.00     0.001 A 
ATOM     87  C   UNL A   1      32.947  27.962  26.840  1.00  0.00     0.000 A 
ENDBRANCH  79  82
ENDBRANCH  78  79
ENDBRANCH  71  73
ENDBRANCH  69  71
ENDBRANCH  63  65
ENDBRANCH  62  63
ENDBRANCH   1  62
TORSDOF 15
ENDMDL
MODEL 3
REMARK VINA RESULT:     -12.3      1.424      6.315
REMARK SMILES O=C(OCCOC(=O)[C@H]1CCCN(C(=O)C2CCN(S(=O)(=O)c3ccccc3)CC2)C1)c1ccc(-c2c3nc(c(-c4c(F)cccc4F)c4ccc([nH]4)c(-c4c(F)cccc4F)c4nc(c(-c5c(F)cccc5F)c5ccc2[nH]5)C=C4)C=C3)cc1
REMARK SMILES IDX 5 1 4 2 3 3 2 4 1 5 32 6 33 7 85 8 34 9 84 10 35 11 36 12
REMARK SMILES IDX 37 13 78 14 38 15 83 16 77 17 79 18 39 19 82 20 76 21 75 22
REMARK SMILES IDX 40 24 66 25 49 26 65 27 50 28 53 29 64 30 80 31 51 32 52 33
REMARK SMILES IDX 63 35 81 36 54 37 41 38 42 39 47 40 43 41 44 42 46 43 48 44
REMARK SMILES IDX 45 45 67 46 68 47 73 48 69 49 70 50 72 51 74 52 71 53 55 54
REMARK SMILES IDX 56 55 61 56 57 57 58 58 60 59 62 60 59 61 6 62 7 63 8 64
REMARK SMILES IDX 9 65 10 66 31 67 11 68 13 69 12 70 14 71 15 72 16 73 17 74
REMARK SMILES IDX 30 75 18 76 29 77 19 78 20 79 21 80 22 81 23 82 24 83 28 84
REMARK SMILES IDX 25 85 27 86 26 87
REMARK H PARENT 79 23 53 34
REMARK Flexibility Score: inf
ROOT
ATOM      1  C   UNL A   1      32.890  30.916  26.865  1.00  0.00     0.274 C 
ENDROOT
BRANCH   1   2
ATOM      2  C   UNL A   1      31.801  31.968  27.056  1.00  0.00     0.275 C 
BRANCH   2   3
ATOM      3  O   UNL A   1      32.294  33.321  27.068  1.00  0.00    -0.458 OA
BRANCH   3   4
ATOM      4  C   UNL A   1      32.895  34.011  28.069  1.00  0.00     0.338 C 
ATOM      5  O   UNL A   1      32.452  35.117  28.376  1.00  0.00    -0.246 OA
BRANCH   4   6
ATOM      6  C   UNL A   1      34.171  33.584  28.727  1.00  0.00     0.060 A 
ATOM      7  C   UNL A   1      35.462  33.842  28.263  1.00  0.00     0.016 A 
ATOM      8  C   UNL A   1      34.037  32.806  29.895  1.00  0.00     0.016 A 
ATOM      9  C   UNL A   1      36.588  33.390  28.968  1.00  0.00     0.010 A 
ATOM     10  C   UNL A   1      35.157  32.356  30.606  1.00  0.00     0.010 A 
ATOM     11  C   UNL A   1      36.446  32.644  30.143  1.00  0.00    -0.014 A 
BRANCH  11  12
ATOM     12  C   UNL A   1      37.631  32.043  30.806  1.00  0.00     0.031 A 
ATOM     13  C   UNL A   1      38.266  30.836  30.176  1.00  0.00     0.074 A 
ATOM     14  C   UNL A   1      38.150  32.570  31.932  1.00  0.00     0.049 A 
ATOM     15  N   UNL A   1      39.286  30.132  30.590  1.00  0.00    -0.248 NA
ATOM     16  C   UNL A   1      37.696  30.382  28.896  1.00  0.00     0.031 C 
ATOM     17  C   UNL A   1      37.686  33.791  32.581  1.00  0.00     0.029 A 
ATOM     18  N   UNL A   1      39.168  32.135  32.749  1.00  0.00    -0.354 N 
ATOM     19  C   UNL A   1      39.526  29.203  29.586  1.00  0.00     0.074 A 
ATOM     20  C   UNL A   1      38.491  29.367  28.591  1.00  0.00     0.031 C 
ATOM     21  C   UNL A   1      38.350  33.966  33.735  1.00  0.00     0.029 A 
ATOM     22  C   UNL A   1      39.291  32.865  33.913  1.00  0.00     0.049 A 
ATOM     23  H   UNL A   1      39.751  31.375  32.525  1.00  0.00     0.167 HD
ATOM     24  C   UNL A   1      40.554  28.331  29.480  1.00  0.00     0.037 A 
ATOM     25  C   UNL A   1      40.044  32.643  35.010  1.00  0.00     0.037 A 
ATOM     26  C   UNL A   1      41.565  28.157  30.486  1.00  0.00     0.049 A 
ATOM     27  C   UNL A   1      40.985  31.463  34.992  1.00  0.00     0.074 A 
ATOM     28  C   UNL A   1      42.672  27.329  30.470  1.00  0.00     0.029 A 
ATOM     29  N   UNL A   1      41.572  28.818  31.705  1.00  0.00    -0.354 N 
ATOM     30  N   UNL A   1      41.253  30.640  34.005  1.00  0.00    -0.248 NA
ATOM     31  C   UNL A   1      41.728  31.172  36.227  1.00  0.00     0.031 C 
ATOM     32  C   UNL A   1      43.319  27.449  31.705  1.00  0.00     0.029 A 
ATOM     33  C   UNL A   1      42.632  28.375  32.474  1.00  0.00     0.049 A 
ATOM     34  H   UNL A   1      40.919  29.500  31.982  1.00  0.00     0.167 HD
ATOM     35  C   UNL A   1      42.248  29.793  34.474  1.00  0.00     0.074 A 
ATOM     36  C   UNL A   1      42.515  30.177  35.843  1.00  0.00     0.031 C 
ATOM     37  C   UNL A   1      42.899  28.799  33.823  1.00  0.00     0.037 A 
BRANCH  24  38
ATOM     38  C   UNL A   1      40.643  27.525  28.222  1.00  0.00     0.057 A 
ATOM     39  C   UNL A   1      41.357  27.995  27.111  1.00  0.00     0.134 A 
ATOM     40  C   UNL A   1      40.035  26.270  28.121  1.00  0.00     0.134 A 
ATOM     41  F   UNL A   1      41.950  29.198  27.143  1.00  0.00    -0.206 F 
ATOM     42  C   UNL A   1      41.452  27.247  25.937  1.00  0.00     0.040 A 
ATOM     43  C   UNL A   1      40.136  25.507  26.957  1.00  0.00     0.040 A 
ATOM     44  F   UNL A   1      39.334  25.769  29.149  1.00  0.00    -0.206 F 
ATOM     45  C   UNL A   1      40.843  25.996  25.860  1.00  0.00     0.006 A 
ENDBRANCH  24  38
BRANCH  25  46
ATOM     46  C   UNL A   1      39.877  33.459  36.251  1.00  0.00     0.057 A 
ATOM     47  C   UNL A   1      38.907  33.191  37.220  1.00  0.00     0.134 A 
ATOM     48  C   UNL A   1      40.633  34.623  36.435  1.00  0.00     0.134 A 
ATOM     49  F   UNL A   1      38.136  32.099  37.119  1.00  0.00    -0.206 F 
ATOM     50  C   UNL A   1      38.659  34.076  38.278  1.00  0.00     0.040 A 
ATOM     51  C   UNL A   1      40.415  35.508  37.491  1.00  0.00     0.040 A 
ATOM     52  F   UNL A   1      41.609  34.915  35.575  1.00  0.00    -0.206 F 
ATOM     53  C   UNL A   1      39.409  35.244  38.410  1.00  0.00     0.006 A 
ENDBRANCH  25  46
BRANCH  37  54
ATOM     54  C   UNL A   1      44.014  28.122  34.557  1.00  0.00     0.057 A 
ATOM     55  C   UNL A   1      43.818  26.932  35.263  1.00  0.00     0.134 A 
ATOM     56  C   UNL A   1      45.308  28.656  34.521  1.00  0.00     0.134 A 
ATOM     57  F   UNL A   1      42.595  26.387  35.352  1.00  0.00    -0.206 F 
ATOM     58  C   UNL A   1      44.874  26.297  35.920  1.00  0.00     0.040 A 
ATOM     59  C   UNL A   1      46.376  28.020  35.154  1.00  0.00     0.040 A 
ATOM     60  F   UNL A   1      45.557  29.795  33.856  1.00  0.00    -0.206 F 
ATOM     61  C   UNL A   1      46.158  26.838  35.859  1.00  0.00     0.006 A 
ENDBRANCH  37  54
ENDBRANCH  11  12
ENDBRANCH   4   6
ENDBRANCH   3   4
ENDBRANCH   2   3
ENDBRANCH   1   2
BRANCH   1  62
ATOM     62  O   UNL A   1      32.507  29.970  25.863  1.00  0.00    -0.462 OA
BRANCH  62  63
ATOM     63  C   UNL A   1      32.923  28.680  26.047  1.00  0.00     0.310 C 
ATOM     64  O   UNL A   1      33.701  28.305  26.910  1.00  0.00    -0.252 OA
BRANCH  63  65
ATOM     65  C   UNL A   1      32.226  27.786  25.045  1.00  0.00     0.119 C 
ATOM     66  C   UNL A   1      30.967  28.484  24.521  1.00  0.00     0.019 C 
ATOM     67  C   UNL A   1      33.156  27.351  23.909  1.00  0.00     0.134 C 
ATOM     68  C   UNL A   1      30.293  27.658  23.438  1.00  0.00     0.022 C 
ATOM     69  N   UNL A   1      32.410  26.593  22.884  1.00  0.00    -0.342 N 
ATOM     70  C   UNL A   1      31.296  27.335  22.341  1.00  0.00     0.119 C 
BRANCH  69  71
ATOM     71  C   UNL A   1      32.671  25.252  22.680  1.00  0.00     0.225 C 
ATOM     72  O   UNL A   1      33.731  24.916  22.136  1.00  0.00    -0.275 OA
BRANCH  71  73
ATOM     73  C   UNL A   1      31.702  24.109  23.094  1.00  0.00     0.081 C 
ATOM     74  C   UNL A   1      31.057  24.137  24.470  1.00  0.00     0.030 C 
ATOM     75  C   UNL A   1      32.076  22.693  22.692  1.00  0.00     0.030 C 
ATOM     76  C   UNL A   1      31.682  23.272  25.553  1.00  0.00     0.103 C 
ATOM     77  C   UNL A   1      32.860  21.919  23.731  1.00  0.00     0.103 C 
ATOM     78  N   UNL A   1      32.318  21.976  25.115  1.00  0.00    -0.198 NA
BRANCH  78  79
ATOM     79  S   UNL A   1      33.460  21.487  26.353  1.00  0.00     0.243 S 
ATOM     80  O   UNL A   1      33.082  22.200  27.564  1.00  0.00    -0.207 OA
ATOM     81  O   UNL A   1      33.466  20.044  26.357  1.00  0.00    -0.207 OA
BRANCH  79  82
ATOM     82  C   UNL A   1      35.083  22.049  25.886  1.00  0.00     0.082 A 
ATOM     83  C   UNL A   1      36.013  21.105  25.435  1.00  0.00     0.022 A 
ATOM     84  C   UNL A   1      35.507  23.353  26.176  1.00  0.00     0.022 A 
ATOM     85  C   UNL A   1      37.346  21.477  25.238  1.00  0.00     0.001 A 
ATOM     86  C   UNL A   1      36.829  23.729  25.939  1.00  0.00     0.001 A 
ATOM     87  C   UNL A   1      37.748  22.792  25.472  1.00  0.00     0.000 A 
ENDBRANCH  79  82
ENDBRANCH  78  79
ENDBRANCH  71  73
ENDBRANCH  69  71
ENDBRANCH  63  65
ENDBRANCH  62  63
ENDBRANCH   1  62
TORSDOF 15
ENDMDL
