MODEL 1
REMARK VINA RESULT:     -13.5      0.000      0.000
REMARK SMILES O=C(OCCOC(=O)c1cc(Cl)c2c(c1)[C@H]1C=CC[C@H]1[C@H](c1ccc(S(=O)(=O)N3CCOCC3)cc1)N2)c1ccc(-c2c3nc(c(-c4c(F)cccc4F)c4ccc([nH]4)c(-c4c(F)cccc4F)c4nc(c(-c5c(F)cccc5F)c5ccc2[nH]5)C=C4)C=C3)cc1
REMARK SMILES IDX 5 1 4 2 3 3 2 4 1 5 38 6 39 7 91 8 40 9 90 10 41 11 42 12
REMARK SMILES IDX 43 13 84 14 44 15 89 16 83 17 85 18 45 19 88 20 82 21 81 22
REMARK SMILES IDX 46 24 72 25 55 26 71 27 56 28 59 29 70 30 86 31 57 32 58 33
REMARK SMILES IDX 69 35 87 36 60 37 47 38 48 39 53 40 49 41 50 42 52 43 54 44
REMARK SMILES IDX 51 45 73 46 74 47 79 48 75 49 76 50 78 51 80 52 77 53 61 54
REMARK SMILES IDX 62 55 67 56 63 57 64 58 66 59 68 60 65 61 6 62 7 63 8 64
REMARK SMILES IDX 9 65 10 66 15 67 11 68 14 69 12 70 13 71 16 72 37 73 17 74
REMARK SMILES IDX 20 75 21 76 18 78 19 79 22 80 23 81 36 82 24 83 35 84 25 85
REMARK SMILES IDX 26 86 27 87 28 88 29 89 30 90 34 91 31 92 33 93 32 94
REMARK H PARENT 85 23 59 34 37 77
REMARK Flexibility Score: inf
ROOT
ATOM      1  C   UNL A   1      42.861  20.061  25.958  1.00  0.00     0.275 C 
ENDROOT
BRANCH   1   2
ATOM      2  C   UNL A   1      43.890  21.031  25.358  1.00  0.00     0.275 C 
BRANCH   2   3
ATOM      3  O   UNL A   1      43.346  22.253  24.836  1.00  0.00    -0.458 OA
BRANCH   3   4
ATOM      4  C   UNL A   1      43.867  23.500  24.907  1.00  0.00     0.338 C 
ATOM      5  O   UNL A   1      44.902  23.754  24.291  1.00  0.00    -0.246 OA
BRANCH   4   6
ATOM      6  C   UNL A   1      43.350  24.536  25.855  1.00  0.00     0.060 A 
ATOM      7  C   UNL A   1      43.592  25.909  25.795  1.00  0.00     0.016 A 
ATOM      8  C   UNL A   1      42.530  24.059  26.890  1.00  0.00     0.016 A 
ATOM      9  C   UNL A   1      42.956  26.792  26.666  1.00  0.00     0.010 A 
ATOM     10  C   UNL A   1      41.894  24.930  27.777  1.00  0.00     0.010 A 
ATOM     11  C   UNL A   1      42.117  26.306  27.667  1.00  0.00    -0.014 A 
BRANCH  11  12
ATOM     12  C   UNL A   1      41.753  27.207  28.772  1.00  0.00     0.031 A 
ATOM     13  C   UNL A   1      42.572  27.106  30.018  1.00  0.00     0.074 A 
ATOM     14  C   UNL A   1      40.803  28.145  28.650  1.00  0.00     0.049 A 
ATOM     15  N   UNL A   1      42.528  27.839  31.095  1.00  0.00    -0.248 NA
ATOM     16  C   UNL A   1      43.623  26.072  30.025  1.00  0.00     0.031 C 
ATOM     17  C   UNL A   1      40.053  28.427  27.434  1.00  0.00     0.029 A 
ATOM     18  N   UNL A   1      40.298  29.029  29.565  1.00  0.00    -0.354 N 
ATOM     19  C   UNL A   1      43.586  27.404  31.874  1.00  0.00     0.074 A 
ATOM     20  C   UNL A   1      44.203  26.290  31.191  1.00  0.00     0.031 C 
ATOM     21  C   UNL A   1      39.115  29.352  27.700  1.00  0.00     0.029 A 
ATOM     22  C   UNL A   1      39.208  29.725  29.103  1.00  0.00     0.049 A 
ATOM     23  H   UNL A   1      40.677  29.153  30.466  1.00  0.00     0.167 HD
ATOM     24  C   UNL A   1      44.024  27.916  33.044  1.00  0.00     0.037 A 
ATOM     25  C   UNL A   1      38.373  30.555  29.754  1.00  0.00     0.037 A 
ATOM     26  C   UNL A   1      43.341  28.962  33.748  1.00  0.00     0.049 A 
ATOM     27  C   UNL A   1      38.721  30.937  31.163  1.00  0.00     0.074 A 
ATOM     28  C   UNL A   1      43.653  29.532  34.966  1.00  0.00     0.029 A 
ATOM     29  N   UNL A   1      42.171  29.567  33.303  1.00  0.00    -0.354 N 
ATOM     30  N   UNL A   1      39.750  30.559  31.884  1.00  0.00    -0.248 NA
ATOM     31  C   UNL A   1      37.831  31.890  31.836  1.00  0.00     0.031 C 
ATOM     32  C   UNL A   1      42.627  30.428  35.294  1.00  0.00     0.029 A 
ATOM     33  C   UNL A   1      41.714  30.466  34.250  1.00  0.00     0.049 A 
ATOM     34  H   UNL A   1      41.732  29.383  32.442  1.00  0.00     0.167 HD
ATOM     35  C   UNL A   1      39.667  31.268  33.073  1.00  0.00     0.074 A 
ATOM     36  C   UNL A   1      38.473  32.087  32.980  1.00  0.00     0.031 C 
ATOM     37  C   UNL A   1      40.515  31.261  34.131  1.00  0.00     0.037 A 
BRANCH  24  38
ATOM     38  C   UNL A   1      45.246  27.270  33.621  1.00  0.00     0.057 A 
ATOM     39  C   UNL A   1      46.511  27.815  33.385  1.00  0.00     0.134 A 
ATOM     40  C   UNL A   1      45.157  26.188  34.511  1.00  0.00     0.134 A 
ATOM     41  F   UNL A   1      46.659  28.861  32.559  1.00  0.00    -0.206 F 
ATOM     42  C   UNL A   1      47.645  27.323  34.032  1.00  0.00     0.040 A 
ATOM     43  C   UNL A   1      46.281  25.706  35.184  1.00  0.00     0.040 A 
ATOM     44  F   UNL A   1      43.966  25.648  34.811  1.00  0.00    -0.206 F 
ATOM     45  C   UNL A   1      47.529  26.276  34.946  1.00  0.00     0.006 A 
ENDBRANCH  24  38
BRANCH  25  46
ATOM     46  C   UNL A   1      37.145  31.054  29.084  1.00  0.00     0.057 A 
ATOM     47  C   UNL A   1      37.064  32.381  28.637  1.00  0.00     0.134 A 
ATOM     48  C   UNL A   1      36.034  30.235  28.868  1.00  0.00     0.134 A 
ATOM     49  F   UNL A   1      38.091  33.224  28.823  1.00  0.00    -0.206 F 
ATOM     50  C   UNL A   1      35.925  32.871  27.994  1.00  0.00     0.040 A 
ATOM     51  C   UNL A   1      34.893  30.707  28.213  1.00  0.00     0.040 A 
ATOM     52  F   UNL A   1      36.053  28.953  29.264  1.00  0.00    -0.206 F 
ATOM     53  C   UNL A   1      34.836  32.029  27.776  1.00  0.00     0.006 A 
ENDBRANCH  25  46
BRANCH  37  54
ATOM     54  C   UNL A   1      40.198  32.196  35.259  1.00  0.00     0.057 A 
ATOM     55  C   UNL A   1      39.296  31.812  36.261  1.00  0.00     0.134 A 
ATOM     56  C   UNL A   1      40.733  33.487  35.326  1.00  0.00     0.134 A 
ATOM     57  F   UNL A   1      38.742  30.590  36.248  1.00  0.00    -0.206 F 
ATOM     58  C   UNL A   1      38.929  32.685  37.283  1.00  0.00     0.040 A 
ATOM     59  C   UNL A   1      40.396  34.358  36.362  1.00  0.00     0.040 A 
ATOM     60  F   UNL A   1      41.612  33.908  34.403  1.00  0.00    -0.206 F 
ATOM     61  C   UNL A   1      39.484  33.961  37.338  1.00  0.00     0.006 A 
ENDBRANCH  37  54
ENDBRANCH  11  12
ENDBRANCH   4   6
ENDBRANCH   3   4
ENDBRANCH   2   3
ENDBRANCH   1   2
BRANCH   1  62
ATOM     62  O   UNL A   1      41.642  20.672  26.417  1.00  0.00    -0.458 OA
BRANCH  62  63
ATOM     63  C   UNL A   1      40.496  20.070  26.003  1.00  0.00     0.338 C 
ATOM     64  O   UNL A   1      40.344  18.890  25.748  1.00  0.00    -0.246 OA
BRANCH  63  65
ATOM     65  C   UNL A   1      39.391  21.052  25.995  1.00  0.00     0.062 A 
ATOM     66  C   UNL A   1      39.557  22.313  26.559  1.00  0.00     0.038 A 
ATOM     67  C   UNL A   1      38.200  20.740  25.326  1.00  0.00     0.022 A 
ATOM     68  C   UNL A   1      38.501  23.225  26.499  1.00  0.00     0.065 A 
ATOM     69  C   UNL A   1      37.117  21.644  25.315  1.00  0.00    -0.015 A 
ATOM     70  Cl  UNL A   1      38.810  24.853  27.010  1.00  0.00    -0.082 Cl
ATOM     71  C   UNL A   1      37.235  22.871  25.981  1.00  0.00     0.057 A 
ATOM     72  C   UNL A   1      35.894  21.345  24.487  1.00  0.00     0.049 C 
ATOM     73  N   UNL A   1      36.173  23.763  26.023  1.00  0.00    -0.376 N 
ATOM     74  C   UNL A   1      34.925  20.323  25.015  1.00  0.00    -0.023 C 
ATOM     75  C   UNL A   1      34.960  22.559  24.254  1.00  0.00     0.031 C 
ATOM     76  C   UNL A   1      34.840  23.407  25.548  1.00  0.00     0.114 C 
ATOM     77  H   UNL A   1      36.324  24.666  26.385  1.00  0.00     0.161 HD
ATOM     78  C   UNL A   1      33.673  20.614  24.640  1.00  0.00    -0.030 C 
ATOM     79  C   UNL A   1      33.644  21.875  23.836  1.00  0.00     0.034 C 
BRANCH  76  80
ATOM     80  C   UNL A   1      34.031  24.692  25.334  1.00  0.00    -0.025 A 
ATOM     81  C   UNL A   1      32.970  25.049  26.187  1.00  0.00     0.007 A 
ATOM     82  C   UNL A   1      34.342  25.558  24.270  1.00  0.00     0.007 A 
ATOM     83  C   UNL A   1      32.274  26.248  26.011  1.00  0.00     0.022 A 
ATOM     84  C   UNL A   1      33.657  26.767  24.099  1.00  0.00     0.022 A 
ATOM     85  C   UNL A   1      32.643  27.119  24.987  1.00  0.00     0.082 A 
BRANCH  85  86
ATOM     86  S   UNL A   1      31.831  28.698  24.845  1.00  0.00     0.243 S 
ATOM     87  O   UNL A   1      31.029  28.869  26.030  1.00  0.00    -0.207 OA
ATOM     88  O   UNL A   1      32.851  29.663  24.472  1.00  0.00    -0.207 OA
BRANCH  86  89
ATOM     89  N   UNL A   1      30.832  28.515  23.518  1.00  0.00    -0.193 NA
ATOM     90  C   UNL A   1      30.897  29.407  22.344  1.00  0.00     0.131 C 
ATOM     91  C   UNL A   1      29.728  27.541  23.501  1.00  0.00     0.131 C 
ATOM     92  C   UNL A   1      29.514  29.981  22.004  1.00  0.00     0.177 C 
ATOM     93  C   UNL A   1      28.413  28.258  23.188  1.00  0.00     0.177 C 
ATOM     94  O   UNL A   1      28.500  28.968  21.944  1.00  0.00    -0.379 OA
ENDBRANCH  86  89
ENDBRANCH  85  86
ENDBRANCH  76  80
ENDBRANCH  63  65
ENDBRANCH  62  63
ENDBRANCH   1  62
TORSDOF 14
ENDMDL
MODEL 2
REMARK VINA RESULT:     -13.4      0.908      5.946
REMARK SMILES O=C(OCCOC(=O)c1cc(Cl)c2c(c1)[C@H]1C=CC[C@H]1[C@H](c1ccc(S(=O)(=O)N3CCOCC3)cc1)N2)c1ccc(-c2c3nc(c(-c4c(F)cccc4F)c4ccc([nH]4)c(-c4c(F)cccc4F)c4nc(c(-c5c(F)cccc5F)c5ccc2[nH]5)C=C4)C=C3)cc1
REMARK SMILES IDX 5 1 4 2 3 3 2 4 1 5 38 6 39 7 91 8 40 9 90 10 41 11 42 12
REMARK SMILES IDX 43 13 84 14 44 15 89 16 83 17 85 18 45 19 88 20 82 21 81 22
REMARK SMILES IDX 46 24 72 25 55 26 71 27 56 28 59 29 70 30 86 31 57 32 58 33
REMARK SMILES IDX 69 35 87 36 60 37 47 38 48 39 53 40 49 41 50 42 52 43 54 44
REMARK SMILES IDX 51 45 73 46 74 47 79 48 75 49 76 50 78 51 80 52 77 53 61 54
REMARK SMILES IDX 62 55 67 56 63 57 64 58 66 59 68 60 65 61 6 62 7 63 8 64
REMARK SMILES IDX 9 65 10 66 15 67 11 68 14 69 12 70 13 71 16 72 37 73 17 74
REMARK SMILES IDX 20 75 21 76 18 78 19 79 22 80 23 81 36 82 24 83 35 84 25 85
REMARK SMILES IDX 26 86 27 87 28 88 29 89 30 90 34 91 31 92 33 93 32 94
REMARK H PARENT 85 23 59 34 37 77
REMARK Flexibility Score: inf
ROOT
ATOM      1  C   UNL A   1      43.110  20.591  25.751  1.00  0.00     0.275 C 
ENDROOT
BRANCH   1   2
ATOM      2  C   UNL A   1      44.051  21.726  25.322  1.00  0.00     0.275 C 
BRANCH   2   3
ATOM      3  O   UNL A   1      43.489  23.045  25.392  1.00  0.00    -0.458 OA
BRANCH   3   4
ATOM      4  C   UNL A   1      44.121  24.212  25.661  1.00  0.00     0.338 C 
ATOM      5  O   UNL A   1      45.234  24.417  25.177  1.00  0.00    -0.246 OA
BRANCH   4   6
ATOM      6  C   UNL A   1      43.614  25.187  26.676  1.00  0.00     0.060 A 
ATOM      7  C   UNL A   1      44.085  26.483  26.888  1.00  0.00     0.016 A 
ATOM      8  C   UNL A   1      42.548  24.738  27.473  1.00  0.00     0.016 A 
ATOM      9  C   UNL A   1      43.450  27.344  27.783  1.00  0.00     0.010 A 
ATOM     10  C   UNL A   1      41.909  25.584  28.382  1.00  0.00     0.010 A 
ATOM     11  C   UNL A   1      42.371  26.893  28.542  1.00  0.00    -0.014 A 
BRANCH  11  12
ATOM     12  C   UNL A   1      41.961  27.687  29.712  1.00  0.00     0.031 A 
ATOM     13  C   UNL A   1      40.813  28.624  29.519  1.00  0.00     0.074 A 
ATOM     14  C   UNL A   1      42.514  27.519  30.922  1.00  0.00     0.049 A 
ATOM     15  N   UNL A   1      40.195  29.362  30.398  1.00  0.00    -0.248 NA
ATOM     16  C   UNL A   1      40.251  28.693  28.159  1.00  0.00     0.031 C 
ATOM     17  C   UNL A   1      43.530  26.529  31.251  1.00  0.00     0.029 A 
ATOM     18  N   UNL A   1      42.304  28.185  32.100  1.00  0.00    -0.354 N 
ATOM     19  C   UNL A   1      39.131  29.926  29.714  1.00  0.00     0.074 A 
ATOM     20  C   UNL A   1      39.233  29.516  28.333  1.00  0.00     0.031 C 
ATOM     21  C   UNL A   1      43.928  26.713  32.521  1.00  0.00     0.029 A 
ATOM     22  C   UNL A   1      43.186  27.829  33.089  1.00  0.00     0.049 A 
ATOM     23  H   UNL A   1      41.591  28.854  32.225  1.00  0.00     0.167 HD
ATOM     24  C   UNL A   1      38.135  30.692  30.210  1.00  0.00     0.037 A 
ATOM     25  C   UNL A   1      43.381  28.363  34.308  1.00  0.00     0.037 A 
ATOM     26  C   UNL A   1      38.105  31.160  31.565  1.00  0.00     0.049 A 
ATOM     27  C   UNL A   1      42.415  29.414  34.776  1.00  0.00     0.074 A 
ATOM     28  C   UNL A   1      37.181  31.984  32.175  1.00  0.00     0.029 A 
ATOM     29  N   UNL A   1      39.082  30.872  32.512  1.00  0.00    -0.354 N 
ATOM     30  N   UNL A   1      41.379  29.912  34.144  1.00  0.00    -0.248 NA
ATOM     31  C   UNL A   1      42.606  29.942  36.131  1.00  0.00     0.031 C 
ATOM     32  C   UNL A   1      37.641  32.257  33.470  1.00  0.00     0.029 A 
ATOM     33  C   UNL A   1      38.814  31.548  33.688  1.00  0.00     0.049 A 
ATOM     34  H   UNL A   1      39.851  30.275  32.367  1.00  0.00     0.167 HD
ATOM     35  C   UNL A   1      40.759  30.771  35.040  1.00  0.00     0.074 A 
ATOM     36  C   UNL A   1      41.551  30.734  36.256  1.00  0.00     0.031 C 
ATOM     37  C   UNL A   1      39.627  31.499  34.880  1.00  0.00     0.037 A 
BRANCH  24  38
ATOM     38  C   UNL A   1      37.079  31.098  29.231  1.00  0.00     0.057 A 
ATOM     39  C   UNL A   1      36.051  30.214  28.893  1.00  0.00     0.134 A 
ATOM     40  C   UNL A   1      37.007  32.405  28.723  1.00  0.00     0.134 A 
ATOM     41  F   UNL A   1      36.052  28.957  29.360  1.00  0.00    -0.206 F 
ATOM     42  C   UNL A   1      34.974  30.620  28.103  1.00  0.00     0.040 A 
ATOM     43  C   UNL A   1      35.921  32.829  27.956  1.00  0.00     0.040 A 
ATOM     44  F   UNL A   1      37.941  33.314  29.046  1.00  0.00    -0.206 F 
ATOM     45  C   UNL A   1      34.900  31.935  27.646  1.00  0.00     0.006 A 
ENDBRANCH  24  38
BRANCH  25  46
ATOM     46  C   UNL A   1      44.528  27.924  35.142  1.00  0.00     0.057 A 
ATOM     47  C   UNL A   1      44.365  26.923  36.112  1.00  0.00     0.134 A 
ATOM     48  C   UNL A   1      45.804  28.474  34.997  1.00  0.00     0.134 A 
ATOM     49  F   UNL A   1      43.163  26.361  36.311  1.00  0.00    -0.206 F 
ATOM     50  C   UNL A   1      45.430  26.484  36.901  1.00  0.00     0.040 A 
ATOM     51  C   UNL A   1      46.883  28.034  35.768  1.00  0.00     0.040 A 
ATOM     52  F   UNL A   1      46.027  29.428  34.080  1.00  0.00    -0.206 F 
ATOM     53  C   UNL A   1      46.697  27.038  36.724  1.00  0.00     0.006 A 
ENDBRANCH  25  46
BRANCH  37  54
ATOM     54  C   UNL A   1      39.157  32.289  36.064  1.00  0.00     0.057 A 
ATOM     55  C   UNL A   1      38.225  31.738  36.954  1.00  0.00     0.134 A 
ATOM     56  C   UNL A   1      39.577  33.604  36.293  1.00  0.00     0.134 A 
ATOM     57  F   UNL A   1      37.778  30.484  36.784  1.00  0.00    -0.206 F 
ATOM     58  C   UNL A   1      37.718  32.473  38.024  1.00  0.00     0.040 A 
ATOM     59  C   UNL A   1      39.098  34.338  37.378  1.00  0.00     0.040 A 
ATOM     60  F   UNL A   1      40.477  34.182  35.483  1.00  0.00    -0.206 F 
ATOM     61  C   UNL A   1      38.159  33.777  38.241  1.00  0.00     0.006 A 
ENDBRANCH  37  54
ENDBRANCH  11  12
ENDBRANCH   4   6
ENDBRANCH   3   4
ENDBRANCH   2   3
ENDBRANCH   1   2
BRANCH   1  62
ATOM     62  O   UNL A   1      41.909  21.015  26.420  1.00  0.00    -0.458 OA
BRANCH  62  63
ATOM     63  C   UNL A   1      40.774  20.363  26.050  1.00  0.00     0.338 C 
ATOM     64  O   UNL A   1      40.657  19.173  25.829  1.00  0.00    -0.246 OA
BRANCH  63  65
ATOM     65  C   UNL A   1      39.637  21.308  26.043  1.00  0.00     0.062 A 
ATOM     66  C   UNL A   1      39.755  22.565  26.626  1.00  0.00     0.038 A 
ATOM     67  C   UNL A   1      38.464  20.965  25.359  1.00  0.00     0.022 A 
ATOM     68  C   UNL A   1      38.668  23.442  26.568  1.00  0.00     0.065 A 
ATOM     69  C   UNL A   1      37.351  21.831  25.349  1.00  0.00    -0.015 A 
ATOM     70  Cl  UNL A   1      38.917  25.072  27.103  1.00  0.00    -0.082 Cl
ATOM     71  C   UNL A   1      37.420  23.052  26.032  1.00  0.00     0.057 A 
ATOM     72  C   UNL A   1      36.146  21.502  24.504  1.00  0.00     0.049 C 
ATOM     73  N   UNL A   1      36.328  23.906  26.075  1.00  0.00    -0.376 N 
ATOM     74  C   UNL A   1      35.208  20.440  25.009  1.00  0.00    -0.023 C 
ATOM     75  C   UNL A   1      35.174  22.686  24.278  1.00  0.00     0.031 C 
ATOM     76  C   UNL A   1      35.012  23.512  25.582  1.00  0.00     0.114 C 
ATOM     77  H   UNL A   1      36.445  24.809  26.450  1.00  0.00     0.161 HD
ATOM     78  C   UNL A   1      33.950  20.694  24.625  1.00  0.00    -0.030 C 
ATOM     79  C   UNL A   1      33.886  21.964  23.838  1.00  0.00     0.034 C 
BRANCH  76  80
ATOM     80  C   UNL A   1      34.162  24.771  25.377  1.00  0.00    -0.025 A 
ATOM     81  C   UNL A   1      33.170  25.153  26.300  1.00  0.00     0.007 A 
ATOM     82  C   UNL A   1      34.364  25.589  24.250  1.00  0.00     0.007 A 
ATOM     83  C   UNL A   1      32.437  26.331  26.127  1.00  0.00     0.022 A 
ATOM     84  C   UNL A   1      33.643  26.777  24.080  1.00  0.00     0.022 A 
ATOM     85  C   UNL A   1      32.700  27.156  25.035  1.00  0.00     0.082 A 
BRANCH  85  86
ATOM     86  S   UNL A   1      31.847  28.712  24.888  1.00  0.00     0.243 S 
ATOM     87  O   UNL A   1      31.032  28.861  26.066  1.00  0.00    -0.207 OA
ATOM     88  O   UNL A   1      32.844  29.704  24.522  1.00  0.00    -0.207 OA
BRANCH  86  89
ATOM     89  N   UNL A   1      30.863  28.503  23.553  1.00  0.00    -0.193 NA
ATOM     90  C   UNL A   1      30.922  29.388  22.374  1.00  0.00     0.131 C 
ATOM     91  C   UNL A   1      29.776  27.509  23.533  1.00  0.00     0.131 C 
ATOM     92  C   UNL A   1      29.532  29.935  22.019  1.00  0.00     0.177 C 
ATOM     93  C   UNL A   1      28.452  28.201  23.205  1.00  0.00     0.177 C 
ATOM     94  O   UNL A   1      28.537  28.904  21.956  1.00  0.00    -0.379 OA
ENDBRANCH  86  89
ENDBRANCH  85  86
ENDBRANCH  76  80
ENDBRANCH  63  65
ENDBRANCH  62  63
ENDBRANCH   1  62
TORSDOF 14
ENDMDL
MODEL 3
REMARK VINA RESULT:     -13.2      4.049      9.656
REMARK SMILES O=C(OCCOC(=O)c1cc(Cl)c2c(c1)[C@H]1C=CC[C@H]1[C@H](c1ccc(S(=O)(=O)N3CCOCC3)cc1)N2)c1ccc(-c2c3nc(c(-c4c(F)cccc4F)c4ccc([nH]4)c(-c4c(F)cccc4F)c4nc(c(-c5c(F)cccc5F)c5ccc2[nH]5)C=C4)C=C3)cc1
REMARK SMILES IDX 5 1 4 2 3 3 2 4 1 5 38 6 39 7 91 8 40 9 90 10 41 11 42 12
REMARK SMILES IDX 43 13 84 14 44 15 89 16 83 17 85 18 45 19 88 20 82 21 81 22
REMARK SMILES IDX 46 24 72 25 55 26 71 27 56 28 59 29 70 30 86 31 57 32 58 33
REMARK SMILES IDX 69 35 87 36 60 37 47 38 48 39 53 40 49 41 50 42 52 43 54 44
REMARK SMILES IDX 51 45 73 46 74 47 79 48 75 49 76 50 78 51 80 52 77 53 61 54
REMARK SMILES IDX 62 55 67 56 63 57 64 58 66 59 68 60 65 61 6 62 7 63 8 64
REMARK SMILES IDX 9 65 10 66 15 67 11 68 14 69 12 70 13 71 16 72 37 73 17 74
REMARK SMILES IDX 20 75 21 76 18 78 19 79 22 80 23 81 36 82 24 83 35 84 25 85
REMARK SMILES IDX 26 86 27 87 28 88 29 89 30 90 34 91 31 92 33 93 32 94
REMARK H PARENT 85 23 59 34 37 77
REMARK Flexibility Score: inf
ROOT
ATOM      1  C   UNL A   1      33.764  34.766  29.845  1.00  0.00     0.275 C 
ENDROOT
BRANCH   1   2
ATOM      2  C   UNL A   1      34.040  34.403  31.312  1.00  0.00     0.275 C 
BRANCH   2   3
ATOM      3  O   UNL A   1      34.350  33.021  31.551  1.00  0.00    -0.458 OA
BRANCH   3   4
ATOM      4  C   UNL A   1      35.304  32.504  32.361  1.00  0.00     0.338 C 
ATOM      5  O   UNL A   1      35.286  32.781  33.561  1.00  0.00    -0.246 OA
BRANCH   4   6
ATOM      6  C   UNL A   1      36.493  31.765  31.835  1.00  0.00     0.060 A 
ATOM      7  C   UNL A   1      37.317  30.900  32.557  1.00  0.00     0.016 A 
ATOM      8  C   UNL A   1      36.782  31.964  30.476  1.00  0.00     0.016 A 
ATOM      9  C   UNL A   1      38.326  30.172  31.927  1.00  0.00     0.010 A 
ATOM     10  C   UNL A   1      37.797  31.251  29.833  1.00  0.00     0.010 A 
ATOM     11  C   UNL A   1      38.578  30.355  30.569  1.00  0.00    -0.014 A 
BRANCH  11  12
ATOM     12  C   UNL A   1      39.851  29.859  30.022  1.00  0.00     0.031 A 
ATOM     13  C   UNL A   1      40.974  30.842  29.934  1.00  0.00     0.074 A 
ATOM     14  C   UNL A   1      40.042  28.570  29.705  1.00  0.00     0.049 A 
ATOM     15  N   UNL A   1      42.214  30.647  29.584  1.00  0.00    -0.248 NA
ATOM     16  C   UNL A   1      40.666  32.221  30.354  1.00  0.00     0.031 C 
ATOM     17  C   UNL A   1      39.066  27.506  29.895  1.00  0.00     0.029 A 
ATOM     18  N   UNL A   1      41.121  27.938  29.147  1.00  0.00    -0.354 N 
ATOM     19  C   UNL A   1      42.848  31.857  29.810  1.00  0.00     0.074 A 
ATOM     20  C   UNL A   1      41.846  32.802  30.244  1.00  0.00     0.031 C 
ATOM     21  C   UNL A   1      39.551  26.366  29.373  1.00  0.00     0.029 A 
ATOM     22  C   UNL A   1      40.872  26.627  28.822  1.00  0.00     0.049 A 
ATOM     23  H   UNL A   1      41.988  28.379  28.994  1.00  0.00     0.167 HD
ATOM     24  C   UNL A   1      44.163  32.141  29.696  1.00  0.00     0.037 A 
ATOM     25  C   UNL A   1      41.626  25.749  28.136  1.00  0.00     0.037 A 
ATOM     26  C   UNL A   1      45.125  31.213  29.176  1.00  0.00     0.049 A 
ATOM     27  C   UNL A   1      43.026  26.156  27.777  1.00  0.00     0.074 A 
ATOM     28  C   UNL A   1      46.476  31.396  28.961  1.00  0.00     0.029 A 
ATOM     29  N   UNL A   1      44.815  29.928  28.746  1.00  0.00    -0.354 N 
ATOM     30  N   UNL A   1      43.641  27.287  28.033  1.00  0.00    -0.248 NA
ATOM     31  C   UNL A   1      43.853  25.164  27.082  1.00  0.00     0.031 C 
ATOM     32  C   UNL A   1      46.968  30.247  28.328  1.00  0.00     0.029 A 
ATOM     33  C   UNL A   1      45.939  29.323  28.213  1.00  0.00     0.049 A 
ATOM     34  H   UNL A   1      43.927  29.509  28.811  1.00  0.00     0.167 HD
ATOM     35  C   UNL A   1      44.943  27.126  27.584  1.00  0.00     0.074 A 
ATOM     36  C   UNL A   1      45.021  25.789  27.023  1.00  0.00     0.031 C 
ATOM     37  C   UNL A   1      45.983  27.993  27.653  1.00  0.00     0.037 A 
BRANCH  24  38
ATOM     38  C   UNL A   1      44.565  33.532  30.078  1.00  0.00     0.057 A 
ATOM     39  C   UNL A   1      45.045  33.800  31.363  1.00  0.00     0.134 A 
ATOM     40  C   UNL A   1      44.596  34.575  29.139  1.00  0.00     0.134 A 
ATOM     41  F   UNL A   1      45.058  32.841  32.300  1.00  0.00    -0.206 F 
ATOM     42  C   UNL A   1      45.565  35.051  31.697  1.00  0.00     0.040 A 
ATOM     43  C   UNL A   1      45.140  35.821  29.455  1.00  0.00     0.040 A 
ATOM     44  F   UNL A   1      44.189  34.369  27.878  1.00  0.00    -0.206 F 
ATOM     45  C   UNL A   1      45.628  36.060  30.737  1.00  0.00     0.006 A 
ENDBRANCH  24  38
BRANCH  25  46
ATOM     46  C   UNL A   1      41.067  24.431  27.745  1.00  0.00     0.057 A 
ATOM     47  C   UNL A   1      40.118  24.333  26.716  1.00  0.00     0.134 A 
ATOM     48  C   UNL A   1      41.458  23.244  28.371  1.00  0.00     0.134 A 
ATOM     49  F   UNL A   1      39.691  25.434  26.081  1.00  0.00    -0.206 F 
ATOM     50  C   UNL A   1      39.586  23.104  26.322  1.00  0.00     0.040 A 
ATOM     51  C   UNL A   1      40.945  22.005  27.978  1.00  0.00     0.040 A 
ATOM     52  F   UNL A   1      42.369  23.269  29.356  1.00  0.00    -0.206 F 
ATOM     53  C   UNL A   1      40.005  21.933  26.952  1.00  0.00     0.006 A 
ENDBRANCH  25  46
BRANCH  37  54
ATOM     54  C   UNL A   1      47.306  27.507  27.142  1.00  0.00     0.057 A 
ATOM     55  C   UNL A   1      47.660  27.710  25.801  1.00  0.00     0.134 A 
ATOM     56  C   UNL A   1      48.197  26.794  27.950  1.00  0.00     0.134 A 
ATOM     57  F   UNL A   1      46.844  28.379  24.973  1.00  0.00    -0.206 F 
ATOM     58  C   UNL A   1      48.852  27.209  25.280  1.00  0.00     0.040 A 
ATOM     59  C   UNL A   1      49.407  26.315  27.447  1.00  0.00     0.040 A 
ATOM     60  F   UNL A   1      47.920  26.580  29.246  1.00  0.00    -0.206 F 
ATOM     61  C   UNL A   1      49.732  26.513  26.106  1.00  0.00     0.006 A 
ENDBRANCH  37  54
ENDBRANCH  11  12
ENDBRANCH   4   6
ENDBRANCH   3   4
ENDBRANCH   2   3
ENDBRANCH   1   2
BRANCH   1  62
ATOM     62  O   UNL A   1      34.117  33.752  28.889  1.00  0.00    -0.458 OA
BRANCH  62  63
ATOM     63  C   UNL A   1      33.117  33.362  28.055  1.00  0.00     0.338 C 
ATOM     64  O   UNL A   1      32.176  34.037  27.679  1.00  0.00    -0.246 OA
BRANCH  63  65
ATOM     65  C   UNL A   1      33.379  31.991  27.568  1.00  0.00     0.062 A 
ATOM     66  C   UNL A   1      34.589  31.361  27.837  1.00  0.00     0.038 A 
ATOM     67  C   UNL A   1      32.359  31.289  26.912  1.00  0.00     0.022 A 
ATOM     68  C   UNL A   1      34.785  30.052  27.389  1.00  0.00     0.065 A 
ATOM     69  C   UNL A   1      32.579  29.987  26.415  1.00  0.00    -0.015 A 
ATOM     70  Cl  UNL A   1      36.206  29.219  27.927  1.00  0.00    -0.082 Cl
ATOM     71  C   UNL A   1      33.835  29.389  26.580  1.00  0.00     0.057 A 
ATOM     72  C   UNL A   1      31.436  29.202  25.825  1.00  0.00     0.049 C 
ATOM     73  N   UNL A   1      34.095  28.127  26.066  1.00  0.00    -0.376 N 
ATOM     74  C   UNL A   1      30.982  29.563  24.438  1.00  0.00    -0.023 C 
ATOM     75  C   UNL A   1      31.707  27.685  25.672  1.00  0.00     0.031 C 
ATOM     76  C   UNL A   1      33.159  27.440  25.181  1.00  0.00     0.114 C 
ATOM     77  H   UNL A   1      34.938  27.679  26.306  1.00  0.00     0.161 HD
ATOM     78  C   UNL A   1      30.521  28.485  23.791  1.00  0.00    -0.030 C 
ATOM     79  C   UNL A   1      30.629  27.268  24.653  1.00  0.00     0.034 C 
BRANCH  76  80
ATOM     80  C   UNL A   1      33.520  25.951  25.138  1.00  0.00    -0.025 A 
ATOM     81  C   UNL A   1      34.035  25.347  23.975  1.00  0.00     0.007 A 
ATOM     82  C   UNL A   1      33.351  25.145  26.279  1.00  0.00     0.007 A 
ATOM     83  C   UNL A   1      34.408  24.000  23.964  1.00  0.00     0.022 A 
ATOM     84  C   UNL A   1      33.737  23.799  26.277  1.00  0.00     0.022 A 
ATOM     85  C   UNL A   1      34.289  23.239  25.127  1.00  0.00     0.082 A 
BRANCH  85  86
ATOM     86  S   UNL A   1      34.878  21.559  25.138  1.00  0.00     0.243 S 
ATOM     87  O   UNL A   1      35.667  21.380  23.945  1.00  0.00    -0.207 OA
ATOM     88  O   UNL A   1      35.432  21.317  26.460  1.00  0.00    -0.207 OA
BRANCH  86  89
ATOM     89  N   UNL A   1      33.483  20.646  25.026  1.00  0.00    -0.193 NA
ATOM     90  C   UNL A   1      33.003  19.787  26.125  1.00  0.00     0.131 C 
ATOM     91  C   UNL A   1      32.725  20.532  23.768  1.00  0.00     0.131 C 
ATOM     92  C   UNL A   1      32.742  18.354  25.639  1.00  0.00     0.177 C 
ATOM     93  C   UNL A   1      32.576  19.057  23.389  1.00  0.00     0.177 C 
ATOM     94  O   UNL A   1      31.946  18.317  24.446  1.00  0.00    -0.379 OA
ENDBRANCH  86  89
ENDBRANCH  85  86
ENDBRANCH  76  80
ENDBRANCH  63  65
ENDBRANCH  62  63
ENDBRANCH   1  62
TORSDOF 14
ENDMDL
