MODEL 1
REMARK VINA RESULT:     -11.3      0.000      0.000
REMARK SMILES C[N@@H+]1CCC[C@@H](C(=O)N[C@H](C(=O)OCCOC(=O)c2ccc(-c3c4nc(c(-c5c(F)cccc5F)c5ccc([nH]5)c(-c5c(F)cccc5F)c5nc(c(-c6c(F)cccc6F)c6ccc3[nH]6)C=C5)C=C4)cc2)c2ccccc2)C1
REMARK SMILES IDX 14 1 13 2 11 3 12 4 10 5 9 6 7 7 8 8 6 10 1 11 2 12 3 13
REMARK SMILES IDX 79 14 4 16 5 17 73 18 74 19 78 20 75 21 77 22 76 23 15 24
REMARK SMILES IDX 16 25 17 26 18 27 19 28 20 29 72 30 21 31 71 32 22 33 23 34
REMARK SMILES IDX 24 35 65 36 25 37 70 38 64 39 66 40 26 41 69 42 63 43 62 44
REMARK SMILES IDX 27 46 53 47 36 48 52 49 37 50 40 51 51 52 67 53 38 54 39 55
REMARK SMILES IDX 50 57 68 58 41 59 28 60 29 61 34 62 30 63 31 64 33 65 35 66
REMARK SMILES IDX 32 67 54 68 55 69 60 70 56 71 57 72 59 73 61 74 58 75 42 76
REMARK SMILES IDX 43 77 48 78 44 79 45 80 47 81 49 82 46 83
REMARK H PARENT 9 9 2 15 66 45 40 56
REMARK Flexibility Score: inf
ROOT
ATOM      1  C   UNL A   1      33.791  29.525  26.648  1.00  0.00     0.274 C 
ENDROOT
BRANCH   1   2
ATOM      2  O   UNL A   1      33.467  28.280  27.301  1.00  0.00    -0.460 OA
BRANCH   2   3
ATOM      3  C   UNL A   1      32.185  27.853  27.206  1.00  0.00     0.333 C 
ATOM      4  O   UNL A   1      31.337  28.144  28.051  1.00  0.00    -0.249 OA
BRANCH   3   5
ATOM      5  C   UNL A   1      31.867  26.915  26.017  1.00  0.00     0.223 C 
BRANCH   5   6
ATOM      6  N   UNL A   1      31.137  25.764  26.581  1.00  0.00    -0.339 N 
ATOM      7  C   UNL A   1      31.327  24.427  26.555  1.00  0.00     0.229 C 
ATOM      8  O   UNL A   1      30.537  23.762  27.238  1.00  0.00    -0.275 OA
ATOM      9  H   UNL A   1      30.336  26.027  27.087  1.00  0.00     0.164 HD
BRANCH   7  10
ATOM     10  C   UNL A   1      32.402  23.691  25.757  1.00  0.00     0.133 C 
ATOM     11  C   UNL A   1      32.685  24.841  22.151  1.00  0.00     0.332 C 
ATOM     12  N   UNL A   1      32.956  24.796  23.584  1.00  0.00    -0.337 N 
ATOM     13  C   UNL A   1      34.390  24.694  23.863  1.00  0.00     0.262 C 
ATOM     14  C   UNL A   1      32.212  23.716  24.238  1.00  0.00     0.275 C 
ATOM     15  H   UNL A   1      32.632  25.679  23.977  1.00  0.00     0.347 HD
ATOM     16  C   UNL A   1      34.650  24.876  25.357  1.00  0.00     0.062 C 
ATOM     17  C   UNL A   1      33.839  23.922  26.227  1.00  0.00     0.025 C 
ENDBRANCH   7  10
ENDBRANCH   5   6
BRANCH   5  18
ATOM     18  C   UNL A   1      31.131  27.384  24.756  1.00  0.00    -0.014 A 
ATOM     19  C   UNL A   1      29.843  27.000  24.366  1.00  0.00     0.006 A 
ATOM     20  C   UNL A   1      31.763  28.369  23.959  1.00  0.00     0.006 A 
ATOM     21  C   UNL A   1      29.230  27.550  23.230  1.00  0.00     0.000 A 
ATOM     22  C   UNL A   1      31.156  28.920  22.828  1.00  0.00     0.000 A 
ATOM     23  C   UNL A   1      29.885  28.507  22.462  1.00  0.00     0.000 A 
ENDBRANCH   5  18
ENDBRANCH   3   5
ENDBRANCH   2   3
ENDBRANCH   1   2
BRANCH   1  24
ATOM     24  C   UNL A   1      33.800  30.695  27.632  1.00  0.00     0.275 C 
BRANCH  24  25
ATOM     25  O   UNL A   1      35.122  31.246  27.777  1.00  0.00    -0.458 OA
BRANCH  25  26
ATOM     26  C   UNL A   1      35.724  30.982  28.957  1.00  0.00     0.338 C 
ATOM     27  O   UNL A   1      35.340  31.287  30.072  1.00  0.00    -0.246 OA
BRANCH  26  28
ATOM     28  C   UNL A   1      36.928  30.171  28.735  1.00  0.00     0.060 A 
ATOM     29  C   UNL A   1      37.587  29.653  29.846  1.00  0.00     0.016 A 
ATOM     30  C   UNL A   1      37.503  30.082  27.469  1.00  0.00     0.016 A 
ATOM     31  C   UNL A   1      38.867  29.129  29.719  1.00  0.00     0.010 A 
ATOM     32  C   UNL A   1      38.761  29.483  27.329  1.00  0.00     0.010 A 
ATOM     33  C   UNL A   1      39.471  29.039  28.461  1.00  0.00    -0.014 A 
BRANCH  33  34
ATOM     34  C   UNL A   1      40.875  28.572  28.355  1.00  0.00     0.031 A 
ATOM     35  C   UNL A   1      41.999  29.518  28.670  1.00  0.00     0.074 A 
ATOM     36  C   UNL A   1      41.150  27.290  28.048  1.00  0.00     0.049 A 
ATOM     37  N   UNL A   1      43.284  29.372  28.473  1.00  0.00    -0.248 NA
ATOM     38  C   UNL A   1      41.626  30.803  29.281  1.00  0.00     0.031 C 
ATOM     39  C   UNL A   1      40.157  26.240  27.818  1.00  0.00     0.029 A 
ATOM     40  N   UNL A   1      42.353  26.648  27.903  1.00  0.00    -0.354 N 
ATOM     41  C   UNL A   1      43.864  30.569  28.872  1.00  0.00     0.074 A 
ATOM     42  C   UNL A   1      42.794  31.425  29.338  1.00  0.00     0.031 C 
ATOM     43  C   UNL A   1      40.791  25.075  27.614  1.00  0.00     0.029 A 
ATOM     44  C   UNL A   1      42.231  25.311  27.618  1.00  0.00     0.049 A 
ATOM     45  H   UNL A   1      43.222  27.103  27.995  1.00  0.00     0.167 HD
ATOM     46  C   UNL A   1      45.172  30.923  28.840  1.00  0.00     0.037 A 
ATOM     47  C   UNL A   1      43.173  24.386  27.362  1.00  0.00     0.037 A 
ATOM     48  C   UNL A   1      46.238  30.044  28.439  1.00  0.00     0.049 A 
ATOM     49  C   UNL A   1      44.615  24.801  27.317  1.00  0.00     0.074 A 
ATOM     50  C   UNL A   1      47.591  30.314  28.333  1.00  0.00     0.029 A 
ATOM     51  N   UNL A   1      46.069  28.707  28.110  1.00  0.00    -0.354 N 
ATOM     52  N   UNL A   1      45.144  25.975  27.559  1.00  0.00    -0.248 NA
ATOM     53  C   UNL A   1      45.587  23.769  26.928  1.00  0.00     0.031 C 
ATOM     54  C   UNL A   1      48.240  29.140  27.929  1.00  0.00     0.029 A 
ATOM     55  C   UNL A   1      47.293  28.136  27.807  1.00  0.00     0.049 A 
ATOM     56  H   UNL A   1      45.205  28.234  28.096  1.00  0.00     0.167 HD
ATOM     57  C   UNL A   1      46.508  25.827  27.351  1.00  0.00     0.074 A 
ATOM     58  C   UNL A   1      46.727  24.442  26.983  1.00  0.00     0.031 C 
ATOM     59  C   UNL A   1      47.487  26.757  27.444  1.00  0.00     0.037 A 
BRANCH  46  60
ATOM     60  C   UNL A   1      45.503  32.338  29.199  1.00  0.00     0.057 A 
ATOM     61  C   UNL A   1      45.475  33.373  28.256  1.00  0.00     0.134 A 
ATOM     62  C   UNL A   1      45.862  32.665  30.513  1.00  0.00     0.134 A 
ATOM     63  F   UNL A   1      45.160  33.121  26.978  1.00  0.00    -0.206 F 
ATOM     64  C   UNL A   1      45.815  34.682  28.606  1.00  0.00     0.040 A 
ATOM     65  C   UNL A   1      46.184  33.973  30.877  1.00  0.00     0.040 A 
ATOM     66  F   UNL A   1      45.908  31.717  31.461  1.00  0.00    -0.206 F 
ATOM     67  C   UNL A   1      46.168  34.984  29.920  1.00  0.00     0.006 A 
ENDBRANCH  46  60
BRANCH  47  68
ATOM     68  C   UNL A   1      42.774  22.983  27.095  1.00  0.00     0.057 A 
ATOM     69  C   UNL A   1      42.408  22.130  28.140  1.00  0.00     0.134 A 
ATOM     70  C   UNL A   1      42.728  22.471  25.792  1.00  0.00     0.134 A 
ATOM     71  F   UNL A   1      42.456  22.558  29.410  1.00  0.00    -0.206 F 
ATOM     72  C   UNL A   1      42.008  20.815  27.901  1.00  0.00     0.040 A 
ATOM     73  C   UNL A   1      42.311  21.165  25.538  1.00  0.00     0.040 A 
ATOM     74  F   UNL A   1      43.069  23.242  24.749  1.00  0.00    -0.206 F 
ATOM     75  C   UNL A   1      41.950  20.331  26.594  1.00  0.00     0.006 A 
ENDBRANCH  47  68
BRANCH  59  76
ATOM     76  C   UNL A   1      48.882  26.300  27.153  1.00  0.00     0.057 A 
ATOM     77  C   UNL A   1      49.666  25.683  28.134  1.00  0.00     0.134 A 
ATOM     78  C   UNL A   1      49.435  26.458  25.878  1.00  0.00     0.134 A 
ATOM     79  F   UNL A   1      49.193  25.518  29.379  1.00  0.00    -0.206 F 
ATOM     80  C   UNL A   1      50.963  25.248  27.859  1.00  0.00     0.040 A 
ATOM     81  C   UNL A   1      50.725  26.014  25.587  1.00  0.00     0.040 A 
ATOM     82  F   UNL A   1      48.731  27.040  24.896  1.00  0.00    -0.206 F 
ATOM     83  C   UNL A   1      51.494  25.410  26.580  1.00  0.00     0.006 A 
ENDBRANCH  59  76
ENDBRANCH  33  34
ENDBRANCH  26  28
ENDBRANCH  25  26
ENDBRANCH  24  25
ENDBRANCH   1  24
TORSDOF 14
ENDMDL
MODEL 2
REMARK VINA RESULT:     -11.3      4.203      7.711
REMARK SMILES C[N@@H+]1CCC[C@@H](C(=O)N[C@H](C(=O)OCCOC(=O)c2ccc(-c3c4nc(c(-c5c(F)cccc5F)c5ccc([nH]5)c(-c5c(F)cccc5F)c5nc(c(-c6c(F)cccc6F)c6ccc3[nH]6)C=C5)C=C4)cc2)c2ccccc2)C1
REMARK SMILES IDX 14 1 13 2 11 3 12 4 10 5 9 6 7 7 8 8 6 10 1 11 2 12 3 13
REMARK SMILES IDX 79 14 4 16 5 17 73 18 74 19 78 20 75 21 77 22 76 23 15 24
REMARK SMILES IDX 16 25 17 26 18 27 19 28 20 29 72 30 21 31 71 32 22 33 23 34
REMARK SMILES IDX 24 35 65 36 25 37 70 38 64 39 66 40 26 41 69 42 63 43 62 44
REMARK SMILES IDX 27 46 53 47 36 48 52 49 37 50 40 51 51 52 67 53 38 54 39 55
REMARK SMILES IDX 50 57 68 58 41 59 28 60 29 61 34 62 30 63 31 64 33 65 35 66
REMARK SMILES IDX 32 67 54 68 55 69 60 70 56 71 57 72 59 73 61 74 58 75 42 76
REMARK SMILES IDX 43 77 48 78 44 79 45 80 47 81 49 82 46 83
REMARK H PARENT 9 9 2 15 66 45 40 56
REMARK Flexibility Score: inf
ROOT
ATOM      1  C   UNL A   1      32.840  29.360  24.671  1.00  0.00     0.274 C 
ENDROOT
BRANCH   1   2
ATOM      2  O   UNL A   1      32.765  27.925  24.534  1.00  0.00    -0.460 OA
BRANCH   2   3
ATOM      3  C   UNL A   1      32.271  27.445  23.368  1.00  0.00     0.333 C 
ATOM      4  O   UNL A   1      32.946  27.417  22.338  1.00  0.00    -0.249 OA
BRANCH   3   5
ATOM      5  C   UNL A   1      30.788  27.006  23.388  1.00  0.00     0.223 C 
BRANCH   5   6
ATOM      6  N   UNL A   1      30.547  26.417  24.719  1.00  0.00    -0.339 N 
ATOM      7  C   UNL A   1      30.915  25.264  25.317  1.00  0.00     0.229 C 
ATOM      8  O   UNL A   1      30.594  25.153  26.508  1.00  0.00    -0.275 OA
ATOM      9  H   UNL A   1      29.998  26.992  25.300  1.00  0.00     0.164 HD
BRANCH   7  10
ATOM     10  C   UNL A   1      31.661  24.109  24.651  1.00  0.00     0.133 C 
ATOM     11  C   UNL A   1      35.095  23.455  26.129  1.00  0.00     0.332 C 
ATOM     12  N   UNL A   1      33.652  23.335  25.949  1.00  0.00    -0.337 N 
ATOM     13  C   UNL A   1      33.235  21.938  25.814  1.00  0.00     0.262 C 
ATOM     14  C   UNL A   1      33.182  24.139  24.818  1.00  0.00     0.275 C 
ATOM     15  H   UNL A   1      33.215  23.702  26.794  1.00  0.00     0.347 HD
ATOM     16  C   UNL A   1      31.712  21.836  25.855  1.00  0.00     0.062 C 
ATOM     17  C   UNL A   1      31.024  22.730  24.830  1.00  0.00     0.025 C 
ENDBRANCH   7  10
ENDBRANCH   5   6
BRANCH   5  18
ATOM     18  C   UNL A   1      29.629  27.957  23.063  1.00  0.00    -0.014 A 
ATOM     19  C   UNL A   1      28.299  27.799  23.467  1.00  0.00     0.006 A 
ATOM     20  C   UNL A   1      29.942  29.156  22.377  1.00  0.00     0.006 A 
ATOM     21  C   UNL A   1      27.330  28.771  23.179  1.00  0.00     0.000 A 
ATOM     22  C   UNL A   1      28.980  30.127  22.091  1.00  0.00     0.000 A 
ATOM     23  C   UNL A   1      27.669  29.932  22.492  1.00  0.00     0.000 A 
ENDBRANCH   5  18
ENDBRANCH   3   5
ENDBRANCH   2   3
ENDBRANCH   1   2
BRANCH   1  24
ATOM     24  C   UNL A   1      31.773  29.894  25.628  1.00  0.00     0.275 C 
BRANCH  24  25
ATOM     25  O   UNL A   1      32.301  30.064  26.957  1.00  0.00    -0.458 OA
BRANCH  25  26
ATOM     26  C   UNL A   1      32.951  31.229  27.168  1.00  0.00     0.338 C 
ATOM     27  O   UNL A   1      32.502  32.357  27.076  1.00  0.00    -0.246 OA
BRANCH  26  28
ATOM     28  C   UNL A   1      34.322  30.964  27.623  1.00  0.00     0.060 A 
ATOM     29  C   UNL A   1      34.698  29.643  27.846  1.00  0.00     0.016 A 
ATOM     30  C   UNL A   1      35.160  32.010  28.005  1.00  0.00     0.016 A 
ATOM     31  C   UNL A   1      35.867  29.355  28.539  1.00  0.00     0.010 A 
ATOM     32  C   UNL A   1      36.377  31.717  28.634  1.00  0.00     0.010 A 
ATOM     33  C   UNL A   1      36.719  30.387  28.943  1.00  0.00    -0.014 A 
BRANCH  33  34
ATOM     34  C   UNL A   1      37.911  30.070  29.768  1.00  0.00     0.031 A 
ATOM     35  C   UNL A   1      39.038  29.276  29.171  1.00  0.00     0.074 A 
ATOM     36  C   UNL A   1      38.023  30.545  31.022  1.00  0.00     0.049 A 
ATOM     37  N   UNL A   1      40.079  28.743  29.759  1.00  0.00    -0.248 NA
ATOM     38  C   UNL A   1      38.984  29.044  27.719  1.00  0.00     0.031 C 
ATOM     39  C   UNL A   1      37.053  31.413  31.692  1.00  0.00     0.029 A 
ATOM     40  N   UNL A   1      39.022  30.386  31.948  1.00  0.00    -0.354 N 
ATOM     41  C   UNL A   1      40.764  28.059  28.764  1.00  0.00     0.074 A 
ATOM     42  C   UNL A   1      40.032  28.256  27.531  1.00  0.00     0.031 C 
ATOM     43  C   UNL A   1      37.529  31.752  32.900  1.00  0.00     0.029 A 
ATOM     44  C   UNL A   1      38.796  31.062  33.121  1.00  0.00     0.049 A 
ATOM     45  H   UNL A   1      39.825  29.839  31.788  1.00  0.00     0.167 HD
ATOM     46  C   UNL A   1      41.896  27.322  28.875  1.00  0.00     0.037 A 
ATOM     47  C   UNL A   1      39.516  31.100  34.257  1.00  0.00     0.037 A 
ATOM     48  C   UNL A   1      42.656  27.185  30.088  1.00  0.00     0.049 A 
ATOM     49  C   UNL A   1      40.759  30.266  34.365  1.00  0.00     0.074 A 
ATOM     50  C   UNL A   1      43.794  26.432  30.318  1.00  0.00     0.029 A 
ATOM     51  N   UNL A   1      42.367  27.848  31.271  1.00  0.00    -0.354 N 
ATOM     52  N   UNL A   1      41.325  29.507  33.460  1.00  0.00    -0.248 NA
ATOM     53  C   UNL A   1      41.444  30.267  35.666  1.00  0.00     0.031 C 
ATOM     54  C   UNL A   1      44.188  26.633  31.648  1.00  0.00     0.029 A 
ATOM     55  C   UNL A   1      43.309  27.528  32.235  1.00  0.00     0.049 A 
ATOM     56  H   UNL A   1      41.606  28.458  31.406  1.00  0.00     0.167 HD
ATOM     57  C   UNL A   1      42.429  28.938  34.078  1.00  0.00     0.074 A 
ATOM     58  C   UNL A   1      42.466  29.457  35.430  1.00  0.00     0.031 C 
ATOM     59  C   UNL A   1      43.324  28.056  33.573  1.00  0.00     0.037 A 
BRANCH  46  60
ATOM     60  C   UNL A   1      42.339  26.570  27.659  1.00  0.00     0.057 A 
ATOM     61  C   UNL A   1      41.944  25.250  27.412  1.00  0.00     0.134 A 
ATOM     62  C   UNL A   1      43.185  27.180  26.723  1.00  0.00     0.134 A 
ATOM     63  F   UNL A   1      41.153  24.603  28.280  1.00  0.00    -0.206 F 
ATOM     64  C   UNL A   1      42.393  24.556  26.286  1.00  0.00     0.040 A 
ATOM     65  C   UNL A   1      43.623  26.503  25.585  1.00  0.00     0.040 A 
ATOM     66  F   UNL A   1      43.600  28.443  26.903  1.00  0.00    -0.206 F 
ATOM     67  C   UNL A   1      43.232  25.184  25.368  1.00  0.00     0.006 A 
ENDBRANCH  46  60
BRANCH  47  68
ATOM     68  C   UNL A   1      39.055  31.934  35.393  1.00  0.00     0.057 A 
ATOM     69  C   UNL A   1      39.380  33.292  35.465  1.00  0.00     0.134 A 
ATOM     70  C   UNL A   1      38.264  31.401  36.418  1.00  0.00     0.134 A 
ATOM     71  F   UNL A   1      40.154  33.852  34.523  1.00  0.00    -0.206 F 
ATOM     72  C   UNL A   1      38.933  34.094  36.515  1.00  0.00     0.040 A 
ATOM     73  C   UNL A   1      37.795  32.196  37.464  1.00  0.00     0.040 A 
ATOM     74  F   UNL A   1      37.922  30.104  36.405  1.00  0.00    -0.206 F 
ATOM     75  C   UNL A   1      38.130  33.547  37.516  1.00  0.00     0.006 A 
ENDBRANCH  47  68
BRANCH  59  76
ATOM     76  C   UNL A   1      44.421  27.609  34.489  1.00  0.00     0.057 A 
ATOM     77  C   UNL A   1      45.638  28.296  34.557  1.00  0.00     0.134 A 
ATOM     78  C   UNL A   1      44.249  26.500  35.323  1.00  0.00     0.134 A 
ATOM     79  F   UNL A   1      45.865  29.359  33.770  1.00  0.00    -0.206 F 
ATOM     80  C   UNL A   1      46.656  27.884  35.419  1.00  0.00     0.040 A 
ATOM     81  C   UNL A   1      45.253  26.088  36.199  1.00  0.00     0.040 A 
ATOM     82  F   UNL A   1      43.103  25.803  35.303  1.00  0.00    -0.206 F 
ATOM     83  C   UNL A   1      46.462  26.779  36.245  1.00  0.00     0.006 A 
ENDBRANCH  59  76
ENDBRANCH  33  34
ENDBRANCH  26  28
ENDBRANCH  25  26
ENDBRANCH  24  25
ENDBRANCH   1  24
TORSDOF 14
ENDMDL
MODEL 3
REMARK VINA RESULT:     -11.2      2.645      6.726
REMARK SMILES C[N@@H+]1CCC[C@@H](C(=O)N[C@H](C(=O)OCCOC(=O)c2ccc(-c3c4nc(c(-c5c(F)cccc5F)c5ccc([nH]5)c(-c5c(F)cccc5F)c5nc(c(-c6c(F)cccc6F)c6ccc3[nH]6)C=C5)C=C4)cc2)c2ccccc2)C1
REMARK SMILES IDX 14 1 13 2 11 3 12 4 10 5 9 6 7 7 8 8 6 10 1 11 2 12 3 13
REMARK SMILES IDX 79 14 4 16 5 17 73 18 74 19 78 20 75 21 77 22 76 23 15 24
REMARK SMILES IDX 16 25 17 26 18 27 19 28 20 29 72 30 21 31 71 32 22 33 23 34
REMARK SMILES IDX 24 35 65 36 25 37 70 38 64 39 66 40 26 41 69 42 63 43 62 44
REMARK SMILES IDX 27 46 53 47 36 48 52 49 37 50 40 51 51 52 67 53 38 54 39 55
REMARK SMILES IDX 50 57 68 58 41 59 28 60 29 61 34 62 30 63 31 64 33 65 35 66
REMARK SMILES IDX 32 67 54 68 55 69 60 70 56 71 57 72 59 73 61 74 58 75 42 76
REMARK SMILES IDX 43 77 48 78 44 79 45 80 47 81 49 82 46 83
REMARK H PARENT 9 9 2 15 66 45 40 56
REMARK Flexibility Score: inf
ROOT
ATOM      1  C   UNL A   1      35.202  22.202  24.270  1.00  0.00     0.274 C 
ENDROOT
BRANCH   1   2
ATOM      2  O   UNL A   1      35.157  23.640  24.387  1.00  0.00    -0.460 OA
BRANCH   2   3
ATOM      3  C   UNL A   1      34.330  24.153  25.328  1.00  0.00     0.333 C 
ATOM      4  O   UNL A   1      34.291  23.706  26.476  1.00  0.00    -0.249 OA
BRANCH   3   5
ATOM      5  C   UNL A   1      33.382  25.282  24.857  1.00  0.00     0.223 C 
BRANCH   5   6
ATOM      6  N   UNL A   1      32.168  24.618  24.345  1.00  0.00    -0.339 N 
ATOM      7  C   UNL A   1      31.352  24.834  23.292  1.00  0.00     0.229 C 
ATOM      8  O   UNL A   1      30.461  23.991  23.125  1.00  0.00    -0.275 OA
ATOM      9  H   UNL A   1      31.892  23.847  24.892  1.00  0.00     0.164 HD
BRANCH   7  10
ATOM     10  C   UNL A   1      31.431  26.015  22.326  1.00  0.00     0.133 C 
ATOM     11  C   UNL A   1      30.717  29.369  23.951  1.00  0.00     0.332 C 
ATOM     12  N   UNL A   1      31.500  28.234  23.475  1.00  0.00    -0.337 N 
ATOM     13  C   UNL A   1      32.630  28.661  22.648  1.00  0.00     0.262 C 
ATOM     14  C   UNL A   1      30.662  27.264  22.766  1.00  0.00     0.275 C 
ATOM     15  H   UNL A   1      31.884  27.770  24.298  1.00  0.00     0.347 HD
ATOM     16  C   UNL A   1      33.548  27.476  22.356  1.00  0.00     0.062 C 
ATOM     17  C   UNL A   1      32.817  26.289  21.740  1.00  0.00     0.025 C 
ENDBRANCH   7  10
ENDBRANCH   5   6
BRANCH   5  18
ATOM     18  C   UNL A   1      32.952  26.445  25.760  1.00  0.00    -0.014 A 
ATOM     19  C   UNL A   1      31.732  26.552  26.437  1.00  0.00     0.006 A 
ATOM     20  C   UNL A   1      33.907  27.459  26.017  1.00  0.00     0.006 A 
ATOM     21  C   UNL A   1      31.470  27.624  27.302  1.00  0.00     0.000 A 
ATOM     22  C   UNL A   1      33.650  28.527  26.879  1.00  0.00     0.000 A 
ATOM     23  C   UNL A   1      32.426  28.610  27.523  1.00  0.00     0.000 A 
ENDBRANCH   5  18
ENDBRANCH   3   5
ENDBRANCH   2   3
ENDBRANCH   1   2
BRANCH   1  24
ATOM     24  C   UNL A   1      36.638  21.677  24.298  1.00  0.00     0.275 C 
BRANCH  24  25
ATOM     25  O   UNL A   1      37.089  21.458  25.648  1.00  0.00    -0.458 OA
BRANCH  25  26
ATOM     26  C   UNL A   1      38.422  21.290  25.785  1.00  0.00     0.338 C 
ATOM     27  O   UNL A   1      39.101  20.367  25.372  1.00  0.00    -0.246 OA
BRANCH  26  28
ATOM     28  C   UNL A   1      39.008  22.454  26.461  1.00  0.00     0.060 A 
ATOM     29  C   UNL A   1      38.496  23.714  26.166  1.00  0.00     0.016 A 
ATOM     30  C   UNL A   1      40.165  22.324  27.228  1.00  0.00     0.016 A 
ATOM     31  C   UNL A   1      39.187  24.857  26.548  1.00  0.00     0.010 A 
ATOM     32  C   UNL A   1      40.818  23.477  27.680  1.00  0.00     0.010 A 
ATOM     33  C   UNL A   1      40.356  24.754  27.308  1.00  0.00    -0.014 A 
BRANCH  33  34
ATOM     34  C   UNL A   1      41.134  25.977  27.623  1.00  0.00     0.031 A 
ATOM     35  C   UNL A   1      40.534  27.032  28.509  1.00  0.00     0.074 A 
ATOM     36  C   UNL A   1      42.397  26.120  27.180  1.00  0.00     0.049 A 
ATOM     37  N   UNL A   1      40.963  28.242  28.764  1.00  0.00    -0.248 NA
ATOM     38  C   UNL A   1      39.279  26.682  29.193  1.00  0.00     0.031 C 
ATOM     39  C   UNL A   1      43.140  25.130  26.398  1.00  0.00     0.029 A 
ATOM     40  N   UNL A   1      43.290  27.147  27.352  1.00  0.00    -0.354 N 
ATOM     41  C   UNL A   1      39.999  28.818  29.581  1.00  0.00     0.074 A 
ATOM     42  C   UNL A   1      38.971  27.822  29.793  1.00  0.00     0.031 C 
ATOM     43  C   UNL A   1      44.391  25.575  26.203  1.00  0.00     0.029 A 
ATOM     44  C   UNL A   1      44.513  26.912  26.775  1.00  0.00     0.049 A 
ATOM     45  H   UNL A   1      43.074  27.973  27.842  1.00  0.00     0.167 HD
ATOM     46  C   UNL A   1      39.972  30.071  30.096  1.00  0.00     0.037 A 
ATOM     47  C   UNL A   1      45.602  27.698  26.693  1.00  0.00     0.037 A 
ATOM     48  C   UNL A   1      41.029  31.034  29.937  1.00  0.00     0.049 A 
ATOM     49  C   UNL A   1      45.547  29.088  27.258  1.00  0.00     0.074 A 
ATOM     50  C   UNL A   1      41.084  32.342  30.385  1.00  0.00     0.029 A 
ATOM     51  N   UNL A   1      42.235  30.775  29.303  1.00  0.00    -0.354 N 
ATOM     52  N   UNL A   1      44.575  29.676  27.909  1.00  0.00    -0.248 NA
ATOM     53  C   UNL A   1      46.730  29.934  27.044  1.00  0.00     0.031 C 
ATOM     54  C   UNL A   1      42.323  32.879  30.011  1.00  0.00     0.029 A 
ATOM     55  C   UNL A   1      43.045  31.897  29.353  1.00  0.00     0.049 A 
ATOM     56  H   UNL A   1      42.479  29.919  28.882  1.00  0.00     0.167 HD
ATOM     57  C   UNL A   1      45.023  30.961  28.182  1.00  0.00     0.074 A 
ATOM     58  C   UNL A   1      46.365  31.059  27.644  1.00  0.00     0.031 C 
ATOM     59  C   UNL A   1      44.376  31.971  28.811  1.00  0.00     0.037 A 
BRANCH  46  60
ATOM     60  C   UNL A   1      38.733  30.477  30.831  1.00  0.00     0.057 A 
ATOM     61  C   UNL A   1      38.591  30.296  32.212  1.00  0.00     0.134 A 
ATOM     62  C   UNL A   1      37.661  31.055  30.138  1.00  0.00     0.134 A 
ATOM     63  F   UNL A   1      39.572  29.728  32.928  1.00  0.00    -0.206 F 
ATOM     64  C   UNL A   1      37.415  30.656  32.874  1.00  0.00     0.040 A 
ATOM     65  C   UNL A   1      36.490  31.437  30.793  1.00  0.00     0.040 A 
ATOM     66  F   UNL A   1      37.736  31.255  28.814  1.00  0.00    -0.206 F 
ATOM     67  C   UNL A   1      36.362  31.231  32.165  1.00  0.00     0.006 A 
ENDBRANCH  46  60
BRANCH  47  68
ATOM     68  C   UNL A   1      46.823  27.196  26.019  1.00  0.00     0.057 A 
ATOM     69  C   UNL A   1      47.852  26.595  26.752  1.00  0.00     0.134 A 
ATOM     70  C   UNL A   1      46.982  27.285  24.631  1.00  0.00     0.134 A 
ATOM     71  F   UNL A   1      47.766  26.504  28.087  1.00  0.00    -0.206 F 
ATOM     72  C   UNL A   1      48.996  26.097  26.128  1.00  0.00     0.040 A 
ATOM     73  C   UNL A   1      48.112  26.773  23.992  1.00  0.00     0.040 A 
ATOM     74  F   UNL A   1      46.030  27.852  23.876  1.00  0.00    -0.206 F 
ATOM     75  C   UNL A   1      49.124  26.178  24.742  1.00  0.00     0.006 A 
ENDBRANCH  47  68
BRANCH  59  76
ATOM     76  C   UNL A   1      45.120  33.261  28.956  1.00  0.00     0.057 A 
ATOM     77  C   UNL A   1      45.952  33.503  30.056  1.00  0.00     0.134 A 
ATOM     78  C   UNL A   1      45.021  34.258  27.980  1.00  0.00     0.134 A 
ATOM     79  F   UNL A   1      46.074  32.589  31.030  1.00  0.00    -0.206 F 
ATOM     80  C   UNL A   1      46.653  34.702  30.185  1.00  0.00     0.040 A 
ATOM     81  C   UNL A   1      45.728  35.455  28.092  1.00  0.00     0.040 A 
ATOM     82  F   UNL A   1      44.241  34.083  26.903  1.00  0.00    -0.206 F 
ATOM     83  C   UNL A   1      46.545  35.681  29.199  1.00  0.00     0.006 A 
ENDBRANCH  59  76
ENDBRANCH  33  34
ENDBRANCH  26  28
ENDBRANCH  25  26
ENDBRANCH  24  25
ENDBRANCH   1  24
TORSDOF 14
ENDMDL
