MODEL 1
REMARK VINA RESULT:     -12.3      0.000      0.000
REMARK SMILES O=C1CC[C@@H](CC(=O)N2CCC(Oc3ccccc3)(C(=O)OCCOC(=O)c3ccc(-c4c5nc(c(-c6c(F)cccc6F)c6ccc([nH]6)c(-c6c(F)cccc6F)c6nc(c(-c7c(F)cccc7F)c7ccc4[nH]7)C=C6)C=C5)cc3)CC2)N1
REMARK SMILES IDX 23 1 22 2 20 3 21 4 12 5 7 6 8 7 9 8 10 9 83 10 11 11 82 12
REMARK SMILES IDX 6 13 5 14 1 15 2 16 3 17 84 18 4 19 13 21 14 22 15 23 19 24
REMARK SMILES IDX 16 25 18 26 17 27 24 28 25 29 26 30 27 31 28 32 29 33 81 34
REMARK SMILES IDX 30 35 80 36 31 37 32 38 33 39 74 40 34 41 79 42 73 43 75 44
REMARK SMILES IDX 35 45 78 46 72 47 71 48 36 50 62 51 45 52 61 53 46 54 49 55
REMARK SMILES IDX 60 56 76 57 47 58 48 59 59 61 77 62 50 63 37 64 38 65 43 66
REMARK SMILES IDX 39 67 40 68 42 69 44 70 41 71 63 72 64 73 69 74 65 75 66 76
REMARK SMILES IDX 68 77 70 78 67 79 51 80 52 81 57 82 53 83 54 84 56 85 58 86
REMARK SMILES IDX 55 87
REMARK H PARENT 84 20 75 49 49 60
REMARK Flexibility Score: inf
ROOT
ATOM      1  C   UNL A   1      36.082  19.960  24.987  1.00  0.00     0.274 C 
ENDROOT
BRANCH   1   2
ATOM      2  O   UNL A   1      35.438  21.232  24.743  1.00  0.00    -0.459 OA
BRANCH   2   3
ATOM      3  C   UNL A   1      34.408  21.545  25.575  1.00  0.00     0.350 C 
ATOM      4  O   UNL A   1      34.471  21.435  26.797  1.00  0.00    -0.247 OA
BRANCH   3   5
ATOM      5  C   UNL A   1      33.134  22.027  24.840  1.00  0.00     0.209 C 
ATOM      6  C   UNL A   1      33.295  25.672  22.823  1.00  0.00     0.224 C 
ATOM      7  O   UNL A   1      32.850  25.568  21.676  1.00  0.00    -0.275 OA
ATOM      8  N   UNL A   1      33.733  24.559  23.522  1.00  0.00    -0.342 N 
ATOM      9  C   UNL A   1      34.082  23.325  22.816  1.00  0.00     0.124 C 
ATOM     10  C   UNL A   1      33.791  24.447  24.958  1.00  0.00     0.124 C 
ATOM     11  C   UNL A   1      33.276  22.123  23.304  1.00  0.00     0.082 C 
ATOM     12  C   UNL A   1      32.784  23.411  25.432  1.00  0.00     0.082 C 
BRANCH   6  13
ATOM     13  C   UNL A   1      33.553  27.072  23.385  1.00  0.00     0.125 C 
BRANCH  13  14
ATOM     14  C   UNL A   1      32.451  28.128  23.526  1.00  0.00     0.091 C 
ATOM     15  O   UNL A   1      29.796  29.281  21.549  1.00  0.00    -0.275 OA
ATOM     16  C   UNL A   1      30.492  28.793  22.410  1.00  0.00     0.220 C 
ATOM     17  C   UNL A   1      30.018  28.248  23.731  1.00  0.00     0.102 C 
ATOM     18  N   UNL A   1      31.862  28.631  22.327  1.00  0.00    -0.353 N 
ATOM     19  C   UNL A   1      31.267  27.639  24.355  1.00  0.00     0.035 C 
ATOM     20  H   UNL A   1      32.382  28.844  21.518  1.00  0.00     0.163 HD
ENDBRANCH  13  14
ENDBRANCH   6  13
BRANCH   5  21
ATOM     21  O   UNL A   1      32.212  20.953  25.203  1.00  0.00    -0.475 OA
BRANCH  21  22
ATOM     22  C   UNL A   1      32.436  19.756  24.583  1.00  0.00     0.121 A 
ATOM     23  C   UNL A   1      32.186  19.639  23.217  1.00  0.00     0.046 A 
ATOM     24  C   UNL A   1      32.865  18.654  25.316  1.00  0.00     0.046 A 
ATOM     25  C   UNL A   1      32.478  18.441  22.563  1.00  0.00     0.004 A 
ATOM     26  C   UNL A   1      33.165  17.460  24.662  1.00  0.00     0.004 A 
ATOM     27  C   UNL A   1      32.985  17.359  23.282  1.00  0.00     0.000 A 
ENDBRANCH  21  22
ENDBRANCH   5  21
ENDBRANCH   3   5
ENDBRANCH   2   3
ENDBRANCH   1   2
BRANCH   1  28
ATOM     28  C   UNL A   1      37.592  20.053  24.777  1.00  0.00     0.275 C 
BRANCH  28  29
ATOM     29  O   UNL A   1      38.109  21.230  25.428  1.00  0.00    -0.458 OA
BRANCH  29  30
ATOM     30  C   UNL A   1      39.265  21.082  26.115  1.00  0.00     0.338 C 
ATOM     31  O   UNL A   1      39.932  20.067  26.221  1.00  0.00    -0.246 OA
BRANCH  30  32
ATOM     32  C   UNL A   1      39.688  22.373  26.706  1.00  0.00     0.060 A 
ATOM     33  C   UNL A   1      39.107  23.555  26.269  1.00  0.00     0.016 A 
ATOM     34  C   UNL A   1      40.794  22.432  27.558  1.00  0.00     0.016 A 
ATOM     35  C   UNL A   1      39.733  24.771  26.544  1.00  0.00     0.010 A 
ATOM     36  C   UNL A   1      41.325  23.676  27.952  1.00  0.00     0.010 A 
ATOM     37  C   UNL A   1      40.851  24.876  27.401  1.00  0.00    -0.014 A 
BRANCH  37  38
ATOM     38  C   UNL A   1      41.519  26.215  27.626  1.00  0.00     0.031 A 
ATOM     39  C   UNL A   1      40.873  27.321  28.455  1.00  0.00     0.074 A 
ATOM     40  C   UNL A   1      42.799  26.420  27.231  1.00  0.00     0.049 A 
ATOM     41  N   UNL A   1      41.351  28.509  28.759  1.00  0.00    -0.248 NA
ATOM     42  C   UNL A   1      39.564  27.049  29.074  1.00  0.00     0.031 C 
ATOM     43  C   UNL A   1      43.628  25.461  26.501  1.00  0.00     0.029 A 
ATOM     44  N   UNL A   1      43.650  27.489  27.431  1.00  0.00    -0.354 N 
ATOM     45  C   UNL A   1      40.423  29.106  29.607  1.00  0.00     0.074 A 
ATOM     46  C   UNL A   1      39.337  28.163  29.759  1.00  0.00     0.031 C 
ATOM     47  C   UNL A   1      44.880  25.925  26.417  1.00  0.00     0.029 A 
ATOM     48  C   UNL A   1      44.910  27.295  26.912  1.00  0.00     0.049 A 
ATOM     49  H   UNL A   1      43.382  28.311  27.900  1.00  0.00     0.167 HD
ATOM     50  C   UNL A   1      40.460  30.318  30.217  1.00  0.00     0.037 A 
ATOM     51  C   UNL A   1      45.960  28.127  26.751  1.00  0.00     0.037 A 
ATOM     52  C   UNL A   1      41.498  31.306  30.057  1.00  0.00     0.049 A 
ATOM     53  C   UNL A   1      45.854  29.558  27.184  1.00  0.00     0.074 A 
ATOM     54  C   UNL A   1      41.551  32.590  30.578  1.00  0.00     0.029 A 
ATOM     55  N   UNL A   1      42.651  31.136  29.314  1.00  0.00    -0.354 N 
ATOM     56  N   UNL A   1      44.922  30.134  27.899  1.00  0.00    -0.248 NA
ATOM     57  C   UNL A   1      46.921  30.466  26.738  1.00  0.00     0.031 C 
ATOM     58  C   UNL A   1      42.697  33.223  30.083  1.00  0.00     0.029 A 
ATOM     59  C   UNL A   1      43.387  32.312  29.303  1.00  0.00     0.049 A 
ATOM     60  H   UNL A   1      42.911  30.303  28.858  1.00  0.00     0.167 HD
ATOM     61  C   UNL A   1      45.284  31.472  27.979  1.00  0.00     0.074 A 
ATOM     62  C   UNL A   1      46.537  31.617  27.273  1.00  0.00     0.031 C 
ATOM     63  C   UNL A   1      44.617  32.488  28.578  1.00  0.00     0.037 A 
BRANCH  50  64
ATOM     64  C   UNL A   1      39.298  30.696  31.089  1.00  0.00     0.057 A 
ATOM     65  C   UNL A   1      39.289  30.439  32.466  1.00  0.00     0.134 A 
ATOM     66  C   UNL A   1      38.219  31.412  30.556  1.00  0.00     0.134 A 
ATOM     67  F   UNL A   1      40.289  29.748  33.036  1.00  0.00    -0.206 F 
ATOM     68  C   UNL A   1      38.246  30.885  33.281  1.00  0.00     0.040 A 
ATOM     69  C   UNL A   1      37.180  31.877  31.362  1.00  0.00     0.040 A 
ATOM     70  F   UNL A   1      38.176  31.696  29.245  1.00  0.00    -0.206 F 
ATOM     71  C   UNL A   1      37.192  31.614  32.730  1.00  0.00     0.006 A 
ENDBRANCH  50  64
BRANCH  51  72
ATOM     72  C   UNL A   1      47.157  27.660  25.998  1.00  0.00     0.057 A 
ATOM     73  C   UNL A   1      47.216  27.702  24.602  1.00  0.00     0.134 A 
ATOM     74  C   UNL A   1      48.273  27.145  26.674  1.00  0.00     0.134 A 
ATOM     75  F   UNL A   1      46.164  28.137  23.893  1.00  0.00    -0.206 F 
ATOM     76  C   UNL A   1      48.347  27.264  23.909  1.00  0.00     0.040 A 
ATOM     77  C   UNL A   1      49.423  26.745  25.998  1.00  0.00     0.040 A 
ATOM     78  F   UNL A   1      48.272  27.053  28.013  1.00  0.00    -0.206 F 
ATOM     79  C   UNL A   1      49.460  26.800  24.609  1.00  0.00     0.006 A 
ENDBRANCH  51  72
BRANCH  63  80
ATOM     80  C   UNL A   1      45.218  33.859  28.483  1.00  0.00     0.057 A 
ATOM     81  C   UNL A   1      46.185  34.297  29.398  1.00  0.00     0.134 A 
ATOM     82  C   UNL A   1      44.844  34.747  27.468  1.00  0.00     0.134 A 
ATOM     83  F   UNL A   1      46.576  33.501  30.406  1.00  0.00    -0.206 F 
ATOM     84  C   UNL A   1      46.739  35.577  29.322  1.00  0.00     0.040 A 
ATOM     85  C   UNL A   1      45.409  36.021  27.366  1.00  0.00     0.040 A 
ATOM     86  F   UNL A   1      43.929  34.392  26.554  1.00  0.00    -0.206 F 
ATOM     87  C   UNL A   1      46.355  36.441  28.299  1.00  0.00     0.006 A 
ENDBRANCH  63  80
ENDBRANCH  37  38
ENDBRANCH  30  32
ENDBRANCH  29  30
ENDBRANCH  28  29
ENDBRANCH   1  28
TORSDOF 15
ENDMDL
MODEL 2
REMARK VINA RESULT:     -12.1      3.998      9.596
REMARK SMILES O=C1CC[C@@H](CC(=O)N2CCC(Oc3ccccc3)(C(=O)OCCOC(=O)c3ccc(-c4c5nc(c(-c6c(F)cccc6F)c6ccc([nH]6)c(-c6c(F)cccc6F)c6nc(c(-c7c(F)cccc7F)c7ccc4[nH]7)C=C6)C=C5)cc3)CC2)N1
REMARK SMILES IDX 23 1 22 2 20 3 21 4 12 5 7 6 8 7 9 8 10 9 83 10 11 11 82 12
REMARK SMILES IDX 6 13 5 14 1 15 2 16 3 17 84 18 4 19 13 21 14 22 15 23 19 24
REMARK SMILES IDX 16 25 18 26 17 27 24 28 25 29 26 30 27 31 28 32 29 33 81 34
REMARK SMILES IDX 30 35 80 36 31 37 32 38 33 39 74 40 34 41 79 42 73 43 75 44
REMARK SMILES IDX 35 45 78 46 72 47 71 48 36 50 62 51 45 52 61 53 46 54 49 55
REMARK SMILES IDX 60 56 76 57 47 58 48 59 59 61 77 62 50 63 37 64 38 65 43 66
REMARK SMILES IDX 39 67 40 68 42 69 44 70 41 71 63 72 64 73 69 74 65 75 66 76
REMARK SMILES IDX 68 77 70 78 67 79 51 80 52 81 57 82 53 83 54 84 56 85 58 86
REMARK SMILES IDX 55 87
REMARK H PARENT 84 20 75 49 49 60
REMARK Flexibility Score: inf
ROOT
ATOM      1  C   UNL A   1      31.026  30.634  25.216  1.00  0.00     0.274 C 
ENDROOT
BRANCH   1   2
ATOM      2  O   UNL A   1      31.354  29.231  25.347  1.00  0.00    -0.459 OA
BRANCH   2   3
ATOM      3  C   UNL A   1      32.016  28.677  24.295  1.00  0.00     0.350 C 
ATOM      4  O   UNL A   1      32.986  29.204  23.755  1.00  0.00    -0.247 OA
BRANCH   3   5
ATOM      5  C   UNL A   1      31.418  27.330  23.820  1.00  0.00     0.209 C 
ATOM      6  C   UNL A   1      31.840  24.011  26.307  1.00  0.00     0.224 C 
ATOM      7  O   UNL A   1      30.763  23.425  26.456  1.00  0.00    -0.275 OA
ATOM      8  N   UNL A   1      31.882  25.333  25.894  1.00  0.00    -0.342 N 
ATOM      9  C   UNL A   1      30.706  26.193  26.029  1.00  0.00     0.124 C 
ATOM     10  C   UNL A   1      32.990  25.959  25.217  1.00  0.00     0.124 C 
ATOM     11  C   UNL A   1      30.264  26.795  24.696  1.00  0.00     0.082 C 
ATOM     12  C   UNL A   1      32.586  26.318  23.796  1.00  0.00     0.082 C 
BRANCH   6  13
ATOM     13  C   UNL A   1      33.121  23.323  26.785  1.00  0.00     0.125 C 
BRANCH  13  14
ATOM     14  C   UNL A   1      33.622  21.998  26.199  1.00  0.00     0.091 C 
ATOM     15  O   UNL A   1      32.185  18.919  25.337  1.00  0.00    -0.275 OA
ATOM     16  C   UNL A   1      32.730  20.000  25.342  1.00  0.00     0.220 C 
ATOM     17  C   UNL A   1      33.386  20.668  24.162  1.00  0.00     0.102 C 
ATOM     18  N   UNL A   1      32.835  20.831  26.441  1.00  0.00    -0.353 N 
ATOM     19  C   UNL A   1      33.779  22.044  24.682  1.00  0.00     0.035 C 
ATOM     20  H   UNL A   1      32.409  20.636  27.307  1.00  0.00     0.163 HD
ENDBRANCH  13  14
ENDBRANCH   6  13
BRANCH   5  21
ATOM     21  O   UNL A   1      30.923  27.726  22.504  1.00  0.00    -0.475 OA
BRANCH  21  22
ATOM     22  C   UNL A   1      29.842  28.563  22.515  1.00  0.00     0.121 A 
ATOM     23  C   UNL A   1      28.621  28.094  22.997  1.00  0.00     0.046 A 
ATOM     24  C   UNL A   1      29.948  29.854  22.006  1.00  0.00     0.046 A 
ATOM     25  C   UNL A   1      27.532  28.962  23.075  1.00  0.00     0.004 A 
ATOM     26  C   UNL A   1      28.862  30.725  22.093  1.00  0.00     0.004 A 
ATOM     27  C   UNL A   1      27.658  30.282  22.641  1.00  0.00     0.000 A 
ENDBRANCH  21  22
ENDBRANCH   5  21
ENDBRANCH   3   5
ENDBRANCH   2   3
ENDBRANCH   1   2
BRANCH   1  28
ATOM     28  C   UNL A   1      31.408  31.412  26.474  1.00  0.00     0.275 C 
BRANCH  28  29
ATOM     29  O   UNL A   1      32.743  31.059  26.887  1.00  0.00    -0.458 OA
BRANCH  29  30
ATOM     30  C   UNL A   1      33.492  32.051  27.422  1.00  0.00     0.338 C 
ATOM     31  O   UNL A   1      33.155  33.208  27.608  1.00  0.00    -0.246 OA
BRANCH  30  32
ATOM     32  C   UNL A   1      34.817  31.535  27.837  1.00  0.00     0.060 A 
ATOM     33  C   UNL A   1      34.982  30.180  28.089  1.00  0.00     0.016 A 
ATOM     34  C   UNL A   1      35.849  32.418  28.162  1.00  0.00     0.016 A 
ATOM     35  C   UNL A   1      36.093  29.746  28.812  1.00  0.00     0.010 A 
ATOM     36  C   UNL A   1      37.035  31.943  28.756  1.00  0.00     0.010 A 
ATOM     37  C   UNL A   1      37.160  30.604  29.158  1.00  0.00    -0.014 A 
BRANCH  37  38
ATOM     38  C   UNL A   1      38.319  30.090  29.985  1.00  0.00     0.031 A 
ATOM     39  C   UNL A   1      39.376  29.150  29.413  1.00  0.00     0.074 A 
ATOM     40  C   UNL A   1      38.550  30.581  31.227  1.00  0.00     0.049 A 
ATOM     41  N   UNL A   1      40.445  28.658  30.000  1.00  0.00    -0.248 NA
ATOM     42  C   UNL A   1      39.265  28.763  27.996  1.00  0.00     0.031 C 
ATOM     43  C   UNL A   1      37.709  31.553  31.926  1.00  0.00     0.029 A 
ATOM     44  N   UNL A   1      39.590  30.366  32.107  1.00  0.00    -0.354 N 
ATOM     45  C   UNL A   1      41.132  27.930  29.033  1.00  0.00     0.074 A 
ATOM     46  C   UNL A   1      40.353  28.022  27.818  1.00  0.00     0.031 C 
ATOM     47  C   UNL A   1      38.315  31.934  33.057  1.00  0.00     0.029 A 
ATOM     48  C   UNL A   1      39.490  31.100  33.268  1.00  0.00     0.049 A 
ATOM     49  H   UNL A   1      40.334  29.749  31.924  1.00  0.00     0.167 HD
ATOM     50  C   UNL A   1      42.305  27.253  29.127  1.00  0.00     0.037 A 
ATOM     51  C   UNL A   1      40.187  31.065  34.423  1.00  0.00     0.037 A 
ATOM     52  C   UNL A   1      43.088  27.097  30.327  1.00  0.00     0.049 A 
ATOM     53  C   UNL A   1      41.308  30.085  34.591  1.00  0.00     0.074 A 
ATOM     54  C   UNL A   1      44.241  26.348  30.510  1.00  0.00     0.029 A 
ATOM     55  N   UNL A   1      42.800  27.678  31.548  1.00  0.00    -0.354 N 
ATOM     56  N   UNL A   1      41.882  29.329  33.691  1.00  0.00    -0.248 NA
ATOM     57  C   UNL A   1      41.841  29.914  35.951  1.00  0.00     0.031 C 
ATOM     58  C   UNL A   1      44.602  26.411  31.861  1.00  0.00     0.029 A 
ATOM     59  C   UNL A   1      43.709  27.249  32.504  1.00  0.00     0.049 A 
ATOM     60  H   UNL A   1      42.058  28.303  31.714  1.00  0.00     0.167 HD
ATOM     61  C   UNL A   1      42.834  28.585  34.376  1.00  0.00     0.074 A 
ATOM     62  C   UNL A   1      42.788  29.006  35.758  1.00  0.00     0.031 C 
ATOM     63  C   UNL A   1      43.660  27.627  33.891  1.00  0.00     0.037 A 
BRANCH  50  64
ATOM     64  C   UNL A   1      42.807  26.555  27.897  1.00  0.00     0.057 A 
ATOM     65  C   UNL A   1      43.686  27.173  27.000  1.00  0.00     0.134 A 
ATOM     66  C   UNL A   1      42.481  25.212  27.665  1.00  0.00     0.134 A 
ATOM     67  F   UNL A   1      44.029  28.460  27.161  1.00  0.00    -0.206 F 
ATOM     68  C   UNL A   1      44.224  26.477  25.914  1.00  0.00     0.040 A 
ATOM     69  C   UNL A   1      43.023  24.503  26.594  1.00  0.00     0.040 A 
ATOM     70  F   UNL A   1      41.651  24.563  28.496  1.00  0.00    -0.206 F 
ATOM     71  C   UNL A   1      43.899  25.135  25.714  1.00  0.00     0.006 A 
ENDBRANCH  50  64
BRANCH  51  72
ATOM     72  C   UNL A   1      39.733  31.888  35.578  1.00  0.00     0.057 A 
ATOM     73  C   UNL A   1      40.342  33.104  35.905  1.00  0.00     0.134 A 
ATOM     74  C   UNL A   1      38.674  31.460  36.392  1.00  0.00     0.134 A 
ATOM     75  F   UNL A   1      41.391  33.547  35.197  1.00  0.00    -0.206 F 
ATOM     76  C   UNL A   1      39.903  33.868  36.989  1.00  0.00     0.040 A 
ATOM     77  C   UNL A   1      38.199  32.232  37.450  1.00  0.00     0.040 A 
ATOM     78  F   UNL A   1      38.062  30.290  36.148  1.00  0.00    -0.206 F 
ATOM     79  C   UNL A   1      38.818  33.439  37.753  1.00  0.00     0.006 A 
ENDBRANCH  51  72
BRANCH  63  80
ATOM     80  C   UNL A   1      44.575  26.948  34.865  1.00  0.00     0.057 A 
ATOM     81  C   UNL A   1      44.222  25.737  35.477  1.00  0.00     0.134 A 
ATOM     82  C   UNL A   1      45.824  27.491  35.189  1.00  0.00     0.134 A 
ATOM     83  F   UNL A   1      43.032  25.170  35.223  1.00  0.00    -0.206 F 
ATOM     84  C   UNL A   1      45.066  25.107  36.394  1.00  0.00     0.040 A 
ATOM     85  C   UNL A   1      46.688  26.857  36.086  1.00  0.00     0.040 A 
ATOM     86  F   UNL A   1      46.231  28.644  34.636  1.00  0.00    -0.206 F 
ATOM     87  C   UNL A   1      46.305  25.664  36.697  1.00  0.00     0.006 A 
ENDBRANCH  63  80
ENDBRANCH  37  38
ENDBRANCH  30  32
ENDBRANCH  29  30
ENDBRANCH  28  29
ENDBRANCH   1  28
TORSDOF 15
ENDMDL
MODEL 3
REMARK VINA RESULT:     -12.1      4.033      9.596
REMARK SMILES O=C1CC[C@@H](CC(=O)N2CCC(Oc3ccccc3)(C(=O)OCCOC(=O)c3ccc(-c4c5nc(c(-c6c(F)cccc6F)c6ccc([nH]6)c(-c6c(F)cccc6F)c6nc(c(-c7c(F)cccc7F)c7ccc4[nH]7)C=C6)C=C5)cc3)CC2)N1
REMARK SMILES IDX 23 1 22 2 20 3 21 4 12 5 7 6 8 7 9 8 10 9 83 10 11 11 82 12
REMARK SMILES IDX 6 13 5 14 1 15 2 16 3 17 84 18 4 19 13 21 14 22 15 23 19 24
REMARK SMILES IDX 16 25 18 26 17 27 24 28 25 29 26 30 27 31 28 32 29 33 81 34
REMARK SMILES IDX 30 35 80 36 31 37 32 38 33 39 74 40 34 41 79 42 73 43 75 44
REMARK SMILES IDX 35 45 78 46 72 47 71 48 36 50 62 51 45 52 61 53 46 54 49 55
REMARK SMILES IDX 60 56 76 57 47 58 48 59 59 61 77 62 50 63 37 64 38 65 43 66
REMARK SMILES IDX 39 67 40 68 42 69 44 70 41 71 63 72 64 73 69 74 65 75 66 76
REMARK SMILES IDX 68 77 70 78 67 79 51 80 52 81 57 82 53 83 54 84 56 85 58 86
REMARK SMILES IDX 55 87
REMARK H PARENT 84 20 75 49 49 60
REMARK Flexibility Score: inf
ROOT
ATOM      1  C   UNL A   1      31.028  30.583  25.147  1.00  0.00     0.274 C 
ENDROOT
BRANCH   1   2
ATOM      2  O   UNL A   1      31.427  29.208  25.346  1.00  0.00    -0.459 OA
BRANCH   2   3
ATOM      3  C   UNL A   1      32.075  28.622  24.302  1.00  0.00     0.350 C 
ATOM      4  O   UNL A   1      33.040  29.131  23.737  1.00  0.00    -0.247 OA
BRANCH   3   5
ATOM      5  C   UNL A   1      31.468  27.265  23.871  1.00  0.00     0.209 C 
ATOM      6  C   UNL A   1      31.936  24.007  26.431  1.00  0.00     0.224 C 
ATOM      7  O   UNL A   1      30.862  23.426  26.615  1.00  0.00    -0.275 OA
ATOM      8  N   UNL A   1      31.970  25.319  25.985  1.00  0.00    -0.342 N 
ATOM      9  C   UNL A   1      30.798  26.183  26.121  1.00  0.00     0.124 C 
ATOM     10  C   UNL A   1      33.066  25.927  25.272  1.00  0.00     0.124 C 
ATOM     11  C   UNL A   1      30.330  26.752  24.783  1.00  0.00     0.082 C 
ATOM     12  C   UNL A   1      32.635  26.251  23.851  1.00  0.00     0.082 C 
BRANCH   6  13
ATOM     13  C   UNL A   1      33.226  23.331  26.901  1.00  0.00     0.125 C 
BRANCH  13  14
ATOM     14  C   UNL A   1      33.495  21.833  26.715  1.00  0.00     0.091 C 
ATOM     15  O   UNL A   1      32.154  19.254  24.756  1.00  0.00    -0.275 OA
ATOM     16  C   UNL A   1      32.860  20.093  25.268  1.00  0.00     0.220 C 
ATOM     17  C   UNL A   1      34.328  20.301  25.002  1.00  0.00     0.102 C 
ATOM     18  N   UNL A   1      32.436  21.032  26.189  1.00  0.00    -0.353 N 
ATOM     19  C   UNL A   1      34.677  21.556  25.791  1.00  0.00     0.035 C 
ATOM     20  H   UNL A   1      31.495  21.138  26.457  1.00  0.00     0.163 HD
ENDBRANCH  13  14
ENDBRANCH   6  13
BRANCH   5  21
ATOM     21  O   UNL A   1      30.948  27.629  22.556  1.00  0.00    -0.475 OA
BRANCH  21  22
ATOM     22  C   UNL A   1      29.856  28.451  22.567  1.00  0.00     0.121 A 
ATOM     23  C   UNL A   1      28.659  27.988  23.111  1.00  0.00     0.046 A 
ATOM     24  C   UNL A   1      29.926  29.720  22.000  1.00  0.00     0.046 A 
ATOM     25  C   UNL A   1      27.561  28.845  23.188  1.00  0.00     0.004 A 
ATOM     26  C   UNL A   1      28.832  30.580  22.085  1.00  0.00     0.004 A 
ATOM     27  C   UNL A   1      27.653  30.146  22.693  1.00  0.00     0.000 A 
ENDBRANCH  21  22
ENDBRANCH   5  21
ENDBRANCH   3   5
ENDBRANCH   2   3
ENDBRANCH   1   2
BRANCH   1  28
ATOM     28  C   UNL A   1      31.363  31.441  26.366  1.00  0.00     0.275 C 
BRANCH  28  29
ATOM     29  O   UNL A   1      32.641  31.051  26.907  1.00  0.00    -0.458 OA
BRANCH  29  30
ATOM     30  C   UNL A   1      33.408  32.041  27.418  1.00  0.00     0.338 C 
ATOM     31  O   UNL A   1      33.088  33.205  27.588  1.00  0.00    -0.246 OA
BRANCH  30  32
ATOM     32  C   UNL A   1      34.730  31.515  27.828  1.00  0.00     0.060 A 
ATOM     33  C   UNL A   1      34.894  30.154  28.048  1.00  0.00     0.016 A 
ATOM     34  C   UNL A   1      35.761  32.389  28.180  1.00  0.00     0.016 A 
ATOM     35  C   UNL A   1      36.001  29.702  28.767  1.00  0.00     0.010 A 
ATOM     36  C   UNL A   1      36.944  31.900  28.769  1.00  0.00     0.010 A 
ATOM     37  C   UNL A   1      37.066  30.551  29.140  1.00  0.00    -0.014 A 
BRANCH  37  38
ATOM     38  C   UNL A   1      38.220  30.017  29.960  1.00  0.00     0.031 A 
ATOM     39  C   UNL A   1      39.273  29.081  29.375  1.00  0.00     0.074 A 
ATOM     40  C   UNL A   1      38.450  30.485  31.211  1.00  0.00     0.049 A 
ATOM     41  N   UNL A   1      40.339  28.574  29.957  1.00  0.00    -0.248 NA
ATOM     42  C   UNL A   1      39.164  28.719  27.951  1.00  0.00     0.031 C 
ATOM     43  C   UNL A   1      37.613  31.450  31.925  1.00  0.00     0.029 A 
ATOM     44  N   UNL A   1      39.488  30.251  32.090  1.00  0.00    -0.354 N 
ATOM     45  C   UNL A   1      41.024  27.859  28.979  1.00  0.00     0.074 A 
ATOM     46  C   UNL A   1      40.248  27.975  27.763  1.00  0.00     0.031 C 
ATOM     47  C   UNL A   1      38.218  31.809  33.063  1.00  0.00     0.029 A 
ATOM     48  C   UNL A   1      39.388  30.965  33.263  1.00  0.00     0.049 A 
ATOM     49  H   UNL A   1      40.228  29.632  31.898  1.00  0.00     0.167 HD
ATOM     50  C   UNL A   1      42.193  27.174  29.064  1.00  0.00     0.037 A 
ATOM     51  C   UNL A   1      40.082  30.907  34.419  1.00  0.00     0.037 A 
ATOM     52  C   UNL A   1      42.972  26.993  30.263  1.00  0.00     0.049 A 
ATOM     53  C   UNL A   1      41.197  29.918  34.573  1.00  0.00     0.074 A 
ATOM     54  C   UNL A   1      44.120  26.234  30.436  1.00  0.00     0.029 A 
ATOM     55  N   UNL A   1      42.684  27.554  31.493  1.00  0.00    -0.354 N 
ATOM     56  N   UNL A   1      41.769  29.174  33.662  1.00  0.00    -0.248 NA
ATOM     57  C   UNL A   1      41.727  29.721  35.931  1.00  0.00     0.031 C 
ATOM     58  C   UNL A   1      44.478  26.273  31.788  1.00  0.00     0.029 A 
ATOM     59  C   UNL A   1      43.588  27.105  32.444  1.00  0.00     0.049 A 
ATOM     60  H   UNL A   1      41.945  28.181  31.668  1.00  0.00     0.167 HD
ATOM     61  C   UNL A   1      42.716  28.414  34.336  1.00  0.00     0.074 A 
ATOM     62  C   UNL A   1      42.669  28.811  35.725  1.00  0.00     0.031 C 
ATOM     63  C   UNL A   1      43.538  27.459  33.837  1.00  0.00     0.037 A 
BRANCH  50  64
ATOM     64  C   UNL A   1      42.694  26.493  27.824  1.00  0.00     0.057 A 
ATOM     65  C   UNL A   1      42.277  25.206  27.463  1.00  0.00     0.134 A 
ATOM     66  C   UNL A   1      43.530  27.178  26.932  1.00  0.00     0.134 A 
ATOM     67  F   UNL A   1      41.484  24.494  28.279  1.00  0.00    -0.206 F 
ATOM     68  C   UNL A   1      42.673  24.625  26.256  1.00  0.00     0.040 A 
ATOM     69  C   UNL A   1      43.920  26.615  25.717  1.00  0.00     0.040 A 
ATOM     70  F   UNL A   1      43.955  28.418  27.218  1.00  0.00    -0.206 F 
ATOM     71  C   UNL A   1      43.490  25.335  25.375  1.00  0.00     0.006 A 
ENDBRANCH  50  64
BRANCH  51  72
ATOM     72  C   UNL A   1      39.630  31.713  35.586  1.00  0.00     0.057 A 
ATOM     73  C   UNL A   1      38.567  31.306  36.399  1.00  0.00     0.134 A 
ATOM     74  C   UNL A   1      40.256  32.927  35.906  1.00  0.00     0.134 A 
ATOM     75  F   UNL A   1      37.893  30.180  36.120  1.00  0.00    -0.206 F 
ATOM     76  C   UNL A   1      38.156  32.070  37.494  1.00  0.00     0.040 A 
ATOM     77  C   UNL A   1      39.884  33.677  37.019  1.00  0.00     0.040 A 
ATOM     78  F   UNL A   1      41.266  33.387  35.151  1.00  0.00    -0.206 F 
ATOM     79  C   UNL A   1      38.826  33.250  37.815  1.00  0.00     0.006 A 
ENDBRANCH  51  72
BRANCH  63  80
ATOM     80  C   UNL A   1      44.447  26.759  34.802  1.00  0.00     0.057 A 
ATOM     81  C   UNL A   1      44.083  25.543  35.397  1.00  0.00     0.134 A 
ATOM     82  C   UNL A   1      45.701  27.286  35.133  1.00  0.00     0.134 A 
ATOM     83  F   UNL A   1      42.888  24.990  35.135  1.00  0.00    -0.206 F 
ATOM     84  C   UNL A   1      44.921  24.893  36.306  1.00  0.00     0.040 A 
ATOM     85  C   UNL A   1      46.559  26.633  36.021  1.00  0.00     0.040 A 
ATOM     86  F   UNL A   1      46.118  28.443  34.595  1.00  0.00    -0.206 F 
ATOM     87  C   UNL A   1      46.166  25.435  36.615  1.00  0.00     0.006 A 
ENDBRANCH  63  80
ENDBRANCH  37  38
ENDBRANCH  30  32
ENDBRANCH  29  30
ENDBRANCH  28  29
ENDBRANCH   1  28
TORSDOF 15
ENDMDL
