MODEL 1
REMARK VINA RESULT:     -12.8      0.000      0.000
REMARK SMILES COc1cc(C)cc2c1[C@@H](C)[C@@H](CC(=O)N[C@@H](Cc1c[nH]c3ccccc13)C(=O)OCCOC(=O)c1ccc(-c3c4nc(c(-c5c(F)cccc5F)c5ccc([nH]5)c(-c5c(F)cccc5F)c5nc(c(-c6c(F)cccc6F)c6ccc3[nH]6)C=C5)C=C4)cc1)C(=O)O2
REMARK SMILES IDX 31 1 30 2 28 3 29 4 17 5 16 6 14 7 15 8 13 10 12 11 3 12
REMARK SMILES IDX 4 13 9 14 5 15 8 16 10 17 6 18 7 19 92 20 11 21 90 22 91 23
REMARK SMILES IDX 2 24 1 25 18 26 19 27 20 28 27 29 21 30 22 31 26 32 23 34
REMARK SMILES IDX 25 35 24 36 32 37 33 38 34 39 35 40 36 41 37 42 89 43 38 44
REMARK SMILES IDX 88 45 39 46 40 47 41 48 82 49 42 50 87 51 81 52 83 53 43 54
REMARK SMILES IDX 86 55 80 56 79 57 44 59 70 60 53 61 69 62 54 63 57 64 68 65
REMARK SMILES IDX 84 66 55 67 56 68 67 70 85 71 58 72 45 73 46 74 51 75 47 76
REMARK SMILES IDX 48 77 50 78 52 79 49 80 71 81 72 82 77 83 73 84 74 85 76 86
REMARK SMILES IDX 78 87 75 88 59 89 60 90 65 91 61 92 62 93 64 94 66 95 63 96
REMARK H PARENT 16 9 21 33 83 58 57 69
REMARK Flexibility Score: inf
ROOT
ATOM      1  C   UNL A   1      37.545  20.071  25.013  1.00  0.00     0.274 C 
ENDROOT
BRANCH   1   2
ATOM      2  O   UNL A   1      37.054  21.278  24.396  1.00  0.00    -0.461 OA
BRANCH   2   3
ATOM      3  C   UNL A   1      36.332  22.086  25.207  1.00  0.00     0.329 C 
ATOM      4  O   UNL A   1      36.651  22.380  26.359  1.00  0.00    -0.250 OA
BRANCH   3   5
ATOM      5  C   UNL A   1      35.018  22.573  24.601  1.00  0.00     0.196 C 
BRANCH   5   6
ATOM      6  N   UNL A   1      34.980  23.642  23.614  1.00  0.00    -0.342 N 
ATOM      7  C   UNL A   1      33.970  24.548  23.397  1.00  0.00     0.221 C 
ATOM      8  O   UNL A   1      33.796  25.012  22.271  1.00  0.00    -0.275 OA
ATOM      9  H   UNL A   1      35.772  23.726  23.035  1.00  0.00     0.164 HD
BRANCH   7  10
ATOM     10  C   UNL A   1      33.225  25.124  24.592  1.00  0.00     0.116 C 
BRANCH  10  11
ATOM     11  C   UNL A   1      31.880  24.495  25.028  1.00  0.00     0.116 C 
ATOM     12  C   UNL A   1      30.511  27.828  24.214  1.00  0.00     0.126 A 
ATOM     13  C   UNL A   1      31.045  29.047  24.664  1.00  0.00     0.050 A 
ATOM     14  C   UNL A   1      30.721  26.671  24.970  1.00  0.00     0.041 A 
ATOM     15  C   UNL A   1      31.754  29.119  25.880  1.00  0.00    -0.044 A 
ATOM     16  C   UNL A   1      31.238  26.820  26.266  1.00  0.00     0.138 A 
ATOM     17  C   UNL A   1      30.627  25.239  24.462  1.00  0.00     0.038 C 
ATOM     18  C   UNL A   1      32.576  30.308  26.273  1.00  0.00     0.044 C 
ATOM     19  C   UNL A   1      31.736  28.024  26.735  1.00  0.00     0.051 A 
ATOM     20  O   UNL A   1      31.424  25.707  27.101  1.00  0.00    -0.426 OA
ATOM     21  C   UNL A   1      30.547  25.023  22.949  1.00  0.00     0.014 C 
ATOM     22  C   UNL A   1      31.661  24.470  26.518  1.00  0.00     0.315 C 
ATOM     23  O   UNL A   1      31.692  23.443  27.185  1.00  0.00    -0.251 OA
BRANCH  12  24
ATOM     24  O   UNL A   1      29.733  27.698  23.100  1.00  0.00    -0.496 OA
ATOM     25  C   UNL A   1      28.395  28.175  23.152  1.00  0.00     0.278 C 
ENDBRANCH  12  24
ENDBRANCH  10  11
ENDBRANCH   7  10
ENDBRANCH   5   6
BRANCH   5  26
ATOM     26  C   UNL A   1      34.196  21.346  24.210  1.00  0.00     0.074 C 
BRANCH  26  27
ATOM     27  C   UNL A   1      33.994  20.096  25.030  1.00  0.00    -0.020 A 
ATOM     28  C   UNL A   1      33.432  20.213  26.294  1.00  0.00     0.087 A 
ATOM     29  C   UNL A   1      33.957  18.685  24.717  1.00  0.00     0.003 A 
ATOM     30  N   UNL A   1      32.756  19.062  26.564  1.00  0.00    -0.361 N 
ATOM     31  C   UNL A   1      33.062  18.108  25.629  1.00  0.00     0.046 A 
ATOM     32  C   UNL A   1      34.475  17.819  23.728  1.00  0.00     0.010 A 
ATOM     33  H   UNL A   1      32.139  18.933  27.320  1.00  0.00     0.166 HD
ATOM     34  C   UNL A   1      32.578  16.797  25.523  1.00  0.00     0.026 A 
ATOM     35  C   UNL A   1      34.058  16.479  23.649  1.00  0.00     0.001 A 
ATOM     36  C   UNL A   1      33.094  15.987  24.514  1.00  0.00     0.002 A 
ENDBRANCH  26  27
ENDBRANCH   5  26
ENDBRANCH   3   5
ENDBRANCH   2   3
ENDBRANCH   1   2
BRANCH   1  37
ATOM     37  C   UNL A   1      39.053  19.938  24.806  1.00  0.00     0.275 C 
BRANCH  37  38
ATOM     38  O   UNL A   1      39.698  19.375  25.966  1.00  0.00    -0.458 OA
BRANCH  38  39
ATOM     39  C   UNL A   1      41.045  19.545  26.012  1.00  0.00     0.338 C 
ATOM     40  O   UNL A   1      41.886  18.814  25.540  1.00  0.00    -0.246 OA
BRANCH  39  41
ATOM     41  C   UNL A   1      41.371  20.854  26.630  1.00  0.00     0.060 A 
ATOM     42  C   UNL A   1      41.158  21.139  27.984  1.00  0.00     0.016 A 
ATOM     43  C   UNL A   1      41.940  21.819  25.802  1.00  0.00     0.016 A 
ATOM     44  C   UNL A   1      41.500  22.400  28.503  1.00  0.00     0.010 A 
ATOM     45  C   UNL A   1      42.255  23.075  26.318  1.00  0.00     0.010 A 
ATOM     46  C   UNL A   1      42.035  23.393  27.670  1.00  0.00    -0.014 A 
BRANCH  46  47
ATOM     47  C   UNL A   1      42.391  24.749  28.180  1.00  0.00     0.031 A 
ATOM     48  C   UNL A   1      43.796  25.099  28.602  1.00  0.00     0.074 A 
ATOM     49  C   UNL A   1      41.416  25.656  28.376  1.00  0.00     0.049 A 
ATOM     50  N   UNL A   1      44.282  26.227  29.060  1.00  0.00    -0.248 NA
ATOM     51  C   UNL A   1      44.775  24.012  28.559  1.00  0.00     0.031 C 
ATOM     52  C   UNL A   1      40.000  25.454  28.069  1.00  0.00     0.029 A 
ATOM     53  N   UNL A   1      41.470  26.923  28.898  1.00  0.00    -0.354 N 
ATOM     54  C   UNL A   1      45.614  25.972  29.376  1.00  0.00     0.074 A 
ATOM     55  C   UNL A   1      45.835  24.565  29.128  1.00  0.00     0.031 C 
ATOM     56  C   UNL A   1      39.318  26.557  28.410  1.00  0.00     0.029 A 
ATOM     57  C   UNL A   1      40.252  27.553  28.926  1.00  0.00     0.049 A 
ATOM     58  H   UNL A   1      42.302  27.341  29.219  1.00  0.00     0.167 HD
ATOM     59  C   UNL A   1      46.576  26.826  29.813  1.00  0.00     0.037 A 
ATOM     60  C   UNL A   1      39.927  28.809  29.280  1.00  0.00     0.037 A 
ATOM     61  C   UNL A   1      46.355  28.223  30.077  1.00  0.00     0.049 A 
ATOM     62  C   UNL A   1      41.006  29.770  29.691  1.00  0.00     0.074 A 
ATOM     63  C   UNL A   1      47.261  29.189  30.484  1.00  0.00     0.029 A 
ATOM     64  N   UNL A   1      45.121  28.848  29.987  1.00  0.00    -0.354 N 
ATOM     65  N   UNL A   1      42.293  29.561  29.822  1.00  0.00    -0.248 NA
ATOM     66  C   UNL A   1      40.586  31.151  29.966  1.00  0.00     0.031 C 
ATOM     67  C   UNL A   1      46.559  30.378  30.712  1.00  0.00     0.029 A 
ATOM     68  C   UNL A   1      45.230  30.170  30.384  1.00  0.00     0.049 A 
ATOM     69  H   UNL A   1      44.290  28.416  29.686  1.00  0.00     0.167 HD
ATOM     70  C   UNL A   1      42.842  30.790  30.165  1.00  0.00     0.074 A 
ATOM     71  C   UNL A   1      41.749  31.740  30.210  1.00  0.00     0.031 C 
ATOM     72  C   UNL A   1      44.136  31.105  30.417  1.00  0.00     0.037 A 
BRANCH  59  73
ATOM     73  C   UNL A   1      47.944  26.252  30.065  1.00  0.00     0.057 A 
ATOM     74  C   UNL A   1      48.891  26.186  29.035  1.00  0.00     0.134 A 
ATOM     75  C   UNL A   1      48.335  25.778  31.326  1.00  0.00     0.134 A 
ATOM     76  F   UNL A   1      48.584  26.605  27.799  1.00  0.00    -0.206 F 
ATOM     77  C   UNL A   1      50.180  25.693  29.253  1.00  0.00     0.040 A 
ATOM     78  C   UNL A   1      49.630  25.311  31.565  1.00  0.00     0.040 A 
ATOM     79  F   UNL A   1      47.482  25.816  32.361  1.00  0.00    -0.206 F 
ATOM     80  C   UNL A   1      50.557  25.268  30.526  1.00  0.00     0.006 A 
ENDBRANCH  59  73
BRANCH  60  81
ATOM     81  C   UNL A   1      38.526  29.261  29.122  1.00  0.00     0.057 A 
ATOM     82  C   UNL A   1      37.623  29.258  30.189  1.00  0.00     0.134 A 
ATOM     83  C   UNL A   1      38.053  29.660  27.867  1.00  0.00     0.134 A 
ATOM     84  F   UNL A   1      38.017  28.864  31.409  1.00  0.00    -0.206 F 
ATOM     85  C   UNL A   1      36.291  29.636  30.012  1.00  0.00     0.040 A 
ATOM     86  C   UNL A   1      36.730  30.055  27.679  1.00  0.00     0.040 A 
ATOM     87  F   UNL A   1      38.879  29.683  26.812  1.00  0.00    -0.206 F 
ATOM     88  C   UNL A   1      35.843  30.039  28.755  1.00  0.00     0.006 A 
ENDBRANCH  60  81
BRANCH  72  89
ATOM     89  C   UNL A   1      44.449  32.533  30.747  1.00  0.00     0.057 A 
ATOM     90  C   UNL A   1      44.401  32.983  32.073  1.00  0.00     0.134 A 
ATOM     91  C   UNL A   1      44.748  33.473  29.752  1.00  0.00     0.134 A 
ATOM     92  F   UNL A   1      44.112  32.134  33.070  1.00  0.00    -0.206 F 
ATOM     93  C   UNL A   1      44.638  34.319  32.397  1.00  0.00     0.040 A 
ATOM     94  C   UNL A   1      45.009  34.807  30.067  1.00  0.00     0.040 A 
ATOM     95  F   UNL A   1      44.817  33.101  28.466  1.00  0.00    -0.206 F 
ATOM     96  C   UNL A   1      44.947  35.234  31.392  1.00  0.00     0.006 A 
ENDBRANCH  72  89
ENDBRANCH  46  47
ENDBRANCH  39  41
ENDBRANCH  38  39
ENDBRANCH  37  38
ENDBRANCH   1  37
TORSDOF 17
ENDMDL
MODEL 2
REMARK VINA RESULT:     -12.8      2.486      8.640
REMARK SMILES COc1cc(C)cc2c1[C@@H](C)[C@@H](CC(=O)N[C@@H](Cc1c[nH]c3ccccc13)C(=O)OCCOC(=O)c1ccc(-c3c4nc(c(-c5c(F)cccc5F)c5ccc([nH]5)c(-c5c(F)cccc5F)c5nc(c(-c6c(F)cccc6F)c6ccc3[nH]6)C=C5)C=C4)cc1)C(=O)O2
REMARK SMILES IDX 31 1 30 2 28 3 29 4 17 5 16 6 14 7 15 8 13 10 12 11 3 12
REMARK SMILES IDX 4 13 9 14 5 15 8 16 10 17 6 18 7 19 92 20 11 21 90 22 91 23
REMARK SMILES IDX 2 24 1 25 18 26 19 27 20 28 27 29 21 30 22 31 26 32 23 34
REMARK SMILES IDX 25 35 24 36 32 37 33 38 34 39 35 40 36 41 37 42 89 43 38 44
REMARK SMILES IDX 88 45 39 46 40 47 41 48 82 49 42 50 87 51 81 52 83 53 43 54
REMARK SMILES IDX 86 55 80 56 79 57 44 59 70 60 53 61 69 62 54 63 57 64 68 65
REMARK SMILES IDX 84 66 55 67 56 68 67 70 85 71 58 72 45 73 46 74 51 75 47 76
REMARK SMILES IDX 48 77 50 78 52 79 49 80 71 81 72 82 77 83 73 84 74 85 76 86
REMARK SMILES IDX 78 87 75 88 59 89 60 90 65 91 61 92 62 93 64 94 66 95 63 96
REMARK H PARENT 16 9 21 33 83 58 57 69
REMARK Flexibility Score: inf
ROOT
ATOM      1  C   UNL A   1      32.634  30.117  26.921  1.00  0.00     0.274 C 
ENDROOT
BRANCH   1   2
ATOM      2  O   UNL A   1      32.878  28.708  26.741  1.00  0.00    -0.461 OA
BRANCH   2   3
ATOM      3  C   UNL A   1      31.814  27.905  26.974  1.00  0.00     0.329 C 
ATOM      4  O   UNL A   1      30.914  28.157  27.774  1.00  0.00    -0.250 OA
BRANCH   3   5
ATOM      5  C   UNL A   1      31.838  26.590  26.197  1.00  0.00     0.196 C 
BRANCH   5   6
ATOM      6  N   UNL A   1      31.553  25.317  26.840  1.00  0.00    -0.342 N 
ATOM      7  C   UNL A   1      31.714  24.057  26.316  1.00  0.00     0.221 C 
ATOM      8  O   UNL A   1      30.981  23.142  26.685  1.00  0.00    -0.275 OA
ATOM      9  H   UNL A   1      31.203  25.363  27.760  1.00  0.00     0.164 HD
BRANCH   7  10
ATOM     10  C   UNL A   1      32.933  23.768  25.451  1.00  0.00     0.116 C 
BRANCH  10  11
ATOM     11  C   UNL A   1      32.737  23.305  23.987  1.00  0.00     0.116 C 
ATOM     12  C   UNL A   1      35.401  20.882  24.814  1.00  0.00     0.126 A 
ATOM     13  C   UNL A   1      36.621  21.211  25.428  1.00  0.00     0.050 A 
ATOM     14  C   UNL A   1      34.731  21.856  24.067  1.00  0.00     0.041 A 
ATOM     15  C   UNL A   1      37.189  22.491  25.268  1.00  0.00    -0.044 A 
ATOM     16  C   UNL A   1      35.424  23.034  23.755  1.00  0.00     0.138 A 
ATOM     17  C   UNL A   1      33.250  21.854  23.715  1.00  0.00     0.038 C 
ATOM     18  C   UNL A   1      38.324  22.987  26.109  1.00  0.00     0.044 C 
ATOM     19  C   UNL A   1      36.645  23.354  24.326  1.00  0.00     0.051 A 
ATOM     20  O   UNL A   1      34.833  24.031  22.962  1.00  0.00    -0.426 OA
ATOM     21  C   UNL A   1      32.347  20.850  24.437  1.00  0.00     0.014 C 
ATOM     22  C   UNL A   1      33.451  24.153  22.968  1.00  0.00     0.315 C 
ATOM     23  O   UNL A   1      32.871  24.908  22.196  1.00  0.00    -0.251 OA
BRANCH  12  24
ATOM     24  O   UNL A   1      34.838  19.639  24.843  1.00  0.00    -0.496 OA
ATOM     25  C   UNL A   1      35.686  18.511  24.674  1.00  0.00     0.278 C 
ENDBRANCH  12  24
ENDBRANCH  10  11
ENDBRANCH   7  10
ENDBRANCH   5   6
BRANCH   5  26
ATOM     26  C   UNL A   1      31.080  26.802  24.888  1.00  0.00     0.074 C 
BRANCH  26  27
ATOM     27  C   UNL A   1      30.965  28.088  24.109  1.00  0.00    -0.020 A 
ATOM     28  C   UNL A   1      32.110  28.619  23.530  1.00  0.00     0.087 A 
ATOM     29  C   UNL A   1      29.860  28.809  23.517  1.00  0.00     0.003 A 
ATOM     30  N   UNL A   1      31.739  29.307  22.414  1.00  0.00    -0.361 N 
ATOM     31  C   UNL A   1      30.377  29.450  22.383  1.00  0.00     0.046 A 
ATOM     32  C   UNL A   1      28.467  28.938  23.718  1.00  0.00     0.010 A 
ATOM     33  H   UNL A   1      32.359  29.652  21.732  1.00  0.00     0.166 HD
ATOM     34  C   UNL A   1      29.583  30.072  21.409  1.00  0.00     0.026 A 
ATOM     35  C   UNL A   1      27.663  29.621  22.791  1.00  0.00     0.001 A 
ATOM     36  C   UNL A   1      28.211  30.149  21.633  1.00  0.00     0.002 A 
ENDBRANCH  26  27
ENDBRANCH   5  26
ENDBRANCH   3   5
ENDBRANCH   2   3
ENDBRANCH   1   2
BRANCH   1  37
ATOM     37  C   UNL A   1      33.922  30.840  27.313  1.00  0.00     0.275 C 
BRANCH  37  38
ATOM     38  O   UNL A   1      34.810  29.975  28.050  1.00  0.00    -0.458 OA
BRANCH  38  39
ATOM     39  C   UNL A   1      35.574  30.600  28.984  1.00  0.00     0.338 C 
ATOM     40  O   UNL A   1      35.194  31.380  29.827  1.00  0.00    -0.246 OA
BRANCH  39  41
ATOM     41  C   UNL A   1      36.968  30.097  28.920  1.00  0.00     0.060 A 
ATOM     42  C   UNL A   1      37.660  29.606  30.034  1.00  0.00     0.016 A 
ATOM     43  C   UNL A   1      37.585  30.104  27.671  1.00  0.00     0.016 A 
ATOM     44  C   UNL A   1      38.978  29.137  29.896  1.00  0.00     0.010 A 
ATOM     45  C   UNL A   1      38.900  29.659  27.546  1.00  0.00     0.010 A 
ATOM     46  C   UNL A   1      39.623  29.177  28.652  1.00  0.00    -0.014 A 
BRANCH  46  47
ATOM     47  C   UNL A   1      41.028  28.708  28.472  1.00  0.00     0.031 A 
ATOM     48  C   UNL A   1      41.351  27.281  28.107  1.00  0.00     0.074 A 
ATOM     49  C   UNL A   1      42.043  29.547  28.747  1.00  0.00     0.049 A 
ATOM     50  N   UNL A   1      42.512  26.705  27.904  1.00  0.00    -0.248 NA
ATOM     51  C   UNL A   1      40.216  26.361  28.019  1.00  0.00     0.031 C 
ATOM     52  C   UNL A   1      41.897  30.942  29.164  1.00  0.00     0.029 A 
ATOM     53  N   UNL A   1      43.399  29.340  28.736  1.00  0.00    -0.354 N 
ATOM     54  C   UNL A   1      42.240  25.357  27.686  1.00  0.00     0.074 A 
ATOM     55  C   UNL A   1      40.813  25.191  27.856  1.00  0.00     0.031 C 
ATOM     56  C   UNL A   1      43.115  31.466  29.370  1.00  0.00     0.029 A 
ATOM     57  C   UNL A   1      44.124  30.456  29.068  1.00  0.00     0.049 A 
ATOM     58  H   UNL A   1      43.812  28.475  28.509  1.00  0.00     0.167 HD
ATOM     59  C   UNL A   1      43.087  24.349  27.354  1.00  0.00     0.037 A 
ATOM     60  C   UNL A   1      45.454  30.661  29.082  1.00  0.00     0.037 A 
ATOM     61  C   UNL A   1      44.508  24.507  27.200  1.00  0.00     0.049 A 
ATOM     62  C   UNL A   1      46.381  29.564  28.642  1.00  0.00     0.074 A 
ATOM     63  C   UNL A   1      45.457  23.568  26.828  1.00  0.00     0.029 A 
ATOM     64  N   UNL A   1      45.192  25.688  27.441  1.00  0.00    -0.354 N 
ATOM     65  N   UNL A   1      46.096  28.339  28.272  1.00  0.00    -0.248 NA
ATOM     66  C   UNL A   1      47.811  29.896  28.587  1.00  0.00     0.031 C 
ATOM     67  C   UNL A   1      46.720  24.163  26.920  1.00  0.00     0.029 A 
ATOM     68  C   UNL A   1      46.553  25.489  27.283  1.00  0.00     0.049 A 
ATOM     69  H   UNL A   1      44.772  26.543  27.689  1.00  0.00     0.167 HD
ATOM     70  C   UNL A   1      47.308  27.763  27.911  1.00  0.00     0.074 A 
ATOM     71  C   UNL A   1      48.326  28.776  28.096  1.00  0.00     0.031 C 
ATOM     72  C   UNL A   1      47.554  26.507  27.464  1.00  0.00     0.037 A 
BRANCH  59  73
ATOM     73  C   UNL A   1      42.490  22.979  27.173  1.00  0.00     0.057 A 
ATOM     74  C   UNL A   1      42.109  22.213  28.282  1.00  0.00     0.134 A 
ATOM     75  C   UNL A   1      42.277  22.419  25.905  1.00  0.00     0.134 A 
ATOM     76  F   UNL A   1      42.298  22.676  29.527  1.00  0.00    -0.206 F 
ATOM     77  C   UNL A   1      41.520  20.955  28.139  1.00  0.00     0.040 A 
ATOM     78  C   UNL A   1      41.661  21.175  25.746  1.00  0.00     0.040 A 
ATOM     79  F   UNL A   1      42.612  23.097  24.796  1.00  0.00    -0.206 F 
ATOM     80  C   UNL A   1      41.279  20.439  26.867  1.00  0.00     0.006 A 
ENDBRANCH  59  73
BRANCH  60  81
ATOM     81  C   UNL A   1      45.969  32.012  29.396  1.00  0.00     0.057 A 
ATOM     82  C   UNL A   1      46.153  32.982  28.405  1.00  0.00     0.134 A 
ATOM     83  C   UNL A   1      46.339  32.338  30.705  1.00  0.00     0.134 A 
ATOM     84  F   UNL A   1      45.837  32.716  27.130  1.00  0.00    -0.206 F 
ATOM     85  C   UNL A   1      46.690  34.234  28.709  1.00  0.00     0.040 A 
ATOM     86  C   UNL A   1      46.862  33.589  31.025  1.00  0.00     0.040 A 
ATOM     87  F   UNL A   1      46.181  31.444  31.692  1.00  0.00    -0.206 F 
ATOM     88  C   UNL A   1      47.043  34.541  30.022  1.00  0.00     0.006 A 
ENDBRANCH  60  81
BRANCH  72  89
ATOM     89  C   UNL A   1      48.972  26.160  27.126  1.00  0.00     0.057 A 
ATOM     90  C   UNL A   1      49.454  26.330  25.822  1.00  0.00     0.134 A 
ATOM     91  C   UNL A   1      49.845  25.613  28.075  1.00  0.00     0.134 A 
ATOM     92  F   UNL A   1      48.665  26.841  24.865  1.00  0.00    -0.206 F 
ATOM     93  C   UNL A   1      50.754  25.965  25.473  1.00  0.00     0.040 A 
ATOM     94  C   UNL A   1      51.156  25.265  27.742  1.00  0.00     0.040 A 
ATOM     95  F   UNL A   1      49.445  25.434  29.342  1.00  0.00    -0.206 F 
ATOM     96  C   UNL A   1      51.610  25.435  26.436  1.00  0.00     0.006 A 
ENDBRANCH  72  89
ENDBRANCH  46  47
ENDBRANCH  39  41
ENDBRANCH  38  39
ENDBRANCH  37  38
ENDBRANCH   1  37
TORSDOF 17
ENDMDL
MODEL 3
REMARK VINA RESULT:     -12.8      0.555      1.668
REMARK SMILES COc1cc(C)cc2c1[C@@H](C)[C@@H](CC(=O)N[C@@H](Cc1c[nH]c3ccccc13)C(=O)OCCOC(=O)c1ccc(-c3c4nc(c(-c5c(F)cccc5F)c5ccc([nH]5)c(-c5c(F)cccc5F)c5nc(c(-c6c(F)cccc6F)c6ccc3[nH]6)C=C5)C=C4)cc1)C(=O)O2
REMARK SMILES IDX 31 1 30 2 28 3 29 4 17 5 16 6 14 7 15 8 13 10 12 11 3 12
REMARK SMILES IDX 4 13 9 14 5 15 8 16 10 17 6 18 7 19 92 20 11 21 90 22 91 23
REMARK SMILES IDX 2 24 1 25 18 26 19 27 20 28 27 29 21 30 22 31 26 32 23 34
REMARK SMILES IDX 25 35 24 36 32 37 33 38 34 39 35 40 36 41 37 42 89 43 38 44
REMARK SMILES IDX 88 45 39 46 40 47 41 48 82 49 42 50 87 51 81 52 83 53 43 54
REMARK SMILES IDX 86 55 80 56 79 57 44 59 70 60 53 61 69 62 54 63 57 64 68 65
REMARK SMILES IDX 84 66 55 67 56 68 67 70 85 71 58 72 45 73 46 74 51 75 47 76
REMARK SMILES IDX 48 77 50 78 52 79 49 80 71 81 72 82 77 83 73 84 74 85 76 86
REMARK SMILES IDX 78 87 75 88 59 89 60 90 65 91 61 92 62 93 64 94 66 95 63 96
REMARK H PARENT 16 9 21 33 83 58 57 69
REMARK Flexibility Score: inf
ROOT
ATOM      1  C   UNL A   1      38.738  21.251  25.399  1.00  0.00     0.274 C 
ENDROOT
BRANCH   1   2
ATOM      2  O   UNL A   1      37.353  21.430  25.758  1.00  0.00    -0.461 OA
BRANCH   2   3
ATOM      3  C   UNL A   1      36.884  22.692  25.631  1.00  0.00     0.329 C 
ATOM      4  O   UNL A   1      37.393  23.681  26.158  1.00  0.00    -0.250 OA
BRANCH   3   5
ATOM      5  C   UNL A   1      35.597  22.805  24.815  1.00  0.00     0.196 C 
BRANCH   5   6
ATOM      6  N   UNL A   1      35.404  23.862  23.834  1.00  0.00    -0.342 N 
ATOM      7  C   UNL A   1      34.278  24.623  23.630  1.00  0.00     0.221 C 
ATOM      8  O   UNL A   1      34.031  25.061  22.508  1.00  0.00    -0.275 OA
ATOM      9  H   UNL A   1      36.171  24.055  23.247  1.00  0.00     0.164 HD
BRANCH   7  10
ATOM     10  C   UNL A   1      33.473  25.088  24.835  1.00  0.00     0.116 C 
BRANCH  10  11
ATOM     11  C   UNL A   1      32.087  24.460  25.115  1.00  0.00     0.116 C 
ATOM     12  C   UNL A   1      30.836  27.847  24.332  1.00  0.00     0.126 A 
ATOM     13  C   UNL A   1      31.339  29.036  24.886  1.00  0.00     0.050 A 
ATOM     14  C   UNL A   1      30.962  26.654  25.051  1.00  0.00     0.041 A 
ATOM     15  C   UNL A   1      31.933  29.042  26.164  1.00  0.00    -0.044 A 
ATOM     16  C   UNL A   1      31.358  26.737  26.394  1.00  0.00     0.138 A 
ATOM     17  C   UNL A   1      30.901  25.248  24.471  1.00  0.00     0.038 C 
ATOM     18  C   UNL A   1      32.727  30.200  26.685  1.00  0.00     0.044 C 
ATOM     19  C   UNL A   1      31.823  27.911  26.963  1.00  0.00     0.051 A 
ATOM     20  O   UNL A   1      31.453  25.585  27.190  1.00  0.00    -0.426 OA
ATOM     21  C   UNL A   1      30.959  25.101  22.948  1.00  0.00     0.014 C 
ATOM     22  C   UNL A   1      31.730  24.372  26.575  1.00  0.00     0.315 C 
ATOM     23  O   UNL A   1      31.688  23.316  27.195  1.00  0.00    -0.251 OA
BRANCH  12  24
ATOM     24  O   UNL A   1      30.163  27.778  23.147  1.00  0.00    -0.496 OA
ATOM     25  C   UNL A   1      30.160  28.923  22.305  1.00  0.00     0.278 C 
ENDBRANCH  12  24
ENDBRANCH  10  11
ENDBRANCH   7  10
ENDBRANCH   5   6
BRANCH   5  26
ATOM     26  C   UNL A   1      35.244  21.413  24.298  1.00  0.00     0.074 C 
BRANCH  26  27
ATOM     27  C   UNL A   1      34.432  20.362  25.014  1.00  0.00    -0.020 A 
ATOM     28  C   UNL A   1      33.380  20.771  25.822  1.00  0.00     0.087 A 
ATOM     29  C   UNL A   1      34.260  18.936  24.843  1.00  0.00     0.003 A 
ATOM     30  N   UNL A   1      32.439  19.786  25.821  1.00  0.00    -0.361 N 
ATOM     31  C   UNL A   1      32.947  18.653  25.242  1.00  0.00     0.046 A 
ATOM     32  C   UNL A   1      34.993  17.850  24.315  1.00  0.00     0.010 A 
ATOM     33  H   UNL A   1      31.528  19.875  26.183  1.00  0.00     0.166 HD
ATOM     34  C   UNL A   1      32.314  17.421  25.022  1.00  0.00     0.026 A 
ATOM     35  C   UNL A   1      34.400  16.587  24.154  1.00  0.00     0.001 A 
ATOM     36  C   UNL A   1      33.065  16.387  24.470  1.00  0.00     0.002 A 
ENDBRANCH  26  27
ENDBRANCH   5  26
ENDBRANCH   3   5
ENDBRANCH   2   3
ENDBRANCH   1   2
BRANCH   1  37
ATOM     37  C   UNL A   1      39.248  19.895  25.887  1.00  0.00     0.275 C 
BRANCH  37  38
ATOM     38  O   UNL A   1      40.489  19.536  25.246  1.00  0.00    -0.458 OA
BRANCH  38  39
ATOM     39  C   UNL A   1      41.574  19.531  26.063  1.00  0.00     0.338 C 
ATOM     40  O   UNL A   1      42.277  18.582  26.328  1.00  0.00    -0.246 OA
BRANCH  39  41
ATOM     41  C   UNL A   1      41.878  20.910  26.514  1.00  0.00     0.060 A 
ATOM     42  C   UNL A   1      42.371  21.907  25.663  1.00  0.00     0.016 A 
ATOM     43  C   UNL A   1      41.628  21.206  27.853  1.00  0.00     0.016 A 
ATOM     44  C   UNL A   1      42.628  23.197  26.160  1.00  0.00     0.010 A 
ATOM     45  C   UNL A   1      41.907  22.480  28.344  1.00  0.00     0.010 A 
ATOM     46  C   UNL A   1      42.418  23.494  27.515  1.00  0.00    -0.014 A 
BRANCH  46  47
ATOM     47  C   UNL A   1      42.700  24.845  28.083  1.00  0.00     0.031 A 
ATOM     48  C   UNL A   1      44.078  25.242  28.549  1.00  0.00     0.074 A 
ATOM     49  C   UNL A   1      41.681  25.698  28.289  1.00  0.00     0.049 A 
ATOM     50  N   UNL A   1      44.502  26.373  29.059  1.00  0.00    -0.248 NA
ATOM     51  C   UNL A   1      45.107  24.203  28.489  1.00  0.00     0.031 C 
ATOM     52  C   UNL A   1      40.282  25.444  27.943  1.00  0.00     0.029 A 
ATOM     53  N   UNL A   1      41.664  26.947  28.857  1.00  0.00    -0.354 N 
ATOM     54  C   UNL A   1      45.837  26.168  29.396  1.00  0.00     0.074 A 
ATOM     55  C   UNL A   1      46.128  24.782  29.102  1.00  0.00     0.031 C 
ATOM     56  C   UNL A   1      39.543  26.502  28.308  1.00  0.00     0.029 A 
ATOM     57  C   UNL A   1      40.418  27.520  28.881  1.00  0.00     0.049 A 
ATOM     58  H   UNL A   1      42.469  27.389  29.213  1.00  0.00     0.167 HD
ATOM     59  C   UNL A   1      46.749  27.047  29.886  1.00  0.00     0.037 A 
ATOM     60  C   UNL A   1      40.028  28.745  29.273  1.00  0.00     0.037 A 
ATOM     61  C   UNL A   1      46.458  28.421  30.196  1.00  0.00     0.049 A 
ATOM     62  C   UNL A   1      41.053  29.738  29.743  1.00  0.00     0.074 A 
ATOM     63  C   UNL A   1      47.310  29.412  30.658  1.00  0.00     0.029 A 
ATOM     64  N   UNL A   1      45.199  28.993  30.100  1.00  0.00    -0.354 N 
ATOM     65  N   UNL A   1      42.345  29.583  29.896  1.00  0.00    -0.248 NA
ATOM     66  C   UNL A   1      40.564  31.087  30.059  1.00  0.00     0.031 C 
ATOM     67  C   UNL A   1      46.549  30.559  30.913  1.00  0.00     0.029 A 
ATOM     68  C   UNL A   1      45.238  30.302  30.547  1.00  0.00     0.049 A 
ATOM     69  H   UNL A   1      44.395  28.535  29.765  1.00  0.00     0.167 HD
ATOM     70  C   UNL A   1      42.829  30.822  30.297  1.00  0.00     0.074 A 
ATOM     71  C   UNL A   1      41.693  31.719  30.351  1.00  0.00     0.031 C 
ATOM     72  C   UNL A   1      44.102  31.185  30.590  1.00  0.00     0.037 A 
BRANCH  59  73
ATOM     73  C   UNL A   1      48.137  26.527  30.148  1.00  0.00     0.057 A 
ATOM     74  C   UNL A   1      48.450  25.909  31.365  1.00  0.00     0.134 A 
ATOM     75  C   UNL A   1      49.161  26.622  29.195  1.00  0.00     0.134 A 
ATOM     76  F   UNL A   1      47.526  25.798  32.331  1.00  0.00    -0.206 F 
ATOM     77  C   UNL A   1      49.720  25.385  31.617  1.00  0.00     0.040 A 
ATOM     78  C   UNL A   1      50.428  26.075  29.423  1.00  0.00     0.040 A 
ATOM     79  F   UNL A   1      48.932  27.196  28.004  1.00  0.00    -0.206 F 
ATOM     80  C   UNL A   1      50.709  25.454  30.638  1.00  0.00     0.006 A 
ENDBRANCH  59  73
BRANCH  60  81
ATOM     81  C   UNL A   1      38.612  29.139  29.099  1.00  0.00     0.057 A 
ATOM     82  C   UNL A   1      38.118  29.601  27.876  1.00  0.00     0.134 A 
ATOM     83  C   UNL A   1      37.733  29.105  30.188  1.00  0.00     0.134 A 
ATOM     84  F   UNL A   1      38.922  29.676  26.805  1.00  0.00    -0.206 F 
ATOM     85  C   UNL A   1      36.793  30.019  27.741  1.00  0.00     0.040 A 
ATOM     86  C   UNL A   1      36.404  29.504  30.064  1.00  0.00     0.040 A 
ATOM     87  F   UNL A   1      38.157  28.667  31.382  1.00  0.00    -0.206 F 
ATOM     88  C   UNL A   1      35.931  29.968  28.837  1.00  0.00     0.006 A 
ENDBRANCH  60  81
BRANCH  72  89
ATOM     89  C   UNL A   1      44.341  32.612  30.978  1.00  0.00     0.057 A 
ATOM     90  C   UNL A   1      44.664  33.569  30.007  1.00  0.00     0.134 A 
ATOM     91  C   UNL A   1      44.299  33.032  32.314  1.00  0.00     0.134 A 
ATOM     92  F   UNL A   1      44.728  33.228  28.711  1.00  0.00    -0.206 F 
ATOM     93  C   UNL A   1      44.942  34.891  30.351  1.00  0.00     0.040 A 
ATOM     94  C   UNL A   1      44.553  34.358  32.668  1.00  0.00     0.040 A 
ATOM     95  F   UNL A   1      43.987  32.165  33.289  1.00  0.00    -0.206 F 
ATOM     96  C   UNL A   1      44.882  35.290  31.686  1.00  0.00     0.006 A 
ENDBRANCH  72  89
ENDBRANCH  46  47
ENDBRANCH  39  41
ENDBRANCH  38  39
ENDBRANCH  37  38
ENDBRANCH   1  37
TORSDOF 17
ENDMDL
