MODEL 1
REMARK VINA RESULT:     -10.7      0.000      0.000
REMARK SMILES Cc1cccc2c1[C@H]1c3c(C)cccc3[C@H](CC(=O)OCCOC(=O)c3ccc(-c4c5nc(c(-c6c(F)cccc6F)c6ccc([nH]6)c(-c6c(F)cccc6F)c6nc(c(-c7c(F)cccc7F)c7ccc4[nH]7)C=C6)C=C5)cc3)C[C@H]1CC2
REMARK SMILES IDX 22 1 21 2 20 3 18 4 19 5 17 6 16 7 1 8 2 9 3 10 7 11 4 12
REMARK SMILES IDX 6 13 8 14 5 15 83 16 9 17 81 18 82 19 10 20 15 21 80 22
REMARK SMILES IDX 12 23 11 24 14 25 13 26 23 27 24 28 25 29 26 30 27 31 79 32
REMARK SMILES IDX 28 33 78 34 29 35 30 36 31 37 72 38 32 39 77 40 71 41 73 42
REMARK SMILES IDX 33 43 76 44 70 45 69 46 34 48 60 49 43 50 59 51 44 52 47 53
REMARK SMILES IDX 58 54 74 55 45 56 46 57 57 59 75 60 48 61 35 62 36 63 41 64
REMARK SMILES IDX 37 65 38 66 40 67 42 68 39 69 61 70 62 71 67 72 63 73 64 74
REMARK SMILES IDX 66 75 68 76 65 77 49 78 50 79 55 80 51 81 52 82 54 83 56 84
REMARK SMILES IDX 53 85
REMARK H PARENT 73 47 47 58
REMARK Flexibility Score: inf
ROOT
ATOM      1  C   UNL A   1      34.642  33.254  28.040  1.00  0.00     0.275 C 
ENDROOT
BRANCH   1   2
ATOM      2  C   UNL A   1      33.462  34.156  28.432  1.00  0.00     0.274 C 
BRANCH   2   3
ATOM      3  O   UNL A   1      33.963  35.220  29.253  1.00  0.00    -0.462 OA
BRANCH   3   4
ATOM      4  C   UNL A   1      33.459  35.326  30.504  1.00  0.00     0.306 C 
ATOM      5  O   UNL A   1      32.268  35.273  30.782  1.00  0.00    -0.252 OA
BRANCH   4   6
ATOM      6  C   UNL A   1      34.566  35.319  31.544  1.00  0.00     0.131 C 
BRANCH   6   7
ATOM      7  C   UNL A   1      35.348  34.009  31.794  1.00  0.00     0.031 C 
ATOM      8  C   UNL A   1      39.107  34.040  36.400  1.00  0.00     0.044 C 
ATOM      9  C   UNL A   1      39.356  32.848  35.514  1.00  0.00    -0.047 A 
ATOM     10  C   UNL A   1      40.480  32.058  35.827  1.00  0.00     0.004 A 
ATOM     11  C   UNL A   1      38.522  32.463  34.438  1.00  0.00    -0.034 A 
ATOM     12  C   UNL A   1      40.765  30.898  35.116  1.00  0.00     0.001 A 
ATOM     13  C   UNL A   1      38.726  31.199  33.841  1.00  0.00    -0.044 A 
ATOM     14  C   UNL A   1      37.458  33.378  33.829  1.00  0.00     0.053 C 
ATOM     15  C   UNL A   1      39.873  30.454  34.150  1.00  0.00     0.004 A 
ATOM     16  C   UNL A   1      37.729  30.587  32.893  1.00  0.00     0.036 C 
ATOM     17  C   UNL A   1      37.837  33.986  32.461  1.00  0.00    -0.034 A 
ATOM     18  C   UNL A   1      36.177  32.519  33.683  1.00  0.00     0.002 C 
ATOM     19  C   UNL A   1      36.378  31.295  32.759  1.00  0.00     0.009 C 
ATOM     20  C   UNL A   1      39.145  34.400  32.117  1.00  0.00    -0.047 A 
ATOM     21  C   UNL A   1      36.834  34.064  31.462  1.00  0.00    -0.040 A 
ATOM     22  C   UNL A   1      35.053  33.440  33.192  1.00  0.00     0.013 C 
ATOM     23  C   UNL A   1      39.495  34.506  30.764  1.00  0.00     0.004 A 
ATOM     24  C   UNL A   1      40.217  34.733  33.112  1.00  0.00     0.044 C 
ATOM     25  C   UNL A   1      37.214  34.156  30.118  1.00  0.00     0.004 A 
ATOM     26  C   UNL A   1      38.549  34.313  29.771  1.00  0.00     0.001 A 
ENDBRANCH   6   7
ENDBRANCH   4   6
ENDBRANCH   3   4
ENDBRANCH   2   3
ENDBRANCH   1   2
BRANCH   1  27
ATOM     27  O   UNL A   1      34.746  32.047  28.823  1.00  0.00    -0.458 OA
BRANCH  27  28
ATOM     28  C   UNL A   1      34.708  30.874  28.148  1.00  0.00     0.338 C 
ATOM     29  O   UNL A   1      33.769  30.400  27.553  1.00  0.00    -0.246 OA
BRANCH  28  30
ATOM     30  C   UNL A   1      35.979  30.152  28.388  1.00  0.00     0.060 A 
ATOM     31  C   UNL A   1      36.919  30.119  27.352  1.00  0.00     0.016 A 
ATOM     32  C   UNL A   1      36.254  29.530  29.610  1.00  0.00     0.016 A 
ATOM     33  C   UNL A   1      38.146  29.481  27.543  1.00  0.00     0.010 A 
ATOM     34  C   UNL A   1      37.496  28.917  29.812  1.00  0.00     0.010 A 
ATOM     35  C   UNL A   1      38.462  28.921  28.793  1.00  0.00    -0.014 A 
BRANCH  35  36
ATOM     36  C   UNL A   1      39.881  28.646  29.131  1.00  0.00     0.031 A 
ATOM     37  C   UNL A   1      40.773  29.632  29.818  1.00  0.00     0.074 A 
ATOM     38  C   UNL A   1      40.365  27.449  28.745  1.00  0.00     0.049 A 
ATOM     39  N   UNL A   1      42.041  29.507  30.129  1.00  0.00    -0.248 NA
ATOM     40  C   UNL A   1      40.180  30.916  30.210  1.00  0.00     0.031 C 
ATOM     41  C   UNL A   1      39.582  26.411  28.064  1.00  0.00     0.029 A 
ATOM     42  N   UNL A   1      41.616  26.903  28.854  1.00  0.00    -0.354 N 
ATOM     43  C   UNL A   1      42.399  30.686  30.765  1.00  0.00     0.074 A 
ATOM     44  C   UNL A   1      41.217  31.528  30.773  1.00  0.00     0.031 C 
ATOM     45  C   UNL A   1      40.371  25.358  27.816  1.00  0.00     0.029 A 
ATOM     46  C   UNL A   1      41.718  25.660  28.280  1.00  0.00     0.049 A 
ATOM     47  H   UNL A   1      42.368  27.357  29.298  1.00  0.00     0.167 HD
ATOM     48  C   UNL A   1      43.601  31.026  31.294  1.00  0.00     0.037 A 
ATOM     49  C   UNL A   1      42.781  24.855  28.121  1.00  0.00     0.037 A 
ATOM     50  C   UNL A   1      44.779  30.190  31.258  1.00  0.00     0.049 A 
ATOM     51  C   UNL A   1      44.113  25.292  28.646  1.00  0.00     0.074 A 
ATOM     52  C   UNL A   1      46.033  30.440  31.794  1.00  0.00     0.029 A 
ATOM     53  N   UNL A   1      44.856  28.951  30.637  1.00  0.00    -0.354 N 
ATOM     54  N   UNL A   1      44.424  26.391  29.287  1.00  0.00    -0.248 NA
ATOM     55  C   UNL A   1      45.240  24.376  28.427  1.00  0.00     0.031 C 
ATOM     56  C   UNL A   1      46.878  29.375  31.459  1.00  0.00     0.029 A 
ATOM     57  C   UNL A   1      46.140  28.441  30.750  1.00  0.00     0.049 A 
ATOM     58  H   UNL A   1      44.108  28.501  30.183  1.00  0.00     0.167 HD
ATOM     59  C   UNL A   1      45.779  26.293  29.567  1.00  0.00     0.074 A 
ATOM     60  C   UNL A   1      46.226  25.021  29.036  1.00  0.00     0.031 C 
ATOM     61  C   UNL A   1      46.577  27.178  30.211  1.00  0.00     0.037 A 
BRANCH  48  62
ATOM     62  C   UNL A   1      43.718  32.368  31.956  1.00  0.00     0.057 A 
ATOM     63  C   UNL A   1      43.660  32.489  33.351  1.00  0.00     0.134 A 
ATOM     64  C   UNL A   1      43.810  33.550  31.210  1.00  0.00     0.134 A 
ATOM     65  F   UNL A   1      43.556  31.398  34.124  1.00  0.00    -0.206 F 
ATOM     66  C   UNL A   1      43.686  33.737  33.978  1.00  0.00     0.040 A 
ATOM     67  C   UNL A   1      43.855  34.802  31.826  1.00  0.00     0.040 A 
ATOM     68  F   UNL A   1      43.870  33.504  29.870  1.00  0.00    -0.206 F 
ATOM     69  C   UNL A   1      43.786  34.898  33.215  1.00  0.00     0.006 A 
ENDBRANCH  48  62
BRANCH  49  70
ATOM     70  C   UNL A   1      42.617  23.557  27.426  1.00  0.00     0.057 A 
ATOM     71  C   UNL A   1      42.337  22.383  28.135  1.00  0.00     0.134 A 
ATOM     72  C   UNL A   1      42.765  23.460  26.039  1.00  0.00     0.134 A 
ATOM     73  F   UNL A   1      42.196  22.415  29.468  1.00  0.00    -0.206 F 
ATOM     74  C   UNL A   1      42.222  21.153  27.489  1.00  0.00     0.040 A 
ATOM     75  C   UNL A   1      42.630  22.240  25.377  1.00  0.00     0.040 A 
ATOM     76  F   UNL A   1      43.021  24.556  25.309  1.00  0.00    -0.206 F 
ATOM     77  C   UNL A   1      42.364  21.081  26.105  1.00  0.00     0.006 A 
ENDBRANCH  49  70
BRANCH  61  78
ATOM     78  C   UNL A   1      48.011  26.780  30.391  1.00  0.00     0.057 A 
ATOM     79  C   UNL A   1      48.400  25.984  31.475  1.00  0.00     0.134 A 
ATOM     80  C   UNL A   1      49.005  27.179  29.489  1.00  0.00     0.134 A 
ATOM     81  F   UNL A   1      47.496  25.567  32.374  1.00  0.00    -0.206 F 
ATOM     82  C   UNL A   1      49.729  25.598  31.655  1.00  0.00     0.040 A 
ATOM     83  C   UNL A   1      50.333  26.782  29.647  1.00  0.00     0.040 A 
ATOM     84  F   UNL A   1      48.691  27.924  28.418  1.00  0.00    -0.206 F 
ATOM     85  C   UNL A   1      50.699  25.992  30.735  1.00  0.00     0.006 A 
ENDBRANCH  61  78
ENDBRANCH  35  36
ENDBRANCH  28  30
ENDBRANCH  27  28
ENDBRANCH   1  27
TORSDOF 12
ENDMDL
MODEL 2
REMARK VINA RESULT:     -10.5      3.601     10.867
REMARK SMILES Cc1cccc2c1[C@H]1c3c(C)cccc3[C@H](CC(=O)OCCOC(=O)c3ccc(-c4c5nc(c(-c6c(F)cccc6F)c6ccc([nH]6)c(-c6c(F)cccc6F)c6nc(c(-c7c(F)cccc7F)c7ccc4[nH]7)C=C6)C=C5)cc3)C[C@H]1CC2
REMARK SMILES IDX 22 1 21 2 20 3 18 4 19 5 17 6 16 7 1 8 2 9 3 10 7 11 4 12
REMARK SMILES IDX 6 13 8 14 5 15 83 16 9 17 81 18 82 19 10 20 15 21 80 22
REMARK SMILES IDX 12 23 11 24 14 25 13 26 23 27 24 28 25 29 26 30 27 31 79 32
REMARK SMILES IDX 28 33 78 34 29 35 30 36 31 37 72 38 32 39 77 40 71 41 73 42
REMARK SMILES IDX 33 43 76 44 70 45 69 46 34 48 60 49 43 50 59 51 44 52 47 53
REMARK SMILES IDX 58 54 74 55 45 56 46 57 57 59 75 60 48 61 35 62 36 63 41 64
REMARK SMILES IDX 37 65 38 66 40 67 42 68 39 69 61 70 62 71 67 72 63 73 64 74
REMARK SMILES IDX 66 75 68 76 65 77 49 78 50 79 55 80 51 81 52 82 54 83 56 84
REMARK SMILES IDX 53 85
REMARK H PARENT 73 47 47 58
REMARK Flexibility Score: inf
ROOT
ATOM      1  C   UNL A   1      40.773  20.861  27.141  1.00  0.00     0.275 C 
ENDROOT
BRANCH   1   2
ATOM      2  C   UNL A   1      41.179  19.770  26.139  1.00  0.00     0.274 C 
BRANCH   2   3
ATOM      3  O   UNL A   1      42.520  19.360  26.438  1.00  0.00    -0.462 OA
BRANCH   3   4
ATOM      4  C   UNL A   1      43.463  19.594  25.497  1.00  0.00     0.306 C 
ATOM      5  O   UNL A   1      43.422  19.171  24.349  1.00  0.00    -0.252 OA
BRANCH   4   6
ATOM      6  C   UNL A   1      44.480  20.612  25.982  1.00  0.00     0.131 C 
BRANCH   6   7
ATOM      7  C   UNL A   1      44.150  22.117  25.859  1.00  0.00     0.031 C 
ATOM      8  C   UNL A   1      48.797  25.793  25.369  1.00  0.00     0.044 C 
ATOM      9  C   UNL A   1      47.538  26.560  25.675  1.00  0.00    -0.047 A 
ATOM     10  C   UNL A   1      47.688  27.937  25.929  1.00  0.00     0.004 A 
ATOM     11  C   UNL A   1      46.239  25.998  25.680  1.00  0.00    -0.034 A 
ATOM     12  C   UNL A   1      46.585  28.752  26.156  1.00  0.00     0.001 A 
ATOM     13  C   UNL A   1      45.125  26.864  25.742  1.00  0.00    -0.044 A 
ATOM     14  C   UNL A   1      45.975  24.491  25.705  1.00  0.00     0.053 C 
ATOM     15  C   UNL A   1      45.309  28.224  26.030  1.00  0.00     0.004 A 
ATOM     16  C   UNL A   1      43.721  26.389  25.472  1.00  0.00     0.036 C 
ATOM     17  C   UNL A   1      45.510  23.940  27.070  1.00  0.00    -0.034 A 
ATOM     18  C   UNL A   1      44.888  24.221  24.633  1.00  0.00     0.002 C 
ATOM     19  C   UNL A   1      43.566  24.969  24.922  1.00  0.00     0.009 C 
ATOM     20  C   UNL A   1      45.989  24.409  28.315  1.00  0.00    -0.047 A 
ATOM     21  C   UNL A   1      44.485  22.960  27.082  1.00  0.00    -0.040 A 
ATOM     22  C   UNL A   1      44.690  22.703  24.544  1.00  0.00     0.013 C 
ATOM     23  C   UNL A   1      45.220  24.199  29.467  1.00  0.00     0.004 A 
ATOM     24  C   UNL A   1      47.285  25.143  28.502  1.00  0.00     0.044 C 
ATOM     25  C   UNL A   1      43.725  22.781  28.244  1.00  0.00     0.004 A 
ATOM     26  C   UNL A   1      44.056  23.449  29.415  1.00  0.00     0.001 A 
ENDBRANCH   6   7
ENDBRANCH   4   6
ENDBRANCH   3   4
ENDBRANCH   2   3
ENDBRANCH   1   2
BRANCH   1  27
ATOM     27  O   UNL A   1      40.772  22.195  26.591  1.00  0.00    -0.458 OA
BRANCH  27  28
ATOM     28  C   UNL A   1      39.570  22.804  26.467  1.00  0.00     0.338 C 
ATOM     29  O   UNL A   1      38.579  22.370  25.926  1.00  0.00    -0.246 OA
BRANCH  28  30
ATOM     30  C   UNL A   1      39.693  24.194  26.964  1.00  0.00     0.060 A 
ATOM     31  C   UNL A   1      39.256  24.465  28.265  1.00  0.00     0.016 A 
ATOM     32  C   UNL A   1      40.239  25.212  26.177  1.00  0.00     0.016 A 
ATOM     33  C   UNL A   1      39.384  25.752  28.790  1.00  0.00     0.010 A 
ATOM     34  C   UNL A   1      40.396  26.495  26.713  1.00  0.00     0.010 A 
ATOM     35  C   UNL A   1      40.004  26.763  28.036  1.00  0.00    -0.014 A 
BRANCH  35  36
ATOM     36  C   UNL A   1      40.528  27.970  28.723  1.00  0.00     0.031 A 
ATOM     37  C   UNL A   1      41.941  28.100  29.200  1.00  0.00     0.074 A 
ATOM     38  C   UNL A   1      39.643  28.961  28.946  1.00  0.00     0.049 A 
ATOM     39  N   UNL A   1      42.495  29.098  29.845  1.00  0.00    -0.248 NA
ATOM     40  C   UNL A   1      42.850  26.981  28.923  1.00  0.00     0.031 C 
ATOM     41  C   UNL A   1      38.238  28.938  28.524  1.00  0.00     0.029 A 
ATOM     42  N   UNL A   1      39.780  30.166  29.582  1.00  0.00    -0.354 N 
ATOM     43  C   UNL A   1      43.821  28.739  30.042  1.00  0.00     0.074 A 
ATOM     44  C   UNL A   1      43.982  27.416  29.468  1.00  0.00     0.031 C 
ATOM     45  C   UNL A   1      37.644  30.072  28.916  1.00  0.00     0.029 A 
ATOM     46  C   UNL A   1      38.609  30.881  29.647  1.00  0.00     0.049 A 
ATOM     47  H   UNL A   1      40.631  30.487  29.957  1.00  0.00     0.167 HD
ATOM     48  C   UNL A   1      44.806  29.453  30.641  1.00  0.00     0.037 A 
ATOM     49  C   UNL A   1      38.331  32.050  30.247  1.00  0.00     0.037 A 
ATOM     50  C   UNL A   1      44.629  30.760  31.232  1.00  0.00     0.049 A 
ATOM     51  C   UNL A   1      39.422  32.779  30.969  1.00  0.00     0.074 A 
ATOM     52  C   UNL A   1      45.577  31.571  31.836  1.00  0.00     0.029 A 
ATOM     53  N   UNL A   1      43.421  31.439  31.311  1.00  0.00    -0.354 N 
ATOM     54  N   UNL A   1      40.681  32.447  31.106  1.00  0.00    -0.248 NA
ATOM     55  C   UNL A   1      39.052  34.042  31.618  1.00  0.00     0.031 C 
ATOM     56  C   UNL A   1      44.935  32.719  32.318  1.00  0.00     0.029 A 
ATOM     57  C   UNL A   1      43.595  32.643  31.979  1.00  0.00     0.049 A 
ATOM     58  H   UNL A   1      42.567  31.115  30.946  1.00  0.00     0.167 HD
ATOM     59  C   UNL A   1      41.263  33.470  31.840  1.00  0.00     0.074 A 
ATOM     60  C   UNL A   1      40.219  34.438  32.108  1.00  0.00     0.031 C 
ATOM     61  C   UNL A   1      42.547  33.595  32.249  1.00  0.00     0.037 A 
BRANCH  48  62
ATOM     62  C   UNL A   1      46.175  28.840  30.703  1.00  0.00     0.057 A 
ATOM     63  C   UNL A   1      47.164  29.195  29.776  1.00  0.00     0.134 A 
ATOM     64  C   UNL A   1      46.491  27.840  31.632  1.00  0.00     0.134 A 
ATOM     65  F   UNL A   1      46.922  30.135  28.850  1.00  0.00    -0.206 F 
ATOM     66  C   UNL A   1      48.415  28.575  29.769  1.00  0.00     0.040 A 
ATOM     67  C   UNL A   1      47.745  27.225  31.646  1.00  0.00     0.040 A 
ATOM     68  F   UNL A   1      45.588  27.454  32.547  1.00  0.00    -0.206 F 
ATOM     69  C   UNL A   1      48.710  27.589  30.707  1.00  0.00     0.006 A 
ENDBRANCH  48  62
BRANCH  49  70
ATOM     70  C   UNL A   1      36.954  32.591  30.187  1.00  0.00     0.057 A 
ATOM     71  C   UNL A   1      36.564  33.478  29.176  1.00  0.00     0.134 A 
ATOM     72  C   UNL A   1      36.006  32.255  31.159  1.00  0.00     0.134 A 
ATOM     73  F   UNL A   1      37.434  33.845  28.225  1.00  0.00    -0.206 F 
ATOM     74  C   UNL A   1      35.281  34.021  29.140  1.00  0.00     0.040 A 
ATOM     75  C   UNL A   1      34.711  32.773  31.121  1.00  0.00     0.040 A 
ATOM     76  F   UNL A   1      36.322  31.400  32.143  1.00  0.00    -0.206 F 
ATOM     77  C   UNL A   1      34.348  33.664  30.113  1.00  0.00     0.006 A 
ENDBRANCH  49  70
BRANCH  61  78
ATOM     78  C   UNL A   1      42.890  34.839  33.011  1.00  0.00     0.057 A 
ATOM     79  C   UNL A   1      43.325  35.990  32.342  1.00  0.00     0.134 A 
ATOM     80  C   UNL A   1      42.785  34.900  34.406  1.00  0.00     0.134 A 
ATOM     81  F   UNL A   1      43.447  35.997  31.006  1.00  0.00    -0.206 F 
ATOM     82  C   UNL A   1      43.642  37.159  33.035  1.00  0.00     0.040 A 
ATOM     83  C   UNL A   1      43.078  36.070  35.108  1.00  0.00     0.040 A 
ATOM     84  F   UNL A   1      42.352  33.838  35.102  1.00  0.00    -0.206 F 
ATOM     85  C   UNL A   1      43.512  37.203  34.422  1.00  0.00     0.006 A 
ENDBRANCH  61  78
ENDBRANCH  35  36
ENDBRANCH  28  30
ENDBRANCH  27  28
ENDBRANCH   1  27
TORSDOF 12
ENDMDL
MODEL 3
REMARK VINA RESULT:     -10.5      4.444      9.579
REMARK SMILES Cc1cccc2c1[C@H]1c3c(C)cccc3[C@H](CC(=O)OCCOC(=O)c3ccc(-c4c5nc(c(-c6c(F)cccc6F)c6ccc([nH]6)c(-c6c(F)cccc6F)c6nc(c(-c7c(F)cccc7F)c7ccc4[nH]7)C=C6)C=C5)cc3)C[C@H]1CC2
REMARK SMILES IDX 22 1 21 2 20 3 18 4 19 5 17 6 16 7 1 8 2 9 3 10 7 11 4 12
REMARK SMILES IDX 6 13 8 14 5 15 83 16 9 17 81 18 82 19 10 20 15 21 80 22
REMARK SMILES IDX 12 23 11 24 14 25 13 26 23 27 24 28 25 29 26 30 27 31 79 32
REMARK SMILES IDX 28 33 78 34 29 35 30 36 31 37 72 38 32 39 77 40 71 41 73 42
REMARK SMILES IDX 33 43 76 44 70 45 69 46 34 48 60 49 43 50 59 51 44 52 47 53
REMARK SMILES IDX 58 54 74 55 45 56 46 57 57 59 75 60 48 61 35 62 36 63 41 64
REMARK SMILES IDX 37 65 38 66 40 67 42 68 39 69 61 70 62 71 67 72 63 73 64 74
REMARK SMILES IDX 66 75 68 76 65 77 49 78 50 79 55 80 51 81 52 82 54 83 56 84
REMARK SMILES IDX 53 85
REMARK H PARENT 73 47 47 58
REMARK Flexibility Score: inf
ROOT
ATOM      1  C   UNL A   1      31.456  32.541  27.087  1.00  0.00     0.275 C 
ENDROOT
BRANCH   1   2
ATOM      2  C   UNL A   1      31.414  31.316  26.161  1.00  0.00     0.274 C 
BRANCH   2   3
ATOM      3  O   UNL A   1      32.209  30.279  26.752  1.00  0.00    -0.462 OA
BRANCH   3   4
ATOM      4  C   UNL A   1      32.819  29.412  25.911  1.00  0.00     0.306 C 
ATOM      5  O   UNL A   1      33.969  29.011  26.039  1.00  0.00    -0.252 OA
BRANCH   4   6
ATOM      6  C   UNL A   1      31.838  28.842  24.902  1.00  0.00     0.131 C 
BRANCH   6   7
ATOM      7  C   UNL A   1      31.392  27.369  25.042  1.00  0.00     0.031 C 
ATOM      8  C   UNL A   1      35.666  23.449  26.351  1.00  0.00     0.044 C 
ATOM      9  C   UNL A   1      34.413  22.744  25.902  1.00  0.00    -0.047 A 
ATOM     10  C   UNL A   1      34.504  21.349  25.733  1.00  0.00     0.004 A 
ATOM     11  C   UNL A   1      33.169  23.384  25.687  1.00  0.00    -0.034 A 
ATOM     12  C   UNL A   1      33.391  20.592  25.385  1.00  0.00     0.001 A 
ATOM     13  C   UNL A   1      32.018  22.584  25.505  1.00  0.00    -0.044 A 
ATOM     14  C   UNL A   1      33.013  24.900  25.559  1.00  0.00     0.053 C 
ATOM     15  C   UNL A   1      32.148  21.202  25.305  1.00  0.00     0.004 A 
ATOM     16  C   UNL A   1      30.626  23.157  25.549  1.00  0.00     0.036 C 
ATOM     17  C   UNL A   1      32.782  25.406  24.118  1.00  0.00    -0.034 A 
ATOM     18  C   UNL A   1      31.808  25.291  26.451  1.00  0.00     0.002 C 
ATOM     19  C   UNL A   1      30.491  24.611  26.010  1.00  0.00     0.009 C 
ATOM     20  C   UNL A   1      33.398  24.843  22.977  1.00  0.00    -0.047 A 
ATOM     21  C   UNL A   1      31.837  26.444  23.917  1.00  0.00    -0.040 A 
ATOM     22  C   UNL A   1      31.702  26.821  26.445  1.00  0.00     0.013 C 
ATOM     23  C   UNL A   1      32.813  25.039  21.718  1.00  0.00     0.004 A 
ATOM     24  C   UNL A   1      34.654  24.023  23.009  1.00  0.00     0.044 C 
ATOM     25  C   UNL A   1      31.261  26.607  22.652  1.00  0.00     0.004 A 
ATOM     26  C   UNL A   1      31.707  25.860  21.571  1.00  0.00     0.001 A 
ENDBRANCH   6   7
ENDBRANCH   4   6
ENDBRANCH   3   4
ENDBRANCH   2   3
ENDBRANCH   1   2
BRANCH   1  27
ATOM     27  O   UNL A   1      32.660  33.328  26.970  1.00  0.00    -0.458 OA
BRANCH  27  28
ATOM     28  C   UNL A   1      33.209  33.781  28.120  1.00  0.00     0.338 C 
ATOM     29  O   UNL A   1      32.855  34.732  28.778  1.00  0.00    -0.246 OA
BRANCH  28  30
ATOM     30  C   UNL A   1      34.451  33.017  28.382  1.00  0.00     0.060 A 
ATOM     31  C   UNL A   1      35.657  33.723  28.422  1.00  0.00     0.016 A 
ATOM     32  C   UNL A   1      34.434  31.635  28.598  1.00  0.00     0.016 A 
ATOM     33  C   UNL A   1      36.850  33.052  28.700  1.00  0.00     0.010 A 
ATOM     34  C   UNL A   1      35.625  30.967  28.907  1.00  0.00     0.010 A 
ATOM     35  C   UNL A   1      36.833  31.679  28.997  1.00  0.00    -0.014 A 
BRANCH  35  36
ATOM     36  C   UNL A   1      37.988  31.070  29.705  1.00  0.00     0.031 A 
ATOM     37  C   UNL A   1      38.898  30.059  29.082  1.00  0.00     0.074 A 
ATOM     38  C   UNL A   1      38.166  31.445  30.987  1.00  0.00     0.049 A 
ATOM     39  N   UNL A   1      39.917  29.436  29.624  1.00  0.00    -0.248 NA
ATOM     40  C   UNL A   1      38.645  29.698  27.682  1.00  0.00     0.031 C 
ATOM     41  C   UNL A   1      37.334  32.424  31.695  1.00  0.00     0.029 A 
ATOM     42  N   UNL A   1      39.084  31.051  31.922  1.00  0.00    -0.354 N 
ATOM     43  C   UNL A   1      40.439  28.618  28.632  1.00  0.00     0.074 A 
ATOM     44  C   UNL A   1      39.606  28.806  27.459  1.00  0.00     0.031 C 
ATOM     45  C   UNL A   1      37.778  32.550  32.952  1.00  0.00     0.029 A 
ATOM     46  C   UNL A   1      38.896  31.637  33.150  1.00  0.00     0.049 A 
ATOM     47  H   UNL A   1      39.807  30.409  31.735  1.00  0.00     0.167 HD
ATOM     48  C   UNL A   1      41.515  27.795  28.700  1.00  0.00     0.037 A 
ATOM     49  C   UNL A   1      39.534  31.449  34.316  1.00  0.00     0.037 A 
ATOM     50  C   UNL A   1      42.323  27.596  29.881  1.00  0.00     0.049 A 
ATOM     51  C   UNL A   1      40.668  30.474  34.379  1.00  0.00     0.074 A 
ATOM     52  C   UNL A   1      43.450  26.803  30.034  1.00  0.00     0.029 A 
ATOM     53  N   UNL A   1      42.082  28.180  31.116  1.00  0.00    -0.354 N 
ATOM     54  N   UNL A   1      41.178  29.743  33.420  1.00  0.00    -0.248 NA
ATOM     55  C   UNL A   1      41.315  30.300  35.686  1.00  0.00     0.031 C 
ATOM     56  C   UNL A   1      43.862  26.873  31.370  1.00  0.00     0.029 A 
ATOM     57  C   UNL A   1      43.017  27.741  32.042  1.00  0.00     0.049 A 
ATOM     58  H   UNL A   1      41.352  28.813  31.308  1.00  0.00     0.167 HD
ATOM     59  C   UNL A   1      42.220  29.035  34.000  1.00  0.00     0.074 A 
ATOM     60  C   UNL A   1      42.275  29.434  35.391  1.00  0.00     0.031 C 
ATOM     61  C   UNL A   1      43.058  28.138  33.426  1.00  0.00     0.037 A 
BRANCH  48  62
ATOM     62  C   UNL A   1      41.888  27.030  27.463  1.00  0.00     0.057 A 
ATOM     63  C   UNL A   1      41.479  25.702  27.289  1.00  0.00     0.134 A 
ATOM     64  C   UNL A   1      42.719  27.584  26.480  1.00  0.00     0.134 A 
ATOM     65  F   UNL A   1      40.695  25.107  28.200  1.00  0.00    -0.206 F 
ATOM     66  C   UNL A   1      41.885  24.951  26.183  1.00  0.00     0.040 A 
ATOM     67  C   UNL A   1      43.117  26.848  25.361  1.00  0.00     0.040 A 
ATOM     68  F   UNL A   1      43.146  28.851  26.586  1.00  0.00    -0.206 F 
ATOM     69  C   UNL A   1      42.705  25.525  25.214  1.00  0.00     0.006 A 
ENDBRANCH  48  62
BRANCH  49  70
ATOM     70  C   UNL A   1      39.100  32.202  35.515  1.00  0.00     0.057 A 
ATOM     71  C   UNL A   1      38.255  31.625  36.471  1.00  0.00     0.134 A 
ATOM     72  C   UNL A   1      39.500  33.527  35.716  1.00  0.00     0.134 A 
ATOM     73  F   UNL A   1      37.831  30.362  36.324  1.00  0.00    -0.206 F 
ATOM     74  C   UNL A   1      37.811  32.345  37.579  1.00  0.00     0.040 A 
ATOM     75  C   UNL A   1      39.082  34.252  36.832  1.00  0.00     0.040 A 
ATOM     76  F   UNL A   1      40.319  34.126  34.838  1.00  0.00    -0.206 F 
ATOM     77  C   UNL A   1      38.230  33.661  37.764  1.00  0.00     0.006 A 
ENDBRANCH  49  70
BRANCH  61  78
ATOM     78  C   UNL A   1      44.117  27.550  34.309  1.00  0.00     0.057 A 
ATOM     79  C   UNL A   1      43.898  26.338  34.976  1.00  0.00     0.134 A 
ATOM     80  C   UNL A   1      45.354  28.179  34.495  1.00  0.00     0.134 A 
ATOM     81  F   UNL A   1      42.734  25.685  34.840  1.00  0.00    -0.206 F 
ATOM     82  C   UNL A   1      44.875  25.772  35.795  1.00  0.00     0.040 A 
ATOM     83  C   UNL A   1      46.346  27.612  35.295  1.00  0.00     0.040 A 
ATOM     84  F   UNL A   1      45.632  29.331  33.865  1.00  0.00    -0.206 F 
ATOM     85  C   UNL A   1      46.107  26.406  35.951  1.00  0.00     0.006 A 
ENDBRANCH  61  78
ENDBRANCH  35  36
ENDBRANCH  28  30
ENDBRANCH  27  28
ENDBRANCH   1  27
TORSDOF 12
ENDMDL
