MODEL 1
REMARK VINA RESULT:     -13.0      0.000      0.000
REMARK SMILES O=C(OCCOC(=O)c1ccccc1-c1ccc(/C=C2/SC(=S)N(Cc3ccccc3)C2=O)o1)c1ccc(-c2c3nc(c(-c4c(F)cccc4F)c4ccc([nH]4)c(-c4c(F)cccc4F)c4nc(c(-c5c(F)cccc5F)c5ccc2[nH]5)C=C4)C=C3)cc1
REMARK SMILES IDX 5 1 4 2 3 3 2 4 1 5 35 6 36 7 88 8 37 9 87 10 38 11 39 12
REMARK SMILES IDX 40 13 81 14 41 15 86 16 80 17 82 18 42 19 85 20 79 21 78 22
REMARK SMILES IDX 43 24 69 25 52 26 68 27 53 28 56 29 67 30 83 31 54 32 55 33
REMARK SMILES IDX 66 35 84 36 57 37 44 38 45 39 50 40 46 41 47 42 49 43 51 44
REMARK SMILES IDX 48 45 70 46 71 47 76 48 72 49 73 50 75 51 77 52 74 53 58 54
REMARK SMILES IDX 59 55 64 56 60 57 61 58 63 59 65 60 62 61 6 62 7 63 8 64
REMARK SMILES IDX 9 65 10 66 14 67 11 68 13 69 12 70 15 71 16 72 34 73 17 74
REMARK SMILES IDX 18 75 19 76 20 77 21 78 32 79 22 80 24 81 33 82 23 83 25 84
REMARK SMILES IDX 26 85 27 86 31 87 28 88 30 89 29 90
REMARK H PARENT 82 23 56 34
REMARK Flexibility Score: inf
ROOT
ATOM      1  C   UNL A   1      37.855  20.883  25.296  1.00  0.00     0.275 C 
ENDROOT
BRANCH   1   2
ATOM      2  C   UNL A   1      38.486  19.554  24.885  1.00  0.00     0.275 C 
BRANCH   2   3
ATOM      3  O   UNL A   1      39.506  19.096  25.792  1.00  0.00    -0.458 OA
BRANCH   3   4
ATOM      4  C   UNL A   1      40.779  19.507  25.993  1.00  0.00     0.338 C 
ATOM      5  O   UNL A   1      41.682  18.712  25.727  1.00  0.00    -0.246 OA
BRANCH   4   6
ATOM      6  C   UNL A   1      41.193  20.833  26.574  1.00  0.00     0.060 A 
ATOM      7  C   UNL A   1      41.303  21.157  27.927  1.00  0.00     0.016 A 
ATOM      8  C   UNL A   1      41.527  21.842  25.643  1.00  0.00     0.016 A 
ATOM      9  C   UNL A   1      41.765  22.412  28.342  1.00  0.00     0.010 A 
ATOM     10  C   UNL A   1      41.996  23.099  26.049  1.00  0.00     0.010 A 
ATOM     11  C   UNL A   1      42.116  23.390  27.409  1.00  0.00    -0.014 A 
BRANCH  11  12
ATOM     12  C   UNL A   1      42.530  24.731  27.886  1.00  0.00     0.031 A 
ATOM     13  C   UNL A   1      43.979  25.044  27.975  1.00  0.00     0.074 A 
ATOM     14  C   UNL A   1      41.618  25.686  28.143  1.00  0.00     0.049 A 
ATOM     15  N   UNL A   1      44.546  26.172  28.301  1.00  0.00    -0.248 NA
ATOM     16  C   UNL A   1      44.912  23.961  27.631  1.00  0.00     0.031 C 
ATOM     17  C   UNL A   1      40.195  25.470  27.998  1.00  0.00     0.029 A 
ATOM     18  N   UNL A   1      41.702  26.993  28.541  1.00  0.00    -0.354 N 
ATOM     19  C   UNL A   1      45.905  25.943  28.188  1.00  0.00     0.074 A 
ATOM     20  C   UNL A   1      46.080  24.562  27.795  1.00  0.00     0.031 C 
ATOM     21  C   UNL A   1      39.518  26.589  28.284  1.00  0.00     0.029 A 
ATOM     22  C   UNL A   1      40.472  27.601  28.695  1.00  0.00     0.049 A 
ATOM     23  H   UNL A   1      42.556  27.454  28.703  1.00  0.00     0.167 HD
ATOM     24  C   UNL A   1      46.905  26.826  28.390  1.00  0.00     0.037 A 
ATOM     25  C   UNL A   1      40.152  28.829  29.140  1.00  0.00     0.037 A 
ATOM     26  C   UNL A   1      46.695  28.183  28.814  1.00  0.00     0.049 A 
ATOM     27  C   UNL A   1      41.290  29.745  29.478  1.00  0.00     0.074 A 
ATOM     28  C   UNL A   1      47.639  29.156  29.081  1.00  0.00     0.029 A 
ATOM     29  N   UNL A   1      45.450  28.755  29.049  1.00  0.00    -0.354 N 
ATOM     30  N   UNL A   1      42.578  29.524  29.356  1.00  0.00    -0.248 NA
ATOM     31  C   UNL A   1      40.952  31.071  30.007  1.00  0.00     0.031 C 
ATOM     32  C   UNL A   1      46.969  30.297  29.533  1.00  0.00     0.029 A 
ATOM     33  C   UNL A   1      45.602  30.058  29.494  1.00  0.00     0.049 A 
ATOM     34  H   UNL A   1      44.586  28.300  28.920  1.00  0.00     0.167 HD
ATOM     35  C   UNL A   1      43.205  30.687  29.766  1.00  0.00     0.074 A 
ATOM     36  C   UNL A   1      42.152  31.620  30.121  1.00  0.00     0.031 C 
ATOM     37  C   UNL A   1      44.530  30.957  29.842  1.00  0.00     0.037 A 
BRANCH  24  38
ATOM     38  C   UNL A   1      48.297  26.310  28.212  1.00  0.00     0.057 A 
ATOM     39  C   UNL A   1      48.964  26.385  26.983  1.00  0.00     0.134 A 
ATOM     40  C   UNL A   1      48.963  25.695  29.278  1.00  0.00     0.134 A 
ATOM     41  F   UNL A   1      48.362  26.928  25.913  1.00  0.00    -0.206 F 
ATOM     42  C   UNL A   1      50.242  25.851  26.816  1.00  0.00     0.040 A 
ATOM     43  C   UNL A   1      50.249  25.178  29.129  1.00  0.00     0.040 A 
ATOM     44  F   UNL A   1      48.368  25.575  30.474  1.00  0.00    -0.206 F 
ATOM     45  C   UNL A   1      50.889  25.250  27.894  1.00  0.00     0.006 A 
ENDBRANCH  24  38
BRANCH  25  46
ATOM     46  C   UNL A   1      38.733  29.239  29.336  1.00  0.00     0.057 A 
ATOM     47  C   UNL A   1      38.103  29.158  30.583  1.00  0.00     0.134 A 
ATOM     48  C   UNL A   1      37.950  29.678  28.258  1.00  0.00     0.134 A 
ATOM     49  F   UNL A   1      38.784  28.738  31.659  1.00  0.00    -0.206 F 
ATOM     50  C   UNL A   1      36.745  29.454  30.744  1.00  0.00     0.040 A 
ATOM     51  C   UNL A   1      36.600  30.007  28.409  1.00  0.00     0.040 A 
ATOM     52  F   UNL A   1      38.483  29.787  27.031  1.00  0.00    -0.206 F 
ATOM     53  C   UNL A   1      35.990  29.881  29.654  1.00  0.00     0.006 A 
ENDBRANCH  25  46
BRANCH  37  54
ATOM     54  C   UNL A   1      44.900  32.333  30.305  1.00  0.00     0.057 A 
ATOM     55  C   UNL A   1      45.012  33.407  29.412  1.00  0.00     0.134 A 
ATOM     56  C   UNL A   1      45.119  32.586  31.663  1.00  0.00     0.134 A 
ATOM     57  F   UNL A   1      44.834  33.218  28.096  1.00  0.00    -0.206 F 
ATOM     58  C   UNL A   1      45.353  34.683  29.856  1.00  0.00     0.040 A 
ATOM     59  C   UNL A   1      45.428  33.865  32.122  1.00  0.00     0.040 A 
ATOM     60  F   UNL A   1      45.022  31.598  32.566  1.00  0.00    -0.206 F 
ATOM     61  C   UNL A   1      45.553  34.916  31.216  1.00  0.00     0.006 A 
ENDBRANCH  37  54
ENDBRANCH  11  12
ENDBRANCH   4   6
ENDBRANCH   3   4
ENDBRANCH   2   3
ENDBRANCH   1   2
BRANCH   1  62
ATOM     62  O   UNL A   1      36.603  21.100  24.637  1.00  0.00    -0.458 OA
BRANCH  62  63
ATOM     63  C   UNL A   1      35.508  21.135  25.437  1.00  0.00     0.338 C 
ATOM     64  O   UNL A   1      35.448  21.530  26.583  1.00  0.00    -0.246 OA
BRANCH  63  65
ATOM     65  C   UNL A   1      34.329  20.689  24.669  1.00  0.00     0.071 A 
ATOM     66  C   UNL A   1      34.089  19.306  24.617  1.00  0.00     0.016 A 
ATOM     67  C   UNL A   1      33.467  21.592  24.031  1.00  0.00     0.032 A 
ATOM     68  C   UNL A   1      32.965  18.814  23.955  1.00  0.00     0.001 A 
ATOM     69  C   UNL A   1      32.398  21.066  23.284  1.00  0.00     0.013 A 
ATOM     70  C   UNL A   1      32.127  19.694  23.277  1.00  0.00     0.001 A 
BRANCH  67  71
ATOM     71  C   UNL A   1      33.583  23.032  24.222  1.00  0.00     0.135 A 
ATOM     72  C   UNL A   1      34.199  24.060  23.550  1.00  0.00     0.051 A 
ATOM     73  O   UNL A   1      33.095  23.495  25.407  1.00  0.00    -0.457 OA
ATOM     74  C   UNL A   1      34.083  25.199  24.387  1.00  0.00     0.051 A 
ATOM     75  C   UNL A   1      33.360  24.831  25.515  1.00  0.00     0.128 A 
BRANCH  75  76
ATOM     76  C   UNL A   1      32.938  25.645  26.602  1.00  0.00     0.068 C 
ATOM     77  C   UNL A   1      32.173  26.720  26.377  1.00  0.00     0.084 C 
ATOM     78  S   UNL A   1      32.041  28.073  27.430  1.00  0.00    -0.054 SA
ATOM     79  C   UNL A   1      31.543  27.066  25.082  1.00  0.00     0.266 C 
ATOM     80  C   UNL A   1      31.768  29.170  26.061  1.00  0.00     0.148 C 
ATOM     81  N   UNL A   1      31.571  28.435  24.912  1.00  0.00    -0.288 N 
ATOM     82  O   UNL A   1      31.041  26.252  24.320  1.00  0.00    -0.268 OA
ATOM     83  S   UNL A   1      31.773  30.827  26.240  1.00  0.00    -0.052 S 
BRANCH  81  84
ATOM     84  C   UNL A   1      31.303  28.968  23.577  1.00  0.00     0.163 C 
BRANCH  84  85
ATOM     85  C   UNL A   1      29.863  29.423  23.386  1.00  0.00    -0.028 A 
ATOM     86  C   UNL A   1      29.499  30.754  23.630  1.00  0.00     0.005 A 
ATOM     87  C   UNL A   1      28.846  28.517  23.040  1.00  0.00     0.005 A 
ATOM     88  C   UNL A   1      28.164  31.162  23.528  1.00  0.00     0.000 A 
ATOM     89  C   UNL A   1      27.517  28.928  22.911  1.00  0.00     0.000 A 
ATOM     90  C   UNL A   1      27.174  30.251  23.162  1.00  0.00     0.000 A 
ENDBRANCH  84  85
ENDBRANCH  81  84
ENDBRANCH  75  76
ENDBRANCH  67  71
ENDBRANCH  63  65
ENDBRANCH  62  63
ENDBRANCH   1  62
TORSDOF 15
ENDMDL
MODEL 2
REMARK VINA RESULT:     -12.7      2.402      3.927
REMARK SMILES O=C(OCCOC(=O)c1ccccc1-c1ccc(/C=C2/SC(=S)N(Cc3ccccc3)C2=O)o1)c1ccc(-c2c3nc(c(-c4c(F)cccc4F)c4ccc([nH]4)c(-c4c(F)cccc4F)c4nc(c(-c5c(F)cccc5F)c5ccc2[nH]5)C=C4)C=C3)cc1
REMARK SMILES IDX 5 1 4 2 3 3 2 4 1 5 35 6 36 7 88 8 37 9 87 10 38 11 39 12
REMARK SMILES IDX 40 13 81 14 41 15 86 16 80 17 82 18 42 19 85 20 79 21 78 22
REMARK SMILES IDX 43 24 69 25 52 26 68 27 53 28 56 29 67 30 83 31 54 32 55 33
REMARK SMILES IDX 66 35 84 36 57 37 44 38 45 39 50 40 46 41 47 42 49 43 51 44
REMARK SMILES IDX 48 45 70 46 71 47 76 48 72 49 73 50 75 51 77 52 74 53 58 54
REMARK SMILES IDX 59 55 64 56 60 57 61 58 63 59 65 60 62 61 6 62 7 63 8 64
REMARK SMILES IDX 9 65 10 66 14 67 11 68 13 69 12 70 15 71 16 72 34 73 17 74
REMARK SMILES IDX 18 75 19 76 20 77 21 78 32 79 22 80 24 81 33 82 23 83 25 84
REMARK SMILES IDX 26 85 27 86 31 87 28 88 30 89 29 90
REMARK H PARENT 82 23 56 34
REMARK Flexibility Score: inf
ROOT
ATOM      1  C   UNL A   1      36.022  22.610  24.268  1.00  0.00     0.275 C 
ENDROOT
BRANCH   1   2
ATOM      2  C   UNL A   1      37.193  23.341  24.922  1.00  0.00     0.275 C 
BRANCH   2   3
ATOM      3  O   UNL A   1      38.106  22.467  25.611  1.00  0.00    -0.458 OA
BRANCH   3   4
ATOM      4  C   UNL A   1      39.224  22.722  26.328  1.00  0.00     0.338 C 
ATOM      5  O   UNL A   1      39.895  21.756  26.697  1.00  0.00    -0.246 OA
BRANCH   4   6
ATOM      6  C   UNL A   1      39.695  24.082  26.770  1.00  0.00     0.060 A 
ATOM      7  C   UNL A   1      40.195  25.100  25.956  1.00  0.00     0.016 A 
ATOM      8  C   UNL A   1      39.593  24.357  28.152  1.00  0.00     0.016 A 
ATOM      9  C   UNL A   1      40.539  26.351  26.482  1.00  0.00     0.010 A 
ATOM     10  C   UNL A   1      39.930  25.608  28.685  1.00  0.00     0.010 A 
ATOM     11  C   UNL A   1      40.407  26.616  27.846  1.00  0.00    -0.014 A 
BRANCH  11  12
ATOM     12  C   UNL A   1      40.852  27.926  28.377  1.00  0.00     0.031 A 
ATOM     13  C   UNL A   1      42.304  28.238  28.394  1.00  0.00     0.074 A 
ATOM     14  C   UNL A   1      39.958  28.861  28.750  1.00  0.00     0.049 A 
ATOM     15  N   UNL A   1      42.891  29.345  28.752  1.00  0.00    -0.248 NA
ATOM     16  C   UNL A   1      43.212  27.181  27.925  1.00  0.00     0.031 C 
ATOM     17  C   UNL A   1      38.529  28.651  28.683  1.00  0.00     0.029 A 
ATOM     18  N   UNL A   1      40.069  30.142  29.222  1.00  0.00    -0.354 N 
ATOM     19  C   UNL A   1      44.240  29.128  28.539  1.00  0.00     0.074 A 
ATOM     20  C   UNL A   1      44.389  27.774  28.052  1.00  0.00     0.031 C 
ATOM     21  C   UNL A   1      37.872  29.748  29.080  1.00  0.00     0.029 A 
ATOM     22  C   UNL A   1      38.852  30.735  29.490  1.00  0.00     0.049 A 
ATOM     23  H   UNL A   1      40.932  30.594  29.357  1.00  0.00     0.167 HD
ATOM     24  C   UNL A   1      45.251  30.000  28.732  1.00  0.00     0.037 A 
ATOM     25  C   UNL A   1      38.561  31.933  30.030  1.00  0.00     0.037 A 
ATOM     26  C   UNL A   1      45.070  31.328  29.251  1.00  0.00     0.049 A 
ATOM     27  C   UNL A   1      39.719  32.830  30.351  1.00  0.00     0.074 A 
ATOM     28  C   UNL A   1      46.030  32.286  29.517  1.00  0.00     0.029 A 
ATOM     29  N   UNL A   1      43.843  31.881  29.600  1.00  0.00    -0.354 N 
ATOM     30  N   UNL A   1      40.996  32.620  30.134  1.00  0.00    -0.248 NA
ATOM     31  C   UNL A   1      39.416  34.119  30.980  1.00  0.00     0.031 C 
ATOM     32  C   UNL A   1      45.390  33.395  30.080  1.00  0.00     0.029 A 
ATOM     33  C   UNL A   1      44.024  33.154  30.113  1.00  0.00     0.049 A 
ATOM     34  H   UNL A   1      42.972  31.431  29.497  1.00  0.00     0.167 HD
ATOM     35  C   UNL A   1      41.650  33.758  30.574  1.00  0.00     0.074 A 
ATOM     36  C   UNL A   1      40.622  34.664  31.052  1.00  0.00     0.031 C 
ATOM     37  C   UNL A   1      42.977  34.027  30.582  1.00  0.00     0.037 A 
BRANCH  24  38
ATOM     38  C   UNL A   1      46.629  29.500  28.435  1.00  0.00     0.057 A 
ATOM     39  C   UNL A   1      47.213  29.644  27.169  1.00  0.00     0.134 A 
ATOM     40  C   UNL A   1      47.364  28.832  29.420  1.00  0.00     0.134 A 
ATOM     41  F   UNL A   1      46.541  30.241  26.173  1.00  0.00    -0.206 F 
ATOM     42  C   UNL A   1      48.477  29.125  26.890  1.00  0.00     0.040 A 
ATOM     43  C   UNL A   1      48.638  28.329  29.159  1.00  0.00     0.040 A 
ATOM     44  F   UNL A   1      46.851  28.646  30.644  1.00  0.00    -0.206 F 
ATOM     45  C   UNL A   1      49.195  28.470  27.889  1.00  0.00     0.006 A 
ENDBRANCH  24  38
BRANCH  25  46
ATOM     46  C   UNL A   1      37.158  32.326  30.340  1.00  0.00     0.057 A 
ATOM     47  C   UNL A   1      36.376  33.057  29.437  1.00  0.00     0.134 A 
ATOM     48  C   UNL A   1      36.576  32.022  31.579  1.00  0.00     0.134 A 
ATOM     49  F   UNL A   1      36.868  33.393  28.235  1.00  0.00    -0.206 F 
ATOM     50  C   UNL A   1      35.093  33.506  29.767  1.00  0.00     0.040 A 
ATOM     51  C   UNL A   1      35.283  32.436  31.911  1.00  0.00     0.040 A 
ATOM     52  F   UNL A   1      37.259  31.320  32.497  1.00  0.00    -0.206 F 
ATOM     53  C   UNL A   1      34.543  33.194  31.008  1.00  0.00     0.006 A 
ENDBRANCH  25  46
BRANCH  37  54
ATOM     54  C   UNL A   1      43.376  35.373  31.105  1.00  0.00     0.057 A 
ATOM     55  C   UNL A   1      43.589  35.601  32.470  1.00  0.00     0.134 A 
ATOM     56  C   UNL A   1      43.575  36.442  30.224  1.00  0.00     0.134 A 
ATOM     57  F   UNL A   1      43.392  34.619  33.362  1.00  0.00    -0.206 F 
ATOM     58  C   UNL A   1      43.964  36.857  32.944  1.00  0.00     0.040 A 
ATOM     59  C   UNL A   1      43.982  37.693  30.682  1.00  0.00     0.040 A 
ATOM     60  F   UNL A   1      43.391  36.283  28.904  1.00  0.00    -0.206 F 
ATOM     61  C   UNL A   1      44.170  37.905  32.047  1.00  0.00     0.006 A 
ENDBRANCH  37  54
ENDBRANCH  11  12
ENDBRANCH   4   6
ENDBRANCH   3   4
ENDBRANCH   2   3
ENDBRANCH   1   2
BRANCH   1  62
ATOM     62  O   UNL A   1      36.023  21.216  24.590  1.00  0.00    -0.458 OA
BRANCH  62  63
ATOM     63  C   UNL A   1      35.004  20.786  25.377  1.00  0.00     0.338 C 
ATOM     64  O   UNL A   1      34.707  21.194  26.481  1.00  0.00    -0.246 OA
BRANCH  63  65
ATOM     65  C   UNL A   1      34.218  19.773  24.647  1.00  0.00     0.071 A 
ATOM     66  C   UNL A   1      34.734  18.467  24.617  1.00  0.00     0.016 A 
ATOM     67  C   UNL A   1      33.001  20.078  24.023  1.00  0.00     0.032 A 
ATOM     68  C   UNL A   1      34.019  17.445  23.992  1.00  0.00     0.001 A 
ATOM     69  C   UNL A   1      32.350  19.055  23.311  1.00  0.00     0.013 A 
ATOM     70  C   UNL A   1      32.834  17.743  23.327  1.00  0.00     0.001 A 
BRANCH  67  71
ATOM     71  C   UNL A   1      32.352  21.373  24.194  1.00  0.00     0.135 A 
ATOM     72  C   UNL A   1      31.485  21.918  25.109  1.00  0.00     0.051 A 
ATOM     73  O   UNL A   1      32.506  22.234  23.149  1.00  0.00    -0.457 OA
ATOM     74  C   UNL A   1      31.089  23.170  24.575  1.00  0.00     0.051 A 
ATOM     75  C   UNL A   1      31.766  23.359  23.377  1.00  0.00     0.128 A 
BRANCH  75  76
ATOM     76  C   UNL A   1      31.743  24.490  22.514  1.00  0.00     0.068 C 
ATOM     77  C   UNL A   1      31.929  25.718  23.013  1.00  0.00     0.084 C 
ATOM     78  S   UNL A   1      31.400  27.175  22.269  1.00  0.00    -0.054 SA
ATOM     79  C   UNL A   1      32.351  26.024  24.401  1.00  0.00     0.266 C 
ATOM     80  C   UNL A   1      31.161  27.950  23.847  1.00  0.00     0.148 C 
ATOM     81  N   UNL A   1      31.697  27.156  24.839  1.00  0.00    -0.288 N 
ATOM     82  O   UNL A   1      33.187  25.384  25.023  1.00  0.00    -0.268 OA
ATOM     83  S   UNL A   1      30.386  29.418  24.005  1.00  0.00    -0.052 S 
BRANCH  81  84
ATOM     84  C   UNL A   1      31.713  27.449  26.270  1.00  0.00     0.163 C 
BRANCH  84  85
ATOM     85  C   UNL A   1      32.706  28.538  26.653  1.00  0.00    -0.028 A 
ATOM     86  C   UNL A   1      34.080  28.264  26.699  1.00  0.00     0.005 A 
ATOM     87  C   UNL A   1      32.278  29.818  27.046  1.00  0.00     0.005 A 
ATOM     88  C   UNL A   1      34.990  29.240  27.121  1.00  0.00     0.000 A 
ATOM     89  C   UNL A   1      33.188  30.801  27.443  1.00  0.00     0.000 A 
ATOM     90  C   UNL A   1      34.546  30.509  27.486  1.00  0.00     0.000 A 
ENDBRANCH  84  85
ENDBRANCH  81  84
ENDBRANCH  75  76
ENDBRANCH  67  71
ENDBRANCH  63  65
ENDBRANCH  62  63
ENDBRANCH   1  62
TORSDOF 15
ENDMDL
MODEL 3
REMARK VINA RESULT:     -12.6      1.720      2.747
REMARK SMILES O=C(OCCOC(=O)c1ccccc1-c1ccc(/C=C2/SC(=S)N(Cc3ccccc3)C2=O)o1)c1ccc(-c2c3nc(c(-c4c(F)cccc4F)c4ccc([nH]4)c(-c4c(F)cccc4F)c4nc(c(-c5c(F)cccc5F)c5ccc2[nH]5)C=C4)C=C3)cc1
REMARK SMILES IDX 5 1 4 2 3 3 2 4 1 5 35 6 36 7 88 8 37 9 87 10 38 11 39 12
REMARK SMILES IDX 40 13 81 14 41 15 86 16 80 17 82 18 42 19 85 20 79 21 78 22
REMARK SMILES IDX 43 24 69 25 52 26 68 27 53 28 56 29 67 30 83 31 54 32 55 33
REMARK SMILES IDX 66 35 84 36 57 37 44 38 45 39 50 40 46 41 47 42 49 43 51 44
REMARK SMILES IDX 48 45 70 46 71 47 76 48 72 49 73 50 75 51 77 52 74 53 58 54
REMARK SMILES IDX 59 55 64 56 60 57 61 58 63 59 65 60 62 61 6 62 7 63 8 64
REMARK SMILES IDX 9 65 10 66 14 67 11 68 13 69 12 70 15 71 16 72 34 73 17 74
REMARK SMILES IDX 18 75 19 76 20 77 21 78 32 79 22 80 24 81 33 82 23 83 25 84
REMARK SMILES IDX 26 85 27 86 31 87 28 88 30 89 29 90
REMARK H PARENT 82 23 56 34
REMARK Flexibility Score: inf
ROOT
ATOM      1  C   UNL A   1      37.667  20.814  25.379  1.00  0.00     0.275 C 
ENDROOT
BRANCH   1   2
ATOM      2  C   UNL A   1      38.551  19.632  24.986  1.00  0.00     0.275 C 
BRANCH   2   3
ATOM      3  O   UNL A   1      39.521  19.280  25.990  1.00  0.00    -0.458 OA
BRANCH   3   4
ATOM      4  C   UNL A   1      40.804  19.667  26.174  1.00  0.00     0.338 C 
ATOM      5  O   UNL A   1      41.682  18.817  26.018  1.00  0.00    -0.246 OA
BRANCH   4   6
ATOM      6  C   UNL A   1      41.254  21.035  26.615  1.00  0.00     0.060 A 
ATOM      7  C   UNL A   1      41.880  21.362  27.819  1.00  0.00     0.016 A 
ATOM      8  C   UNL A   1      41.039  22.086  25.696  1.00  0.00     0.016 A 
ATOM      9  C   UNL A   1      42.313  22.667  28.084  1.00  0.00     0.010 A 
ATOM     10  C   UNL A   1      41.474  23.393  25.951  1.00  0.00     0.010 A 
ATOM     11  C   UNL A   1      42.116  23.690  27.155  1.00  0.00    -0.014 A 
BRANCH  11  12
ATOM     12  C   UNL A   1      42.521  25.073  27.502  1.00  0.00     0.031 A 
ATOM     13  C   UNL A   1      43.860  25.556  27.077  1.00  0.00     0.074 A 
ATOM     14  C   UNL A   1      41.662  25.915  28.105  1.00  0.00     0.049 A 
ATOM     15  N   UNL A   1      44.376  26.745  27.220  1.00  0.00    -0.248 NA
ATOM     16  C   UNL A   1      44.721  24.589  26.380  1.00  0.00     0.031 C 
ATOM     17  C   UNL A   1      40.317  25.532  28.472  1.00  0.00     0.029 A 
ATOM     18  N   UNL A   1      41.738  27.225  28.497  1.00  0.00    -0.354 N 
ATOM     19  C   UNL A   1      45.619  26.677  26.619  1.00  0.00     0.074 A 
ATOM     20  C   UNL A   1      45.794  25.325  26.137  1.00  0.00     0.031 C 
ATOM     21  C   UNL A   1      39.668  26.564  29.025  1.00  0.00     0.029 A 
ATOM     22  C   UNL A   1      40.586  27.684  29.104  1.00  0.00     0.049 A 
ATOM     23  H   UNL A   1      42.535  27.784  28.358  1.00  0.00     0.167 HD
ATOM     24  C   UNL A   1      46.519  27.673  26.483  1.00  0.00     0.037 A 
ATOM     25  C   UNL A   1      40.313  28.868  29.682  1.00  0.00     0.037 A 
ATOM     26  C   UNL A   1      46.325  28.999  27.005  1.00  0.00     0.049 A 
ATOM     27  C   UNL A   1      41.385  29.913  29.623  1.00  0.00     0.074 A 
ATOM     28  C   UNL A   1      47.187  30.078  26.952  1.00  0.00     0.029 A 
ATOM     29  N   UNL A   1      45.193  29.420  27.693  1.00  0.00    -0.354 N 
ATOM     30  N   UNL A   1      42.558  29.845  29.039  1.00  0.00    -0.248 NA
ATOM     31  C   UNL A   1      41.114  31.192  30.288  1.00  0.00     0.031 C 
ATOM     32  C   UNL A   1      46.601  31.133  27.658  1.00  0.00     0.029 A 
ATOM     33  C   UNL A   1      45.349  30.734  28.103  1.00  0.00     0.049 A 
ATOM     34  H   UNL A   1      44.398  28.865  27.865  1.00  0.00     0.167 HD
ATOM     35  C   UNL A   1      43.157  31.076  29.240  1.00  0.00     0.074 A 
ATOM     36  C   UNL A   1      42.206  31.881  29.985  1.00  0.00     0.031 C 
ATOM     37  C   UNL A   1      44.381  31.502  28.846  1.00  0.00     0.037 A 
BRANCH  24  38
ATOM     38  C   UNL A   1      47.801  27.325  25.798  1.00  0.00     0.057 A 
ATOM     39  C   UNL A   1      47.952  27.427  24.408  1.00  0.00     0.134 A 
ATOM     40  C   UNL A   1      48.888  26.844  26.537  1.00  0.00     0.134 A 
ATOM     41  F   UNL A   1      46.932  27.843  23.641  1.00  0.00    -0.206 F 
ATOM     42  C   UNL A   1      49.135  27.046  23.776  1.00  0.00     0.040 A 
ATOM     43  C   UNL A   1      50.084  26.483  25.918  1.00  0.00     0.040 A 
ATOM     44  F   UNL A   1      48.798  26.706  27.867  1.00  0.00    -0.206 F 
ATOM     45  C   UNL A   1      50.208  26.578  24.533  1.00  0.00     0.006 A 
ENDBRANCH  24  38
BRANCH  25  46
ATOM     46  C   UNL A   1      39.023  29.108  30.388  1.00  0.00     0.057 A 
ATOM     47  C   UNL A   1      37.940  29.735  29.762  1.00  0.00     0.134 A 
ATOM     48  C   UNL A   1      38.860  28.760  31.737  1.00  0.00     0.134 A 
ATOM     49  F   UNL A   1      38.025  30.107  28.475  1.00  0.00    -0.206 F 
ATOM     50  C   UNL A   1      36.764  30.045  30.455  1.00  0.00     0.040 A 
ATOM     51  C   UNL A   1      37.680  29.033  32.434  1.00  0.00     0.040 A 
ATOM     52  F   UNL A   1      39.850  28.151  32.407  1.00  0.00    -0.206 F 
ATOM     53  C   UNL A   1      36.633  29.692  31.796  1.00  0.00     0.006 A 
ENDBRANCH  25  46
BRANCH  37  54
ATOM     54  C   UNL A   1      44.736  32.914  29.198  1.00  0.00     0.057 A 
ATOM     55  C   UNL A   1      44.424  33.986  28.352  1.00  0.00     0.134 A 
ATOM     56  C   UNL A   1      45.373  33.201  30.410  1.00  0.00     0.134 A 
ATOM     57  F   UNL A   1      43.834  33.768  27.167  1.00  0.00    -0.206 F 
ATOM     58  C   UNL A   1      44.757  35.296  28.692  1.00  0.00     0.040 A 
ATOM     59  C   UNL A   1      45.681  34.510  30.776  1.00  0.00     0.040 A 
ATOM     60  F   UNL A   1      45.693  32.216  31.264  1.00  0.00    -0.206 F 
ATOM     61  C   UNL A   1      45.379  35.561  29.912  1.00  0.00     0.006 A 
ENDBRANCH  37  54
ENDBRANCH  11  12
ENDBRANCH   4   6
ENDBRANCH   3   4
ENDBRANCH   2   3
ENDBRANCH   1   2
BRANCH   1  62
ATOM     62  O   UNL A   1      36.462  20.853  24.610  1.00  0.00    -0.458 OA
BRANCH  62  63
ATOM     63  C   UNL A   1      35.305  20.721  25.307  1.00  0.00     0.338 C 
ATOM     64  O   UNL A   1      34.941  21.387  26.255  1.00  0.00    -0.246 OA
BRANCH  63  65
ATOM     65  C   UNL A   1      34.474  19.675  24.682  1.00  0.00     0.071 A 
ATOM     66  C   UNL A   1      34.998  18.372  24.664  1.00  0.00     0.016 A 
ATOM     67  C   UNL A   1      33.209  19.947  24.143  1.00  0.00     0.032 A 
ATOM     68  C   UNL A   1      34.247  17.322  24.138  1.00  0.00     0.001 A 
ATOM     69  C   UNL A   1      32.514  18.892  23.526  1.00  0.00     0.013 A 
ATOM     70  C   UNL A   1      33.010  17.584  23.556  1.00  0.00     0.001 A 
BRANCH  67  71
ATOM     71  C   UNL A   1      32.563  21.243  24.313  1.00  0.00     0.135 A 
ATOM     72  C   UNL A   1      31.719  21.800  25.242  1.00  0.00     0.051 A 
ATOM     73  O   UNL A   1      32.690  22.090  23.252  1.00  0.00    -0.457 OA
ATOM     74  C   UNL A   1      31.308  23.045  24.701  1.00  0.00     0.051 A 
ATOM     75  C   UNL A   1      31.955  23.218  23.484  1.00  0.00     0.128 A 
BRANCH  75  76
ATOM     76  C   UNL A   1      31.909  24.337  22.607  1.00  0.00     0.068 C 
ATOM     77  C   UNL A   1      32.073  25.575  23.089  1.00  0.00     0.084 C 
ATOM     78  S   UNL A   1      31.516  27.011  22.327  1.00  0.00    -0.054 SA
ATOM     79  C   UNL A   1      32.495  25.906  24.471  1.00  0.00     0.266 C 
ATOM     80  C   UNL A   1      31.267  27.803  23.896  1.00  0.00     0.148 C 
ATOM     81  N   UNL A   1      31.821  27.031  24.896  1.00  0.00    -0.288 N 
ATOM     82  O   UNL A   1      33.344  25.290  25.099  1.00  0.00    -0.268 OA
ATOM     83  S   UNL A   1      30.467  29.258  24.036  1.00  0.00    -0.052 S 
BRANCH  81  84
ATOM     84  C   UNL A   1      31.836  27.344  26.323  1.00  0.00     0.163 C 
BRANCH  84  85
ATOM     85  C   UNL A   1      32.785  28.478  26.684  1.00  0.00    -0.028 A 
ATOM     86  C   UNL A   1      34.162  28.243  26.803  1.00  0.00     0.005 A 
ATOM     87  C   UNL A   1      32.311  29.767  26.985  1.00  0.00     0.005 A 
ATOM     88  C   UNL A   1      35.030  29.264  27.206  1.00  0.00     0.000 A 
ATOM     89  C   UNL A   1      33.180  30.794  27.362  1.00  0.00     0.000 A 
ATOM     90  C   UNL A   1      34.541  30.540  27.479  1.00  0.00     0.000 A 
ENDBRANCH  84  85
ENDBRANCH  81  84
ENDBRANCH  75  76
ENDBRANCH  67  71
ENDBRANCH  63  65
ENDBRANCH  62  63
ENDBRANCH   1  62
TORSDOF 15
ENDMDL
