MODEL 1
REMARK VINA RESULT:     -11.0      0.000      0.000
REMARK SMILES C[NH2+][C@]1(C(=O)OCCOC(=O)c2ccc(-c3c4nc(c(-c5c(F)cccc5F)c5ccc([nH]5)c(-c5c(F)cccc5F)c5nc(c(-c6c(F)cccc6F)c6ccc3[nH]6)C=C5)C=C4)cc2)CC[C@H](Oc2cc(C(C)C)ccc2C)C1
REMARK SMILES IDX 7 1 6 2 4 3 5 4 3 5 66 6 80 7 67 8 68 9 2 10 1 11 69 14
REMARK SMILES IDX 70 15 71 16 78 17 72 18 77 19 79 20 76 21 73 22 74 23 75 24
REMARK SMILES IDX 8 25 9 26 10 27 11 28 12 29 13 30 65 31 14 32 64 33 15 34
REMARK SMILES IDX 16 35 17 36 58 37 18 38 63 39 57 40 59 41 19 42 62 43 56 44
REMARK SMILES IDX 55 45 20 47 46 48 29 49 45 50 30 51 33 52 44 53 60 54 31 55
REMARK SMILES IDX 32 56 43 58 61 59 34 60 21 61 22 62 27 63 23 64 24 65 26 66
REMARK SMILES IDX 28 67 25 68 47 69 48 70 53 71 49 72 50 73 52 74 54 75 51 76
REMARK SMILES IDX 35 77 36 78 41 79 37 80 38 81 40 82 42 83 39 84
REMARK H PARENT 2 12 2 13 59 46 33 57
REMARK Flexibility Score: inf
ROOT
ATOM      1  C   UNL A   1      34.740  20.435  25.180  1.00  0.00     0.274 C 
ENDROOT
BRANCH   1   2
ATOM      2  O   UNL A   1      34.086  21.592  24.627  1.00  0.00    -0.457 OA
BRANCH   2   3
ATOM      3  C   UNL A   1      32.721  21.594  24.707  1.00  0.00     0.368 C 
ATOM      4  O   UNL A   1      32.044  20.612  24.995  1.00  0.00    -0.245 OA
BRANCH   3   5
ATOM      5  C   UNL A   1      32.153  23.027  24.500  1.00  0.00     0.197 C 
ATOM      6  C   UNL A   1      30.934  23.276  25.387  1.00  0.00     0.085 C 
ATOM      7  C   UNL A   1      33.177  24.029  25.083  1.00  0.00     0.126 C 
ATOM      8  C   UNL A   1      30.930  24.777  25.649  1.00  0.00     0.052 C 
ATOM      9  C   UNL A   1      32.395  25.235  25.624  1.00  0.00     0.180 C 
BRANCH   5  10
ATOM     10  N   UNL A   1      31.875  23.153  23.053  1.00  0.00    -0.334 N 
ATOM     11  C   UNL A   1      32.854  23.751  22.172  1.00  0.00     0.331 C 
ATOM     12  H   UNL A   1      31.702  22.210  22.703  1.00  0.00     0.347 HD
ATOM     13  H   UNL A   1      31.100  23.816  23.023  1.00  0.00     0.347 HD
ENDBRANCH   5  10
BRANCH   9  14
ATOM     14  O   UNL A   1      32.692  26.310  24.736  1.00  0.00    -0.490 OA
BRANCH  14  15
ATOM     15  C   UNL A   1      32.728  27.605  25.155  1.00  0.00     0.122 A 
ATOM     16  C   UNL A   1      33.686  28.117  26.029  1.00  0.00     0.050 A 
ATOM     17  C   UNL A   1      31.643  28.411  24.769  1.00  0.00    -0.009 A 
ATOM     18  C   UNL A   1      33.539  29.386  26.610  1.00  0.00    -0.042 A 
ATOM     19  C   UNL A   1      31.519  29.698  25.310  1.00  0.00     0.007 A 
ATOM     20  C   UNL A   1      30.577  27.924  23.826  1.00  0.00     0.048 C 
ATOM     21  C   UNL A   1      32.449  30.176  26.233  1.00  0.00     0.004 A 
BRANCH  18  22
ATOM     22  C   UNL A   1      34.490  29.862  27.694  1.00  0.00     0.013 C 
ATOM     23  C   UNL A   1      35.891  29.271  27.481  1.00  0.00     0.012 C 
ATOM     24  C   UNL A   1      34.551  31.388  27.771  1.00  0.00     0.012 C 
ENDBRANCH  18  22
ENDBRANCH  14  15
ENDBRANCH   9  14
ENDBRANCH   3   5
ENDBRANCH   2   3
ENDBRANCH   1   2
BRANCH   1  25
ATOM     25  C   UNL A   1      36.235  20.447  24.858  1.00  0.00     0.275 C 
BRANCH  25  26
ATOM     26  O   UNL A   1      36.921  21.485  25.583  1.00  0.00    -0.458 OA
BRANCH  26  27
ATOM     27  C   UNL A   1      38.248  21.277  25.753  1.00  0.00     0.338 C 
ATOM     28  O   UNL A   1      38.892  20.294  25.430  1.00  0.00    -0.246 OA
BRANCH  27  29
ATOM     29  C   UNL A   1      38.863  22.448  26.398  1.00  0.00     0.060 A 
ATOM     30  C   UNL A   1      38.392  23.722  26.086  1.00  0.00     0.016 A 
ATOM     31  C   UNL A   1      40.013  22.288  27.172  1.00  0.00     0.016 A 
ATOM     32  C   UNL A   1      39.123  24.844  26.466  1.00  0.00     0.010 A 
ATOM     33  C   UNL A   1      40.702  23.421  27.621  1.00  0.00     0.010 A 
ATOM     34  C   UNL A   1      40.283  24.708  27.240  1.00  0.00    -0.014 A 
BRANCH  34  35
ATOM     35  C   UNL A   1      41.071  25.910  27.619  1.00  0.00     0.031 A 
ATOM     36  C   UNL A   1      40.462  26.978  28.487  1.00  0.00     0.074 A 
ATOM     37  C   UNL A   1      42.347  26.035  27.209  1.00  0.00     0.049 A 
ATOM     38  N   UNL A   1      40.936  28.157  28.799  1.00  0.00    -0.248 NA
ATOM     39  C   UNL A   1      39.146  26.684  29.074  1.00  0.00     0.031 C 
ATOM     40  C   UNL A   1      43.079  25.056  26.405  1.00  0.00     0.029 A 
ATOM     41  N   UNL A   1      43.260  27.038  27.426  1.00  0.00    -0.354 N 
ATOM     42  C   UNL A   1      39.957  28.766  29.574  1.00  0.00     0.074 A 
ATOM     43  C   UNL A   1      38.866  27.822  29.695  1.00  0.00     0.031 C 
ATOM     44  C   UNL A   1      44.337  25.488  26.226  1.00  0.00     0.029 A 
ATOM     45  C   UNL A   1      44.481  26.801  26.845  1.00  0.00     0.049 A 
ATOM     46  H   UNL A   1      43.057  27.848  27.945  1.00  0.00     0.167 HD
ATOM     47  C   UNL A   1      39.965  30.002  30.127  1.00  0.00     0.037 A 
ATOM     48  C   UNL A   1      45.585  27.567  26.791  1.00  0.00     0.037 A 
ATOM     49  C   UNL A   1      41.069  30.923  30.054  1.00  0.00     0.049 A 
ATOM     50  C   UNL A   1      45.572  28.931  27.414  1.00  0.00     0.074 A 
ATOM     51  C   UNL A   1      41.164  32.203  30.576  1.00  0.00     0.029 A 
ATOM     52  N   UNL A   1      42.280  30.651  29.439  1.00  0.00    -0.354 N 
ATOM     53  N   UNL A   1      44.608  29.527  28.069  1.00  0.00    -0.248 NA
ATOM     54  C   UNL A   1      46.792  29.737  27.266  1.00  0.00     0.031 C 
ATOM     55  C   UNL A   1      42.432  32.709  30.266  1.00  0.00     0.029 A 
ATOM     56  C   UNL A   1      43.130  31.737  29.568  1.00  0.00     0.049 A 
ATOM     57  H   UNL A   1      42.503  29.810  28.977  1.00  0.00     0.167 HD
ATOM     58  C   UNL A   1      45.098  30.782  28.402  1.00  0.00     0.074 A 
ATOM     59  C   UNL A   1      46.455  30.851  27.901  1.00  0.00     0.031 C 
ATOM     60  C   UNL A   1      44.474  31.791  29.056  1.00  0.00     0.037 A 
BRANCH  47  61
ATOM     61  C   UNL A   1      38.725  30.446  30.838  1.00  0.00     0.057 A 
ATOM     62  C   UNL A   1      37.718  31.168  30.189  1.00  0.00     0.134 A 
ATOM     63  C   UNL A   1      38.523  30.111  32.183  1.00  0.00     0.134 A 
ATOM     64  F   UNL A   1      37.860  31.529  28.905  1.00  0.00    -0.206 F 
ATOM     65  C   UNL A   1      36.553  31.553  30.858  1.00  0.00     0.040 A 
ATOM     66  C   UNL A   1      37.358  30.478  32.858  1.00  0.00     0.040 A 
ATOM     67  F   UNL A   1      39.452  29.417  32.858  1.00  0.00    -0.206 F 
ATOM     68  C   UNL A   1      36.370  31.203  32.195  1.00  0.00     0.006 A 
ENDBRANCH  47  61
BRANCH  48  69
ATOM     69  C   UNL A   1      46.787  27.065  26.087  1.00  0.00     0.057 A 
ATOM     70  C   UNL A   1      47.768  26.336  26.767  1.00  0.00     0.134 A 
ATOM     71  C   UNL A   1      46.971  27.282  24.717  1.00  0.00     0.134 A 
ATOM     72  F   UNL A   1      47.653  26.117  28.085  1.00  0.00    -0.206 F 
ATOM     73  C   UNL A   1      48.892  25.838  26.107  1.00  0.00     0.040 A 
ATOM     74  C   UNL A   1      48.081  26.775  24.041  1.00  0.00     0.040 A 
ATOM     75  F   UNL A   1      46.062  27.974  24.013  1.00  0.00    -0.206 F 
ATOM     76  C   UNL A   1      49.047  26.051  24.739  1.00  0.00     0.006 A 
ENDBRANCH  48  69
BRANCH  60  77
ATOM     77  C   UNL A   1      45.254  33.050  29.258  1.00  0.00     0.057 A 
ATOM     78  C   UNL A   1      46.062  33.229  30.387  1.00  0.00     0.134 A 
ATOM     79  C   UNL A   1      45.215  34.079  28.311  1.00  0.00     0.134 A 
ATOM     80  F   UNL A   1      46.127  32.282  31.334  1.00  0.00    -0.206 F 
ATOM     81  C   UNL A   1      46.798  34.399  30.574  1.00  0.00     0.040 A 
ATOM     82  C   UNL A   1      45.956  35.249  28.482  1.00  0.00     0.040 A 
ATOM     83  F   UNL A   1      44.460  33.964  27.210  1.00  0.00    -0.206 F 
ATOM     84  C   UNL A   1      46.748  35.413  29.617  1.00  0.00     0.006 A 
ENDBRANCH  60  77
ENDBRANCH  34  35
ENDBRANCH  27  29
ENDBRANCH  26  27
ENDBRANCH  25  26
ENDBRANCH   1  25
TORSDOF 15
ENDMDL
MODEL 2
REMARK VINA RESULT:     -11.0      2.791      7.818
REMARK SMILES C[NH2+][C@]1(C(=O)OCCOC(=O)c2ccc(-c3c4nc(c(-c5c(F)cccc5F)c5ccc([nH]5)c(-c5c(F)cccc5F)c5nc(c(-c6c(F)cccc6F)c6ccc3[nH]6)C=C5)C=C4)cc2)CC[C@H](Oc2cc(C(C)C)ccc2C)C1
REMARK SMILES IDX 7 1 6 2 4 3 5 4 3 5 66 6 80 7 67 8 68 9 2 10 1 11 69 14
REMARK SMILES IDX 70 15 71 16 78 17 72 18 77 19 79 20 76 21 73 22 74 23 75 24
REMARK SMILES IDX 8 25 9 26 10 27 11 28 12 29 13 30 65 31 14 32 64 33 15 34
REMARK SMILES IDX 16 35 17 36 58 37 18 38 63 39 57 40 59 41 19 42 62 43 56 44
REMARK SMILES IDX 55 45 20 47 46 48 29 49 45 50 30 51 33 52 44 53 60 54 31 55
REMARK SMILES IDX 32 56 43 58 61 59 34 60 21 61 22 62 27 63 23 64 24 65 26 66
REMARK SMILES IDX 28 67 25 68 47 69 48 70 53 71 49 72 50 73 52 74 54 75 51 76
REMARK SMILES IDX 35 77 36 78 41 79 37 80 38 81 40 82 42 83 39 84
REMARK H PARENT 2 12 2 13 59 46 33 57
REMARK Flexibility Score: inf
ROOT
ATOM      1  C   UNL A   1      38.826  21.562  25.789  1.00  0.00     0.274 C 
ENDROOT
BRANCH   1   2
ATOM      2  O   UNL A   1      37.412  21.702  25.556  1.00  0.00    -0.457 OA
BRANCH   2   3
ATOM      3  C   UNL A   1      36.875  22.913  25.892  1.00  0.00     0.368 C 
ATOM      4  O   UNL A   1      37.535  23.910  26.168  1.00  0.00    -0.245 OA
BRANCH   3   5
ATOM      5  C   UNL A   1      35.326  22.890  25.765  1.00  0.00     0.197 C 
ATOM      6  C   UNL A   1      34.811  24.111  25.004  1.00  0.00     0.085 C 
ATOM      7  C   UNL A   1      34.949  21.738  24.803  1.00  0.00     0.126 C 
ATOM      8  C   UNL A   1      33.518  23.653  24.338  1.00  0.00     0.052 C 
ATOM      9  C   UNL A   1      33.675  22.153  24.052  1.00  0.00     0.180 C 
BRANCH   5  10
ATOM     10  N   UNL A   1      34.801  22.781  27.142  1.00  0.00    -0.334 N 
ATOM     11  C   UNL A   1      34.142  21.568  27.578  1.00  0.00     0.331 C 
ATOM     12  H   UNL A   1      35.592  22.927  27.771  1.00  0.00     0.347 HD
ATOM     13  H   UNL A   1      34.051  23.471  27.160  1.00  0.00     0.347 HD
ENDBRANCH   5  10
BRANCH   9  14
ATOM     14  O   UNL A   1      32.642  21.314  24.563  1.00  0.00    -0.490 OA
BRANCH  14  15
ATOM     15  C   UNL A   1      32.553  19.995  24.236  1.00  0.00     0.122 A 
ATOM     16  C   UNL A   1      32.865  18.952  25.106  1.00  0.00     0.050 A 
ATOM     17  C   UNL A   1      32.255  19.710  22.892  1.00  0.00    -0.009 A 
ATOM     18  C   UNL A   1      32.984  17.631  24.648  1.00  0.00    -0.042 A 
ATOM     19  C   UNL A   1      32.326  18.384  22.442  1.00  0.00     0.007 A 
ATOM     20  C   UNL A   1      31.906  20.786  21.901  1.00  0.00     0.048 C 
ATOM     21  C   UNL A   1      32.701  17.357  23.307  1.00  0.00     0.004 A 
BRANCH  18  22
ATOM     22  C   UNL A   1      33.496  16.532  25.562  1.00  0.00     0.013 C 
ATOM     23  C   UNL A   1      32.493  15.372  25.627  1.00  0.00     0.012 C 
ATOM     24  C   UNL A   1      34.877  16.032  25.137  1.00  0.00     0.012 C 
ENDBRANCH  18  22
ENDBRANCH  14  15
ENDBRANCH   9  14
ENDBRANCH   3   5
ENDBRANCH   2   3
ENDBRANCH   1   2
BRANCH   1  25
ATOM     25  C   UNL A   1      39.314  20.175  25.369  1.00  0.00     0.275 C 
BRANCH  25  26
ATOM     26  O   UNL A   1      40.259  19.641  26.316  1.00  0.00    -0.458 OA
BRANCH  26  27
ATOM     27  C   UNL A   1      41.558  19.789  25.968  1.00  0.00     0.338 C 
ATOM     28  O   UNL A   1      42.228  19.046  25.271  1.00  0.00    -0.246 OA
BRANCH  27  29
ATOM     29  C   UNL A   1      42.099  21.028  26.548  1.00  0.00     0.060 A 
ATOM     30  C   UNL A   1      42.017  21.226  27.925  1.00  0.00     0.016 A 
ATOM     31  C   UNL A   1      42.525  22.058  25.708  1.00  0.00     0.016 A 
ATOM     32  C   UNL A   1      42.269  22.485  28.461  1.00  0.00     0.010 A 
ATOM     33  C   UNL A   1      42.855  23.302  26.261  1.00  0.00     0.010 A 
ATOM     34  C   UNL A   1      42.694  23.537  27.637  1.00  0.00    -0.014 A 
BRANCH  34  35
ATOM     35  C   UNL A   1      42.935  24.884  28.215  1.00  0.00     0.031 A 
ATOM     36  C   UNL A   1      44.324  25.305  28.613  1.00  0.00     0.074 A 
ATOM     37  C   UNL A   1      41.912  25.748  28.358  1.00  0.00     0.049 A 
ATOM     38  N   UNL A   1      44.707  26.375  29.264  1.00  0.00    -0.248 NA
ATOM     39  C   UNL A   1      45.423  24.404  28.238  1.00  0.00     0.031 C 
ATOM     40  C   UNL A   1      40.525  25.491  27.969  1.00  0.00     0.029 A 
ATOM     41  N   UNL A   1      41.887  27.026  28.859  1.00  0.00    -0.354 N 
ATOM     42  C   UNL A   1      46.081  26.250  29.422  1.00  0.00     0.074 A 
ATOM     43  C   UNL A   1      46.468  25.007  28.788  1.00  0.00     0.031 C 
ATOM     44  C   UNL A   1      39.791  26.589  28.213  1.00  0.00     0.029 A 
ATOM     45  C   UNL A   1      40.640  27.600  28.833  1.00  0.00     0.049 A 
ATOM     46  H   UNL A   1      42.685  27.486  29.205  1.00  0.00     0.167 HD
ATOM     47  C   UNL A   1      46.940  27.092  30.045  1.00  0.00     0.037 A 
ATOM     48  C   UNL A   1      40.219  28.795  29.285  1.00  0.00     0.037 A 
ATOM     49  C   UNL A   1      46.568  28.354  30.628  1.00  0.00     0.049 A 
ATOM     50  C   UNL A   1      41.189  29.712  29.968  1.00  0.00     0.074 A 
ATOM     51  C   UNL A   1      47.369  29.271  31.289  1.00  0.00     0.029 A 
ATOM     52  N   UNL A   1      45.290  28.888  30.598  1.00  0.00    -0.354 N 
ATOM     53  N   UNL A   1      42.469  29.543  30.186  1.00  0.00    -0.248 NA
ATOM     54  C   UNL A   1      40.648  30.976  30.489  1.00  0.00     0.031 C 
ATOM     55  C   UNL A   1      46.570  30.356  31.669  1.00  0.00     0.029 A 
ATOM     56  C   UNL A   1      45.278  30.122  31.227  1.00  0.00     0.049 A 
ATOM     57  H   UNL A   1      44.506  28.454  30.190  1.00  0.00     0.167 HD
ATOM     58  C   UNL A   1      42.886  30.669  30.880  1.00  0.00     0.074 A 
ATOM     59  C   UNL A   1      41.729  31.529  31.022  1.00  0.00     0.031 C 
ATOM     60  C   UNL A   1      44.117  30.959  31.366  1.00  0.00     0.037 A 
BRANCH  47  61
ATOM     61  C   UNL A   1      48.369  26.660  30.155  1.00  0.00     0.057 A 
ATOM     62  C   UNL A   1      48.815  25.835  31.192  1.00  0.00     0.134 A 
ATOM     63  C   UNL A   1      49.302  27.048  29.185  1.00  0.00     0.134 A 
ATOM     64  F   UNL A   1      47.971  25.441  32.158  1.00  0.00    -0.206 F 
ATOM     65  C   UNL A   1      50.146  25.417  31.268  1.00  0.00     0.040 A 
ATOM     66  C   UNL A   1      50.631  26.627  29.241  1.00  0.00     0.040 A 
ATOM     67  F   UNL A   1      48.933  27.838  28.164  1.00  0.00    -0.206 F 
ATOM     68  C   UNL A   1      51.056  25.811  30.287  1.00  0.00     0.006 A 
ENDBRANCH  47  61
BRANCH  48  69
ATOM     69  C   UNL A   1      38.796  29.172  29.131  1.00  0.00     0.057 A 
ATOM     70  C   UNL A   1      38.292  29.599  27.898  1.00  0.00     0.134 A 
ATOM     71  C   UNL A   1      37.902  29.093  30.206  1.00  0.00     0.134 A 
ATOM     72  F   UNL A   1      39.108  29.713  26.840  1.00  0.00    -0.206 F 
ATOM     73  C   UNL A   1      36.948  29.933  27.738  1.00  0.00     0.040 A 
ATOM     74  C   UNL A   1      36.552  29.407  30.055  1.00  0.00     0.040 A 
ATOM     75  F   UNL A   1      38.329  28.690  31.412  1.00  0.00    -0.206 F 
ATOM     76  C   UNL A   1      36.072  29.831  28.817  1.00  0.00     0.006 A 
ENDBRANCH  48  69
BRANCH  60  77
ATOM     77  C   UNL A   1      44.266  32.255  32.096  1.00  0.00     0.057 A 
ATOM     78  C   UNL A   1      44.604  33.434  31.420  1.00  0.00     0.134 A 
ATOM     79  C   UNL A   1      44.052  32.331  33.477  1.00  0.00     0.134 A 
ATOM     80  F   UNL A   1      44.834  33.419  30.099  1.00  0.00    -0.206 F 
ATOM     81  C   UNL A   1      44.736  34.646  32.098  1.00  0.00     0.040 A 
ATOM     82  C   UNL A   1      44.170  33.539  34.163  1.00  0.00     0.040 A 
ATOM     83  F   UNL A   1      43.726  31.235  34.176  1.00  0.00    -0.206 F 
ATOM     84  C   UNL A   1      44.515  34.701  33.474  1.00  0.00     0.006 A 
ENDBRANCH  60  77
ENDBRANCH  34  35
ENDBRANCH  27  29
ENDBRANCH  26  27
ENDBRANCH  25  26
ENDBRANCH   1  25
TORSDOF 15
ENDMDL
MODEL 3
REMARK VINA RESULT:     -10.9      4.314      6.942
REMARK SMILES C[NH2+][C@]1(C(=O)OCCOC(=O)c2ccc(-c3c4nc(c(-c5c(F)cccc5F)c5ccc([nH]5)c(-c5c(F)cccc5F)c5nc(c(-c6c(F)cccc6F)c6ccc3[nH]6)C=C5)C=C4)cc2)CC[C@H](Oc2cc(C(C)C)ccc2C)C1
REMARK SMILES IDX 7 1 6 2 4 3 5 4 3 5 66 6 80 7 67 8 68 9 2 10 1 11 69 14
REMARK SMILES IDX 70 15 71 16 78 17 72 18 77 19 79 20 76 21 73 22 74 23 75 24
REMARK SMILES IDX 8 25 9 26 10 27 11 28 12 29 13 30 65 31 14 32 64 33 15 34
REMARK SMILES IDX 16 35 17 36 58 37 18 38 63 39 57 40 59 41 19 42 62 43 56 44
REMARK SMILES IDX 55 45 20 47 46 48 29 49 45 50 30 51 33 52 44 53 60 54 31 55
REMARK SMILES IDX 32 56 43 58 61 59 34 60 21 61 22 62 27 63 23 64 24 65 26 66
REMARK SMILES IDX 28 67 25 68 47 69 48 70 53 71 49 72 50 73 52 74 54 75 51 76
REMARK SMILES IDX 35 77 36 78 41 79 37 80 38 81 40 82 42 83 39 84
REMARK H PARENT 2 12 2 13 59 46 33 57
REMARK Flexibility Score: inf
ROOT
ATOM      1  C   UNL A   1      39.680  21.365  26.164  1.00  0.00     0.274 C 
ENDROOT
BRANCH   1   2
ATOM      2  O   UNL A   1      38.412  21.965  25.843  1.00  0.00    -0.457 OA
BRANCH   2   3
ATOM      3  C   UNL A   1      37.553  21.184  25.121  1.00  0.00     0.368 C 
ATOM      4  O   UNL A   1      37.757  20.006  24.845  1.00  0.00    -0.245 OA
BRANCH   3   5
ATOM      5  C   UNL A   1      36.240  21.950  24.800  1.00  0.00     0.197 C 
ATOM      6  C   UNL A   1      36.008  23.096  25.785  1.00  0.00     0.085 C 
ATOM      7  C   UNL A   1      36.453  22.715  23.472  1.00  0.00     0.126 C 
ATOM      8  C   UNL A   1      35.207  24.135  25.010  1.00  0.00     0.052 C 
ATOM      9  C   UNL A   1      35.622  24.006  23.538  1.00  0.00     0.180 C 
BRANCH   5  10
ATOM     10  N   UNL A   1      35.162  20.938  24.798  1.00  0.00    -0.334 N 
ATOM     11  C   UNL A   1      34.216  20.878  25.891  1.00  0.00     0.331 C 
ATOM     12  H   UNL A   1      34.619  21.088  23.948  1.00  0.00     0.347 HD
ATOM     13  H   UNL A   1      35.671  20.058  24.883  1.00  0.00     0.347 HD
ENDBRANCH   5  10
BRANCH   9  14
ATOM     14  O   UNL A   1      34.557  23.820  22.608  1.00  0.00    -0.490 OA
BRANCH  14  15
ATOM     15  C   UNL A   1      33.426  24.577  22.642  1.00  0.00     0.122 A 
ATOM     16  C   UNL A   1      33.411  25.965  22.511  1.00  0.00     0.050 A 
ATOM     17  C   UNL A   1      32.237  23.900  22.963  1.00  0.00    -0.009 A 
ATOM     18  C   UNL A   1      32.256  26.711  22.790  1.00  0.00    -0.042 A 
ATOM     19  C   UNL A   1      31.069  24.639  23.195  1.00  0.00     0.007 A 
ATOM     20  C   UNL A   1      32.181  22.404  23.115  1.00  0.00     0.048 C 
ATOM     21  C   UNL A   1      31.081  26.032  23.123  1.00  0.00     0.004 A 
BRANCH  18  22
ATOM     22  C   UNL A   1      32.296  28.229  22.818  1.00  0.00     0.013 C 
ATOM     23  C   UNL A   1      31.475  28.769  23.997  1.00  0.00     0.012 C 
ATOM     24  C   UNL A   1      33.728  28.763  22.864  1.00  0.00     0.012 C 
ENDBRANCH  18  22
ENDBRANCH  14  15
ENDBRANCH   9  14
ENDBRANCH   3   5
ENDBRANCH   2   3
ENDBRANCH   1   2
BRANCH   1  25
ATOM     25  C   UNL A   1      40.702  22.428  26.568  1.00  0.00     0.275 C 
BRANCH  25  26
ATOM     26  O   UNL A   1      40.130  23.749  26.524  1.00  0.00    -0.458 OA
BRANCH  26  27
ATOM     27  C   UNL A   1      41.032  24.757  26.452  1.00  0.00     0.338 C 
ATOM     28  O   UNL A   1      42.014  24.823  25.732  1.00  0.00    -0.246 OA
BRANCH  27  29
ATOM     29  C   UNL A   1      40.664  25.831  27.387  1.00  0.00     0.060 A 
ATOM     30  C   UNL A   1      41.434  26.992  27.425  1.00  0.00     0.016 A 
ATOM     31  C   UNL A   1      39.667  25.611  28.338  1.00  0.00     0.016 A 
ATOM     32  C   UNL A   1      41.275  27.896  28.472  1.00  0.00     0.010 A 
ATOM     33  C   UNL A   1      39.455  26.562  29.344  1.00  0.00     0.010 A 
ATOM     34  C   UNL A   1      40.283  27.694  29.441  1.00  0.00    -0.014 A 
BRANCH  34  35
ATOM     35  C   UNL A   1      40.138  28.651  30.569  1.00  0.00     0.031 A 
ATOM     36  C   UNL A   1      39.098  29.737  30.518  1.00  0.00     0.074 A 
ATOM     37  C   UNL A   1      40.922  28.531  31.657  1.00  0.00     0.049 A 
ATOM     38  N   UNL A   1      38.920  30.747  31.332  1.00  0.00    -0.248 NA
ATOM     39  C   UNL A   1      38.138  29.684  29.406  1.00  0.00     0.031 C 
ATOM     40  C   UNL A   1      41.937  27.497  31.861  1.00  0.00     0.029 A 
ATOM     41  N   UNL A   1      40.975  29.282  32.805  1.00  0.00    -0.354 N 
ATOM     42  C   UNL A   1      37.865  31.478  30.802  1.00  0.00     0.074 A 
ATOM     43  C   UNL A   1      37.433  30.790  29.604  1.00  0.00     0.031 C 
ATOM     44  C   UNL A   1      42.488  27.657  33.075  1.00  0.00     0.029 A 
ATOM     45  C   UNL A   1      41.912  28.840  33.705  1.00  0.00     0.049 A 
ATOM     46  H   UNL A   1      40.398  30.063  32.966  1.00  0.00     0.167 HD
ATOM     47  C   UNL A   1      37.311  32.623  31.269  1.00  0.00     0.037 A 
ATOM     48  C   UNL A   1      42.288  29.345  34.894  1.00  0.00     0.037 A 
ATOM     49  C   UNL A   1      37.701  33.280  32.489  1.00  0.00     0.049 A 
ATOM     50  C   UNL A   1      41.659  30.612  35.393  1.00  0.00     0.074 A 
ATOM     51  C   UNL A   1      37.203  34.451  33.038  1.00  0.00     0.029 A 
ATOM     52  N   UNL A   1      38.669  32.810  33.361  1.00  0.00    -0.354 N 
ATOM     53  N   UNL A   1      40.722  31.340  34.839  1.00  0.00    -0.248 NA
ATOM     54  C   UNL A   1      42.159  31.141  36.670  1.00  0.00     0.031 C 
ATOM     55  C   UNL A   1      37.880  34.693  34.239  1.00  0.00     0.029 A 
ATOM     56  C   UNL A   1      38.784  33.664  34.446  1.00  0.00     0.049 A 
ATOM     57  H   UNL A   1      39.198  31.989  33.229  1.00  0.00     0.167 HD
ATOM     58  C   UNL A   1      40.527  32.417  35.691  1.00  0.00     0.074 A 
ATOM     59  C   UNL A   1      41.424  32.234  36.813  1.00  0.00     0.031 C 
ATOM     60  C   UNL A   1      39.687  33.470  35.549  1.00  0.00     0.037 A 
BRANCH  47  61
ATOM     61  C   UNL A   1      36.239  33.257  30.440  1.00  0.00     0.057 A 
ATOM     62  C   UNL A   1      36.534  34.009  29.298  1.00  0.00     0.134 A 
ATOM     63  C   UNL A   1      34.890  33.080  30.771  1.00  0.00     0.134 A 
ATOM     64  F   UNL A   1      37.808  34.226  28.937  1.00  0.00    -0.206 F 
ATOM     65  C   UNL A   1      35.523  34.574  28.518  1.00  0.00     0.040 A 
ATOM     66  C   UNL A   1      33.870  33.627  29.993  1.00  0.00     0.040 A 
ATOM     67  F   UNL A   1      34.544  32.366  31.854  1.00  0.00    -0.206 F 
ATOM     68  C   UNL A   1      34.186  34.379  28.863  1.00  0.00     0.006 A 
ENDBRANCH  47  61
BRANCH  48  69
ATOM     69  C   UNL A   1      43.343  28.663  35.677  1.00  0.00     0.057 A 
ATOM     70  C   UNL A   1      43.024  27.639  36.575  1.00  0.00     0.134 A 
ATOM     71  C   UNL A   1      44.693  29.000  35.527  1.00  0.00     0.134 A 
ATOM     72  F   UNL A   1      41.745  27.290  36.773  1.00  0.00    -0.206 F 
ATOM     73  C   UNL A   1      44.014  26.973  37.299  1.00  0.00     0.040 A 
ATOM     74  C   UNL A   1      45.694  28.330  36.231  1.00  0.00     0.040 A 
ATOM     75  F   UNL A   1      45.058  29.974  34.679  1.00  0.00    -0.206 F 
ATOM     76  C   UNL A   1      45.354  27.314  37.122  1.00  0.00     0.006 A 
ENDBRANCH  48  69
BRANCH  60  77
ATOM     77  C   UNL A   1      39.707  34.501  36.631  1.00  0.00     0.057 A 
ATOM     78  C   UNL A   1      38.936  34.350  37.790  1.00  0.00     0.134 A 
ATOM     79  C   UNL A   1      40.514  35.639  36.526  1.00  0.00     0.134 A 
ATOM     80  F   UNL A   1      38.134  33.286  37.940  1.00  0.00    -0.206 F 
ATOM     81  C   UNL A   1      38.960  35.306  38.806  1.00  0.00     0.040 A 
ATOM     82  C   UNL A   1      40.554  36.596  37.540  1.00  0.00     0.040 A 
ATOM     83  F   UNL A   1      41.273  35.837  35.439  1.00  0.00    -0.206 F 
ATOM     84  C   UNL A   1      39.773  36.432  38.683  1.00  0.00     0.006 A 
ENDBRANCH  60  77
ENDBRANCH  34  35
ENDBRANCH  27  29
ENDBRANCH  26  27
ENDBRANCH  25  26
ENDBRANCH   1  25
TORSDOF 15
ENDMDL
