MODEL 1
REMARK VINA RESULT:      -9.4      0.000      0.000
REMARK SMILES CS(=O)(=O)c1ccc(/C=C(/C(=O)OCCOC(=O)c2ccc(-c3c4nc(c(-c5c(F)cccc5F)c5ccc([nH]5)c(-c5c(F)cccc5F)c5nc(c(-c6c(F)cccc6F)c6ccc3[nH]6)C=C5)C=C4)cc2)c2cccc(-c3ccc(S(C)(=O)=O)cc3)c2)cc1
REMARK SMILES IDX 14 1 13 2 11 3 12 4 10 5 9 6 8 7 5 8 6 9 90 10 7 11 89 12
REMARK SMILES IDX 2 13 1 14 3 15 4 16 73 17 74 18 88 19 75 20 77 21 76 22
REMARK SMILES IDX 78 23 79 24 87 25 80 26 86 27 81 28 82 29 83 30 84 31 85 32
REMARK SMILES IDX 15 33 16 34 17 35 18 36 19 37 20 38 72 39 21 40 71 41 22 42
REMARK SMILES IDX 23 43 24 44 65 45 25 46 70 47 64 48 66 49 26 50 69 51 63 52
REMARK SMILES IDX 62 53 27 55 53 56 36 57 52 58 37 59 40 60 51 61 67 62 38 63
REMARK SMILES IDX 39 64 50 66 68 67 41 68 28 69 29 70 34 71 30 72 31 73 33 74
REMARK SMILES IDX 35 75 32 76 54 77 55 78 60 79 56 80 57 81 59 82 61 83 58 84
REMARK SMILES IDX 42 85 43 86 48 87 44 88 45 89 47 90 49 91 46 92
REMARK H PARENT 66 54 40 65
REMARK Flexibility Score: inf
ROOT
ATOM      1  C   UNL A   1      41.255  20.297  26.169  1.00  0.00     0.275 C 
ENDROOT
BRANCH   1   2
ATOM      2  O   UNL A   1      41.960  21.251  26.991  1.00  0.00    -0.458 OA
BRANCH   2   3
ATOM      3  C   UNL A   1      42.786  22.096  26.322  1.00  0.00     0.338 C 
ATOM      4  O   UNL A   1      43.012  22.069  25.119  1.00  0.00    -0.246 OA
BRANCH   3   5
ATOM      5  C   UNL A   1      43.383  23.122  27.226  1.00  0.00     0.067 C 
ATOM      6  C   UNL A   1      42.918  23.215  28.493  1.00  0.00     0.024 C 
BRANCH   6   7
ATOM      7  C   UNL A   1      43.560  23.916  29.632  1.00  0.00    -0.025 A 
ATOM      8  C   UNL A   1      44.316  25.378  31.902  1.00  0.00     0.067 A 
ATOM      9  C   UNL A   1      44.415  23.990  31.912  1.00  0.00     0.021 A 
ATOM     10  C   UNL A   1      43.921  26.052  30.747  1.00  0.00     0.021 A 
ATOM     11  C   UNL A   1      44.084  23.273  30.761  1.00  0.00     0.009 A 
ATOM     12  C   UNL A   1      43.544  25.319  29.618  1.00  0.00     0.009 A 
BRANCH   8  13
ATOM     13  S   UNL A   1      44.612  26.270  33.407  1.00  0.00     0.175 S 
ATOM     14  C   UNL A   1      46.127  27.127  33.080  1.00  0.00     0.163 C 
ATOM     15  O   UNL A   1      44.858  25.295  34.447  1.00  0.00    -0.224 OA
ATOM     16  O   UNL A   1      43.558  27.263  33.543  1.00  0.00    -0.224 OA
ENDBRANCH   8  13
ENDBRANCH   6   7
BRANCH   5  17
ATOM     17  C   UNL A   1      44.565  23.866  26.750  1.00  0.00    -0.010 A 
ATOM     18  C   UNL A   1      44.472  24.597  25.557  1.00  0.00     0.009 A 
ATOM     19  C   UNL A   1      45.715  23.985  27.542  1.00  0.00     0.017 A 
ATOM     20  C   UNL A   1      45.518  25.425  25.159  1.00  0.00     0.001 A 
ATOM     21  C   UNL A   1      46.755  24.864  27.188  1.00  0.00    -0.018 A 
ATOM     22  C   UNL A   1      46.651  25.550  25.965  1.00  0.00     0.009 A 
BRANCH  21  23
ATOM     23  C   UNL A   1      47.843  25.164  28.140  1.00  0.00    -0.018 A 
ATOM     24  C   UNL A   1      47.533  25.527  29.466  1.00  0.00     0.010 A 
ATOM     25  C   UNL A   1      49.198  25.007  27.800  1.00  0.00     0.010 A 
ATOM     26  C   UNL A   1      48.530  25.707  30.424  1.00  0.00     0.021 A 
ATOM     27  C   UNL A   1      50.207  25.189  28.754  1.00  0.00     0.021 A 
ATOM     28  C   UNL A   1      49.865  25.538  30.060  1.00  0.00     0.067 A 
BRANCH  28  29
ATOM     29  S   UNL A   1      51.120  25.726  31.301  1.00  0.00     0.175 S 
ATOM     30  C   UNL A   1      52.534  26.280  30.384  1.00  0.00     0.163 C 
ATOM     31  O   UNL A   1      50.702  26.799  32.180  1.00  0.00    -0.224 OA
ATOM     32  O   UNL A   1      51.429  24.408  31.826  1.00  0.00    -0.224 OA
ENDBRANCH  28  29
ENDBRANCH  21  23
ENDBRANCH   5  17
ENDBRANCH   3   5
ENDBRANCH   2   3
ENDBRANCH   1   2
BRANCH   1  33
ATOM     33  C   UNL A   1      39.823  20.763  25.910  1.00  0.00     0.275 C 
BRANCH  33  34
ATOM     34  O   UNL A   1      39.450  21.760  26.878  1.00  0.00    -0.458 OA
BRANCH  34  35
ATOM     35  C   UNL A   1      38.914  22.896  26.381  1.00  0.00     0.338 C 
ATOM     36  O   UNL A   1      37.938  23.000  25.655  1.00  0.00    -0.246 OA
BRANCH  35  37
ATOM     37  C   UNL A   1      39.655  24.073  26.872  1.00  0.00     0.060 A 
ATOM     38  C   UNL A   1      39.569  24.436  28.210  1.00  0.00     0.016 A 
ATOM     39  C   UNL A   1      40.282  24.928  25.965  1.00  0.00     0.016 A 
ATOM     40  C   UNL A   1      39.972  25.710  28.608  1.00  0.00     0.010 A 
ATOM     41  C   UNL A   1      40.804  26.154  26.402  1.00  0.00     0.010 A 
ATOM     42  C   UNL A   1      40.602  26.596  27.721  1.00  0.00    -0.014 A 
BRANCH  42  43
ATOM     43  C   UNL A   1      40.992  27.977  28.157  1.00  0.00     0.031 A 
ATOM     44  C   UNL A   1      42.429  28.446  28.067  1.00  0.00     0.074 A 
ATOM     45  C   UNL A   1      40.066  28.848  28.613  1.00  0.00     0.049 A 
ATOM     46  N   UNL A   1      42.991  29.504  28.600  1.00  0.00    -0.248 NA
ATOM     47  C   UNL A   1      43.360  27.613  27.290  1.00  0.00     0.031 C 
ATOM     48  C   UNL A   1      38.630  28.589  28.720  1.00  0.00     0.029 A 
ATOM     49  N   UNL A   1      40.196  30.143  29.060  1.00  0.00    -0.354 N 
ATOM     50  C   UNL A   1      44.346  29.414  28.301  1.00  0.00     0.074 A 
ATOM     51  C   UNL A   1      44.522  28.209  27.520  1.00  0.00     0.031 C 
ATOM     52  C   UNL A   1      38.006  29.704  29.122  1.00  0.00     0.029 A 
ATOM     53  C   UNL A   1      39.005  30.716  29.437  1.00  0.00     0.049 A 
ATOM     54  H   UNL A   1      41.059  30.615  29.105  1.00  0.00     0.167 HD
ATOM     55  C   UNL A   1      45.351  30.255  28.652  1.00  0.00     0.037 A 
ATOM     56  C   UNL A   1      38.733  31.893  30.032  1.00  0.00     0.037 A 
ATOM     57  C   UNL A   1      45.169  31.503  29.349  1.00  0.00     0.049 A 
ATOM     58  C   UNL A   1      39.858  32.799  30.427  1.00  0.00     0.074 A 
ATOM     59  C   UNL A   1      46.128  32.432  29.719  1.00  0.00     0.029 A 
ATOM     60  N   UNL A   1      43.946  32.010  29.760  1.00  0.00    -0.354 N 
ATOM     61  N   UNL A   1      41.144  32.650  30.230  1.00  0.00    -0.248 NA
ATOM     62  C   UNL A   1      39.497  34.019  31.164  1.00  0.00     0.031 C 
ATOM     63  C   UNL A   1      45.488  33.487  30.381  1.00  0.00     0.029 A 
ATOM     64  C   UNL A   1      44.127  33.232  30.387  1.00  0.00     0.049 A 
ATOM     65  H   UNL A   1      43.077  31.567  29.625  1.00  0.00     0.167 HD
ATOM     66  C   UNL A   1      41.747  33.750  30.825  1.00  0.00     0.074 A 
ATOM     67  C   UNL A   1      40.683  34.575  31.360  1.00  0.00     0.031 C 
ATOM     68  C   UNL A   1      43.066  34.041  30.928  1.00  0.00     0.037 A 
BRANCH  55  69
ATOM     69  C   UNL A   1      46.760  29.842  28.323  1.00  0.00     0.057 A 
ATOM     70  C   UNL A   1      47.604  29.235  29.260  1.00  0.00     0.134 A 
ATOM     71  C   UNL A   1      47.250  30.000  27.019  1.00  0.00     0.134 A 
ATOM     72  F   UNL A   1      47.201  29.063  30.527  1.00  0.00    -0.206 F 
ATOM     73  C   UNL A   1      48.892  28.814  28.915  1.00  0.00     0.040 A 
ATOM     74  C   UNL A   1      48.524  29.561  26.657  1.00  0.00     0.040 A 
ATOM     75  F   UNL A   1      46.488  30.564  26.069  1.00  0.00    -0.206 F 
ATOM     76  C   UNL A   1      49.352  28.970  27.608  1.00  0.00     0.006 A 
ENDBRANCH  55  69
BRANCH  56  77
ATOM     77  C   UNL A   1      37.326  32.240  30.357  1.00  0.00     0.057 A 
ATOM     78  C   UNL A   1      36.752  31.871  31.577  1.00  0.00     0.134 A 
ATOM     79  C   UNL A   1      36.534  32.977  29.466  1.00  0.00     0.134 A 
ATOM     80  F   UNL A   1      37.452  31.141  32.460  1.00  0.00    -0.206 F 
ATOM     81  C   UNL A   1      35.443  32.226  31.905  1.00  0.00     0.040 A 
ATOM     82  C   UNL A   1      35.235  33.365  29.793  1.00  0.00     0.040 A 
ATOM     83  F   UNL A   1      37.026  33.360  28.279  1.00  0.00    -0.206 F 
ATOM     84  C   UNL A   1      34.685  32.987  31.015  1.00  0.00     0.006 A 
ENDBRANCH  56  77
BRANCH  68  85
ATOM     85  C   UNL A   1      43.427  35.312  31.635  1.00  0.00     0.057 A 
ATOM     86  C   UNL A   1      43.555  35.364  33.029  1.00  0.00     0.134 A 
ATOM     87  C   UNL A   1      43.655  36.491  30.918  1.00  0.00     0.134 A 
ATOM     88  F   UNL A   1      43.332  34.270  33.774  1.00  0.00    -0.206 F 
ATOM     89  C   UNL A   1      43.875  36.553  33.688  1.00  0.00     0.040 A 
ATOM     90  C   UNL A   1      43.997  37.681  31.563  1.00  0.00     0.040 A 
ATOM     91  F   UNL A   1      43.552  36.507  29.580  1.00  0.00    -0.206 F 
ATOM     92  C   UNL A   1      44.102  37.715  32.952  1.00  0.00     0.006 A 
ENDBRANCH  68  85
ENDBRANCH  42  43
ENDBRANCH  35  37
ENDBRANCH  34  35
ENDBRANCH  33  34
ENDBRANCH   1  33
TORSDOF 16
ENDMDL
MODEL 2
REMARK VINA RESULT:      -9.3      4.158      9.848
REMARK SMILES CS(=O)(=O)c1ccc(/C=C(/C(=O)OCCOC(=O)c2ccc(-c3c4nc(c(-c5c(F)cccc5F)c5ccc([nH]5)c(-c5c(F)cccc5F)c5nc(c(-c6c(F)cccc6F)c6ccc3[nH]6)C=C5)C=C4)cc2)c2cccc(-c3ccc(S(C)(=O)=O)cc3)c2)cc1
REMARK SMILES IDX 14 1 13 2 11 3 12 4 10 5 9 6 8 7 5 8 6 9 90 10 7 11 89 12
REMARK SMILES IDX 2 13 1 14 3 15 4 16 73 17 74 18 88 19 75 20 77 21 76 22
REMARK SMILES IDX 78 23 79 24 87 25 80 26 86 27 81 28 82 29 83 30 84 31 85 32
REMARK SMILES IDX 15 33 16 34 17 35 18 36 19 37 20 38 72 39 21 40 71 41 22 42
REMARK SMILES IDX 23 43 24 44 65 45 25 46 70 47 64 48 66 49 26 50 69 51 63 52
REMARK SMILES IDX 62 53 27 55 53 56 36 57 52 58 37 59 40 60 51 61 67 62 38 63
REMARK SMILES IDX 39 64 50 66 68 67 41 68 28 69 29 70 34 71 30 72 31 73 33 74
REMARK SMILES IDX 35 75 32 76 54 77 55 78 60 79 56 80 57 81 59 82 61 83 58 84
REMARK SMILES IDX 42 85 43 86 48 87 44 88 45 89 47 90 49 91 46 92
REMARK H PARENT 66 54 40 65
REMARK Flexibility Score: inf
ROOT
ATOM      1  C   UNL A   1      35.812  34.669  32.845  1.00  0.00     0.275 C 
ENDROOT
BRANCH   1   2
ATOM      2  O   UNL A   1      36.982  34.986  33.629  1.00  0.00    -0.458 OA
BRANCH   2   3
ATOM      3  C   UNL A   1      38.167  34.609  33.083  1.00  0.00     0.338 C 
ATOM      4  O   UNL A   1      38.409  34.536  31.885  1.00  0.00    -0.246 OA
BRANCH   3   5
ATOM      5  C   UNL A   1      39.193  34.319  34.127  1.00  0.00     0.067 C 
ATOM      6  C   UNL A   1      39.741  35.357  34.800  1.00  0.00     0.024 C 
BRANCH   6   7
ATOM      7  C   UNL A   1      40.516  35.294  36.063  1.00  0.00    -0.025 A 
ATOM      8  C   UNL A   1      41.968  35.667  38.432  1.00  0.00     0.067 A 
ATOM      9  C   UNL A   1      40.674  35.159  38.490  1.00  0.00     0.021 A 
ATOM     10  C   UNL A   1      42.577  35.917  37.203  1.00  0.00     0.021 A 
ATOM     11  C   UNL A   1      39.976  34.929  37.304  1.00  0.00     0.009 A 
ATOM     12  C   UNL A   1      41.849  35.731  36.024  1.00  0.00     0.009 A 
BRANCH   8  13
ATOM     13  S   UNL A   1      42.797  36.079  39.947  1.00  0.00     0.175 S 
ATOM     14  C   UNL A   1      41.990  37.571  40.457  1.00  0.00     0.163 C 
ATOM     15  O   UNL A   1      44.169  36.396  39.618  1.00  0.00    -0.224 OA
ATOM     16  O   UNL A   1      42.477  35.044  40.917  1.00  0.00    -0.224 OA
ENDBRANCH   8  13
ENDBRANCH   6   7
BRANCH   5  17
ATOM     17  C   UNL A   1      39.433  32.910  34.494  1.00  0.00    -0.010 A 
ATOM     18  C   UNL A   1      38.455  32.222  35.225  1.00  0.00     0.009 A 
ATOM     19  C   UNL A   1      40.538  32.208  33.991  1.00  0.00     0.017 A 
ATOM     20  C   UNL A   1      38.585  30.855  35.458  1.00  0.00     0.001 A 
ATOM     21  C   UNL A   1      40.655  30.816  34.163  1.00  0.00    -0.018 A 
ATOM     22  C   UNL A   1      39.680  30.163  34.938  1.00  0.00     0.009 A 
BRANCH  21  23
ATOM     23  C   UNL A   1      41.684  30.052  33.432  1.00  0.00    -0.018 A 
ATOM     24  C   UNL A   1      42.987  30.574  33.306  1.00  0.00     0.010 A 
ATOM     25  C   UNL A   1      41.442  28.762  32.929  1.00  0.00     0.010 A 
ATOM     26  C   UNL A   1      44.016  29.835  32.722  1.00  0.00     0.021 A 
ATOM     27  C   UNL A   1      42.467  28.012  32.339  1.00  0.00     0.021 A 
ATOM     28  C   UNL A   1      43.747  28.556  32.240  1.00  0.00     0.067 A 
BRANCH  28  29
ATOM     29  S   UNL A   1      45.076  27.609  31.541  1.00  0.00     0.175 S 
ATOM     30  C   UNL A   1      46.394  27.812  32.710  1.00  0.00     0.163 C 
ATOM     31  O   UNL A   1      44.670  26.218  31.554  1.00  0.00    -0.224 OA
ATOM     32  O   UNL A   1      45.483  28.256  30.306  1.00  0.00    -0.224 OA
ENDBRANCH  28  29
ENDBRANCH  21  23
ENDBRANCH   5  17
ENDBRANCH   3   5
ENDBRANCH   2   3
ENDBRANCH   1   2
BRANCH   1  33
ATOM     33  C   UNL A   1      34.991  33.573  33.523  1.00  0.00     0.275 C 
BRANCH  33  34
ATOM     34  O   UNL A   1      35.399  32.282  33.033  1.00  0.00    -0.458 OA
BRANCH  34  35
ATOM     35  C   UNL A   1      35.193  32.058  31.716  1.00  0.00     0.338 C 
ATOM     36  O   UNL A   1      34.272  32.468  31.028  1.00  0.00    -0.246 OA
BRANCH  35  37
ATOM     37  C   UNL A   1      36.292  31.249  31.154  1.00  0.00     0.060 A 
ATOM     38  C   UNL A   1      37.140  30.549  32.004  1.00  0.00     0.016 A 
ATOM     39  C   UNL A   1      36.597  31.340  29.796  1.00  0.00     0.016 A 
ATOM     40  C   UNL A   1      38.359  30.073  31.524  1.00  0.00     0.010 A 
ATOM     41  C   UNL A   1      37.764  30.742  29.297  1.00  0.00     0.010 A 
ATOM     42  C   UNL A   1      38.699  30.151  30.165  1.00  0.00    -0.014 A 
BRANCH  42  43
ATOM     43  C   UNL A   1      40.033  29.671  29.675  1.00  0.00     0.031 A 
ATOM     44  C   UNL A   1      41.236  30.591  29.662  1.00  0.00     0.074 A 
ATOM     45  C   UNL A   1      40.203  28.397  29.263  1.00  0.00     0.049 A 
ATOM     46  N   UNL A   1      42.396  30.431  29.072  1.00  0.00    -0.248 NA
ATOM     47  C   UNL A   1      41.118  31.861  30.395  1.00  0.00     0.031 C 
ATOM     48  C   UNL A   1      39.173  27.357  29.254  1.00  0.00     0.029 A 
ATOM     49  N   UNL A   1      41.319  27.751  28.781  1.00  0.00    -0.354 N 
ATOM     50  C   UNL A   1      43.104  31.610  29.285  1.00  0.00     0.074 A 
ATOM     51  C   UNL A   1      42.253  32.470  30.077  1.00  0.00     0.031 C 
ATOM     52  C   UNL A   1      39.716  26.195  28.870  1.00  0.00     0.029 A 
ATOM     53  C   UNL A   1      41.097  26.430  28.469  1.00  0.00     0.049 A 
ATOM     54  H   UNL A   1      42.192  28.191  28.670  1.00  0.00     0.167 HD
ATOM     55  C   UNL A   1      44.345  31.945  28.852  1.00  0.00     0.037 A 
ATOM     56  C   UNL A   1      41.880  25.514  27.869  1.00  0.00     0.037 A 
ATOM     57  C   UNL A   1      45.232  31.058  28.142  1.00  0.00     0.049 A 
ATOM     58  C   UNL A   1      43.241  25.910  27.384  1.00  0.00     0.074 A 
ATOM     59  C   UNL A   1      46.519  31.305  27.691  1.00  0.00     0.029 A 
ATOM     60  N   UNL A   1      44.937  29.747  27.801  1.00  0.00    -0.354 N 
ATOM     61  N   UNL A   1      43.855  27.060  27.500  1.00  0.00    -0.248 NA
ATOM     62  C   UNL A   1      44.002  24.890  26.646  1.00  0.00     0.031 C 
ATOM     63  C   UNL A   1      46.990  30.153  27.050  1.00  0.00     0.029 A 
ATOM     64  C   UNL A   1      46.012  29.178  27.138  1.00  0.00     0.049 A 
ATOM     65  H   UNL A   1      44.088  29.290  28.001  1.00  0.00     0.167 HD
ATOM     66  C   UNL A   1      45.069  26.908  26.844  1.00  0.00     0.074 A 
ATOM     67  C   UNL A   1      45.119  25.543  26.362  1.00  0.00     0.031 C 
ATOM     68  C   UNL A   1      46.049  27.824  26.650  1.00  0.00     0.037 A 
BRANCH  55  69
ATOM     69  C   UNL A   1      44.818  33.351  29.097  1.00  0.00     0.057 A 
ATOM     70  C   UNL A   1      45.563  33.708  30.226  1.00  0.00     0.134 A 
ATOM     71  C   UNL A   1      44.574  34.350  28.143  1.00  0.00     0.134 A 
ATOM     72  F   UNL A   1      45.823  32.805  31.183  1.00  0.00    -0.206 F 
ATOM     73  C   UNL A   1      46.035  35.012  30.407  1.00  0.00     0.040 A 
ATOM     74  C   UNL A   1      45.062  35.648  28.299  1.00  0.00     0.040 A 
ATOM     75  F   UNL A   1      43.876  34.072  27.031  1.00  0.00    -0.206 F 
ATOM     76  C   UNL A   1      45.791  35.983  29.437  1.00  0.00     0.006 A 
ENDBRANCH  55  69
BRANCH  56  77
ATOM     77  C   UNL A   1      41.354  24.146  27.629  1.00  0.00     0.057 A 
ATOM     78  C   UNL A   1      41.777  23.061  28.401  1.00  0.00     0.134 A 
ATOM     79  C   UNL A   1      40.393  23.901  26.639  1.00  0.00     0.134 A 
ATOM     80  F   UNL A   1      42.716  23.229  29.345  1.00  0.00    -0.206 F 
ATOM     81  C   UNL A   1      41.260  21.780  28.204  1.00  0.00     0.040 A 
ATOM     82  C   UNL A   1      39.845  22.632  26.452  1.00  0.00     0.040 A 
ATOM     83  F   UNL A   1      39.947  24.900  25.863  1.00  0.00    -0.206 F 
ATOM     84  C   UNL A   1      40.281  21.566  27.235  1.00  0.00     0.006 A 
ENDBRANCH  56  77
BRANCH  68  85
ATOM     85  C   UNL A   1      47.261  27.370  25.894  1.00  0.00     0.057 A 
ATOM     86  C   UNL A   1      48.345  26.765  26.542  1.00  0.00     0.134 A 
ATOM     87  C   UNL A   1      47.342  27.532  24.506  1.00  0.00     0.134 A 
ATOM     88  F   UNL A   1      48.334  26.598  27.874  1.00  0.00    -0.206 F 
ATOM     89  C   UNL A   1      49.480  26.358  25.838  1.00  0.00     0.040 A 
ATOM     90  C   UNL A   1      48.462  27.109  23.788  1.00  0.00     0.040 A 
ATOM     91  F   UNL A   1      46.335  28.099  23.826  1.00  0.00    -0.206 F 
ATOM     92  C   UNL A   1      49.537  26.526  24.456  1.00  0.00     0.006 A 
ENDBRANCH  68  85
ENDBRANCH  42  43
ENDBRANCH  35  37
ENDBRANCH  34  35
ENDBRANCH  33  34
ENDBRANCH   1  33
TORSDOF 16
ENDMDL
MODEL 3
REMARK VINA RESULT:      -9.3      3.411      8.457
REMARK SMILES CS(=O)(=O)c1ccc(/C=C(/C(=O)OCCOC(=O)c2ccc(-c3c4nc(c(-c5c(F)cccc5F)c5ccc([nH]5)c(-c5c(F)cccc5F)c5nc(c(-c6c(F)cccc6F)c6ccc3[nH]6)C=C5)C=C4)cc2)c2cccc(-c3ccc(S(C)(=O)=O)cc3)c2)cc1
REMARK SMILES IDX 14 1 13 2 11 3 12 4 10 5 9 6 8 7 5 8 6 9 90 10 7 11 89 12
REMARK SMILES IDX 2 13 1 14 3 15 4 16 73 17 74 18 88 19 75 20 77 21 76 22
REMARK SMILES IDX 78 23 79 24 87 25 80 26 86 27 81 28 82 29 83 30 84 31 85 32
REMARK SMILES IDX 15 33 16 34 17 35 18 36 19 37 20 38 72 39 21 40 71 41 22 42
REMARK SMILES IDX 23 43 24 44 65 45 25 46 70 47 64 48 66 49 26 50 69 51 63 52
REMARK SMILES IDX 62 53 27 55 53 56 36 57 52 58 37 59 40 60 51 61 67 62 38 63
REMARK SMILES IDX 39 64 50 66 68 67 41 68 28 69 29 70 34 71 30 72 31 73 33 74
REMARK SMILES IDX 35 75 32 76 54 77 55 78 60 79 56 80 57 81 59 82 61 83 58 84
REMARK SMILES IDX 42 85 43 86 48 87 44 88 45 89 47 90 49 91 46 92
REMARK H PARENT 66 54 40 65
REMARK Flexibility Score: inf
ROOT
ATOM      1  C   UNL A   1      44.571  22.869  35.686  1.00  0.00     0.275 C 
ENDROOT
BRANCH   1   2
ATOM      2  O   UNL A   1      44.395  22.818  34.254  1.00  0.00    -0.458 OA
BRANCH   2   3
ATOM      3  C   UNL A   1      43.911  23.954  33.688  1.00  0.00     0.338 C 
ATOM      4  O   UNL A   1      43.096  24.713  34.195  1.00  0.00    -0.246 OA
BRANCH   3   5
ATOM      5  C   UNL A   1      44.524  24.214  32.352  1.00  0.00     0.067 C 
ATOM      6  C   UNL A   1      43.995  23.598  31.269  1.00  0.00     0.024 C 
BRANCH   6   7
ATOM      7  C   UNL A   1      44.224  23.944  29.844  1.00  0.00    -0.025 A 
ATOM      8  C   UNL A   1      44.787  25.039  27.325  1.00  0.00     0.067 A 
ATOM      9  C   UNL A   1      45.616  24.051  27.848  1.00  0.00     0.021 A 
ATOM     10  C   UNL A   1      43.636  25.432  28.006  1.00  0.00     0.021 A 
ATOM     11  C   UNL A   1      45.301  23.476  29.080  1.00  0.00     0.009 A 
ATOM     12  C   UNL A   1      43.359  24.884  29.262  1.00  0.00     0.009 A 
BRANCH   8  13
ATOM     13  S   UNL A   1      45.268  25.856  25.825  1.00  0.00     0.175 S 
ATOM     14  C   UNL A   1      44.535  27.460  25.984  1.00  0.00     0.163 C 
ATOM     15  O   UNL A   1      44.619  25.168  24.730  1.00  0.00    -0.224 OA
ATOM     16  O   UNL A   1      46.713  26.020  25.858  1.00  0.00    -0.224 OA
ENDBRANCH   8  13
ENDBRANCH   6   7
BRANCH   5  17
ATOM     17  C   UNL A   1      45.562  25.257  32.254  1.00  0.00    -0.010 A 
ATOM     18  C   UNL A   1      46.826  25.012  32.809  1.00  0.00     0.009 A 
ATOM     19  C   UNL A   1      45.360  26.411  31.483  1.00  0.00     0.017 A 
ATOM     20  C   UNL A   1      47.868  25.913  32.605  1.00  0.00     0.001 A 
ATOM     21  C   UNL A   1      46.417  27.300  31.214  1.00  0.00    -0.018 A 
ATOM     22  C   UNL A   1      47.661  27.049  31.820  1.00  0.00     0.009 A 
BRANCH  21  23
ATOM     23  C   UNL A   1      46.261  28.373  30.212  1.00  0.00    -0.018 A 
ATOM     24  C   UNL A   1      47.048  28.361  29.045  1.00  0.00     0.010 A 
ATOM     25  C   UNL A   1      45.275  29.368  30.331  1.00  0.00     0.010 A 
ATOM     26  C   UNL A   1      46.853  29.290  28.023  1.00  0.00     0.021 A 
ATOM     27  C   UNL A   1      45.072  30.308  29.313  1.00  0.00     0.021 A 
ATOM     28  C   UNL A   1      45.864  30.262  28.166  1.00  0.00     0.067 A 
BRANCH  28  29
ATOM     29  S   UNL A   1      45.595  31.410  26.838  1.00  0.00     0.175 S 
ATOM     30  C   UNL A   1      45.268  32.941  27.670  1.00  0.00     0.163 C 
ATOM     31  O   UNL A   1      46.846  31.542  26.121  1.00  0.00    -0.224 OA
ATOM     32  O   UNL A   1      44.377  31.018  26.151  1.00  0.00    -0.224 OA
ENDBRANCH  28  29
ENDBRANCH  21  23
ENDBRANCH   5  17
ENDBRANCH   3   5
ENDBRANCH   2   3
ENDBRANCH   1   2
BRANCH   1  33
ATOM     33  C   UNL A   1      45.876  23.579  36.043  1.00  0.00     0.275 C 
BRANCH  33  34
ATOM     34  O   UNL A   1      45.601  24.719  36.876  1.00  0.00    -0.458 OA
BRANCH  34  35
ATOM     35  C   UNL A   1      46.306  25.839  36.598  1.00  0.00     0.338 C 
ATOM     36  O   UNL A   1      47.512  25.999  36.695  1.00  0.00    -0.246 OA
BRANCH  35  37
ATOM     37  C   UNL A   1      45.412  26.899  36.094  1.00  0.00     0.060 A 
ATOM     38  C   UNL A   1      44.082  26.929  36.493  1.00  0.00     0.016 A 
ATOM     39  C   UNL A   1      45.847  27.748  35.076  1.00  0.00     0.016 A 
ATOM     40  C   UNL A   1      43.163  27.695  35.777  1.00  0.00     0.010 A 
ATOM     41  C   UNL A   1      44.939  28.613  34.449  1.00  0.00     0.010 A 
ATOM     42  C   UNL A   1      43.566  28.557  34.745  1.00  0.00    -0.014 A 
BRANCH  42  43
ATOM     43  C   UNL A   1      42.558  29.342  33.959  1.00  0.00     0.031 A 
ATOM     44  C   UNL A   1      42.013  30.655  34.483  1.00  0.00     0.074 A 
ATOM     45  C   UNL A   1      42.134  28.915  32.751  1.00  0.00     0.049 A 
ATOM     46  N   UNL A   1      40.983  31.350  34.064  1.00  0.00    -0.248 NA
ATOM     47  C   UNL A   1      42.703  31.257  35.634  1.00  0.00     0.031 C 
ATOM     48  C   UNL A   1      42.589  27.703  32.067  1.00  0.00     0.029 A 
ATOM     49  N   UNL A   1      41.230  29.464  31.871  1.00  0.00    -0.354 N 
ATOM     50  C   UNL A   1      40.850  32.415  34.950  1.00  0.00     0.074 A 
ATOM     51  C   UNL A   1      41.917  32.287  35.919  1.00  0.00     0.031 C 
ATOM     52  C   UNL A   1      42.027  27.642  30.852  1.00  0.00     0.029 A 
ATOM     53  C   UNL A   1      41.067  28.730  30.720  1.00  0.00     0.049 A 
ATOM     54  H   UNL A   1      40.747  30.303  32.047  1.00  0.00     0.167 HD
ATOM     55  C   UNL A   1      39.919  33.401  34.959  1.00  0.00     0.037 A 
ATOM     56  C   UNL A   1      40.204  28.861  29.696  1.00  0.00     0.037 A 
ATOM     57  C   UNL A   1      38.911  33.586  33.945  1.00  0.00     0.049 A 
ATOM     58  C   UNL A   1      39.173  29.947  29.733  1.00  0.00     0.074 A 
ATOM     59  C   UNL A   1      37.946  34.576  33.858  1.00  0.00     0.029 A 
ATOM     60  N   UNL A   1      38.754  32.779  32.828  1.00  0.00    -0.354 N 
ATOM     61  N   UNL A   1      38.993  30.883  30.631  1.00  0.00    -0.248 NA
ATOM     62  C   UNL A   1      38.198  29.970  28.633  1.00  0.00     0.031 C 
ATOM     63  C   UNL A   1      37.185  34.350  32.706  1.00  0.00     0.029 A 
ATOM     64  C   UNL A   1      37.702  33.243  32.055  1.00  0.00     0.049 A 
ATOM     65  H   UNL A   1      39.307  31.993  32.618  1.00  0.00     0.167 HD
ATOM     66  C   UNL A   1      37.882  31.600  30.212  1.00  0.00     0.074 A 
ATOM     67  C   UNL A   1      37.448  31.013  28.961  1.00  0.00     0.031 C 
ATOM     68  C   UNL A   1      37.269  32.646  30.818  1.00  0.00     0.037 A 
BRANCH  55  69
ATOM     69  C   UNL A   1      39.913  34.351  36.125  1.00  0.00     0.057 A 
ATOM     70  C   UNL A   1      40.611  35.563  36.112  1.00  0.00     0.134 A 
ATOM     71  C   UNL A   1      39.133  34.067  37.256  1.00  0.00     0.134 A 
ATOM     72  F   UNL A   1      41.384  35.892  35.066  1.00  0.00    -0.206 F 
ATOM     73  C   UNL A   1      40.548  36.453  37.189  1.00  0.00     0.040 A 
ATOM     74  C   UNL A   1      39.042  34.958  38.326  1.00  0.00     0.040 A 
ATOM     75  F   UNL A   1      38.429  32.927  37.328  1.00  0.00    -0.206 F 
ATOM     76  C   UNL A   1      39.755  36.154  38.297  1.00  0.00     0.006 A 
ENDBRANCH  55  69
BRANCH  56  77
ATOM     77  C   UNL A   1      40.237  27.881  28.581  1.00  0.00     0.057 A 
ATOM     78  C   UNL A   1      40.936  28.149  27.400  1.00  0.00     0.134 A 
ATOM     79  C   UNL A   1      39.594  26.640  28.684  1.00  0.00     0.134 A 
ATOM     80  F   UNL A   1      41.548  29.331  27.231  1.00  0.00    -0.206 F 
ATOM     81  C   UNL A   1      41.001  27.217  26.363  1.00  0.00     0.040 A 
ATOM     82  C   UNL A   1      39.676  25.687  27.669  1.00  0.00     0.040 A 
ATOM     83  F   UNL A   1      38.905  26.323  29.790  1.00  0.00    -0.206 F 
ATOM     84  C   UNL A   1      40.380  25.976  26.502  1.00  0.00     0.006 A 
ENDBRANCH  56  77
BRANCH  68  85
ATOM     85  C   UNL A   1      36.073  33.225  30.126  1.00  0.00     0.057 A 
ATOM     86  C   UNL A   1      36.205  34.056  29.006  1.00  0.00     0.134 A 
ATOM     87  C   UNL A   1      34.778  32.944  30.577  1.00  0.00     0.134 A 
ATOM     88  F   UNL A   1      37.420  34.376  28.538  1.00  0.00    -0.206 F 
ATOM     89  C   UNL A   1      35.090  34.608  28.373  1.00  0.00     0.040 A 
ATOM     90  C   UNL A   1      33.655  33.471  29.939  1.00  0.00     0.040 A 
ATOM     91  F   UNL A   1      34.584  32.150  31.641  1.00  0.00    -0.206 F 
ATOM     92  C   UNL A   1      33.809  34.311  28.837  1.00  0.00     0.006 A 
ENDBRANCH  68  85
ENDBRANCH  42  43
ENDBRANCH  35  37
ENDBRANCH  34  35
ENDBRANCH  33  34
ENDBRANCH   1  33
TORSDOF 16
ENDMDL
