MODEL 1
REMARK VINA RESULT:     -12.2      0.000      0.000
REMARK SMILES Cc1nc(C(=O)OCCOC(=O)c2ccc(-c3c4nc(c(-c5c(F)cccc5F)c5ccc([nH]5)c(-c5c(F)cccc5F)c5nc(c(-c6c(F)cccc6F)c6ccc3[nH]6)C=C5)C=C4)cc2)nn1-c1cccc(C(F)(F)F)c1
REMARK SMILES IDX 8 1 7 2 5 3 6 4 4 5 1 6 2 7 3 8 68 9 67 10 69 11 70 12 78 13
REMARK SMILES IDX 71 14 73 15 72 16 74 17 75 18 76 19 77 20 9 21 10 22 11 23
REMARK SMILES IDX 12 24 13 25 14 26 66 27 15 28 65 29 16 30 17 31 18 32 59 33
REMARK SMILES IDX 19 34 64 35 58 36 60 37 20 38 63 39 57 40 56 41 21 43 47 44
REMARK SMILES IDX 30 45 46 46 31 47 34 48 45 49 61 50 32 51 33 52 44 54 62 55
REMARK SMILES IDX 35 56 22 57 23 58 28 59 24 60 25 61 27 62 29 63 26 64 48 65
REMARK SMILES IDX 49 66 54 67 50 68 51 69 53 70 55 71 52 72 36 73 37 74 42 75
REMARK SMILES IDX 38 76 39 77 41 78 43 79 40 80
REMARK H PARENT 60 42 34 53
REMARK Flexibility Score: inf
ROOT
ATOM      1  C   UNL A   1      42.513  19.653  26.593  1.00  0.00     0.275 C 
ENDROOT
BRANCH   1   2
ATOM      2  O   UNL A   1      41.537  20.384  25.839  1.00  0.00    -0.456 OA
BRANCH   2   3
ATOM      3  C   UNL A   1      40.290  19.823  25.716  1.00  0.00     0.378 C 
ATOM      4  O   UNL A   1      40.087  18.611  25.656  1.00  0.00    -0.242 OA
BRANCH   3   5
ATOM      5  C   UNL A   1      39.224  20.841  25.742  1.00  0.00     0.260 A 
ATOM      6  C   UNL A   1      37.847  24.076  26.395  1.00  0.00     0.090 C 
ATOM      7  C   UNL A   1      38.241  22.719  25.946  1.00  0.00     0.130 A 
ATOM      8  N   UNL A   1      39.380  22.120  26.240  1.00  0.00    -0.206 NA
ATOM      9  N   UNL A   1      37.419  21.829  25.278  1.00  0.00    -0.217 N 
ATOM     10  N   UNL A   1      37.992  20.606  25.263  1.00  0.00    -0.138 NA
BRANCH   9  11
ATOM     11  C   UNL A   1      36.160  22.002  24.650  1.00  0.00     0.067 A 
ATOM     12  C   UNL A   1      36.000  23.097  23.787  1.00  0.00     0.028 A 
ATOM     13  C   UNL A   1      35.070  21.173  24.934  1.00  0.00     0.041 A 
ATOM     14  C   UNL A   1      34.773  23.342  23.178  1.00  0.00     0.003 A 
ATOM     15  C   UNL A   1      33.812  21.449  24.363  1.00  0.00     0.058 A 
ATOM     16  C   UNL A   1      33.683  22.526  23.469  1.00  0.00     0.013 A 
BRANCH  15  17
ATOM     17  C   UNL A   1      32.584  20.654  24.737  1.00  0.00     0.416 C 
ATOM     18  F   UNL A   1      32.853  19.695  25.666  1.00  0.00    -0.166 F 
ATOM     19  F   UNL A   1      31.602  21.430  25.273  1.00  0.00    -0.166 F 
ATOM     20  F   UNL A   1      32.015  20.004  23.684  1.00  0.00    -0.166 F 
ENDBRANCH  15  17
ENDBRANCH   9  11
ENDBRANCH   3   5
ENDBRANCH   2   3
ENDBRANCH   1   2
BRANCH   1  21
ATOM     21  C   UNL A   1      43.385  18.785  25.696  1.00  0.00     0.275 C 
BRANCH  21  22
ATOM     22  O   UNL A   1      43.559  19.384  24.412  1.00  0.00    -0.458 OA
BRANCH  22  23
ATOM     23  C   UNL A   1      44.817  19.782  24.121  1.00  0.00     0.338 C 
ATOM     24  O   UNL A   1      45.750  19.077  23.774  1.00  0.00    -0.246 OA
BRANCH  23  25
ATOM     25  C   UNL A   1      44.965  21.191  24.508  1.00  0.00     0.060 A 
ATOM     26  C   UNL A   1      45.813  21.472  25.582  1.00  0.00     0.016 A 
ATOM     27  C   UNL A   1      44.079  22.153  23.997  1.00  0.00     0.016 A 
ATOM     28  C   UNL A   1      45.643  22.662  26.258  1.00  0.00     0.010 A 
ATOM     29  C   UNL A   1      43.901  23.334  24.681  1.00  0.00     0.010 A 
ATOM     30  C   UNL A   1      44.633  23.540  25.844  1.00  0.00    -0.014 A 
BRANCH  30  31
ATOM     31  C   UNL A   1      44.422  24.738  26.623  1.00  0.00     0.031 A 
ATOM     32  C   UNL A   1      45.515  25.725  26.495  1.00  0.00     0.074 A 
ATOM     33  C   UNL A   1      43.298  24.974  27.323  1.00  0.00     0.049 A 
ATOM     34  N   UNL A   1      46.366  26.077  27.399  1.00  0.00    -0.248 NA
ATOM     35  C   UNL A   1      45.788  26.273  25.158  1.00  0.00     0.031 C 
ATOM     36  C   UNL A   1      42.030  24.242  27.305  1.00  0.00     0.029 A 
ATOM     37  N   UNL A   1      43.042  26.012  28.160  1.00  0.00    -0.354 N 
ATOM     38  C   UNL A   1      47.177  27.034  26.799  1.00  0.00     0.074 A 
ATOM     39  C   UNL A   1      46.887  26.990  25.390  1.00  0.00     0.031 C 
ATOM     40  C   UNL A   1      41.081  24.988  27.920  1.00  0.00     0.029 A 
ATOM     41  C   UNL A   1      41.705  26.174  28.485  1.00  0.00     0.049 A 
ATOM     42  H   UNL A   1      43.750  26.600  28.509  1.00  0.00     0.167 HD
ATOM     43  C   UNL A   1      47.857  27.945  27.547  1.00  0.00     0.037 A 
ATOM     44  C   UNL A   1      41.169  27.254  29.106  1.00  0.00     0.037 A 
ATOM     45  C   UNL A   1      47.967  27.517  28.919  1.00  0.00     0.049 A 
ATOM     46  C   UNL A   1      42.278  27.970  29.792  1.00  0.00     0.074 A 
ATOM     47  C   UNL A   1      48.514  26.414  29.548  1.00  0.00     0.029 A 
ATOM     48  N   UNL A   1      47.130  28.092  29.845  1.00  0.00    -0.354 N 
ATOM     49  N   UNL A   1      42.913  27.502  30.830  1.00  0.00    -0.248 NA
ATOM     50  C   UNL A   1      42.989  28.997  29.041  1.00  0.00     0.031 C 
ATOM     51  C   UNL A   1      47.609  26.107  30.607  1.00  0.00     0.029 A 
ATOM     52  C   UNL A   1      46.602  27.074  30.596  1.00  0.00     0.049 A 
ATOM     53  H   UNL A   1      46.945  29.053  29.949  1.00  0.00     0.167 HD
ATOM     54  C   UNL A   1      44.241  27.841  30.617  1.00  0.00     0.074 A 
ATOM     55  C   UNL A   1      44.215  28.832  29.544  1.00  0.00     0.031 C 
ATOM     56  C   UNL A   1      45.258  27.080  31.122  1.00  0.00     0.037 A 
BRANCH  43  57
ATOM     57  C   UNL A   1      48.078  29.376  27.127  1.00  0.00     0.057 A 
ATOM     58  C   UNL A   1      49.368  29.924  27.234  1.00  0.00     0.134 A 
ATOM     59  C   UNL A   1      47.044  30.312  26.917  1.00  0.00     0.134 A 
ATOM     60  F   UNL A   1      50.436  29.139  27.439  1.00  0.00    -0.206 F 
ATOM     61  C   UNL A   1      49.599  31.305  27.227  1.00  0.00     0.040 A 
ATOM     62  C   UNL A   1      47.271  31.689  26.855  1.00  0.00     0.040 A 
ATOM     63  F   UNL A   1      45.753  29.966  26.863  1.00  0.00    -0.206 F 
ATOM     64  C   UNL A   1      48.545  32.192  27.048  1.00  0.00     0.006 A 
ENDBRANCH  43  57
BRANCH  44  65
ATOM     65  C   UNL A   1      39.850  27.885  28.870  1.00  0.00     0.057 A 
ATOM     66  C   UNL A   1      38.888  27.952  29.888  1.00  0.00     0.134 A 
ATOM     67  C   UNL A   1      39.605  28.685  27.739  1.00  0.00     0.134 A 
ATOM     68  F   UNL A   1      39.050  27.259  31.024  1.00  0.00    -0.206 F 
ATOM     69  C   UNL A   1      37.765  28.786  29.800  1.00  0.00     0.040 A 
ATOM     70  C   UNL A   1      38.485  29.515  27.634  1.00  0.00     0.040 A 
ATOM     71  F   UNL A   1      40.490  28.760  26.735  1.00  0.00    -0.206 F 
ATOM     72  C   UNL A   1      37.567  29.581  28.676  1.00  0.00     0.006 A 
ENDBRANCH  44  65
BRANCH  56  73
ATOM     73  C   UNL A   1      44.911  26.001  32.108  1.00  0.00     0.057 A 
ATOM     74  C   UNL A   1      44.552  24.693  31.746  1.00  0.00     0.134 A 
ATOM     75  C   UNL A   1      45.103  26.247  33.472  1.00  0.00     0.134 A 
ATOM     76  F   UNL A   1      44.448  24.332  30.461  1.00  0.00    -0.206 F 
ATOM     77  C   UNL A   1      44.349  23.691  32.701  1.00  0.00     0.040 A 
ATOM     78  C   UNL A   1      44.937  25.248  34.433  1.00  0.00     0.040 A 
ATOM     79  F   UNL A   1      45.505  27.458  33.890  1.00  0.00    -0.206 F 
ATOM     80  C   UNL A   1      44.548  23.967  34.050  1.00  0.00     0.006 A 
ENDBRANCH  56  73
ENDBRANCH  30  31
ENDBRANCH  23  25
ENDBRANCH  22  23
ENDBRANCH  21  22
ENDBRANCH   1  21
TORSDOF 13
ENDMDL
MODEL 2
REMARK VINA RESULT:     -11.7      6.858     11.250
REMARK SMILES Cc1nc(C(=O)OCCOC(=O)c2ccc(-c3c4nc(c(-c5c(F)cccc5F)c5ccc([nH]5)c(-c5c(F)cccc5F)c5nc(c(-c6c(F)cccc6F)c6ccc3[nH]6)C=C5)C=C4)cc2)nn1-c1cccc(C(F)(F)F)c1
REMARK SMILES IDX 8 1 7 2 5 3 6 4 4 5 1 6 2 7 3 8 68 9 67 10 69 11 70 12 78 13
REMARK SMILES IDX 71 14 73 15 72 16 74 17 75 18 76 19 77 20 9 21 10 22 11 23
REMARK SMILES IDX 12 24 13 25 14 26 66 27 15 28 65 29 16 30 17 31 18 32 59 33
REMARK SMILES IDX 19 34 64 35 58 36 60 37 20 38 63 39 57 40 56 41 21 43 47 44
REMARK SMILES IDX 30 45 46 46 31 47 34 48 45 49 61 50 32 51 33 52 44 54 62 55
REMARK SMILES IDX 35 56 22 57 23 58 28 59 24 60 25 61 27 62 29 63 26 64 48 65
REMARK SMILES IDX 49 66 54 67 50 68 51 69 53 70 55 71 52 72 36 73 37 74 42 75
REMARK SMILES IDX 38 76 39 77 41 78 43 79 40 80
REMARK H PARENT 60 42 34 53
REMARK Flexibility Score: inf
ROOT
ATOM      1  C   UNL A   1      34.029  35.159  29.251  1.00  0.00     0.275 C 
ENDROOT
BRANCH   1   2
ATOM      2  O   UNL A   1      33.629  33.787  29.138  1.00  0.00    -0.456 OA
BRANCH   2   3
ATOM      3  C   UNL A   1      32.869  33.443  28.048  1.00  0.00     0.378 C 
ATOM      4  O   UNL A   1      32.077  34.206  27.497  1.00  0.00    -0.242 OA
BRANCH   3   5
ATOM      5  C   UNL A   1      33.172  32.081  27.573  1.00  0.00     0.260 A 
ATOM      6  C   UNL A   1      35.199  29.159  27.187  1.00  0.00     0.090 C 
ATOM      7  C   UNL A   1      34.165  30.213  27.321  1.00  0.00     0.130 A 
ATOM      8  N   UNL A   1      34.373  31.430  27.787  1.00  0.00    -0.206 NA
ATOM      9  N   UNL A   1      32.868  30.123  26.847  1.00  0.00    -0.217 N 
ATOM     10  N   UNL A   1      32.284  31.341  26.890  1.00  0.00    -0.138 NA
BRANCH   9  11
ATOM     11  C   UNL A   1      32.118  29.023  26.364  1.00  0.00     0.067 A 
ATOM     12  C   UNL A   1      31.873  27.956  27.242  1.00  0.00     0.028 A 
ATOM     13  C   UNL A   1      31.700  28.938  25.031  1.00  0.00     0.041 A 
ATOM     14  C   UNL A   1      31.181  26.829  26.808  1.00  0.00     0.003 A 
ATOM     15  C   UNL A   1      31.048  27.777  24.573  1.00  0.00     0.058 A 
ATOM     16  C   UNL A   1      30.776  26.737  25.479  1.00  0.00     0.013 A 
BRANCH  15  17
ATOM     17  C   UNL A   1      30.689  27.595  23.118  1.00  0.00     0.416 C 
ATOM     18  F   UNL A   1      30.634  26.282  22.760  1.00  0.00    -0.166 F 
ATOM     19  F   UNL A   1      29.470  28.118  22.811  1.00  0.00    -0.166 F 
ATOM     20  F   UNL A   1      31.573  28.178  22.262  1.00  0.00    -0.166 F 
ENDBRANCH  15  17
ENDBRANCH   9  11
ENDBRANCH   3   5
ENDBRANCH   2   3
ENDBRANCH   1   2
BRANCH   1  21
ATOM     21  C   UNL A   1      33.075  35.954  30.133  1.00  0.00     0.275 C 
BRANCH  21  22
ATOM     22  O   UNL A   1      32.582  35.155  31.208  1.00  0.00    -0.458 OA
BRANCH  22  23
ATOM     23  C   UNL A   1      33.015  35.505  32.439  1.00  0.00     0.338 C 
ATOM     24  O   UNL A   1      32.625  36.440  33.118  1.00  0.00    -0.246 OA
BRANCH  23  25
ATOM     25  C   UNL A   1      34.209  34.711  32.761  1.00  0.00     0.060 A 
ATOM     26  C   UNL A   1      35.417  35.400  32.885  1.00  0.00     0.016 A 
ATOM     27  C   UNL A   1      34.165  33.311  32.664  1.00  0.00     0.016 A 
ATOM     28  C   UNL A   1      36.592  34.695  32.732  1.00  0.00     0.010 A 
ATOM     29  C   UNL A   1      35.337  32.612  32.498  1.00  0.00     0.010 A 
ATOM     30  C   UNL A   1      36.531  33.323  32.461  1.00  0.00    -0.014 A 
BRANCH  30  31
ATOM     31  C   UNL A   1      37.775  32.627  32.219  1.00  0.00     0.031 A 
ATOM     32  C   UNL A   1      38.622  32.502  33.424  1.00  0.00     0.074 A 
ATOM     33  C   UNL A   1      38.089  32.067  31.038  1.00  0.00     0.049 A 
ATOM     34  N   UNL A   1      39.752  33.082  33.653  1.00  0.00    -0.248 NA
ATOM     35  C   UNL A   1      38.075  31.764  34.572  1.00  0.00     0.031 C 
ATOM     36  C   UNL A   1      37.240  31.850  29.866  1.00  0.00     0.029 A 
ATOM     37  N   UNL A   1      39.261  31.483  30.681  1.00  0.00    -0.354 N 
ATOM     38  C   UNL A   1      40.155  32.638  34.907  1.00  0.00     0.074 A 
ATOM     39  C   UNL A   1      39.020  31.973  35.489  1.00  0.00     0.031 C 
ATOM     40  C   UNL A   1      37.861  30.991  29.023  1.00  0.00     0.029 A 
ATOM     41  C   UNL A   1      39.194  30.710  29.533  1.00  0.00     0.049 A 
ATOM     42  H   UNL A   1      40.092  31.600  31.196  1.00  0.00     0.167 HD
ATOM     43  C   UNL A   1      41.466  32.657  35.269  1.00  0.00     0.037 A 
ATOM     44  C   UNL A   1      40.152  29.851  29.103  1.00  0.00     0.037 A 
ATOM     45  C   UNL A   1      42.229  33.545  34.428  1.00  0.00     0.049 A 
ATOM     46  C   UNL A   1      41.427  30.237  29.764  1.00  0.00     0.074 A 
ATOM     47  C   UNL A   1      42.166  34.895  34.137  1.00  0.00     0.029 A 
ATOM     48  N   UNL A   1      43.003  32.991  33.438  1.00  0.00    -0.354 N 
ATOM     49  N   UNL A   1      42.080  31.334  29.499  1.00  0.00    -0.248 NA
ATOM     50  C   UNL A   1      41.733  29.627  31.052  1.00  0.00     0.031 C 
ATOM     51  C   UNL A   1      42.471  34.988  32.747  1.00  0.00     0.029 A 
ATOM     52  C   UNL A   1      42.758  33.700  32.291  1.00  0.00     0.049 A 
ATOM     53  H   UNL A   1      43.619  32.228  33.534  1.00  0.00     0.167 HD
ATOM     54  C   UNL A   1      42.536  31.782  30.731  1.00  0.00     0.074 A 
ATOM     55  C   UNL A   1      42.365  30.648  31.637  1.00  0.00     0.031 C 
ATOM     56  C   UNL A   1      42.738  33.111  30.973  1.00  0.00     0.037 A 
BRANCH  43  57
ATOM     57  C   UNL A   1      42.115  31.595  36.120  1.00  0.00     0.057 A 
ATOM     58  C   UNL A   1      42.933  31.990  37.194  1.00  0.00     0.134 A 
ATOM     59  C   UNL A   1      42.221  30.237  35.755  1.00  0.00     0.134 A 
ATOM     60  F   UNL A   1      42.927  33.257  37.635  1.00  0.00    -0.206 F 
ATOM     61  C   UNL A   1      43.852  31.122  37.795  1.00  0.00     0.040 A 
ATOM     62  C   UNL A   1      43.097  29.349  36.383  1.00  0.00     0.040 A 
ATOM     63  F   UNL A   1      41.567  29.715  34.711  1.00  0.00    -0.206 F 
ATOM     64  C   UNL A   1      43.944  29.799  37.382  1.00  0.00     0.006 A 
ENDBRANCH  43  57
BRANCH  44  65
ATOM     65  C   UNL A   1      39.974  28.540  28.436  1.00  0.00     0.057 A 
ATOM     66  C   UNL A   1      40.557  28.278  27.188  1.00  0.00     0.134 A 
ATOM     67  C   UNL A   1      39.471  27.423  29.127  1.00  0.00     0.134 A 
ATOM     68  F   UNL A   1      41.102  29.270  26.470  1.00  0.00    -0.206 F 
ATOM     69  C   UNL A   1      40.662  26.979  26.671  1.00  0.00     0.040 A 
ATOM     70  C   UNL A   1      39.561  26.123  28.620  1.00  0.00     0.040 A 
ATOM     71  F   UNL A   1      38.958  27.540  30.360  1.00  0.00    -0.206 F 
ATOM     72  C   UNL A   1      40.173  25.895  27.393  1.00  0.00     0.006 A 
ENDBRANCH  44  65
BRANCH  56  73
ATOM     73  C   UNL A   1      42.679  34.059  29.808  1.00  0.00     0.057 A 
ATOM     74  C   UNL A   1      43.744  34.280  28.922  1.00  0.00     0.134 A 
ATOM     75  C   UNL A   1      41.453  34.647  29.479  1.00  0.00     0.134 A 
ATOM     76  F   UNL A   1      44.927  33.677  29.093  1.00  0.00    -0.206 F 
ATOM     77  C   UNL A   1      43.606  35.085  27.786  1.00  0.00     0.040 A 
ATOM     78  C   UNL A   1      41.291  35.425  28.331  1.00  0.00     0.040 A 
ATOM     79  F   UNL A   1      40.372  34.432  30.248  1.00  0.00    -0.206 F 
ATOM     80  C   UNL A   1      42.373  35.655  27.485  1.00  0.00     0.006 A 
ENDBRANCH  56  73
ENDBRANCH  30  31
ENDBRANCH  23  25
ENDBRANCH  22  23
ENDBRANCH  21  22
ENDBRANCH   1  21
TORSDOF 13
ENDMDL
MODEL 3
REMARK VINA RESULT:     -11.6      1.056      1.241
REMARK SMILES Cc1nc(C(=O)OCCOC(=O)c2ccc(-c3c4nc(c(-c5c(F)cccc5F)c5ccc([nH]5)c(-c5c(F)cccc5F)c5nc(c(-c6c(F)cccc6F)c6ccc3[nH]6)C=C5)C=C4)cc2)nn1-c1cccc(C(F)(F)F)c1
REMARK SMILES IDX 8 1 7 2 5 3 6 4 4 5 1 6 2 7 3 8 68 9 67 10 69 11 70 12 78 13
REMARK SMILES IDX 71 14 73 15 72 16 74 17 75 18 76 19 77 20 9 21 10 22 11 23
REMARK SMILES IDX 12 24 13 25 14 26 66 27 15 28 65 29 16 30 17 31 18 32 59 33
REMARK SMILES IDX 19 34 64 35 58 36 60 37 20 38 63 39 57 40 56 41 21 43 47 44
REMARK SMILES IDX 30 45 46 46 31 47 34 48 45 49 61 50 32 51 33 52 44 54 62 55
REMARK SMILES IDX 35 56 22 57 23 58 28 59 24 60 25 61 27 62 29 63 26 64 48 65
REMARK SMILES IDX 49 66 54 67 50 68 51 69 53 70 55 71 52 72 36 73 37 74 42 75
REMARK SMILES IDX 38 76 39 77 41 78 43 79 40 80
REMARK H PARENT 60 42 34 53
REMARK Flexibility Score: inf
ROOT
ATOM      1  C   UNL A   1      42.385  19.346  26.910  1.00  0.00     0.275 C 
ENDROOT
BRANCH   1   2
ATOM      2  O   UNL A   1      41.418  20.335  26.528  1.00  0.00    -0.456 OA
BRANCH   2   3
ATOM      3  C   UNL A   1      40.258  19.886  25.948  1.00  0.00     0.378 C 
ATOM      4  O   UNL A   1      40.080  18.726  25.580  1.00  0.00    -0.242 OA
BRANCH   3   5
ATOM      5  C   UNL A   1      39.229  20.940  25.891  1.00  0.00     0.260 A 
ATOM      6  C   UNL A   1      37.932  24.235  26.392  1.00  0.00     0.090 C 
ATOM      7  C   UNL A   1      38.303  22.855  25.997  1.00  0.00     0.130 A 
ATOM      8  N   UNL A   1      39.401  22.225  26.368  1.00  0.00    -0.206 NA
ATOM      9  N   UNL A   1      37.489  21.977  25.303  1.00  0.00    -0.217 N 
ATOM     10  N   UNL A   1      38.017  20.735  25.349  1.00  0.00    -0.138 NA
BRANCH   9  11
ATOM     11  C   UNL A   1      36.274  22.178  24.602  1.00  0.00     0.067 A 
ATOM     12  C   UNL A   1      36.287  23.043  23.496  1.00  0.00     0.028 A 
ATOM     13  C   UNL A   1      35.068  21.612  25.031  1.00  0.00     0.041 A 
ATOM     14  C   UNL A   1      35.114  23.312  22.797  1.00  0.00     0.003 A 
ATOM     15  C   UNL A   1      33.869  21.925  24.359  1.00  0.00     0.058 A 
ATOM     16  C   UNL A   1      33.911  22.761  23.230  1.00  0.00     0.013 A 
BRANCH  15  17
ATOM     17  C   UNL A   1      32.532  21.434  24.861  1.00  0.00     0.416 C 
ATOM     18  F   UNL A   1      32.609  20.925  26.122  1.00  0.00    -0.166 F 
ATOM     19  F   UNL A   1      31.599  22.424  24.914  1.00  0.00    -0.166 F 
ATOM     20  F   UNL A   1      31.991  20.449  24.093  1.00  0.00    -0.166 F 
ENDBRANCH  15  17
ENDBRANCH   9  11
ENDBRANCH   3   5
ENDBRANCH   2   3
ENDBRANCH   1   2
BRANCH   1  21
ATOM     21  C   UNL A   1      43.351  19.034  25.775  1.00  0.00     0.275 C 
BRANCH  21  22
ATOM     22  O   UNL A   1      43.523  20.164  24.920  1.00  0.00    -0.458 OA
BRANCH  22  23
ATOM     23  C   UNL A   1      44.787  20.627  24.813  1.00  0.00     0.338 C 
ATOM     24  O   UNL A   1      45.806  19.965  24.700  1.00  0.00    -0.246 OA
BRANCH  23  25
ATOM     25  C   UNL A   1      44.784  22.071  25.084  1.00  0.00     0.060 A 
ATOM     26  C   UNL A   1      45.629  22.531  26.095  1.00  0.00     0.016 A 
ATOM     27  C   UNL A   1      43.774  22.881  24.541  1.00  0.00     0.016 A 
ATOM     28  C   UNL A   1      45.345  23.745  26.685  1.00  0.00     0.010 A 
ATOM     29  C   UNL A   1      43.484  24.085  25.139  1.00  0.00     0.010 A 
ATOM     30  C   UNL A   1      44.227  24.467  26.250  1.00  0.00    -0.014 A 
BRANCH  30  31
ATOM     31  C   UNL A   1      43.904  25.692  26.944  1.00  0.00     0.031 A 
ATOM     32  C   UNL A   1      44.863  26.787  26.684  1.00  0.00     0.074 A 
ATOM     33  C   UNL A   1      42.790  25.851  27.680  1.00  0.00     0.049 A 
ATOM     34  N   UNL A   1      45.702  27.310  27.514  1.00  0.00    -0.248 NA
ATOM     35  C   UNL A   1      45.013  27.250  25.297  1.00  0.00     0.031 C 
ATOM     36  C   UNL A   1      41.620  24.977  27.782  1.00  0.00     0.029 A 
ATOM     37  N   UNL A   1      42.445  26.918  28.446  1.00  0.00    -0.354 N 
ATOM     38  C   UNL A   1      46.366  28.302  26.801  1.00  0.00     0.074 A 
ATOM     39  C   UNL A   1      46.025  28.108  25.417  1.00  0.00     0.031 C 
ATOM     40  C   UNL A   1      40.614  25.654  28.385  1.00  0.00     0.029 A 
ATOM     41  C   UNL A   1      41.113  26.948  28.825  1.00  0.00     0.049 A 
ATOM     42  H   UNL A   1      43.090  27.612  28.712  1.00  0.00     0.167 HD
ATOM     43  C   UNL A   1      46.961  29.345  27.441  1.00  0.00     0.037 A 
ATOM     44  C   UNL A   1      40.476  28.006  29.386  1.00  0.00     0.037 A 
ATOM     45  C   UNL A   1      47.179  29.048  28.835  1.00  0.00     0.049 A 
ATOM     46  C   UNL A   1      41.518  28.902  29.958  1.00  0.00     0.074 A 
ATOM     47  C   UNL A   1      47.880  28.073  29.519  1.00  0.00     0.029 A 
ATOM     48  N   UNL A   1      46.317  29.595  29.755  1.00  0.00    -0.354 N 
ATOM     49  N   UNL A   1      42.246  28.598  30.996  1.00  0.00    -0.248 NA
ATOM     50  C   UNL A   1      42.067  29.939  29.094  1.00  0.00     0.031 C 
ATOM     51  C   UNL A   1      47.064  27.751  30.644  1.00  0.00     0.029 A 
ATOM     52  C   UNL A   1      45.948  28.589  30.608  1.00  0.00     0.049 A 
ATOM     53  H   UNL A   1      46.021  30.534  29.793  1.00  0.00     0.167 HD
ATOM     54  C   UNL A   1      43.514  29.072  30.690  1.00  0.00     0.074 A 
ATOM     55  C   UNL A   1      43.324  29.961  29.546  1.00  0.00     0.031 C 
ATOM     56  C   UNL A   1      44.635  28.481  31.200  1.00  0.00     0.037 A 
BRANCH  43  57
ATOM     57  C   UNL A   1      46.989  30.752  26.901  1.00  0.00     0.057 A 
ATOM     58  C   UNL A   1      48.197  31.472  26.943  1.00  0.00     0.134 A 
ATOM     59  C   UNL A   1      45.841  31.524  26.631  1.00  0.00     0.134 A 
ATOM     60  F   UNL A   1      49.360  30.852  27.195  1.00  0.00    -0.206 F 
ATOM     61  C   UNL A   1      48.244  32.865  26.818  1.00  0.00     0.040 A 
ATOM     62  C   UNL A   1      45.884  32.909  26.452  1.00  0.00     0.040 A 
ATOM     63  F   UNL A   1      44.606  31.009  26.626  1.00  0.00    -0.206 F 
ATOM     64  C   UNL A   1      47.082  33.589  26.583  1.00  0.00     0.006 A 
ENDBRANCH  43  57
BRANCH  44  65
ATOM     65  C   UNL A   1      39.081  28.457  29.170  1.00  0.00     0.057 A 
ATOM     66  C   UNL A   1      38.165  28.508  30.230  1.00  0.00     0.134 A 
ATOM     67  C   UNL A   1      38.693  29.113  27.988  1.00  0.00     0.134 A 
ATOM     68  F   UNL A   1      38.459  27.947  31.412  1.00  0.00    -0.206 F 
ATOM     69  C   UNL A   1      36.947  29.195  30.132  1.00  0.00     0.040 A 
ATOM     70  C   UNL A   1      37.477  29.796  27.874  1.00  0.00     0.040 A 
ATOM     71  F   UNL A   1      39.516  29.194  26.934  1.00  0.00    -0.206 F 
ATOM     72  C   UNL A   1      36.605  29.853  28.954  1.00  0.00     0.006 A 
ENDBRANCH  44  65
BRANCH  56  73
ATOM     73  C   UNL A   1      44.463  27.453  32.283  1.00  0.00     0.057 A 
ATOM     74  C   UNL A   1      44.280  26.083  32.043  1.00  0.00     0.134 A 
ATOM     75  C   UNL A   1      44.648  27.840  33.614  1.00  0.00     0.134 A 
ATOM     76  F   UNL A   1      44.199  25.601  30.796  1.00  0.00    -0.206 F 
ATOM     77  C   UNL A   1      44.238  25.149  33.083  1.00  0.00     0.040 A 
ATOM     78  C   UNL A   1      44.642  26.915  34.660  1.00  0.00     0.040 A 
ATOM     79  F   UNL A   1      44.887  29.127  33.917  1.00  0.00    -0.206 F 
ATOM     80  C   UNL A   1      44.426  25.565  34.398  1.00  0.00     0.006 A 
ENDBRANCH  56  73
ENDBRANCH  30  31
ENDBRANCH  23  25
ENDBRANCH  22  23
ENDBRANCH  21  22
ENDBRANCH   1  21
TORSDOF 13
ENDMDL
