MODEL 1
REMARK VINA RESULT:     -11.2      0.000      0.000
REMARK SMILES COc1cc(OC(F)(F)F)cc2c1O[C@@H](C(F)(F)F)C(C(=O)OCCOC(=O)c1ccc(-c3c4nc(c(-c5c(F)cccc5F)c5ccc([nH]5)c(-c5c(F)cccc5F)c5nc(c(-c6c(F)cccc6F)c6ccc3[nH]6)C=C5)C=C4)cc1)=C2
REMARK SMILES IDX 24 1 23 2 21 3 22 4 20 5 3 6 4 7 13 8 5 9 12 10 14 11 11 12
REMARK SMILES IDX 83 13 15 14 2 15 1 16 6 17 7 18 8 19 9 20 10 21 16 22 17 23
REMARK SMILES IDX 18 24 19 25 25 26 26 27 27 28 28 29 29 30 30 31 82 32 31 33
REMARK SMILES IDX 81 34 32 35 33 36 34 37 75 38 35 39 80 40 74 41 76 42 36 43
REMARK SMILES IDX 79 44 73 45 72 46 37 48 63 49 46 50 62 51 47 52 50 53 61 54
REMARK SMILES IDX 77 55 48 56 49 57 60 59 78 60 51 61 38 62 39 63 44 64 40 65
REMARK SMILES IDX 41 66 43 67 45 68 42 69 64 70 65 71 70 72 66 73 67 74 69 75
REMARK SMILES IDX 71 76 68 77 52 78 53 79 58 80 54 81 55 82 57 83 59 84 56 85
REMARK H PARENT 76 47 50 58
REMARK Flexibility Score: inf
ROOT
ATOM      1  C   UNL A   1      35.286  21.305  24.703  1.00  0.00     0.275 C 
ENDROOT
BRANCH   1   2
ATOM      2  O   UNL A   1      34.898  22.516  25.387  1.00  0.00    -0.459 OA
BRANCH   2   3
ATOM      3  C   UNL A   1      33.595  22.874  25.258  1.00  0.00     0.338 C 
ATOM      4  O   UNL A   1      32.642  22.128  25.399  1.00  0.00    -0.246 OA
BRANCH   3   5
ATOM      5  C   UNL A   1      33.446  24.321  24.983  1.00  0.00     0.087 C 
ATOM      6  C   UNL A   1      33.009  28.353  23.983  1.00  0.00     0.165 A 
ATOM      7  C   UNL A   1      33.180  29.347  24.945  1.00  0.00     0.097 A 
ATOM      8  C   UNL A   1      33.255  27.014  24.298  1.00  0.00     0.170 A 
ATOM      9  C   UNL A   1      33.559  29.000  26.242  1.00  0.00     0.134 A 
ATOM     10  C   UNL A   1      33.571  26.645  25.607  1.00  0.00     0.025 A 
ATOM     11  O   UNL A   1      33.278  26.105  23.279  1.00  0.00    -0.471 OA
ATOM     12  C   UNL A   1      33.718  27.645  26.577  1.00  0.00     0.059 A 
ATOM     13  C   UNL A   1      33.774  25.230  25.921  1.00  0.00     0.027 C 
ATOM     14  C   UNL A   1      32.896  24.752  23.635  1.00  0.00     0.316 C 
BRANCH   6  15
ATOM     15  O   UNL A   1      32.645  28.762  22.725  1.00  0.00    -0.493 OA
ATOM     16  C   UNL A   1      31.233  28.973  22.638  1.00  0.00     0.278 C 
ENDBRANCH   6  15
BRANCH   9  17
ATOM     17  O   UNL A   1      33.791  29.877  27.266  1.00  0.00    -0.406 OA
BRANCH  17  18
ATOM     18  C   UNL A   1      35.146  30.152  27.594  1.00  0.00     0.573 C 
ATOM     19  F   UNL A   1      35.989  29.662  26.661  1.00  0.00    -0.132 F 
ATOM     20  F   UNL A   1      35.346  31.480  27.733  1.00  0.00    -0.132 F 
ATOM     21  F   UNL A   1      35.435  29.558  28.772  1.00  0.00    -0.132 F 
ENDBRANCH  17  18
ENDBRANCH   9  17
BRANCH  14  22
ATOM     22  C   UNL A   1      33.162  23.866  22.401  1.00  0.00     0.430 C 
ATOM     23  F   UNL A   1      34.420  23.367  22.400  1.00  0.00    -0.167 F 
ATOM     24  F   UNL A   1      32.345  22.778  22.419  1.00  0.00    -0.167 F 
ATOM     25  F   UNL A   1      32.939  24.505  21.235  1.00  0.00    -0.167 F 
ENDBRANCH  14  22
ENDBRANCH   3   5
ENDBRANCH   2   3
ENDBRANCH   1   2
BRANCH   1  26
ATOM     26  C   UNL A   1      36.557  20.696  25.300  1.00  0.00     0.275 C 
BRANCH  26  27
ATOM     27  O   UNL A   1      37.684  21.578  25.142  1.00  0.00    -0.458 OA
BRANCH  27  28
ATOM     28  C   UNL A   1      38.790  21.209  25.832  1.00  0.00     0.338 C 
ATOM     29  O   UNL A   1      39.314  20.106  25.837  1.00  0.00    -0.246 OA
BRANCH  28  30
ATOM     30  C   UNL A   1      39.420  22.385  26.467  1.00  0.00     0.060 A 
ATOM     31  C   UNL A   1      38.977  23.639  26.036  1.00  0.00     0.016 A 
ATOM     32  C   UNL A   1      40.424  22.291  27.436  1.00  0.00     0.016 A 
ATOM     33  C   UNL A   1      39.496  24.801  26.600  1.00  0.00     0.010 A 
ATOM     34  C   UNL A   1      40.980  23.462  27.971  1.00  0.00     0.010 A 
ATOM     35  C   UNL A   1      40.517  24.721  27.554  1.00  0.00    -0.014 A 
BRANCH  35  36
ATOM     36  C   UNL A   1      41.174  25.979  27.977  1.00  0.00     0.031 A 
ATOM     37  C   UNL A   1      42.589  26.233  27.545  1.00  0.00     0.074 A 
ATOM     38  C   UNL A   1      40.495  26.928  28.645  1.00  0.00     0.049 A 
ATOM     39  N   UNL A   1      43.305  27.323  27.644  1.00  0.00    -0.248 NA
ATOM     40  C   UNL A   1      43.279  25.109  26.894  1.00  0.00     0.031 C 
ATOM     41  C   UNL A   1      39.102  26.830  29.075  1.00  0.00     0.029 A 
ATOM     42  N   UNL A   1      40.891  28.176  29.056  1.00  0.00    -0.354 N 
ATOM     43  C   UNL A   1      44.519  27.029  27.039  1.00  0.00     0.074 A 
ATOM     44  C   UNL A   1      44.455  25.647  26.610  1.00  0.00     0.031 C 
ATOM     45  C   UNL A   1      38.755  27.977  29.685  1.00  0.00     0.029 A 
ATOM     46  C   UNL A   1      39.903  28.884  29.694  1.00  0.00     0.049 A 
ATOM     47  H   UNL A   1      41.798  28.530  28.906  1.00  0.00     0.167 HD
ATOM     48  C   UNL A   1      45.588  27.837  26.847  1.00  0.00     0.037 A 
ATOM     49  C   UNL A   1      39.926  30.124  30.218  1.00  0.00     0.037 A 
ATOM     50  C   UNL A   1      45.681  29.192  27.321  1.00  0.00     0.049 A 
ATOM     51  C   UNL A   1      41.173  30.963  30.099  1.00  0.00     0.074 A 
ATOM     52  C   UNL A   1      46.732  30.083  27.192  1.00  0.00     0.029 A 
ATOM     53  N   UNL A   1      44.692  29.842  28.044  1.00  0.00    -0.354 N 
ATOM     54  N   UNL A   1      42.296  30.697  29.477  1.00  0.00    -0.248 NA
ATOM     55  C   UNL A   1      41.145  32.281  30.749  1.00  0.00     0.031 C 
ATOM     56  C   UNL A   1      46.399  31.255  27.883  1.00  0.00     0.029 A 
ATOM     57  C   UNL A   1      45.119  31.113  28.395  1.00  0.00     0.049 A 
ATOM     58  H   UNL A   1      43.815  29.458  28.274  1.00  0.00     0.167 HD
ATOM     59  C   UNL A   1      43.090  31.831  29.622  1.00  0.00     0.074 A 
ATOM     60  C   UNL A   1      42.318  32.784  30.391  1.00  0.00     0.031 C 
ATOM     61  C   UNL A   1      44.341  32.062  29.151  1.00  0.00     0.037 A 
BRANCH  48  62
ATOM     62  C   UNL A   1      46.760  27.240  26.125  1.00  0.00     0.057 A 
ATOM     63  C   UNL A   1      46.913  27.369  24.737  1.00  0.00     0.134 A 
ATOM     64  C   UNL A   1      47.730  26.509  26.820  1.00  0.00     0.134 A 
ATOM     65  F   UNL A   1      46.006  28.040  24.012  1.00  0.00    -0.206 F 
ATOM     66  C   UNL A   1      47.973  26.761  24.063  1.00  0.00     0.040 A 
ATOM     67  C   UNL A   1      48.807  25.916  26.159  1.00  0.00     0.040 A 
ATOM     68  F   UNL A   1      47.640  26.348  28.148  1.00  0.00    -0.206 F 
ATOM     69  C   UNL A   1      48.925  26.033  24.775  1.00  0.00     0.006 A 
ENDBRANCH  48  62
BRANCH  49  70
ATOM     70  C   UNL A   1      38.721  30.674  30.888  1.00  0.00     0.057 A 
ATOM     71  C   UNL A   1      38.451  30.397  32.233  1.00  0.00     0.134 A 
ATOM     72  C   UNL A   1      37.791  31.451  30.189  1.00  0.00     0.134 A 
ATOM     73  F   UNL A   1      39.290  29.632  32.947  1.00  0.00    -0.206 F 
ATOM     74  C   UNL A   1      37.290  30.859  32.856  1.00  0.00     0.040 A 
ATOM     75  C   UNL A   1      36.637  31.939  30.804  1.00  0.00     0.040 A 
ATOM     76  F   UNL A   1      37.988  31.744  28.895  1.00  0.00    -0.206 F 
ATOM     77  C   UNL A   1      36.381  31.637  32.141  1.00  0.00     0.006 A 
ENDBRANCH  49  70
BRANCH  61  78
ATOM     78  C   UNL A   1      44.933  33.419  29.406  1.00  0.00     0.057 A 
ATOM     79  C   UNL A   1      44.732  34.498  28.536  1.00  0.00     0.134 A 
ATOM     80  C   UNL A   1      45.700  33.653  30.557  1.00  0.00     0.134 A 
ATOM     81  F   UNL A   1      44.019  34.340  27.412  1.00  0.00    -0.206 F 
ATOM     82  C   UNL A   1      45.296  35.751  28.785  1.00  0.00     0.040 A 
ATOM     83  C   UNL A   1      46.244  34.908  30.830  1.00  0.00     0.040 A 
ATOM     84  F   UNL A   1      45.924  32.666  31.438  1.00  0.00    -0.206 F 
ATOM     85  C   UNL A   1      46.050  35.960  29.939  1.00  0.00     0.006 A 
ENDBRANCH  61  78
ENDBRANCH  35  36
ENDBRANCH  28  30
ENDBRANCH  27  28
ENDBRANCH  26  27
ENDBRANCH   1  26
TORSDOF 15
ENDMDL
MODEL 2
REMARK VINA RESULT:     -11.0      4.006      7.363
REMARK SMILES COc1cc(OC(F)(F)F)cc2c1O[C@@H](C(F)(F)F)C(C(=O)OCCOC(=O)c1ccc(-c3c4nc(c(-c5c(F)cccc5F)c5ccc([nH]5)c(-c5c(F)cccc5F)c5nc(c(-c6c(F)cccc6F)c6ccc3[nH]6)C=C5)C=C4)cc1)=C2
REMARK SMILES IDX 24 1 23 2 21 3 22 4 20 5 3 6 4 7 13 8 5 9 12 10 14 11 11 12
REMARK SMILES IDX 83 13 15 14 2 15 1 16 6 17 7 18 8 19 9 20 10 21 16 22 17 23
REMARK SMILES IDX 18 24 19 25 25 26 26 27 27 28 28 29 29 30 30 31 82 32 31 33
REMARK SMILES IDX 81 34 32 35 33 36 34 37 75 38 35 39 80 40 74 41 76 42 36 43
REMARK SMILES IDX 79 44 73 45 72 46 37 48 63 49 46 50 62 51 47 52 50 53 61 54
REMARK SMILES IDX 77 55 48 56 49 57 60 59 78 60 51 61 38 62 39 63 44 64 40 65
REMARK SMILES IDX 41 66 43 67 45 68 42 69 64 70 65 71 70 72 66 73 67 74 69 75
REMARK SMILES IDX 71 76 68 77 52 78 53 79 58 80 54 81 55 82 57 83 59 84 56 85
REMARK H PARENT 76 47 50 58
REMARK Flexibility Score: inf
ROOT
ATOM      1  C   UNL A   1      42.705  21.648  25.730  1.00  0.00     0.275 C 
ENDROOT
BRANCH   1   2
ATOM      2  O   UNL A   1      41.502  22.445  25.783  1.00  0.00    -0.459 OA
BRANCH   2   3
ATOM      3  C   UNL A   1      40.575  22.054  26.692  1.00  0.00     0.338 C 
ATOM      4  O   UNL A   1      40.817  21.545  27.773  1.00  0.00    -0.246 OA
BRANCH   3   5
ATOM      5  C   UNL A   1      39.199  22.374  26.249  1.00  0.00     0.087 C 
ATOM      6  C   UNL A   1      35.350  23.491  25.070  1.00  0.00     0.165 A 
ATOM      7  C   UNL A   1      34.437  22.536  24.624  1.00  0.00     0.097 A 
ATOM      8  C   UNL A   1      36.600  23.100  25.558  1.00  0.00     0.170 A 
ATOM      9  C   UNL A   1      34.788  21.186  24.627  1.00  0.00     0.134 A 
ATOM     10  C   UNL A   1      36.990  21.761  25.505  1.00  0.00     0.025 A 
ATOM     11  O   UNL A   1      37.375  24.042  26.174  1.00  0.00    -0.471 OA
ATOM     12  C   UNL A   1      36.078  20.807  25.034  1.00  0.00     0.059 A 
ATOM     13  C   UNL A   1      38.325  21.387  25.976  1.00  0.00     0.027 C 
ATOM     14  C   UNL A   1      38.808  23.831  26.086  1.00  0.00     0.316 C 
BRANCH   6  15
ATOM     15  O   UNL A   1      34.939  24.799  25.051  1.00  0.00    -0.493 OA
ATOM     16  C   UNL A   1      33.821  25.003  25.919  1.00  0.00     0.278 C 
ENDBRANCH   6  15
BRANCH   9  17
ATOM     17  O   UNL A   1      33.978  20.151  24.248  1.00  0.00    -0.406 OA
BRANCH  17  18
ATOM     18  C   UNL A   1      32.973  19.742  25.165  1.00  0.00     0.573 C 
ATOM     19  F   UNL A   1      33.300  20.065  26.434  1.00  0.00    -0.132 F 
ATOM     20  F   UNL A   1      31.781  20.292  24.849  1.00  0.00    -0.132 F 
ATOM     21  F   UNL A   1      32.845  18.398  25.096  1.00  0.00    -0.132 F 
ENDBRANCH  17  18
ENDBRANCH   9  17
BRANCH  14  22
ATOM     22  C   UNL A   1      39.477  24.890  26.986  1.00  0.00     0.430 C 
ATOM     23  F   UNL A   1      40.524  25.485  26.370  1.00  0.00    -0.167 F 
ATOM     24  F   UNL A   1      38.601  25.897  27.256  1.00  0.00    -0.167 F 
ATOM     25  F   UNL A   1      39.883  24.395  28.172  1.00  0.00    -0.167 F 
ENDBRANCH  14  22
ENDBRANCH   3   5
ENDBRANCH   2   3
ENDBRANCH   1   2
BRANCH   1  26
ATOM     26  C   UNL A   1      43.829  22.363  24.977  1.00  0.00     0.275 C 
BRANCH  26  27
ATOM     27  O   UNL A   1      43.535  23.761  24.802  1.00  0.00    -0.458 OA
BRANCH  27  28
ATOM     28  C   UNL A   1      44.509  24.600  25.231  1.00  0.00     0.338 C 
ATOM     29  O   UNL A   1      45.593  24.791  24.702  1.00  0.00    -0.246 OA
BRANCH  28  30
ATOM     30  C   UNL A   1      44.025  25.423  26.358  1.00  0.00     0.060 A 
ATOM     31  C   UNL A   1      43.363  24.745  27.386  1.00  0.00     0.016 A 
ATOM     32  C   UNL A   1      44.182  26.811  26.421  1.00  0.00     0.016 A 
ATOM     33  C   UNL A   1      42.897  25.437  28.500  1.00  0.00     0.010 A 
ATOM     34  C   UNL A   1      43.672  27.515  27.521  1.00  0.00     0.010 A 
ATOM     35  C   UNL A   1      43.028  26.830  28.564  1.00  0.00    -0.014 A 
BRANCH  35  36
ATOM     36  C   UNL A   1      42.345  27.542  29.668  1.00  0.00     0.031 A 
ATOM     37  C   UNL A   1      42.986  27.549  31.026  1.00  0.00     0.074 A 
ATOM     38  C   UNL A   1      41.228  28.257  29.450  1.00  0.00     0.049 A 
ATOM     39  N   UNL A   1      42.670  28.241  32.091  1.00  0.00    -0.248 NA
ATOM     40  C   UNL A   1      44.155  26.673  31.194  1.00  0.00     0.031 C 
ATOM     41  C   UNL A   1      40.536  28.379  28.168  1.00  0.00     0.029 A 
ATOM     42  N   UNL A   1      40.495  29.039  30.307  1.00  0.00    -0.354 N 
ATOM     43  C   UNL A   1      43.620  27.909  33.047  1.00  0.00     0.074 A 
ATOM     44  C   UNL A   1      44.500  26.927  32.447  1.00  0.00     0.031 C 
ATOM     45  C   UNL A   1      39.479  29.195  28.322  1.00  0.00     0.029 A 
ATOM     46  C   UNL A   1      39.417  29.647  29.713  1.00  0.00     0.049 A 
ATOM     47  H   UNL A   1      40.721  29.153  31.259  1.00  0.00     0.167 HD
ATOM     48  C   UNL A   1      43.756  28.385  34.307  1.00  0.00     0.037 A 
ATOM     49  C   UNL A   1      38.495  30.478  30.233  1.00  0.00     0.037 A 
ATOM     50  C   UNL A   1      42.852  29.316  34.928  1.00  0.00     0.049 A 
ATOM     51  C   UNL A   1      38.598  30.898  31.677  1.00  0.00     0.074 A 
ATOM     52  C   UNL A   1      42.896  29.841  36.208  1.00  0.00     0.029 A 
ATOM     53  N   UNL A   1      41.720  29.839  34.321  1.00  0.00    -0.354 N 
ATOM     54  N   UNL A   1      39.530  30.624  32.557  1.00  0.00    -0.248 NA
ATOM     55  C   UNL A   1      37.520  31.756  32.191  1.00  0.00     0.031 C 
ATOM     56  C   UNL A   1      41.762  30.641  36.391  1.00  0.00     0.029 A 
ATOM     57  C   UNL A   1      41.040  30.657  35.208  1.00  0.00     0.049 A 
ATOM     58  H   UNL A   1      41.440  29.656  33.394  1.00  0.00     0.167 HD
ATOM     59  C   UNL A   1      39.175  31.311  33.714  1.00  0.00     0.074 A 
ATOM     60  C   UNL A   1      37.943  32.013  33.421  1.00  0.00     0.031 C 
ATOM     61  C   UNL A   1      39.819  31.363  34.907  1.00  0.00     0.037 A 
BRANCH  48  62
ATOM     62  C   UNL A   1      44.912  27.857  35.103  1.00  0.00     0.057 A 
ATOM     63  C   UNL A   1      44.797  26.706  35.893  1.00  0.00     0.134 A 
ATOM     64  C   UNL A   1      46.145  28.520  35.098  1.00  0.00     0.134 A 
ATOM     65  F   UNL A   1      43.637  26.037  35.956  1.00  0.00    -0.206 F 
ATOM     66  C   UNL A   1      45.859  26.253  36.678  1.00  0.00     0.040 A 
ATOM     67  C   UNL A   1      47.220  28.064  35.861  1.00  0.00     0.040 A 
ATOM     68  F   UNL A   1      46.319  29.629  34.364  1.00  0.00    -0.206 F 
ATOM     69  C   UNL A   1      47.076  26.932  36.662  1.00  0.00     0.006 A 
ENDBRANCH  48  62
BRANCH  49  70
ATOM     70  C   UNL A   1      37.394  30.998  29.383  1.00  0.00     0.057 A 
ATOM     71  C   UNL A   1      37.428  32.300  28.872  1.00  0.00     0.134 A 
ATOM     72  C   UNL A   1      36.266  30.221  29.098  1.00  0.00     0.134 A 
ATOM     73  F   UNL A   1      38.470  33.103  29.137  1.00  0.00    -0.206 F 
ATOM     74  C   UNL A   1      36.372  32.819  28.122  1.00  0.00     0.040 A 
ATOM     75  C   UNL A   1      35.212  30.719  28.330  1.00  0.00     0.040 A 
ATOM     76  F   UNL A   1      36.170  28.968  29.565  1.00  0.00    -0.206 F 
ATOM     77  C   UNL A   1      35.260  32.025  27.846  1.00  0.00     0.006 A 
ENDBRANCH  49  70
BRANCH  61  78
ATOM     78  C   UNL A   1      39.234  32.249  35.968  1.00  0.00     0.057 A 
ATOM     79  C   UNL A   1      39.641  33.579  36.140  1.00  0.00     0.134 A 
ATOM     80  C   UNL A   1      38.229  31.768  36.820  1.00  0.00     0.134 A 
ATOM     81  F   UNL A   1      40.606  34.099  35.367  1.00  0.00    -0.206 F 
ATOM     82  C   UNL A   1      39.091  34.388  37.136  1.00  0.00     0.040 A 
ATOM     83  C   UNL A   1      37.653  32.576  37.801  1.00  0.00     0.040 A 
ATOM     84  F   UNL A   1      37.786  30.507  36.705  1.00  0.00    -0.206 F 
ATOM     85  C   UNL A   1      38.090  33.888  37.967  1.00  0.00     0.006 A 
ENDBRANCH  61  78
ENDBRANCH  35  36
ENDBRANCH  28  30
ENDBRANCH  27  28
ENDBRANCH  26  27
ENDBRANCH   1  26
TORSDOF 15
ENDMDL
MODEL 3
REMARK VINA RESULT:     -11.0      1.201      1.922
REMARK SMILES COc1cc(OC(F)(F)F)cc2c1O[C@@H](C(F)(F)F)C(C(=O)OCCOC(=O)c1ccc(-c3c4nc(c(-c5c(F)cccc5F)c5ccc([nH]5)c(-c5c(F)cccc5F)c5nc(c(-c6c(F)cccc6F)c6ccc3[nH]6)C=C5)C=C4)cc1)=C2
REMARK SMILES IDX 24 1 23 2 21 3 22 4 20 5 3 6 4 7 13 8 5 9 12 10 14 11 11 12
REMARK SMILES IDX 83 13 15 14 2 15 1 16 6 17 7 18 8 19 9 20 10 21 16 22 17 23
REMARK SMILES IDX 18 24 19 25 25 26 26 27 27 28 28 29 29 30 30 31 82 32 31 33
REMARK SMILES IDX 81 34 32 35 33 36 34 37 75 38 35 39 80 40 74 41 76 42 36 43
REMARK SMILES IDX 79 44 73 45 72 46 37 48 63 49 46 50 62 51 47 52 50 53 61 54
REMARK SMILES IDX 77 55 48 56 49 57 60 59 78 60 51 61 38 62 39 63 44 64 40 65
REMARK SMILES IDX 41 66 43 67 45 68 42 69 64 70 65 71 70 72 66 73 67 74 69 75
REMARK SMILES IDX 71 76 68 77 52 78 53 79 58 80 54 81 55 82 57 83 59 84 56 85
REMARK H PARENT 76 47 50 58
REMARK Flexibility Score: inf
ROOT
ATOM      1  C   UNL A   1      36.112  21.466  25.620  1.00  0.00     0.275 C 
ENDROOT
BRANCH   1   2
ATOM      2  O   UNL A   1      35.236  21.551  24.475  1.00  0.00    -0.459 OA
BRANCH   2   3
ATOM      3  C   UNL A   1      35.260  22.727  23.800  1.00  0.00     0.338 C 
ATOM      4  O   UNL A   1      35.990  22.986  22.859  1.00  0.00    -0.246 OA
BRANCH   3   5
ATOM      5  C   UNL A   1      34.234  23.670  24.301  1.00  0.00     0.087 C 
ATOM      6  C   UNL A   1      31.183  26.214  25.593  1.00  0.00     0.165 A 
ATOM      7  C   UNL A   1      31.478  27.366  26.321  1.00  0.00     0.097 A 
ATOM      8  C   UNL A   1      32.212  25.421  25.077  1.00  0.00     0.170 A 
ATOM      9  C   UNL A   1      32.807  27.708  26.571  1.00  0.00     0.134 A 
ATOM     10  C   UNL A   1      33.544  25.714  25.375  1.00  0.00     0.025 A 
ATOM     11  O   UNL A   1      31.882  24.426  24.201  1.00  0.00    -0.471 OA
ATOM     12  C   UNL A   1      33.835  26.860  26.127  1.00  0.00     0.059 A 
ATOM     13  C   UNL A   1      34.599  24.838  24.863  1.00  0.00     0.027 C 
ATOM     14  C   UNL A   1      32.771  23.280  24.188  1.00  0.00     0.316 C 
BRANCH   6  15
ATOM     15  O   UNL A   1      29.857  25.940  25.375  1.00  0.00    -0.493 OA
ATOM     16  C   UNL A   1      29.365  26.644  24.232  1.00  0.00     0.278 C 
ENDBRANCH   6  15
BRANCH   9  17
ATOM     17  O   UNL A   1      33.231  28.823  27.240  1.00  0.00    -0.406 OA
BRANCH  17  18
ATOM     18  C   UNL A   1      33.013  30.080  26.614  1.00  0.00     0.573 C 
ATOM     19  F   UNL A   1      33.187  30.004  25.278  1.00  0.00    -0.132 F 
ATOM     20  F   UNL A   1      31.774  30.544  26.885  1.00  0.00    -0.132 F 
ATOM     21  F   UNL A   1      33.909  30.967  27.102  1.00  0.00    -0.132 F 
ENDBRANCH  17  18
ENDBRANCH   9  17
BRANCH  14  22
ATOM     22  C   UNL A   1      32.326  22.375  23.021  1.00  0.00     0.430 C 
ATOM     23  F   UNL A   1      33.031  22.624  21.893  1.00  0.00    -0.167 F 
ATOM     24  F   UNL A   1      32.575  21.070  23.318  1.00  0.00    -0.167 F 
ATOM     25  F   UNL A   1      31.009  22.471  22.751  1.00  0.00    -0.167 F 
ENDBRANCH  14  22
ENDBRANCH   3   5
ENDBRANCH   2   3
ENDBRANCH   1   2
BRANCH   1  26
ATOM     26  C   UNL A   1      37.279  20.506  25.375  1.00  0.00     0.275 C 
BRANCH  26  27
ATOM     27  O   UNL A   1      38.514  21.222  25.189  1.00  0.00    -0.458 OA
BRANCH  27  28
ATOM     28  C   UNL A   1      39.469  20.946  26.110  1.00  0.00     0.338 C 
ATOM     29  O   UNL A   1      39.953  19.853  26.356  1.00  0.00    -0.246 OA
BRANCH  28  30
ATOM     30  C   UNL A   1      40.009  22.195  26.686  1.00  0.00     0.060 A 
ATOM     31  C   UNL A   1      39.537  23.391  26.136  1.00  0.00     0.016 A 
ATOM     32  C   UNL A   1      40.957  22.222  27.714  1.00  0.00     0.016 A 
ATOM     33  C   UNL A   1      39.970  24.616  26.636  1.00  0.00     0.010 A 
ATOM     34  C   UNL A   1      41.428  23.456  28.187  1.00  0.00     0.010 A 
ATOM     35  C   UNL A   1      40.936  24.656  27.649  1.00  0.00    -0.014 A 
BRANCH  35  36
ATOM     36  C   UNL A   1      41.510  25.972  28.009  1.00  0.00     0.031 A 
ATOM     37  C   UNL A   1      42.897  26.306  27.539  1.00  0.00     0.074 A 
ATOM     38  C   UNL A   1      40.780  26.898  28.654  1.00  0.00     0.049 A 
ATOM     39  N   UNL A   1      43.537  27.446  27.580  1.00  0.00    -0.248 NA
ATOM     40  C   UNL A   1      43.651  25.207  26.917  1.00  0.00     0.031 C 
ATOM     41  C   UNL A   1      39.405  26.721  29.117  1.00  0.00     0.029 A 
ATOM     42  N   UNL A   1      41.094  28.186  29.009  1.00  0.00    -0.354 N 
ATOM     43  C   UNL A   1      44.757  27.212  26.961  1.00  0.00     0.074 A 
ATOM     44  C   UNL A   1      44.781  25.813  26.588  1.00  0.00     0.031 C 
ATOM     45  C   UNL A   1      38.990  27.865  29.689  1.00  0.00     0.029 A 
ATOM     46  C   UNL A   1      40.072  28.848  29.640  1.00  0.00     0.049 A 
ATOM     47  H   UNL A   1      41.971  28.596  28.827  1.00  0.00     0.167 HD
ATOM     48  C   UNL A   1      45.763  28.085  26.716  1.00  0.00     0.037 A 
ATOM     49  C   UNL A   1      40.017  30.107  30.115  1.00  0.00     0.037 A 
ATOM     50  C   UNL A   1      45.769  29.460  27.136  1.00  0.00     0.049 A 
ATOM     51  C   UNL A   1      41.200  31.024  29.938  1.00  0.00     0.074 A 
ATOM     52  C   UNL A   1      46.753  30.416  26.951  1.00  0.00     0.029 A 
ATOM     53  N   UNL A   1      44.751  30.069  27.854  1.00  0.00    -0.354 N 
ATOM     54  N   UNL A   1      42.328  30.813  29.303  1.00  0.00    -0.248 NA
ATOM     55  C   UNL A   1      41.091  32.362  30.537  1.00  0.00     0.031 C 
ATOM     56  C   UNL A   1      46.351  31.589  27.603  1.00  0.00     0.029 A 
ATOM     57  C   UNL A   1      45.094  31.379  28.147  1.00  0.00     0.049 A 
ATOM     58  H   UNL A   1      43.907  29.634  28.117  1.00  0.00     0.167 HD
ATOM     59  C   UNL A   1      43.042  32.003  29.388  1.00  0.00     0.074 A 
ATOM     60  C   UNL A   1      42.220  32.931  30.135  1.00  0.00     0.031 C 
ATOM     61  C   UNL A   1      44.265  32.302  28.882  1.00  0.00     0.037 A 
BRANCH  48  62
ATOM     62  C   UNL A   1      46.960  27.542  25.993  1.00  0.00     0.057 A 
ATOM     63  C   UNL A   1      48.048  26.989  26.682  1.00  0.00     0.134 A 
ATOM     64  C   UNL A   1      47.036  27.596  24.597  1.00  0.00     0.134 A 
ATOM     65  F   UNL A   1      48.045  26.928  28.022  1.00  0.00    -0.206 F 
ATOM     66  C   UNL A   1      49.185  26.541  26.007  1.00  0.00     0.040 A 
ATOM     67  C   UNL A   1      48.157  27.129  23.910  1.00  0.00     0.040 A 
ATOM     68  F   UNL A   1      46.028  28.114  23.879  1.00  0.00    -0.206 F 
ATOM     69  C   UNL A   1      49.240  26.609  24.616  1.00  0.00     0.006 A 
ENDBRANCH  48  62
BRANCH  49  70
ATOM     70  C   UNL A   1      38.789  30.598  30.788  1.00  0.00     0.057 A 
ATOM     71  C   UNL A   1      38.581  30.390  32.156  1.00  0.00     0.134 A 
ATOM     72  C   UNL A   1      37.777  31.248  30.072  1.00  0.00     0.134 A 
ATOM     73  F   UNL A   1      39.502  29.747  32.889  1.00  0.00    -0.206 F 
ATOM     74  C   UNL A   1      37.403  30.795  32.787  1.00  0.00     0.040 A 
ATOM     75  C   UNL A   1      36.604  31.678  30.693  1.00  0.00     0.040 A 
ATOM     76  F   UNL A   1      37.912  31.469  28.757  1.00  0.00    -0.206 F 
ATOM     77  C   UNL A   1      36.412  31.445  32.054  1.00  0.00     0.006 A 
ENDBRANCH  49  70
BRANCH  61  78
ATOM     78  C   UNL A   1      44.766  33.705  29.072  1.00  0.00     0.057 A 
ATOM     79  C   UNL A   1      45.555  34.075  30.169  1.00  0.00     0.134 A 
ATOM     80  C   UNL A   1      44.471  34.698  28.127  1.00  0.00     0.134 A 
ATOM     81  F   UNL A   1      45.866  33.178  31.116  1.00  0.00    -0.206 F 
ATOM     82  C   UNL A   1      46.007  35.386  30.334  1.00  0.00     0.040 A 
ATOM     83  C   UNL A   1      44.940  36.004  28.267  1.00  0.00     0.040 A 
ATOM     84  F   UNL A   1      43.727  34.410  27.047  1.00  0.00    -0.206 F 
ATOM     85  C   UNL A   1      45.704  36.354  29.378  1.00  0.00     0.006 A 
ENDBRANCH  61  78
ENDBRANCH  35  36
ENDBRANCH  28  30
ENDBRANCH  27  28
ENDBRANCH  26  27
ENDBRANCH   1  26
TORSDOF 15
ENDMDL
