MODEL 1
REMARK VINA RESULT:     -11.2      0.000      0.000
REMARK SMILES Cc1cc(C(=O)N2CCC[C@@H]2C(C)C)sc1/C=C/C(=O)OCCOC(=O)c1ccc(-c2c3nc(c(-c4c(F)cccc4F)c4ccc([nH]4)c(-c4c(F)cccc4F)c4nc(c(-c5c(F)cccc5F)c5ccc2[nH]5)C=C4)C=C3)cc1
REMARK SMILES IDX 22 1 21 2 19 3 20 4 18 5 17 6 16 7 1 8 2 9 3 10 4 11 15 12
REMARK SMILES IDX 5 13 6 14 7 15 8 16 11 17 9 18 10 19 12 20 13 21 14 22 23 23
REMARK SMILES IDX 24 24 25 25 26 26 27 27 28 28 80 29 29 30 79 31 30 32 31 33
REMARK SMILES IDX 32 34 73 35 33 36 78 37 72 38 74 39 34 40 77 41 71 42 70 43
REMARK SMILES IDX 35 45 61 46 44 47 60 48 45 49 48 50 59 51 75 52 46 53 47 54
REMARK SMILES IDX 58 56 76 57 49 58 36 59 37 60 42 61 38 62 39 63 41 64 43 65
REMARK SMILES IDX 40 66 62 67 63 68 68 69 64 70 65 71 67 72 69 73 66 74 50 75
REMARK SMILES IDX 51 76 56 77 52 78 53 79 55 80 57 81 54 82
REMARK H PARENT 74 44 48 55
REMARK Flexibility Score: inf
ROOT
ATOM      1  C   UNL A   1      43.481  20.748  25.669  1.00  0.00     0.275 C 
ENDROOT
BRANCH   1   2
ATOM      2  O   UNL A   1      42.617  21.153  26.748  1.00  0.00    -0.459 OA
BRANCH   2   3
ATOM      3  C   UNL A   1      41.697  20.241  27.138  1.00  0.00     0.330 C 
ATOM      4  O   UNL A   1      41.919  19.220  27.773  1.00  0.00    -0.247 OA
BRANCH   3   5
ATOM      5  C   UNL A   1      40.320  20.621  26.769  1.00  0.00     0.095 C 
ATOM      6  C   UNL A   1      39.975  21.701  26.052  1.00  0.00     0.027 C 
BRANCH   6   7
ATOM      7  C   UNL A   1      38.609  22.062  25.812  1.00  0.00     0.031 A 
ATOM      8  C   UNL A   1      38.546  24.456  26.765  1.00  0.00     0.046 C 
ATOM      9  C   UNL A   1      37.938  23.234  26.151  1.00  0.00    -0.032 A 
ATOM     10  C   UNL A   1      36.543  23.166  25.807  1.00  0.00     0.029 A 
ATOM     11  C   UNL A   1      36.178  21.984  25.192  1.00  0.00     0.093 A 
ATOM     12  S   UNL A   1      37.530  20.958  25.047  1.00  0.00    -0.130 S 
BRANCH  11  13
ATOM     13  C   UNL A   1      34.865  21.676  24.618  1.00  0.00     0.264 C 
ATOM     14  O   UNL A   1      34.399  20.536  24.627  1.00  0.00    -0.268 OA
BRANCH  13  15
ATOM     15  N   UNL A   1      34.097  22.746  24.180  1.00  0.00    -0.335 N 
ATOM     16  C   UNL A   1      34.132  23.147  22.786  1.00  0.00     0.120 C 
ATOM     17  C   UNL A   1      32.796  23.082  24.777  1.00  0.00     0.088 C 
ATOM     18  C   UNL A   1      33.287  24.396  22.767  1.00  0.00     0.024 C 
ATOM     19  C   UNL A   1      32.172  24.065  23.755  1.00  0.00     0.027 C 
BRANCH  17  20
ATOM     20  C   UNL A   1      32.911  23.658  26.220  1.00  0.00     0.005 C 
ATOM     21  C   UNL A   1      31.880  24.763  26.495  1.00  0.00     0.009 C 
ATOM     22  C   UNL A   1      32.718  22.579  27.298  1.00  0.00     0.009 C 
ENDBRANCH  17  20
ENDBRANCH  13  15
ENDBRANCH  11  13
ENDBRANCH   6   7
ENDBRANCH   3   5
ENDBRANCH   2   3
ENDBRANCH   1   2
BRANCH   1  23
ATOM     23  C   UNL A   1      44.198  21.949  25.041  1.00  0.00     0.275 C 
BRANCH  23  24
ATOM     24  O   UNL A   1      43.366  23.124  25.023  1.00  0.00    -0.458 OA
BRANCH  24  25
ATOM     25  C   UNL A   1      44.031  24.300  25.135  1.00  0.00     0.338 C 
ATOM     26  O   UNL A   1      44.949  24.696  24.437  1.00  0.00    -0.246 OA
BRANCH  25  27
ATOM     27  C   UNL A   1      43.406  25.132  26.178  1.00  0.00     0.060 A 
ATOM     28  C   UNL A   1      43.955  26.394  26.423  1.00  0.00     0.016 A 
ATOM     29  C   UNL A   1      42.341  24.660  26.952  1.00  0.00     0.016 A 
ATOM     30  C   UNL A   1      43.445  27.191  27.445  1.00  0.00     0.010 A 
ATOM     31  C   UNL A   1      41.832  25.459  27.981  1.00  0.00     0.010 A 
ATOM     32  C   UNL A   1      42.388  26.725  28.240  1.00  0.00    -0.014 A 
BRANCH  32  33
ATOM     33  C   UNL A   1      41.899  27.552  29.371  1.00  0.00     0.031 A 
ATOM     34  C   UNL A   1      42.588  27.487  30.703  1.00  0.00     0.074 A 
ATOM     35  C   UNL A   1      40.853  28.379  29.192  1.00  0.00     0.049 A 
ATOM     36  N   UNL A   1      42.302  28.120  31.813  1.00  0.00    -0.248 NA
ATOM     37  C   UNL A   1      43.753  26.595  30.799  1.00  0.00     0.031 C 
ATOM     38  C   UNL A   1      40.116  28.548  27.939  1.00  0.00     0.029 A 
ATOM     39  N   UNL A   1      40.228  29.231  30.067  1.00  0.00    -0.354 N 
ATOM     40  C   UNL A   1      43.247  27.700  32.741  1.00  0.00     0.074 A 
ATOM     41  C   UNL A   1      44.099  26.740  32.071  1.00  0.00     0.031 C 
ATOM     42  C   UNL A   1      39.139  29.449  28.126  1.00  0.00     0.029 A 
ATOM     43  C   UNL A   1      39.161  29.896  29.518  1.00  0.00     0.049 A 
ATOM     44  H   UNL A   1      40.518  29.353  31.001  1.00  0.00     0.167 HD
ATOM     45  C   UNL A   1      43.395  28.087  34.031  1.00  0.00     0.037 A 
ATOM     46  C   UNL A   1      38.288  30.754  30.078  1.00  0.00     0.037 A 
ATOM     47  C   UNL A   1      42.548  29.041  34.698  1.00  0.00     0.049 A 
ATOM     48  C   UNL A   1      38.440  31.125  31.527  1.00  0.00     0.074 A 
ATOM     49  C   UNL A   1      42.630  29.507  35.998  1.00  0.00     0.029 A 
ATOM     50  N   UNL A   1      41.458  29.671  34.116  1.00  0.00    -0.354 N 
ATOM     51  N   UNL A   1      39.350  30.739  32.387  1.00  0.00    -0.248 NA
ATOM     52  C   UNL A   1      37.442  32.051  32.083  1.00  0.00     0.031 C 
ATOM     53  C   UNL A   1      41.567  30.390  36.216  1.00  0.00     0.029 A 
ATOM     54  C   UNL A   1      40.847  30.506  35.038  1.00  0.00     0.049 A 
ATOM     55  H   UNL A   1      41.162  29.543  33.186  1.00  0.00     0.167 HD
ATOM     56  C   UNL A   1      39.049  31.388  33.578  1.00  0.00     0.074 A 
ATOM     57  C   UNL A   1      37.879  32.204  33.326  1.00  0.00     0.031 C 
ATOM     58  C   UNL A   1      39.685  31.314  34.773  1.00  0.00     0.037 A 
BRANCH  45  59
ATOM     59  C   UNL A   1      44.509  27.458  34.814  1.00  0.00     0.057 A 
ATOM     60  C   UNL A   1      44.325  26.273  35.539  1.00  0.00     0.134 A 
ATOM     61  C   UNL A   1      45.789  28.025  34.815  1.00  0.00     0.134 A 
ATOM     62  F   UNL A   1      43.118  25.687  35.588  1.00  0.00    -0.206 F 
ATOM     63  C   UNL A   1      45.370  25.687  36.255  1.00  0.00     0.040 A 
ATOM     64  C   UNL A   1      46.847  27.436  35.509  1.00  0.00     0.040 A 
ATOM     65  F   UNL A   1      46.034  29.155  34.136  1.00  0.00    -0.206 F 
ATOM     66  C   UNL A   1      46.638  26.266  36.236  1.00  0.00     0.006 A 
ENDBRANCH  45  59
BRANCH  46  67
ATOM     67  C   UNL A   1      37.181  31.317  29.266  1.00  0.00     0.057 A 
ATOM     68  C   UNL A   1      37.247  32.616  28.750  1.00  0.00     0.134 A 
ATOM     69  C   UNL A   1      36.028  30.572  28.995  1.00  0.00     0.134 A 
ATOM     70  F   UNL A   1      38.317  33.386  28.997  1.00  0.00    -0.206 F 
ATOM     71  C   UNL A   1      36.202  33.159  28.001  1.00  0.00     0.040 A 
ATOM     72  C   UNL A   1      34.984  31.092  28.229  1.00  0.00     0.040 A 
ATOM     73  F   UNL A   1      35.904  29.321  29.462  1.00  0.00    -0.206 F 
ATOM     74  C   UNL A   1      35.068  32.393  27.735  1.00  0.00     0.006 A 
ENDBRANCH  46  67
BRANCH  58  75
ATOM     75  C   UNL A   1      39.145  32.157  35.890  1.00  0.00     0.057 A 
ATOM     76  C   UNL A   1      38.232  31.648  36.823  1.00  0.00     0.134 A 
ATOM     77  C   UNL A   1      39.568  33.481  36.054  1.00  0.00     0.134 A 
ATOM     78  F   UNL A   1      37.777  30.391  36.712  1.00  0.00    -0.206 F 
ATOM     79  C   UNL A   1      37.745  32.434  37.869  1.00  0.00     0.040 A 
ATOM     80  C   UNL A   1      39.107  34.270  37.109  1.00  0.00     0.040 A 
ATOM     81  F   UNL A   1      40.447  34.027  35.198  1.00  0.00    -0.206 F 
ATOM     82  C   UNL A   1      38.187  33.748  38.017  1.00  0.00     0.006 A 
ENDBRANCH  58  75
ENDBRANCH  32  33
ENDBRANCH  25  27
ENDBRANCH  24  25
ENDBRANCH  23  24
ENDBRANCH   1  23
TORSDOF 15
ENDMDL
MODEL 2
REMARK VINA RESULT:     -10.9      5.380     10.251
REMARK SMILES Cc1cc(C(=O)N2CCC[C@@H]2C(C)C)sc1/C=C/C(=O)OCCOC(=O)c1ccc(-c2c3nc(c(-c4c(F)cccc4F)c4ccc([nH]4)c(-c4c(F)cccc4F)c4nc(c(-c5c(F)cccc5F)c5ccc2[nH]5)C=C4)C=C3)cc1
REMARK SMILES IDX 22 1 21 2 19 3 20 4 18 5 17 6 16 7 1 8 2 9 3 10 4 11 15 12
REMARK SMILES IDX 5 13 6 14 7 15 8 16 11 17 9 18 10 19 12 20 13 21 14 22 23 23
REMARK SMILES IDX 24 24 25 25 26 26 27 27 28 28 80 29 29 30 79 31 30 32 31 33
REMARK SMILES IDX 32 34 73 35 33 36 78 37 72 38 74 39 34 40 77 41 71 42 70 43
REMARK SMILES IDX 35 45 61 46 44 47 60 48 45 49 48 50 59 51 75 52 46 53 47 54
REMARK SMILES IDX 58 56 76 57 49 58 36 59 37 60 42 61 38 62 39 63 41 64 43 65
REMARK SMILES IDX 40 66 62 67 63 68 68 69 64 70 65 71 67 72 69 73 66 74 50 75
REMARK SMILES IDX 51 76 56 77 52 78 53 79 55 80 57 81 54 82
REMARK H PARENT 74 44 48 55
REMARK Flexibility Score: inf
ROOT
ATOM      1  C   UNL A   1      34.423  34.634  31.415  1.00  0.00     0.275 C 
ENDROOT
BRANCH   1   2
ATOM      2  O   UNL A   1      35.006  34.057  30.231  1.00  0.00    -0.459 OA
BRANCH   2   3
ATOM      3  C   UNL A   1      34.154  33.835  29.204  1.00  0.00     0.330 C 
ATOM      4  O   UNL A   1      33.486  34.680  28.625  1.00  0.00    -0.247 OA
BRANCH   3   5
ATOM      5  C   UNL A   1      34.133  32.424  28.772  1.00  0.00     0.095 C 
ATOM      6  C   UNL A   1      33.732  31.983  27.570  1.00  0.00     0.027 C 
BRANCH   6   7
ATOM      7  C   UNL A   1      33.646  30.587  27.253  1.00  0.00     0.031 A 
ATOM      8  C   UNL A   1      36.048  29.807  27.762  1.00  0.00     0.046 C 
ATOM      9  C   UNL A   1      34.645  29.618  27.279  1.00  0.00    -0.032 A 
ATOM     10  C   UNL A   1      34.164  28.348  26.804  1.00  0.00     0.029 A 
ATOM     11  C   UNL A   1      32.826  28.352  26.460  1.00  0.00     0.093 A 
ATOM     12  S   UNL A   1      32.163  29.901  26.705  1.00  0.00    -0.130 S 
BRANCH  11  13
ATOM     13  C   UNL A   1      32.031  27.185  26.066  1.00  0.00     0.264 C 
ATOM     14  O   UNL A   1      31.349  26.555  26.876  1.00  0.00    -0.268 OA
BRANCH  13  15
ATOM     15  N   UNL A   1      31.965  26.890  24.711  1.00  0.00    -0.335 N 
ATOM     16  C   UNL A   1      31.081  27.644  23.843  1.00  0.00     0.120 C 
ATOM     17  C   UNL A   1      33.122  26.388  23.955  1.00  0.00     0.088 C 
ATOM     18  C   UNL A   1      31.210  26.931  22.519  1.00  0.00     0.024 C 
ATOM     19  C   UNL A   1      32.691  26.563  22.477  1.00  0.00     0.027 C 
BRANCH  17  20
ATOM     20  C   UNL A   1      33.518  24.929  24.331  1.00  0.00     0.005 C 
ATOM     21  C   UNL A   1      33.992  24.118  23.116  1.00  0.00     0.009 C 
ATOM     22  C   UNL A   1      34.644  24.879  25.377  1.00  0.00     0.009 C 
ENDBRANCH  17  20
ENDBRANCH  13  15
ENDBRANCH  11  13
ENDBRANCH   6   7
ENDBRANCH   3   5
ENDBRANCH   2   3
ENDBRANCH   1   2
BRANCH   1  23
ATOM     23  C   UNL A   1      34.388  33.630  32.572  1.00  0.00     0.275 C 
BRANCH  23  24
ATOM     24  O   UNL A   1      35.097  32.417  32.255  1.00  0.00    -0.458 OA
BRANCH  24  25
ATOM     25  C   UNL A   1      36.192  32.176  33.016  1.00  0.00     0.338 C 
ATOM     26  O   UNL A   1      36.297  32.321  34.222  1.00  0.00    -0.246 OA
BRANCH  25  27
ATOM     27  C   UNL A   1      37.256  31.579  32.188  1.00  0.00     0.060 A 
ATOM     28  C   UNL A   1      38.301  30.921  32.843  1.00  0.00     0.016 A 
ATOM     29  C   UNL A   1      37.267  31.718  30.797  1.00  0.00     0.016 A 
ATOM     30  C   UNL A   1      39.366  30.401  32.111  1.00  0.00     0.010 A 
ATOM     31  C   UNL A   1      38.339  31.199  30.063  1.00  0.00     0.010 A 
ATOM     32  C   UNL A   1      39.399  30.547  30.717  1.00  0.00    -0.014 A 
BRANCH  32  33
ATOM     33  C   UNL A   1      40.571  30.050  29.954  1.00  0.00     0.031 A 
ATOM     34  C   UNL A   1      41.740  30.957  29.698  1.00  0.00     0.074 A 
ATOM     35  C   UNL A   1      40.595  28.779  29.516  1.00  0.00     0.049 A 
ATOM     36  N   UNL A   1      42.846  30.715  29.042  1.00  0.00    -0.248 NA
ATOM     37  C   UNL A   1      41.653  32.316  30.255  1.00  0.00     0.031 C 
ATOM     38  C   UNL A   1      39.532  27.795  29.723  1.00  0.00     0.029 A 
ATOM     39  N   UNL A   1      41.550  28.098  28.804  1.00  0.00    -0.354 N 
ATOM     40  C   UNL A   1      43.586  31.889  29.102  1.00  0.00     0.074 A 
ATOM     41  C   UNL A   1      42.792  32.851  29.836  1.00  0.00     0.031 C 
ATOM     42  C   UNL A   1      39.894  26.636  29.150  1.00  0.00     0.029 A 
ATOM     43  C   UNL A   1      41.197  26.805  28.510  1.00  0.00     0.049 A 
ATOM     44  H   UNL A   1      42.407  28.499  28.529  1.00  0.00     0.167 HD
ATOM     45  C   UNL A   1      44.819  32.138  28.597  1.00  0.00     0.037 A 
ATOM     46  C   UNL A   1      41.843  25.868  27.791  1.00  0.00     0.037 A 
ATOM     47  C   UNL A   1      45.608  31.182  27.866  1.00  0.00     0.049 A 
ATOM     48  C   UNL A   1      43.185  26.187  27.193  1.00  0.00     0.074 A 
ATOM     49  C   UNL A   1      46.875  31.338  27.330  1.00  0.00     0.029 A 
ATOM     50  N   UNL A   1      45.204  29.890  27.562  1.00  0.00    -0.354 N 
ATOM     51  N   UNL A   1      43.884  27.293  27.276  1.00  0.00    -0.248 NA
ATOM     52  C   UNL A   1      43.828  25.128  26.402  1.00  0.00     0.031 C 
ATOM     53  C   UNL A   1      47.221  30.155  26.669  1.00  0.00     0.029 A 
ATOM     54  C   UNL A   1      46.188  29.246  26.829  1.00  0.00     0.049 A 
ATOM     55  H   UNL A   1      44.345  29.491  27.829  1.00  0.00     0.167 HD
ATOM     56  C   UNL A   1      45.055  27.057  26.567  1.00  0.00     0.074 A 
ATOM     57  C   UNL A   1      44.979  25.698  26.072  1.00  0.00     0.031 C 
ATOM     58  C   UNL A   1      46.099  27.893  26.346  1.00  0.00     0.037 A 
BRANCH  45  59
ATOM     59  C   UNL A   1      45.381  33.513  28.803  1.00  0.00     0.057 A 
ATOM     60  C   UNL A   1      46.207  33.817  29.893  1.00  0.00     0.134 A 
ATOM     61  C   UNL A   1      45.120  34.536  27.883  1.00  0.00     0.134 A 
ATOM     62  F   UNL A   1      46.484  32.884  30.816  1.00  0.00    -0.206 F 
ATOM     63  C   UNL A   1      46.737  35.096  30.071  1.00  0.00     0.040 A 
ATOM     64  C   UNL A   1      45.662  35.813  28.039  1.00  0.00     0.040 A 
ATOM     65  F   UNL A   1      44.342  34.309  26.814  1.00  0.00    -0.206 F 
ATOM     66  C   UNL A   1      46.470  36.097  29.139  1.00  0.00     0.006 A 
ENDBRANCH  45  59
BRANCH  46  67
ATOM     67  C   UNL A   1      41.222  24.536  27.585  1.00  0.00     0.057 A 
ATOM     68  C   UNL A   1      40.165  24.359  26.686  1.00  0.00     0.134 A 
ATOM     69  C   UNL A   1      41.667  23.410  28.288  1.00  0.00     0.134 A 
ATOM     70  F   UNL A   1      39.680  25.405  26.001  1.00  0.00    -0.206 F 
ATOM     71  C   UNL A   1      39.564  23.113  26.501  1.00  0.00     0.040 A 
ATOM     72  C   UNL A   1      41.092  22.154  28.097  1.00  0.00     0.040 A 
ATOM     73  F   UNL A   1      42.678  23.516  29.164  1.00  0.00    -0.206 F 
ATOM     74  C   UNL A   1      40.032  22.005  27.205  1.00  0.00     0.006 A 
ENDBRANCH  46  67
BRANCH  58  75
ATOM     75  C   UNL A   1      47.254  27.352  25.557  1.00  0.00     0.057 A 
ATOM     76  C   UNL A   1      47.362  27.552  24.174  1.00  0.00     0.134 A 
ATOM     77  C   UNL A   1      48.287  26.651  26.192  1.00  0.00     0.134 A 
ATOM     78  F   UNL A   1      46.399  28.203  23.505  1.00  0.00    -0.206 F 
ATOM     79  C   UNL A   1      48.448  27.059  23.449  1.00  0.00     0.040 A 
ATOM     80  C   UNL A   1      49.390  26.173  25.482  1.00  0.00     0.040 A 
ATOM     81  F   UNL A   1      48.248  26.432  27.516  1.00  0.00    -0.206 F 
ATOM     82  C   UNL A   1      49.469  26.371  24.104  1.00  0.00     0.006 A 
ENDBRANCH  58  75
ENDBRANCH  32  33
ENDBRANCH  25  27
ENDBRANCH  24  25
ENDBRANCH  23  24
ENDBRANCH   1  23
TORSDOF 15
ENDMDL
MODEL 3
REMARK VINA RESULT:     -10.9      0.934      1.727
REMARK SMILES Cc1cc(C(=O)N2CCC[C@@H]2C(C)C)sc1/C=C/C(=O)OCCOC(=O)c1ccc(-c2c3nc(c(-c4c(F)cccc4F)c4ccc([nH]4)c(-c4c(F)cccc4F)c4nc(c(-c5c(F)cccc5F)c5ccc2[nH]5)C=C4)C=C3)cc1
REMARK SMILES IDX 22 1 21 2 19 3 20 4 18 5 17 6 16 7 1 8 2 9 3 10 4 11 15 12
REMARK SMILES IDX 5 13 6 14 7 15 8 16 11 17 9 18 10 19 12 20 13 21 14 22 23 23
REMARK SMILES IDX 24 24 25 25 26 26 27 27 28 28 80 29 29 30 79 31 30 32 31 33
REMARK SMILES IDX 32 34 73 35 33 36 78 37 72 38 74 39 34 40 77 41 71 42 70 43
REMARK SMILES IDX 35 45 61 46 44 47 60 48 45 49 48 50 59 51 75 52 46 53 47 54
REMARK SMILES IDX 58 56 76 57 49 58 36 59 37 60 42 61 38 62 39 63 41 64 43 65
REMARK SMILES IDX 40 66 62 67 63 68 68 69 64 70 65 71 67 72 69 73 66 74 50 75
REMARK SMILES IDX 51 76 56 77 52 78 53 79 55 80 57 81 54 82
REMARK H PARENT 74 44 48 55
REMARK Flexibility Score: inf
ROOT
ATOM      1  C   UNL A   1      43.208  20.708  25.800  1.00  0.00     0.275 C 
ENDROOT
BRANCH   1   2
ATOM      2  O   UNL A   1      42.006  21.176  26.442  1.00  0.00    -0.459 OA
BRANCH   2   3
ATOM      3  C   UNL A   1      40.869  20.523  26.108  1.00  0.00     0.330 C 
ATOM      4  O   UNL A   1      40.774  19.336  25.827  1.00  0.00    -0.247 OA
BRANCH   3   5
ATOM      5  C   UNL A   1      39.674  21.387  26.166  1.00  0.00     0.095 C 
ATOM      6  C   UNL A   1      38.546  21.206  25.462  1.00  0.00     0.027 C 
BRANCH   6   7
ATOM      7  C   UNL A   1      37.460  22.141  25.496  1.00  0.00     0.031 A 
ATOM      8  C   UNL A   1      38.645  24.257  26.364  1.00  0.00     0.046 C 
ATOM      9  C   UNL A   1      37.455  23.464  25.927  1.00  0.00    -0.032 A 
ATOM     10  C   UNL A   1      36.134  24.033  25.877  1.00  0.00     0.029 A 
ATOM     11  C   UNL A   1      35.173  23.169  25.388  1.00  0.00     0.093 A 
ATOM     12  S   UNL A   1      35.878  21.668  25.002  1.00  0.00    -0.130 S 
BRANCH  11  13
ATOM     13  C   UNL A   1      33.774  23.502  25.105  1.00  0.00     0.264 C 
ATOM     14  O   UNL A   1      32.841  22.981  25.720  1.00  0.00    -0.268 OA
BRANCH  13  15
ATOM     15  N   UNL A   1      33.535  24.531  24.205  1.00  0.00    -0.335 N 
ATOM     16  C   UNL A   1      33.497  24.260  22.781  1.00  0.00     0.120 C 
ATOM     17  C   UNL A   1      32.682  25.684  24.531  1.00  0.00     0.088 C 
ATOM     18  C   UNL A   1      33.353  25.634  22.174  1.00  0.00     0.024 C 
ATOM     19  C   UNL A   1      32.418  26.339  23.153  1.00  0.00     0.027 C 
BRANCH  17  20
ATOM     20  C   UNL A   1      33.320  26.645  25.579  1.00  0.00     0.005 C 
ATOM     21  C   UNL A   1      33.898  27.913  24.935  1.00  0.00     0.009 C 
ATOM     22  C   UNL A   1      32.312  27.098  26.647  1.00  0.00     0.009 C 
ENDBRANCH  17  20
ENDBRANCH  13  15
ENDBRANCH  11  13
ENDBRANCH   6   7
ENDBRANCH   3   5
ENDBRANCH   2   3
ENDBRANCH   1   2
BRANCH   1  23
ATOM     23  C   UNL A   1      43.865  21.810  24.962  1.00  0.00     0.275 C 
BRANCH  23  24
ATOM     24  O   UNL A   1      43.119  23.042  25.012  1.00  0.00    -0.458 OA
BRANCH  24  25
ATOM     25  C   UNL A   1      43.867  24.159  25.178  1.00  0.00     0.338 C 
ATOM     26  O   UNL A   1      44.840  24.498  24.526  1.00  0.00    -0.246 OA
BRANCH  25  27
ATOM     27  C   UNL A   1      43.267  25.014  26.218  1.00  0.00     0.060 A 
ATOM     28  C   UNL A   1      43.796  26.296  26.396  1.00  0.00     0.016 A 
ATOM     29  C   UNL A   1      42.246  24.547  27.052  1.00  0.00     0.016 A 
ATOM     30  C   UNL A   1      43.310  27.117  27.411  1.00  0.00     0.010 A 
ATOM     31  C   UNL A   1      41.761  25.371  28.073  1.00  0.00     0.010 A 
ATOM     32  C   UNL A   1      42.298  26.656  28.265  1.00  0.00    -0.014 A 
BRANCH  32  33
ATOM     33  C   UNL A   1      41.837  27.512  29.386  1.00  0.00     0.031 A 
ATOM     34  C   UNL A   1      42.556  27.477  30.703  1.00  0.00     0.074 A 
ATOM     35  C   UNL A   1      40.790  28.339  29.210  1.00  0.00     0.049 A 
ATOM     36  N   UNL A   1      42.297  28.137  31.804  1.00  0.00    -0.248 NA
ATOM     37  C   UNL A   1      43.720  26.583  30.795  1.00  0.00     0.031 C 
ATOM     38  C   UNL A   1      40.026  28.480  27.971  1.00  0.00     0.029 A 
ATOM     39  N   UNL A   1      40.188  29.214  30.079  1.00  0.00    -0.354 N 
ATOM     40  C   UNL A   1      43.261  27.736  32.720  1.00  0.00     0.074 A 
ATOM     41  C   UNL A   1      44.094  26.757  32.055  1.00  0.00     0.031 C 
ATOM     42  C   UNL A   1      39.056  29.390  28.158  1.00  0.00     0.029 A 
ATOM     43  C   UNL A   1      39.111  29.869  29.538  1.00  0.00     0.049 A 
ATOM     44  H   UNL A   1      40.499  29.357  31.002  1.00  0.00     0.167 HD
ATOM     45  C   UNL A   1      43.439  28.153  33.997  1.00  0.00     0.037 A 
ATOM     46  C   UNL A   1      38.253  30.744  30.097  1.00  0.00     0.037 A 
ATOM     47  C   UNL A   1      42.610  29.126  34.660  1.00  0.00     0.049 A 
ATOM     48  C   UNL A   1      38.439  31.149  31.533  1.00  0.00     0.074 A 
ATOM     49  C   UNL A   1      42.723  29.623  35.947  1.00  0.00     0.029 A 
ATOM     50  N   UNL A   1      41.509  29.746  34.088  1.00  0.00    -0.354 N 
ATOM     51  N   UNL A   1      39.367  30.780  32.381  1.00  0.00    -0.248 NA
ATOM     52  C   UNL A   1      37.457  32.091  32.089  1.00  0.00     0.031 C 
ATOM     53  C   UNL A   1      41.668  30.515  36.167  1.00  0.00     0.029 A 
ATOM     54  C   UNL A   1      40.922  30.605  35.003  1.00  0.00     0.049 A 
ATOM     55  H   UNL A   1      41.192  29.597  33.168  1.00  0.00     0.167 HD
ATOM     56  C   UNL A   1      39.095  31.459  33.562  1.00  0.00     0.074 A 
ATOM     57  C   UNL A   1      37.922  32.272  33.317  1.00  0.00     0.031 C 
ATOM     58  C   UNL A   1      39.757  31.411  34.744  1.00  0.00     0.037 A 
BRANCH  45  59
ATOM     59  C   UNL A   1      44.568  27.538  34.770  1.00  0.00     0.057 A 
ATOM     60  C   UNL A   1      45.843  28.118  34.802  1.00  0.00     0.134 A 
ATOM     61  C   UNL A   1      44.369  26.371  35.518  1.00  0.00     0.134 A 
ATOM     62  F   UNL A   1      46.101  29.230  34.096  1.00  0.00    -0.206 F 
ATOM     63  C   UNL A   1      46.885  27.547  35.533  1.00  0.00     0.040 A 
ATOM     64  C   UNL A   1      45.397  25.803  36.271  1.00  0.00     0.040 A 
ATOM     65  F   UNL A   1      43.170  25.770  35.536  1.00  0.00    -0.206 F 
ATOM     66  C   UNL A   1      46.662  26.389  36.276  1.00  0.00     0.006 A 
ENDBRANCH  45  59
BRANCH  46  67
ATOM     67  C   UNL A   1      37.130  31.292  29.297  1.00  0.00     0.057 A 
ATOM     68  C   UNL A   1      37.176  32.589  28.773  1.00  0.00     0.134 A 
ATOM     69  C   UNL A   1      35.981  30.534  29.044  1.00  0.00     0.134 A 
ATOM     70  F   UNL A   1      38.242  33.371  29.002  1.00  0.00    -0.206 F 
ATOM     71  C   UNL A   1      36.116  33.117  28.035  1.00  0.00     0.040 A 
ATOM     72  C   UNL A   1      34.923  31.040  28.289  1.00  0.00     0.040 A 
ATOM     73  F   UNL A   1      35.877  29.284  29.519  1.00  0.00    -0.206 F 
ATOM     74  C   UNL A   1      34.987  32.338  27.787  1.00  0.00     0.006 A 
ENDBRANCH  46  67
BRANCH  58  75
ATOM     75  C   UNL A   1      39.245  32.282  35.852  1.00  0.00     0.057 A 
ATOM     76  C   UNL A   1      39.669  33.609  36.004  1.00  0.00     0.134 A 
ATOM     77  C   UNL A   1      38.292  31.800  36.758  1.00  0.00     0.134 A 
ATOM     78  F   UNL A   1      40.590  34.126  35.177  1.00  0.00    -0.206 F 
ATOM     79  C   UNL A   1      39.176  34.419  37.028  1.00  0.00     0.040 A 
ATOM     80  C   UNL A   1      37.774  32.606  37.773  1.00  0.00     0.040 A 
ATOM     81  F   UNL A   1      37.839  30.539  36.664  1.00  0.00    -0.206 F 
ATOM     82  C   UNL A   1      38.221  33.919  37.913  1.00  0.00     0.006 A 
ENDBRANCH  58  75
ENDBRANCH  32  33
ENDBRANCH  25  27
ENDBRANCH  24  25
ENDBRANCH  23  24
ENDBRANCH   1  23
TORSDOF 15
ENDMDL
