MODEL 1
REMARK VINA RESULT:     -12.2      0.000      0.000
REMARK SMILES O=C(OCCOC(=O)c1cc(F)ccc1N1CCCc2ccccc21)c1ccc(-c2c3nc(c(-c4c(F)cccc4F)c4ccc([nH]4)c(-c4c(F)cccc4F)c4nc(c(-c5c(F)cccc5F)c5ccc2[nH]5)C=C4)C=C3)cc1
REMARK SMILES IDX 4 1 3 2 2 3 1 4 26 5 27 6 79 7 28 8 78 9 29 10 30 11 31 12
REMARK SMILES IDX 72 13 32 14 77 15 71 16 73 17 33 18 76 19 70 20 69 21 34 23
REMARK SMILES IDX 60 24 43 25 59 26 44 27 47 28 58 29 74 30 45 31 46 32 57 34
REMARK SMILES IDX 75 35 48 36 35 37 36 38 41 39 37 40 38 41 40 42 42 43 39 44
REMARK SMILES IDX 61 45 62 46 67 47 63 48 64 49 66 50 68 51 65 52 49 53 50 54
REMARK SMILES IDX 55 55 51 56 52 57 54 58 56 59 53 60 5 61 6 62 7 63 8 64 9 65
REMARK SMILES IDX 10 66 15 67 11 68 14 69 12 70 13 71 16 72 17 73 25 74 18 75
REMARK SMILES IDX 20 76 24 77 19 78 21 79 23 80 22 81
REMARK H PARENT 73 22 47 33
REMARK Flexibility Score: inf
ROOT
ATOM      1  C   UNL A   1      32.007  32.494  27.185  1.00  0.00     0.275 C 
ENDROOT
BRANCH   1   2
ATOM      2  O   UNL A   1      32.983  33.533  27.251  1.00  0.00    -0.458 OA
BRANCH   2   3
ATOM      3  C   UNL A   1      33.217  34.079  28.466  1.00  0.00     0.338 C 
ATOM      4  O   UNL A   1      32.615  35.006  28.963  1.00  0.00    -0.246 OA
BRANCH   3   5
ATOM      5  C   UNL A   1      34.477  33.459  28.968  1.00  0.00     0.060 A 
ATOM      6  C   UNL A   1      34.403  32.328  29.796  1.00  0.00     0.016 A 
ATOM      7  C   UNL A   1      35.719  33.880  28.490  1.00  0.00     0.016 A 
ATOM      8  C   UNL A   1      35.544  31.640  30.146  1.00  0.00     0.010 A 
ATOM      9  C   UNL A   1      36.855  33.119  28.736  1.00  0.00     0.010 A 
ATOM     10  C   UNL A   1      36.771  32.036  29.616  1.00  0.00    -0.014 A 
BRANCH  10  11
ATOM     11  C   UNL A   1      37.986  31.457  30.198  1.00  0.00     0.031 A 
ATOM     12  C   UNL A   1      38.326  31.857  31.601  1.00  0.00     0.074 A 
ATOM     13  C   UNL A   1      38.671  30.526  29.515  1.00  0.00     0.049 A 
ATOM     14  N   UNL A   1      39.269  31.406  32.378  1.00  0.00    -0.248 NA
ATOM     15  C   UNL A   1      37.485  32.899  32.224  1.00  0.00     0.031 C 
ATOM     16  C   UNL A   1      38.352  30.072  28.161  1.00  0.00     0.029 A 
ATOM     17  N   UNL A   1      39.767  29.789  29.862  1.00  0.00    -0.354 N 
ATOM     18  C   UNL A   1      39.110  32.087  33.577  1.00  0.00     0.074 A 
ATOM     19  C   UNL A   1      38.063  33.058  33.401  1.00  0.00     0.031 C 
ATOM     20  C   UNL A   1      39.254  29.156  27.776  1.00  0.00     0.029 A 
ATOM     21  C   UNL A   1      40.195  28.945  28.868  1.00  0.00     0.049 A 
ATOM     22  H   UNL A   1      40.206  29.857  30.740  1.00  0.00     0.167 HD
ATOM     23  C   UNL A   1      39.744  31.860  34.746  1.00  0.00     0.037 A 
ATOM     24  C   UNL A   1      41.228  28.087  28.861  1.00  0.00     0.037 A 
ATOM     25  C   UNL A   1      40.766  30.865  34.884  1.00  0.00     0.049 A 
ATOM     26  C   UNL A   1      41.982  27.913  30.147  1.00  0.00     0.074 A 
ATOM     27  C   UNL A   1      41.492  30.521  36.005  1.00  0.00     0.029 A 
ATOM     28  N   UNL A   1      41.204  30.052  33.844  1.00  0.00    -0.354 N 
ATOM     29  N   UNL A   1      41.796  28.525  31.296  1.00  0.00    -0.248 NA
ATOM     30  C   UNL A   1      43.053  26.912  30.163  1.00  0.00     0.031 C 
ATOM     31  C   UNL A   1      42.402  29.529  35.631  1.00  0.00     0.029 A 
ATOM     32  C   UNL A   1      42.208  29.219  34.291  1.00  0.00     0.049 A 
ATOM     33  H   UNL A   1      40.850  30.069  32.926  1.00  0.00     0.167 HD
ATOM     34  C   UNL A   1      42.697  27.959  32.183  1.00  0.00     0.074 A 
ATOM     35  C   UNL A   1      43.429  26.953  31.435  1.00  0.00     0.031 C 
ATOM     36  C   UNL A   1      42.897  28.231  33.496  1.00  0.00     0.037 A 
BRANCH  23  37
ATOM     37  C   UNL A   1      39.326  32.686  35.924  1.00  0.00     0.057 A 
ATOM     38  C   UNL A   1      38.358  32.219  36.820  1.00  0.00     0.134 A 
ATOM     39  C   UNL A   1      39.901  33.938  36.190  1.00  0.00     0.134 A 
ATOM     40  F   UNL A   1      37.778  31.025  36.635  1.00  0.00    -0.206 F 
ATOM     41  C   UNL A   1      37.974  32.969  37.935  1.00  0.00     0.040 A 
ATOM     42  C   UNL A   1      39.546  34.684  37.315  1.00  0.00     0.040 A 
ATOM     43  F   UNL A   1      40.861  34.429  35.391  1.00  0.00    -0.206 F 
ATOM     44  C   UNL A   1      38.573  34.202  38.188  1.00  0.00     0.006 A 
ENDBRANCH  23  37
BRANCH  24  45
ATOM     45  C   UNL A   1      41.533  27.308  27.635  1.00  0.00     0.057 A 
ATOM     46  C   UNL A   1      41.038  26.007  27.463  1.00  0.00     0.134 A 
ATOM     47  C   UNL A   1      42.380  27.807  26.640  1.00  0.00     0.134 A 
ATOM     48  F   UNL A   1      40.232  25.462  28.386  1.00  0.00    -0.206 F 
ATOM     49  C   UNL A   1      41.383  25.230  26.356  1.00  0.00     0.040 A 
ATOM     50  C   UNL A   1      42.718  27.048  25.517  1.00  0.00     0.040 A 
ATOM     51  F   UNL A   1      42.886  29.044  26.744  1.00  0.00    -0.206 F 
ATOM     52  C   UNL A   1      42.225  25.751  25.376  1.00  0.00     0.006 A 
ENDBRANCH  24  45
BRANCH  36  53
ATOM     53  C   UNL A   1      43.931  27.418  34.206  1.00  0.00     0.057 A 
ATOM     54  C   UNL A   1      43.576  26.225  34.847  1.00  0.00     0.134 A 
ATOM     55  C   UNL A   1      45.246  27.875  34.350  1.00  0.00     0.134 A 
ATOM     56  F   UNL A   1      42.324  25.748  34.756  1.00  0.00    -0.206 F 
ATOM     57  C   UNL A   1      44.489  25.525  35.631  1.00  0.00     0.040 A 
ATOM     58  C   UNL A   1      46.176  27.167  35.107  1.00  0.00     0.040 A 
ATOM     59  F   UNL A   1      45.641  29.007  33.750  1.00  0.00    -0.206 F 
ATOM     60  C   UNL A   1      45.794  25.996  35.761  1.00  0.00     0.006 A 
ENDBRANCH  36  53
ENDBRANCH  10  11
ENDBRANCH   3   5
ENDBRANCH   2   3
ENDBRANCH   1   2
BRANCH   1  61
ATOM     61  C   UNL A   1      32.493  31.067  26.829  1.00  0.00     0.275 C 
BRANCH  61  62
ATOM     62  O   UNL A   1      31.518  30.210  26.205  1.00  0.00    -0.458 OA
BRANCH  62  63
ATOM     63  C   UNL A   1      31.870  29.608  25.035  1.00  0.00     0.340 C 
ATOM     64  O   UNL A   1      32.993  29.517  24.574  1.00  0.00    -0.246 OA
BRANCH  63  65
ATOM     65  C   UNL A   1      30.634  29.194  24.331  1.00  0.00     0.086 A 
ATOM     66  C   UNL A   1      29.922  30.208  23.669  1.00  0.00     0.057 A 
ATOM     67  C   UNL A   1      30.236  27.848  24.194  1.00  0.00     0.056 A 
ATOM     68  C   UNL A   1      28.793  29.889  22.923  1.00  0.00     0.124 A 
ATOM     69  C   UNL A   1      29.033  27.580  23.501  1.00  0.00     0.030 A 
ATOM     70  F   UNL A   1      28.172  30.849  22.228  1.00  0.00    -0.207 F 
ATOM     71  C   UNL A   1      28.312  28.593  22.872  1.00  0.00     0.041 A 
BRANCH  67  72
ATOM     72  N   UNL A   1      31.012  26.745  24.589  1.00  0.00    -0.341 N 
ATOM     73  C   UNL A   1      30.942  26.272  25.966  1.00  0.00     0.123 C 
ATOM     74  C   UNL A   1      31.682  25.865  23.711  1.00  0.00     0.044 A 
ATOM     75  C   UNL A   1      30.339  24.874  25.996  1.00  0.00     0.027 C 
ATOM     76  C   UNL A   1      31.881  24.508  24.046  1.00  0.00    -0.024 A 
ATOM     77  C   UNL A   1      32.175  26.339  22.486  1.00  0.00     0.026 A 
ATOM     78  C   UNL A   1      31.317  23.924  25.321  1.00  0.00     0.039 C 
ATOM     79  C   UNL A   1      32.629  23.685  23.195  1.00  0.00     0.006 A 
ATOM     80  C   UNL A   1      32.902  25.509  21.639  1.00  0.00     0.002 A 
ATOM     81  C   UNL A   1      33.144  24.187  22.001  1.00  0.00     0.000 A 
ENDBRANCH  67  72
ENDBRANCH  63  65
ENDBRANCH  62  63
ENDBRANCH  61  62
ENDBRANCH   1  61
TORSDOF 12
ENDMDL
MODEL 2
REMARK VINA RESULT:     -12.2      0.610      1.607
REMARK SMILES O=C(OCCOC(=O)c1cc(F)ccc1N1CCCc2ccccc21)c1ccc(-c2c3nc(c(-c4c(F)cccc4F)c4ccc([nH]4)c(-c4c(F)cccc4F)c4nc(c(-c5c(F)cccc5F)c5ccc2[nH]5)C=C4)C=C3)cc1
REMARK SMILES IDX 4 1 3 2 2 3 1 4 26 5 27 6 79 7 28 8 78 9 29 10 30 11 31 12
REMARK SMILES IDX 72 13 32 14 77 15 71 16 73 17 33 18 76 19 70 20 69 21 34 23
REMARK SMILES IDX 60 24 43 25 59 26 44 27 47 28 58 29 74 30 45 31 46 32 57 34
REMARK SMILES IDX 75 35 48 36 35 37 36 38 41 39 37 40 38 41 40 42 42 43 39 44
REMARK SMILES IDX 61 45 62 46 67 47 63 48 64 49 66 50 68 51 65 52 49 53 50 54
REMARK SMILES IDX 55 55 51 56 52 57 54 58 56 59 53 60 5 61 6 62 7 63 8 64 9 65
REMARK SMILES IDX 10 66 15 67 11 68 14 69 12 70 13 71 16 72 17 73 25 74 18 75
REMARK SMILES IDX 20 76 24 77 19 78 21 79 23 80 22 81
REMARK H PARENT 73 22 47 33
REMARK Flexibility Score: inf
ROOT
ATOM      1  C   UNL A   1      32.014  32.425  27.180  1.00  0.00     0.275 C 
ENDROOT
BRANCH   1   2
ATOM      2  O   UNL A   1      32.984  33.470  27.240  1.00  0.00    -0.458 OA
BRANCH   2   3
ATOM      3  C   UNL A   1      33.223  34.017  28.453  1.00  0.00     0.338 C 
ATOM      4  O   UNL A   1      32.623  34.946  28.951  1.00  0.00    -0.246 OA
BRANCH   3   5
ATOM      5  C   UNL A   1      34.484  33.397  28.953  1.00  0.00     0.060 A 
ATOM      6  C   UNL A   1      34.412  32.256  29.767  1.00  0.00     0.016 A 
ATOM      7  C   UNL A   1      35.725  33.830  28.484  1.00  0.00     0.016 A 
ATOM      8  C   UNL A   1      35.555  31.568  30.112  1.00  0.00     0.010 A 
ATOM      9  C   UNL A   1      36.864  33.071  28.726  1.00  0.00     0.010 A 
ATOM     10  C   UNL A   1      36.781  31.977  29.592  1.00  0.00    -0.014 A 
BRANCH  10  11
ATOM     11  C   UNL A   1      37.997  31.397  30.172  1.00  0.00     0.031 A 
ATOM     12  C   UNL A   1      38.338  31.793  31.575  1.00  0.00     0.074 A 
ATOM     13  C   UNL A   1      38.682  30.467  29.485  1.00  0.00     0.049 A 
ATOM     14  N   UNL A   1      39.282  31.340  32.351  1.00  0.00    -0.248 NA
ATOM     15  C   UNL A   1      37.498  32.833  32.202  1.00  0.00     0.031 C 
ATOM     16  C   UNL A   1      38.361  30.016  28.131  1.00  0.00     0.029 A 
ATOM     17  N   UNL A   1      39.777  29.730  29.830  1.00  0.00    -0.354 N 
ATOM     18  C   UNL A   1      39.124  32.017  33.551  1.00  0.00     0.074 A 
ATOM     19  C   UNL A   1      38.076  32.989  33.378  1.00  0.00     0.031 C 
ATOM     20  C   UNL A   1      39.263  29.101  27.743  1.00  0.00     0.029 A 
ATOM     21  C   UNL A   1      40.205  28.888  28.833  1.00  0.00     0.049 A 
ATOM     22  H   UNL A   1      40.217  29.794  30.708  1.00  0.00     0.167 HD
ATOM     23  C   UNL A   1      39.759  31.787  34.719  1.00  0.00     0.037 A 
ATOM     24  C   UNL A   1      41.238  28.030  28.823  1.00  0.00     0.037 A 
ATOM     25  C   UNL A   1      40.781  30.792  34.854  1.00  0.00     0.049 A 
ATOM     26  C   UNL A   1      41.993  27.853  30.108  1.00  0.00     0.074 A 
ATOM     27  C   UNL A   1      41.507  30.445  35.974  1.00  0.00     0.029 A 
ATOM     28  N   UNL A   1      41.218  29.982  33.811  1.00  0.00    -0.354 N 
ATOM     29  N   UNL A   1      41.807  28.462  31.259  1.00  0.00    -0.248 NA
ATOM     30  C   UNL A   1      43.064  26.852  30.121  1.00  0.00     0.031 C 
ATOM     31  C   UNL A   1      42.417  29.454  35.596  1.00  0.00     0.029 A 
ATOM     32  C   UNL A   1      42.222  29.148  34.256  1.00  0.00     0.049 A 
ATOM     33  H   UNL A   1      40.863  30.002  32.894  1.00  0.00     0.167 HD
ATOM     34  C   UNL A   1      42.709  27.893  32.144  1.00  0.00     0.074 A 
ATOM     35  C   UNL A   1      43.442  26.889  31.393  1.00  0.00     0.031 C 
ATOM     36  C   UNL A   1      42.910  28.161  33.458  1.00  0.00     0.037 A 
BRANCH  23  37
ATOM     37  C   UNL A   1      39.341  32.610  35.900  1.00  0.00     0.057 A 
ATOM     38  C   UNL A   1      39.891  33.878  36.122  1.00  0.00     0.134 A 
ATOM     39  C   UNL A   1      38.372  32.160  36.809  1.00  0.00     0.134 A 
ATOM     40  F   UNL A   1      40.812  34.376  35.284  1.00  0.00    -0.206 F 
ATOM     41  C   UNL A   1      39.496  34.665  37.205  1.00  0.00     0.040 A 
ATOM     42  C   UNL A   1      37.949  32.948  37.880  1.00  0.00     0.040 A 
ATOM     43  F   UNL A   1      37.778  30.969  36.636  1.00  0.00    -0.206 F 
ATOM     44  C   UNL A   1      38.518  34.203  38.085  1.00  0.00     0.006 A 
ENDBRANCH  23  37
BRANCH  24  45
ATOM     45  C   UNL A   1      41.542  27.254  27.595  1.00  0.00     0.057 A 
ATOM     46  C   UNL A   1      41.057  25.949  27.426  1.00  0.00     0.134 A 
ATOM     47  C   UNL A   1      42.378  27.760  26.595  1.00  0.00     0.134 A 
ATOM     48  F   UNL A   1      40.263  25.396  28.354  1.00  0.00    -0.206 F 
ATOM     49  C   UNL A   1      41.402  25.175  26.316  1.00  0.00     0.040 A 
ATOM     50  C   UNL A   1      42.716  27.006  25.470  1.00  0.00     0.040 A 
ATOM     51  F   UNL A   1      42.874  29.002  26.696  1.00  0.00    -0.206 F 
ATOM     52  C   UNL A   1      42.234  25.704  25.331  1.00  0.00     0.006 A 
ENDBRANCH  24  45
BRANCH  36  53
ATOM     53  C   UNL A   1      43.946  27.347  34.165  1.00  0.00     0.057 A 
ATOM     54  C   UNL A   1      43.586  26.164  34.823  1.00  0.00     0.134 A 
ATOM     55  C   UNL A   1      45.265  27.793  34.289  1.00  0.00     0.134 A 
ATOM     56  F   UNL A   1      42.330  25.698  34.751  1.00  0.00    -0.206 F 
ATOM     57  C   UNL A   1      44.502  25.464  35.604  1.00  0.00     0.040 A 
ATOM     58  C   UNL A   1      46.198  27.085  35.043  1.00  0.00     0.040 A 
ATOM     59  F   UNL A   1      45.665  28.916  33.673  1.00  0.00    -0.206 F 
ATOM     60  C   UNL A   1      45.812  25.924  35.714  1.00  0.00     0.006 A 
ENDBRANCH  36  53
ENDBRANCH  10  11
ENDBRANCH   3   5
ENDBRANCH   2   3
ENDBRANCH   1   2
BRANCH   1  61
ATOM     61  C   UNL A   1      32.520  30.979  26.959  1.00  0.00     0.275 C 
BRANCH  61  62
ATOM     62  O   UNL A   1      31.603  30.087  26.299  1.00  0.00    -0.458 OA
BRANCH  62  63
ATOM     63  C   UNL A   1      31.907  29.704  25.028  1.00  0.00     0.340 C 
ATOM     64  O   UNL A   1      33.022  29.564  24.558  1.00  0.00    -0.246 OA
BRANCH  63  65
ATOM     65  C   UNL A   1      30.648  29.614  24.251  1.00  0.00     0.086 A 
ATOM     66  C   UNL A   1      29.904  30.798  24.127  1.00  0.00     0.057 A 
ATOM     67  C   UNL A   1      30.256  28.456  23.547  1.00  0.00     0.056 A 
ATOM     68  C   UNL A   1      28.750  30.814  23.351  1.00  0.00     0.124 A 
ATOM     69  C   UNL A   1      29.030  28.493  22.843  1.00  0.00     0.030 A 
ATOM     70  F   UNL A   1      28.096  31.968  23.170  1.00  0.00    -0.207 F 
ATOM     71  C   UNL A   1      28.277  29.662  22.748  1.00  0.00     0.041 A 
BRANCH  67  72
ATOM     72  N   UNL A   1      31.054  27.311  23.390  1.00  0.00    -0.341 N 
ATOM     73  C   UNL A   1      31.803  27.118  22.154  1.00  0.00     0.123 C 
ATOM     74  C   UNL A   1      31.417  26.424  24.428  1.00  0.00     0.044 A 
ATOM     75  C   UNL A   1      33.296  27.172  22.448  1.00  0.00     0.027 C 
ATOM     76  C   UNL A   1      32.645  25.727  24.398  1.00  0.00    -0.024 A 
ATOM     77  C   UNL A   1      30.545  26.214  25.506  1.00  0.00     0.026 A 
ATOM     78  C   UNL A   1      33.653  25.960  23.297  1.00  0.00     0.039 C 
ATOM     79  C   UNL A   1      32.934  24.786  25.394  1.00  0.00     0.006 A 
ATOM     80  C   UNL A   1      30.849  25.289  26.501  1.00  0.00     0.002 A 
ATOM     81  C   UNL A   1      32.034  24.564  26.436  1.00  0.00     0.000 A 
ENDBRANCH  67  72
ENDBRANCH  63  65
ENDBRANCH  62  63
ENDBRANCH  61  62
ENDBRANCH   1  61
TORSDOF 12
ENDMDL
MODEL 3
REMARK VINA RESULT:     -12.1      1.531      2.177
REMARK SMILES O=C(OCCOC(=O)c1cc(F)ccc1N1CCCc2ccccc21)c1ccc(-c2c3nc(c(-c4c(F)cccc4F)c4ccc([nH]4)c(-c4c(F)cccc4F)c4nc(c(-c5c(F)cccc5F)c5ccc2[nH]5)C=C4)C=C3)cc1
REMARK SMILES IDX 4 1 3 2 2 3 1 4 26 5 27 6 79 7 28 8 78 9 29 10 30 11 31 12
REMARK SMILES IDX 72 13 32 14 77 15 71 16 73 17 33 18 76 19 70 20 69 21 34 23
REMARK SMILES IDX 60 24 43 25 59 26 44 27 47 28 58 29 74 30 45 31 46 32 57 34
REMARK SMILES IDX 75 35 48 36 35 37 36 38 41 39 37 40 38 41 40 42 42 43 39 44
REMARK SMILES IDX 61 45 62 46 67 47 63 48 64 49 66 50 68 51 65 52 49 53 50 54
REMARK SMILES IDX 55 55 51 56 52 57 54 58 56 59 53 60 5 61 6 62 7 63 8 64 9 65
REMARK SMILES IDX 10 66 15 67 11 68 14 69 12 70 13 71 16 72 17 73 25 74 18 75
REMARK SMILES IDX 20 76 24 77 19 78 21 79 23 80 22 81
REMARK H PARENT 73 22 47 33
REMARK Flexibility Score: inf
ROOT
ATOM      1  C   UNL A   1      31.814  31.912  26.846  1.00  0.00     0.275 C 
ENDROOT
BRANCH   1   2
ATOM      2  O   UNL A   1      33.054  32.619  26.850  1.00  0.00    -0.458 OA
BRANCH   2   3
ATOM      3  C   UNL A   1      33.336  33.357  27.947  1.00  0.00     0.338 C 
ATOM      4  O   UNL A   1      32.762  34.365  28.300  1.00  0.00    -0.246 OA
BRANCH   3   5
ATOM      5  C   UNL A   1      34.606  32.810  28.507  1.00  0.00     0.060 A 
ATOM      6  C   UNL A   1      34.651  31.471  28.923  1.00  0.00     0.016 A 
ATOM      7  C   UNL A   1      35.785  33.556  28.460  1.00  0.00     0.016 A 
ATOM      8  C   UNL A   1      35.846  30.892  29.294  1.00  0.00     0.010 A 
ATOM      9  C   UNL A   1      37.006  32.944  28.712  1.00  0.00     0.010 A 
ATOM     10  C   UNL A   1      37.024  31.630  29.189  1.00  0.00    -0.014 A 
BRANCH  10  11
ATOM     11  C   UNL A   1      38.229  31.087  29.825  1.00  0.00     0.031 A 
ATOM     12  C   UNL A   1      38.484  31.481  31.247  1.00  0.00     0.074 A 
ATOM     13  C   UNL A   1      38.980  30.190  29.166  1.00  0.00     0.049 A 
ATOM     14  N   UNL A   1      39.404  31.054  32.065  1.00  0.00    -0.248 NA
ATOM     15  C   UNL A   1      37.577  32.485  31.838  1.00  0.00     0.031 C 
ATOM     16  C   UNL A   1      38.744  29.741  27.793  1.00  0.00     0.029 A 
ATOM     17  N   UNL A   1      40.082  29.487  29.559  1.00  0.00    -0.354 N 
ATOM     18  C   UNL A   1      39.162  31.713  33.262  1.00  0.00     0.074 A 
ATOM     19  C   UNL A   1      38.090  32.649  33.044  1.00  0.00     0.031 C 
ATOM     20  C   UNL A   1      39.696  28.862  27.444  1.00  0.00     0.029 A 
ATOM     21  C   UNL A   1      40.589  28.672  28.578  1.00  0.00     0.049 A 
ATOM     22  H   UNL A   1      40.475  29.559  30.459  1.00  0.00     0.167 HD
ATOM     23  C   UNL A   1      39.745  31.494  34.458  1.00  0.00     0.037 A 
ATOM     24  C   UNL A   1      41.652  27.851  28.614  1.00  0.00     0.037 A 
ATOM     25  C   UNL A   1      40.794  30.534  34.636  1.00  0.00     0.049 A 
ATOM     26  C   UNL A   1      42.347  27.687  29.934  1.00  0.00     0.074 A 
ATOM     27  C   UNL A   1      41.475  30.202  35.788  1.00  0.00     0.029 A 
ATOM     28  N   UNL A   1      41.311  29.751  33.610  1.00  0.00    -0.354 N 
ATOM     29  N   UNL A   1      42.082  28.278  31.078  1.00  0.00    -0.248 NA
ATOM     30  C   UNL A   1      43.451  26.724  29.992  1.00  0.00     0.031 C 
ATOM     31  C   UNL A   1      42.438  29.248  35.449  1.00  0.00     0.029 A 
ATOM     32  C   UNL A   1      42.321  28.948  34.098  1.00  0.00     0.049 A 
ATOM     33  H   UNL A   1      41.002  29.767  32.676  1.00  0.00     0.167 HD
ATOM     34  C   UNL A   1      42.958  27.732  32.003  1.00  0.00     0.074 A 
ATOM     35  C   UNL A   1      43.762  26.762  31.281  1.00  0.00     0.031 C 
ATOM     36  C   UNL A   1      43.083  27.994  33.327  1.00  0.00     0.037 A 
BRANCH  23  37
ATOM     37  C   UNL A   1      39.240  32.290  35.623  1.00  0.00     0.057 A 
ATOM     38  C   UNL A   1      39.669  33.605  35.834  1.00  0.00     0.134 A 
ATOM     39  C   UNL A   1      38.305  31.763  36.528  1.00  0.00     0.134 A 
ATOM     40  F   UNL A   1      40.550  34.175  34.999  1.00  0.00    -0.206 F 
ATOM     41  C   UNL A   1      39.190  34.366  36.902  1.00  0.00     0.040 A 
ATOM     42  C   UNL A   1      37.799  32.523  37.584  1.00  0.00     0.040 A 
ATOM     43  F   UNL A   1      37.824  30.521  36.364  1.00  0.00    -0.206 F 
ATOM     44  C   UNL A   1      38.248  33.828  37.777  1.00  0.00     0.006 A 
ENDBRANCH  23  37
BRANCH  24  45
ATOM     45  C   UNL A   1      42.044  27.098  27.396  1.00  0.00     0.057 A 
ATOM     46  C   UNL A   1      41.534  25.817  27.142  1.00  0.00     0.134 A 
ATOM     47  C   UNL A   1      42.988  27.601  26.495  1.00  0.00     0.134 A 
ATOM     48  F   UNL A   1      40.636  25.269  27.973  1.00  0.00    -0.206 F 
ATOM     49  C   UNL A   1      41.956  25.062  26.045  1.00  0.00     0.040 A 
ATOM     50  C   UNL A   1      43.405  26.866  25.383  1.00  0.00     0.040 A 
ATOM     51  F   UNL A   1      43.514  28.820  26.681  1.00  0.00    -0.206 F 
ATOM     52  C   UNL A   1      42.894  25.587  25.160  1.00  0.00     0.006 A 
ENDBRANCH  24  45
BRANCH  36  53
ATOM     53  C   UNL A   1      44.110  27.209  34.079  1.00  0.00     0.057 A 
ATOM     54  C   UNL A   1      43.748  26.040  34.759  1.00  0.00     0.134 A 
ATOM     55  C   UNL A   1      45.422  27.674  34.222  1.00  0.00     0.134 A 
ATOM     56  F   UNL A   1      42.498  25.559  34.671  1.00  0.00    -0.206 F 
ATOM     57  C   UNL A   1      44.652  25.371  35.579  1.00  0.00     0.040 A 
ATOM     58  C   UNL A   1      46.344  26.995  35.015  1.00  0.00     0.040 A 
ATOM     59  F   UNL A   1      45.824  28.784  33.585  1.00  0.00    -0.206 F 
ATOM     60  C   UNL A   1      45.955  25.848  35.707  1.00  0.00     0.006 A 
ENDBRANCH  36  53
ENDBRANCH  10  11
ENDBRANCH   3   5
ENDBRANCH   2   3
ENDBRANCH   1   2
BRANCH   1  61
ATOM     61  C   UNL A   1      31.830  30.428  26.406  1.00  0.00     0.275 C 
BRANCH  61  62
ATOM     62  O   UNL A   1      33.037  29.977  25.762  1.00  0.00    -0.458 OA
BRANCH  62  63
ATOM     63  C   UNL A   1      33.394  28.676  25.943  1.00  0.00     0.340 C 
ATOM     64  O   UNL A   1      33.855  28.182  26.956  1.00  0.00    -0.246 OA
BRANCH  63  65
ATOM     65  C   UNL A   1      33.263  27.969  24.647  1.00  0.00     0.086 A 
ATOM     66  C   UNL A   1      33.840  28.597  23.531  1.00  0.00     0.057 A 
ATOM     67  C   UNL A   1      32.715  26.675  24.525  1.00  0.00     0.056 A 
ATOM     68  C   UNL A   1      33.824  27.962  22.294  1.00  0.00     0.124 A 
ATOM     69  C   UNL A   1      32.641  26.107  23.232  1.00  0.00     0.030 A 
ATOM     70  F   UNL A   1      34.452  28.530  21.257  1.00  0.00    -0.207 F 
ATOM     71  C   UNL A   1      33.188  26.746  22.121  1.00  0.00     0.041 A 
BRANCH  67  72
ATOM     72  N   UNL A   1      32.353  25.858  25.609  1.00  0.00    -0.341 N 
ATOM     73  C   UNL A   1      31.044  26.024  26.230  1.00  0.00     0.123 C 
ATOM     74  C   UNL A   1      33.040  24.693  26.016  1.00  0.00     0.044 A 
ATOM     75  C   UNL A   1      30.211  24.769  26.007  1.00  0.00     0.027 C 
ATOM     76  C   UNL A   1      32.357  23.615  26.621  1.00  0.00    -0.024 A 
ATOM     77  C   UNL A   1      34.427  24.599  25.833  1.00  0.00     0.026 A 
ATOM     78  C   UNL A   1      30.856  23.631  26.786  1.00  0.00     0.039 C 
ATOM     79  C   UNL A   1      33.080  22.514  27.095  1.00  0.00     0.006 A 
ATOM     80  C   UNL A   1      35.135  23.493  26.293  1.00  0.00     0.002 A 
ATOM     81  C   UNL A   1      34.465  22.459  26.939  1.00  0.00     0.000 A 
ENDBRANCH  67  72
ENDBRANCH  63  65
ENDBRANCH  62  63
ENDBRANCH  61  62
ENDBRANCH   1  61
TORSDOF 12
ENDMDL
