MODEL 1
REMARK VINA RESULT:     -12.8      0.000      0.000
REMARK SMILES Cc1ccccc1/[NH+]=C1\S[C@@H](CC(=O)Nc2ccc(C(=O)OCCOC(=O)c3ccc(-c4c5nc(c(-c6c(F)cccc6F)c6ccc([nH]6)c(-c6c(F)cccc6F)c6nc(c(-c7c(F)cccc7F)c7ccc4[nH]7)C=C6)C=C5)cc3)cc2)C(=O)N1C
REMARK SMILES IDX 23 1 22 2 20 3 21 4 19 5 16 6 17 7 83 8 18 9 82 10 15 11
REMARK SMILES IDX 13 12 14 13 12 15 11 16 8 17 9 18 10 20 86 21 84 22 87 23
REMARK SMILES IDX 85 24 7 25 1 26 2 27 3 28 4 29 6 30 5 31 24 32 25 33 26 34
REMARK SMILES IDX 27 35 28 36 29 37 81 38 30 39 80 40 31 41 32 42 33 43 74 44
REMARK SMILES IDX 34 45 79 46 73 47 75 48 35 49 78 50 72 51 71 52 36 54 62 55
REMARK SMILES IDX 45 56 61 57 46 58 49 59 60 60 76 61 47 62 48 63 59 65 77 66
REMARK SMILES IDX 50 67 37 68 38 69 43 70 39 71 40 72 42 73 44 74 41 75 63 76
REMARK SMILES IDX 64 77 69 78 65 79 66 80 68 81 70 82 67 83 51 84 52 85 57 86
REMARK SMILES IDX 53 87 54 88 56 89 58 90 55 91
REMARK H PARENT 15 14 8 19 75 53 49 64
REMARK Flexibility Score: inf
ROOT
ATOM      1  C   UNL A   1      42.536  19.713  26.179  1.00  0.00     0.275 C 
ENDROOT
BRANCH   1   2
ATOM      2  O   UNL A   1      41.649  20.765  25.781  1.00  0.00    -0.458 OA
BRANCH   2   3
ATOM      3  C   UNL A   1      41.094  21.430  26.821  1.00  0.00     0.338 C 
ATOM      4  O   UNL A   1      41.608  21.677  27.901  1.00  0.00    -0.246 OA
BRANCH   3   5
ATOM      5  C   UNL A   1      39.688  21.755  26.547  1.00  0.00     0.060 A 
ATOM      6  C   UNL A   1      37.561  22.740  25.106  1.00  0.00     0.041 A 
ATOM      7  C   UNL A   1      38.209  23.568  26.022  1.00  0.00     0.027 A 
ATOM      8  C   UNL A   1      37.805  21.372  25.084  1.00  0.00     0.027 A 
ATOM      9  C   UNL A   1      39.301  23.080  26.731  1.00  0.00     0.018 A 
ATOM     10  C   UNL A   1      38.896  20.880  25.792  1.00  0.00     0.018 A 
BRANCH   6  11
ATOM     11  N   UNL A   1      36.955  23.343  23.996  1.00  0.00    -0.326 N 
ATOM     12  C   UNL A   1      35.643  23.090  23.639  1.00  0.00     0.226 C 
ATOM     13  O   UNL A   1      35.278  23.300  22.481  1.00  0.00    -0.275 OA
ATOM     14  H   UNL A   1      37.483  23.971  23.452  1.00  0.00     0.169 HD
BRANCH  12  15
ATOM     15  C   UNL A   1      34.650  22.605  24.691  1.00  0.00     0.128 C 
BRANCH  15  16
ATOM     16  C   UNL A   1      33.331  23.357  24.717  1.00  0.00     0.183 C 
ATOM     17  N   UNL A   1      30.869  25.633  26.120  1.00  0.00    -0.234 N 
ATOM     18  C   UNL A   1      31.817  24.771  26.127  1.00  0.00     0.319 C 
ATOM     19  H   UNL A   1      30.020  25.297  26.490  1.00  0.00     0.313 HD
ATOM     20  S   UNL A   1      33.500  24.869  25.753  1.00  0.00    -0.022 SA
ATOM     21  N   UNL A   1      31.515  23.456  26.299  1.00  0.00    -0.193 N 
ATOM     22  C   UNL A   1      32.117  22.671  25.341  1.00  0.00     0.324 C 
ATOM     23  C   UNL A   1      30.370  23.014  27.073  1.00  0.00     0.301 C 
ATOM     24  O   UNL A   1      31.623  21.641  24.890  1.00  0.00    -0.245 OA
BRANCH  17  25
ATOM     25  C   UNL A   1      30.815  26.962  25.684  1.00  0.00     0.128 A 
ATOM     26  C   UNL A   1      32.269  28.138  27.480  1.00  0.00     0.049 C 
ATOM     27  C   UNL A   1      31.483  28.092  26.203  1.00  0.00    -0.004 A 
ATOM     28  C   UNL A   1      31.479  29.298  25.470  1.00  0.00     0.008 A 
ATOM     29  C   UNL A   1      30.926  29.376  24.197  1.00  0.00     0.001 A 
ATOM     30  C   UNL A   1      30.247  27.081  24.400  1.00  0.00     0.052 A 
ATOM     31  C   UNL A   1      30.316  28.259  23.653  1.00  0.00     0.004 A 
ENDBRANCH  17  25
ENDBRANCH  15  16
ENDBRANCH  12  15
ENDBRANCH   6  11
ENDBRANCH   3   5
ENDBRANCH   2   3
ENDBRANCH   1   2
BRANCH   1  32
ATOM     32  C   UNL A   1      43.703  19.547  25.197  1.00  0.00     0.275 C 
BRANCH  32  33
ATOM     33  O   UNL A   1      44.269  20.748  24.595  1.00  0.00    -0.458 OA
BRANCH  33  34
ATOM     34  C   UNL A   1      45.295  21.524  25.046  1.00  0.00     0.338 C 
ATOM     35  O   UNL A   1      46.456  21.291  24.808  1.00  0.00    -0.246 OA
BRANCH  34  36
ATOM     36  C   UNL A   1      44.912  22.720  25.808  1.00  0.00     0.060 A 
ATOM     37  C   UNL A   1      44.882  22.634  27.204  1.00  0.00     0.016 A 
ATOM     38  C   UNL A   1      44.702  23.923  25.144  1.00  0.00     0.016 A 
ATOM     39  C   UNL A   1      44.773  23.791  27.959  1.00  0.00     0.010 A 
ATOM     40  C   UNL A   1      44.714  25.081  25.876  1.00  0.00     0.010 A 
ATOM     41  C   UNL A   1      44.722  25.006  27.277  1.00  0.00    -0.014 A 
BRANCH  41  42
ATOM     42  C   UNL A   1      44.245  26.215  27.913  1.00  0.00     0.031 A 
ATOM     43  C   UNL A   1      42.850  26.652  27.791  1.00  0.00     0.074 A 
ATOM     44  C   UNL A   1      45.229  26.781  28.645  1.00  0.00     0.049 A 
ATOM     45  N   UNL A   1      42.502  27.888  27.709  1.00  0.00    -0.248 NA
ATOM     46  C   UNL A   1      41.713  25.734  27.693  1.00  0.00     0.031 C 
ATOM     47  C   UNL A   1      45.225  27.830  29.639  1.00  0.00     0.029 A 
ATOM     48  N   UNL A   1      46.594  26.504  28.459  1.00  0.00    -0.354 N 
ATOM     49  C   UNL A   1      41.145  27.926  27.954  1.00  0.00     0.074 A 
ATOM     50  C   UNL A   1      40.672  26.578  27.752  1.00  0.00     0.031 C 
ATOM     51  C   UNL A   1      46.481  28.315  29.747  1.00  0.00     0.029 A 
ATOM     52  C   UNL A   1      47.299  27.670  28.723  1.00  0.00     0.049 A 
ATOM     53  H   UNL A   1      46.980  25.639  28.189  1.00  0.00     0.167 HD
ATOM     54  C   UNL A   1      40.618  29.020  28.574  1.00  0.00     0.037 A 
ATOM     55  C   UNL A   1      47.922  28.285  27.675  1.00  0.00     0.037 A 
ATOM     56  C   UNL A   1      41.694  29.934  28.938  1.00  0.00     0.049 A 
ATOM     57  C   UNL A   1      47.268  29.615  27.406  1.00  0.00     0.074 A 
ATOM     58  C   UNL A   1      42.438  30.013  30.105  1.00  0.00     0.029 A 
ATOM     59  N   UNL A   1      42.426  30.582  27.953  1.00  0.00    -0.354 N 
ATOM     60  N   UNL A   1      45.989  29.847  27.537  1.00  0.00    -0.248 NA
ATOM     61  C   UNL A   1      48.038  30.807  27.081  1.00  0.00     0.031 C 
ATOM     62  C   UNL A   1      43.640  30.695  29.812  1.00  0.00     0.029 A 
ATOM     63  C   UNL A   1      43.635  31.013  28.466  1.00  0.00     0.049 A 
ATOM     64  H   UNL A   1      42.126  30.718  27.025  1.00  0.00     0.167 HD
ATOM     65  C   UNL A   1      45.772  31.199  27.426  1.00  0.00     0.074 A 
ATOM     66  C   UNL A   1      47.081  31.748  27.117  1.00  0.00     0.031 C 
ATOM     67  C   UNL A   1      44.559  31.785  27.659  1.00  0.00     0.037 A 
BRANCH  54  68
ATOM     68  C   UNL A   1      39.245  29.072  29.194  1.00  0.00     0.057 A 
ATOM     69  C   UNL A   1      38.118  29.469  28.445  1.00  0.00     0.134 A 
ATOM     70  C   UNL A   1      38.973  28.724  30.528  1.00  0.00     0.134 A 
ATOM     71  F   UNL A   1      38.204  29.784  27.147  1.00  0.00    -0.206 F 
ATOM     72  C   UNL A   1      36.832  29.572  28.988  1.00  0.00     0.040 A 
ATOM     73  C   UNL A   1      37.691  28.843  31.092  1.00  0.00     0.040 A 
ATOM     74  F   UNL A   1      39.935  28.232  31.322  1.00  0.00    -0.206 F 
ATOM     75  C   UNL A   1      36.616  29.274  30.322  1.00  0.00     0.006 A 
ENDBRANCH  54  68
BRANCH  55  76
ATOM     76  C   UNL A   1      48.480  27.357  26.632  1.00  0.00     0.057 A 
ATOM     77  C   UNL A   1      47.784  27.200  25.411  1.00  0.00     0.134 A 
ATOM     78  C   UNL A   1      49.763  26.807  26.677  1.00  0.00     0.134 A 
ATOM     79  F   UNL A   1      46.535  27.680  25.280  1.00  0.00    -0.206 F 
ATOM     80  C   UNL A   1      48.366  26.632  24.273  1.00  0.00     0.040 A 
ATOM     81  C   UNL A   1      50.352  26.207  25.548  1.00  0.00     0.040 A 
ATOM     82  F   UNL A   1      50.509  26.893  27.787  1.00  0.00    -0.206 F 
ATOM     83  C   UNL A   1      49.666  26.146  24.334  1.00  0.00     0.006 A 
ENDBRANCH  55  76
BRANCH  67  84
ATOM     84  C   UNL A   1      44.156  33.196  27.300  1.00  0.00     0.057 A 
ATOM     85  C   UNL A   1      43.813  33.608  26.007  1.00  0.00     0.134 A 
ATOM     86  C   UNL A   1      43.942  34.168  28.310  1.00  0.00     0.134 A 
ATOM     87  F   UNL A   1      43.832  32.765  24.968  1.00  0.00    -0.206 F 
ATOM     88  C   UNL A   1      43.367  34.905  25.727  1.00  0.00     0.040 A 
ATOM     89  C   UNL A   1      43.425  35.437  28.051  1.00  0.00     0.040 A 
ATOM     90  F   UNL A   1      44.193  33.927  29.605  1.00  0.00    -0.206 F 
ATOM     91  C   UNL A   1      43.156  35.819  26.750  1.00  0.00     0.006 A 
ENDBRANCH  67  84
ENDBRANCH  41  42
ENDBRANCH  34  36
ENDBRANCH  33  34
ENDBRANCH  32  33
ENDBRANCH   1  32
TORSDOF 15
ENDMDL
MODEL 2
REMARK VINA RESULT:     -12.7      5.397     10.642
REMARK SMILES Cc1ccccc1/[NH+]=C1\S[C@@H](CC(=O)Nc2ccc(C(=O)OCCOC(=O)c3ccc(-c4c5nc(c(-c6c(F)cccc6F)c6ccc([nH]6)c(-c6c(F)cccc6F)c6nc(c(-c7c(F)cccc7F)c7ccc4[nH]7)C=C6)C=C5)cc3)cc2)C(=O)N1C
REMARK SMILES IDX 23 1 22 2 20 3 21 4 19 5 16 6 17 7 83 8 18 9 82 10 15 11
REMARK SMILES IDX 13 12 14 13 12 15 11 16 8 17 9 18 10 20 86 21 84 22 87 23
REMARK SMILES IDX 85 24 7 25 1 26 2 27 3 28 4 29 6 30 5 31 24 32 25 33 26 34
REMARK SMILES IDX 27 35 28 36 29 37 81 38 30 39 80 40 31 41 32 42 33 43 74 44
REMARK SMILES IDX 34 45 79 46 73 47 75 48 35 49 78 50 72 51 71 52 36 54 62 55
REMARK SMILES IDX 45 56 61 57 46 58 49 59 60 60 76 61 47 62 48 63 59 65 77 66
REMARK SMILES IDX 50 67 37 68 38 69 43 70 39 71 40 72 42 73 44 74 41 75 63 76
REMARK SMILES IDX 64 77 69 78 65 79 66 80 68 81 70 82 67 83 51 84 52 85 57 86
REMARK SMILES IDX 53 87 54 88 56 89 58 90 55 91
REMARK H PARENT 15 14 8 19 75 53 49 64
REMARK Flexibility Score: inf
ROOT
ATOM      1  C   UNL A   1      33.444  35.145  29.425  1.00  0.00     0.275 C 
ENDROOT
BRANCH   1   2
ATOM      2  O   UNL A   1      33.621  33.724  29.376  1.00  0.00    -0.458 OA
BRANCH   2   3
ATOM      3  C   UNL A   1      34.609  33.328  28.539  1.00  0.00     0.338 C 
ATOM      4  O   UNL A   1      35.686  33.873  28.355  1.00  0.00    -0.246 OA
BRANCH   3   5
ATOM      5  C   UNL A   1      34.190  32.165  27.746  1.00  0.00     0.060 A 
ATOM      6  C   UNL A   1      33.119  29.670  27.296  1.00  0.00     0.041 A 
ATOM      7  C   UNL A   1      34.491  29.797  27.514  1.00  0.00     0.027 A 
ATOM      8  C   UNL A   1      32.328  30.789  27.059  1.00  0.00     0.027 A 
ATOM      9  C   UNL A   1      35.030  31.054  27.768  1.00  0.00     0.018 A 
ATOM     10  C   UNL A   1      32.864  32.047  27.311  1.00  0.00     0.018 A 
BRANCH   6  11
ATOM     11  N   UNL A   1      32.507  28.469  27.676  1.00  0.00    -0.326 N 
ATOM     12  C   UNL A   1      31.770  27.700  26.792  1.00  0.00     0.226 C 
ATOM     13  O   UNL A   1      30.938  26.904  27.228  1.00  0.00    -0.275 OA
ATOM     14  H   UNL A   1      32.605  28.161  28.606  1.00  0.00     0.169 HD
BRANCH  12  15
ATOM     15  C   UNL A   1      32.032  27.808  25.292  1.00  0.00     0.128 C 
BRANCH  15  16
ATOM     16  C   UNL A   1      32.084  26.480  24.558  1.00  0.00     0.183 C 
ATOM     17  N   UNL A   1      33.699  23.818  22.682  1.00  0.00    -0.234 N 
ATOM     18  C   UNL A   1      33.488  25.016  23.088  1.00  0.00     0.319 C 
ATOM     19  H   UNL A   1      33.502  23.679  21.728  1.00  0.00     0.313 HD
ATOM     20  S   UNL A   1      33.804  25.827  24.579  1.00  0.00    -0.022 SA
ATOM     21  N   UNL A   1      32.734  25.850  22.324  1.00  0.00    -0.193 N 
ATOM     22  C   UNL A   1      31.749  26.462  23.067  1.00  0.00     0.324 C 
ATOM     23  C   UNL A   1      32.677  25.746  20.878  1.00  0.00     0.301 C 
ATOM     24  O   UNL A   1      30.645  26.765  22.624  1.00  0.00    -0.245 OA
BRANCH  17  25
ATOM     25  C   UNL A   1      34.156  22.673  23.344  1.00  0.00     0.128 A 
ATOM     26  C   UNL A   1      36.672  23.228  23.627  1.00  0.00     0.049 C 
ATOM     27  C   UNL A   1      35.443  22.400  23.856  1.00  0.00    -0.004 A 
ATOM     28  C   UNL A   1      35.632  21.284  24.700  1.00  0.00     0.008 A 
ATOM     29  C   UNL A   1      34.563  20.506  25.130  1.00  0.00     0.001 A 
ATOM     30  C   UNL A   1      33.098  21.852  23.784  1.00  0.00     0.052 A 
ATOM     31  C   UNL A   1      33.287  20.798  24.680  1.00  0.00     0.004 A 
ENDBRANCH  17  25
ENDBRANCH  15  16
ENDBRANCH  12  15
ENDBRANCH   6  11
ENDBRANCH   3   5
ENDBRANCH   2   3
ENDBRANCH   1   2
BRANCH   1  32
ATOM     32  C   UNL A   1      33.204  35.641  30.857  1.00  0.00     0.275 C 
BRANCH  32  33
ATOM     33  O   UNL A   1      33.475  34.722  31.956  1.00  0.00    -0.458 OA
BRANCH  33  34
ATOM     34  C   UNL A   1      34.492  34.755  32.862  1.00  0.00     0.338 C 
ATOM     35  O   UNL A   1      34.430  35.358  33.908  1.00  0.00    -0.246 OA
BRANCH  34  36
ATOM     36  C   UNL A   1      35.680  33.958  32.527  1.00  0.00     0.060 A 
ATOM     37  C   UNL A   1      36.575  34.469  31.580  1.00  0.00     0.016 A 
ATOM     38  C   UNL A   1      35.945  32.788  33.228  1.00  0.00     0.016 A 
ATOM     39  C   UNL A   1      37.818  33.876  31.424  1.00  0.00     0.010 A 
ATOM     40  C   UNL A   1      37.211  32.267  33.169  1.00  0.00     0.010 A 
ATOM     41  C   UNL A   1      38.128  32.796  32.249  1.00  0.00    -0.014 A 
BRANCH  41  42
ATOM     42  C   UNL A   1      39.208  31.886  31.936  1.00  0.00     0.031 A 
ATOM     43  C   UNL A   1      39.000  30.703  31.094  1.00  0.00     0.074 A 
ATOM     44  C   UNL A   1      40.370  32.335  32.459  1.00  0.00     0.049 A 
ATOM     45  N   UNL A   1      39.601  29.583  31.289  1.00  0.00    -0.248 NA
ATOM     46  C   UNL A   1      38.049  30.651  29.981  1.00  0.00     0.031 C 
ATOM     47  C   UNL A   1      41.747  31.952  32.249  1.00  0.00     0.029 A 
ATOM     48  N   UNL A   1      40.440  33.272  33.505  1.00  0.00    -0.354 N 
ATOM     49  C   UNL A   1      39.429  28.844  30.137  1.00  0.00     0.074 A 
ATOM     50  C   UNL A   1      38.322  29.452  29.442  1.00  0.00     0.031 C 
ATOM     51  C   UNL A   1      42.472  32.389  33.301  1.00  0.00     0.029 A 
ATOM     52  C   UNL A   1      41.546  32.953  34.280  1.00  0.00     0.049 A 
ATOM     53  H   UNL A   1      39.817  34.019  33.659  1.00  0.00     0.167 HD
ATOM     54  C   UNL A   1      40.414  27.980  29.756  1.00  0.00     0.037 A 
ATOM     55  C   UNL A   1      41.321  32.492  35.545  1.00  0.00     0.037 A 
ATOM     56  C   UNL A   1      41.541  28.099  30.672  1.00  0.00     0.049 A 
ATOM     57  C   UNL A   1      41.757  31.053  35.645  1.00  0.00     0.074 A 
ATOM     58  C   UNL A   1      42.659  28.916  30.607  1.00  0.00     0.029 A 
ATOM     59  N   UNL A   1      41.413  27.701  31.996  1.00  0.00    -0.354 N 
ATOM     60  N   UNL A   1      41.642  30.180  34.681  1.00  0.00    -0.248 NA
ATOM     61  C   UNL A   1      42.461  30.535  36.809  1.00  0.00     0.031 C 
ATOM     62  C   UNL A   1      43.194  29.031  31.910  1.00  0.00     0.029 A 
ATOM     63  C   UNL A   1      42.392  28.299  32.767  1.00  0.00     0.049 A 
ATOM     64  H   UNL A   1      40.727  27.081  32.335  1.00  0.00     0.167 HD
ATOM     65  C   UNL A   1      42.329  29.043  35.031  1.00  0.00     0.074 A 
ATOM     66  C   UNL A   1      42.801  29.310  36.380  1.00  0.00     0.031 C 
ATOM     67  C   UNL A   1      42.525  27.993  34.178  1.00  0.00     0.037 A 
BRANCH  54  68
ATOM     68  C   UNL A   1      40.523  27.361  28.386  1.00  0.00     0.057 A 
ATOM     69  C   UNL A   1      39.940  26.109  28.099  1.00  0.00     0.134 A 
ATOM     70  C   UNL A   1      41.182  27.966  27.302  1.00  0.00     0.134 A 
ATOM     71  F   UNL A   1      39.237  25.428  29.011  1.00  0.00    -0.206 F 
ATOM     72  C   UNL A   1      40.052  25.478  26.855  1.00  0.00     0.040 A 
ATOM     73  C   UNL A   1      41.319  27.334  26.055  1.00  0.00     0.040 A 
ATOM     74  F   UNL A   1      41.691  29.202  27.409  1.00  0.00    -0.206 F 
ATOM     75  C   UNL A   1      40.758  26.082  25.829  1.00  0.00     0.006 A 
ENDBRANCH  54  68
BRANCH  55  76
ATOM     76  C   UNL A   1      40.135  33.098  36.243  1.00  0.00     0.057 A 
ATOM     77  C   UNL A   1      38.965  32.320  36.407  1.00  0.00     0.134 A 
ATOM     78  C   UNL A   1      40.172  34.300  36.953  1.00  0.00     0.134 A 
ATOM     79  F   UNL A   1      38.831  31.156  35.749  1.00  0.00    -0.206 F 
ATOM     80  C   UNL A   1      37.948  32.661  37.305  1.00  0.00     0.040 A 
ATOM     81  C   UNL A   1      39.143  34.670  37.839  1.00  0.00     0.040 A 
ATOM     82  F   UNL A   1      41.231  35.117  36.865  1.00  0.00    -0.206 F 
ATOM     83  C   UNL A   1      38.043  33.835  38.040  1.00  0.00     0.006 A 
ENDBRANCH  55  76
BRANCH  67  84
ATOM     84  C   UNL A   1      43.013  26.612  34.546  1.00  0.00     0.057 A 
ATOM     85  C   UNL A   1      42.208  25.624  35.124  1.00  0.00     0.134 A 
ATOM     86  C   UNL A   1      44.309  26.176  34.167  1.00  0.00     0.134 A 
ATOM     87  F   UNL A   1      40.919  25.841  35.412  1.00  0.00    -0.206 F 
ATOM     88  C   UNL A   1      42.675  24.329  35.377  1.00  0.00     0.040 A 
ATOM     89  C   UNL A   1      44.757  24.867  34.345  1.00  0.00     0.040 A 
ATOM     90  F   UNL A   1      45.197  26.989  33.577  1.00  0.00    -0.206 F 
ATOM     91  C   UNL A   1      43.946  23.941  34.974  1.00  0.00     0.006 A 
ENDBRANCH  67  84
ENDBRANCH  41  42
ENDBRANCH  34  36
ENDBRANCH  33  34
ENDBRANCH  32  33
ENDBRANCH   1  32
TORSDOF 15
ENDMDL
MODEL 3
REMARK VINA RESULT:     -12.6      1.968      3.394
REMARK SMILES Cc1ccccc1/[NH+]=C1\S[C@@H](CC(=O)Nc2ccc(C(=O)OCCOC(=O)c3ccc(-c4c5nc(c(-c6c(F)cccc6F)c6ccc([nH]6)c(-c6c(F)cccc6F)c6nc(c(-c7c(F)cccc7F)c7ccc4[nH]7)C=C6)C=C5)cc3)cc2)C(=O)N1C
REMARK SMILES IDX 23 1 22 2 20 3 21 4 19 5 16 6 17 7 83 8 18 9 82 10 15 11
REMARK SMILES IDX 13 12 14 13 12 15 11 16 8 17 9 18 10 20 86 21 84 22 87 23
REMARK SMILES IDX 85 24 7 25 1 26 2 27 3 28 4 29 6 30 5 31 24 32 25 33 26 34
REMARK SMILES IDX 27 35 28 36 29 37 81 38 30 39 80 40 31 41 32 42 33 43 74 44
REMARK SMILES IDX 34 45 79 46 73 47 75 48 35 49 78 50 72 51 71 52 36 54 62 55
REMARK SMILES IDX 45 56 61 57 46 58 49 59 60 60 76 61 47 62 48 63 59 65 77 66
REMARK SMILES IDX 50 67 37 68 38 69 43 70 39 71 40 72 42 73 44 74 41 75 63 76
REMARK SMILES IDX 64 77 69 78 65 79 66 80 68 81 70 82 67 83 51 84 52 85 57 86
REMARK SMILES IDX 53 87 54 88 56 89 58 90 55 91
REMARK H PARENT 15 14 8 19 75 53 49 64
REMARK Flexibility Score: inf
ROOT
ATOM      1  C   UNL A   1      43.174  19.509  25.723  1.00  0.00     0.275 C 
ENDROOT
BRANCH   1   2
ATOM      2  O   UNL A   1      42.192  20.538  25.555  1.00  0.00    -0.458 OA
BRANCH   2   3
ATOM      3  C   UNL A   1      41.875  21.180  26.704  1.00  0.00     0.338 C 
ATOM      4  O   UNL A   1      42.599  21.373  27.668  1.00  0.00    -0.246 OA
BRANCH   3   5
ATOM      5  C   UNL A   1      40.454  21.553  26.723  1.00  0.00     0.060 A 
ATOM      6  C   UNL A   1      38.156  22.780  25.837  1.00  0.00     0.041 A 
ATOM      7  C   UNL A   1      38.969  23.436  26.761  1.00  0.00     0.027 A 
ATOM      8  C   UNL A   1      38.349  21.435  25.545  1.00  0.00     0.027 A 
ATOM      9  C   UNL A   1      40.145  22.828  27.189  1.00  0.00     0.018 A 
ATOM     10  C   UNL A   1      39.524  20.824  25.972  1.00  0.00     0.018 A 
BRANCH   6  11
ATOM     11  N   UNL A   1      37.399  23.567  24.960  1.00  0.00    -0.326 N 
ATOM     12  C   UNL A   1      36.026  23.696  25.076  1.00  0.00     0.226 C 
ATOM     13  O   UNL A   1      35.365  24.041  24.096  1.00  0.00    -0.275 OA
ATOM     14  H   UNL A   1      37.862  24.046  24.235  1.00  0.00     0.169 HD
BRANCH  12  15
ATOM     15  C   UNL A   1      35.353  23.462  26.426  1.00  0.00     0.128 C 
BRANCH  15  16
ATOM     16  C   UNL A   1      34.371  22.305  26.455  1.00  0.00     0.183 C 
ATOM     17  N   UNL A   1      32.017  19.950  24.997  1.00  0.00    -0.234 N 
ATOM     18  C   UNL A   1      32.650  21.058  25.129  1.00  0.00     0.319 C 
ATOM     19  H   UNL A   1      31.052  20.018  25.182  1.00  0.00     0.313 HD
ATOM     20  S   UNL A   1      34.274  21.532  24.788  1.00  0.00    -0.022 SA
ATOM     21  N   UNL A   1      32.061  22.081  25.803  1.00  0.00    -0.193 N 
ATOM     22  C   UNL A   1      32.904  22.607  26.757  1.00  0.00     0.324 C 
ATOM     23  C   UNL A   1      30.622  22.268  25.835  1.00  0.00     0.301 C 
ATOM     24  O   UNL A   1      32.522  23.074  27.826  1.00  0.00    -0.245 OA
BRANCH  17  25
ATOM     25  C   UNL A   1      32.441  18.666  24.640  1.00  0.00     0.128 A 
ATOM     26  C   UNL A   1      32.403  18.827  22.052  1.00  0.00     0.049 C 
ATOM     27  C   UNL A   1      32.707  18.147  23.354  1.00  0.00    -0.004 A 
ATOM     28  C   UNL A   1      33.356  16.899  23.230  1.00  0.00     0.008 A 
ATOM     29  C   UNL A   1      33.838  16.214  24.340  1.00  0.00     0.001 A 
ATOM     30  C   UNL A   1      32.927  17.937  25.744  1.00  0.00     0.052 A 
ATOM     31  C   UNL A   1      33.634  16.741  25.603  1.00  0.00     0.004 A 
ENDBRANCH  17  25
ENDBRANCH  15  16
ENDBRANCH  12  15
ENDBRANCH   6  11
ENDBRANCH   3   5
ENDBRANCH   2   3
ENDBRANCH   1   2
BRANCH   1  32
ATOM     32  C   UNL A   1      44.413  19.753  24.851  1.00  0.00     0.275 C 
BRANCH  32  33
ATOM     33  O   UNL A   1      45.493  20.560  25.405  1.00  0.00    -0.458 OA
BRANCH  33  34
ATOM     34  C   UNL A   1      45.962  21.765  24.975  1.00  0.00     0.338 C 
ATOM     35  O   UNL A   1      46.653  21.896  23.992  1.00  0.00    -0.246 OA
BRANCH  34  36
ATOM     36  C   UNL A   1      45.531  22.937  25.749  1.00  0.00     0.060 A 
ATOM     37  C   UNL A   1      45.503  22.835  27.144  1.00  0.00     0.016 A 
ATOM     38  C   UNL A   1      45.274  24.138  25.097  1.00  0.00     0.016 A 
ATOM     39  C   UNL A   1      45.348  23.980  27.911  1.00  0.00     0.010 A 
ATOM     40  C   UNL A   1      45.240  25.287  25.841  1.00  0.00     0.010 A 
ATOM     41  C   UNL A   1      45.249  25.199  27.241  1.00  0.00    -0.014 A 
BRANCH  41  42
ATOM     42  C   UNL A   1      44.725  26.381  27.888  1.00  0.00     0.031 A 
ATOM     43  C   UNL A   1      43.305  26.743  27.801  1.00  0.00     0.074 A 
ATOM     44  C   UNL A   1      45.694  27.000  28.596  1.00  0.00     0.049 A 
ATOM     45  N   UNL A   1      42.890  27.958  27.728  1.00  0.00    -0.248 NA
ATOM     46  C   UNL A   1      42.217  25.765  27.731  1.00  0.00     0.031 C 
ATOM     47  C   UNL A   1      45.659  28.049  29.590  1.00  0.00     0.029 A 
ATOM     48  N   UNL A   1      47.068  26.796  28.376  1.00  0.00    -0.354 N 
ATOM     49  C   UNL A   1      41.539  27.923  28.006  1.00  0.00     0.074 A 
ATOM     50  C   UNL A   1      41.134  26.552  27.816  1.00  0.00     0.031 C 
ATOM     51  C   UNL A   1      46.889  28.601  29.667  1.00  0.00     0.029 A 
ATOM     52  C   UNL A   1      47.715  27.999  28.622  1.00  0.00     0.049 A 
ATOM     53  H   UNL A   1      47.492  25.953  28.097  1.00  0.00     0.167 HD
ATOM     54  C   UNL A   1      40.970  28.989  28.640  1.00  0.00     0.037 A 
ATOM     55  C   UNL A   1      48.278  28.645  27.559  1.00  0.00     0.037 A 
ATOM     56  C   UNL A   1      42.004  29.959  28.976  1.00  0.00     0.049 A 
ATOM     57  C   UNL A   1      47.547  29.938  27.307  1.00  0.00     0.074 A 
ATOM     58  C   UNL A   1      42.771  30.080  30.124  1.00  0.00     0.029 A 
ATOM     59  N   UNL A   1      42.675  30.645  27.973  1.00  0.00    -0.354 N 
ATOM     60  N   UNL A   1      46.261  30.101  27.470  1.00  0.00    -0.248 NA
ATOM     61  C   UNL A   1      48.244  31.169  26.963  1.00  0.00     0.031 C 
ATOM     62  C   UNL A   1      43.928  30.824  29.802  1.00  0.00     0.029 A 
ATOM     63  C   UNL A   1      43.871  31.140  28.456  1.00  0.00     0.049 A 
ATOM     64  H   UNL A   1      42.346  30.763  27.053  1.00  0.00     0.167 HD
ATOM     65  C   UNL A   1      45.970  31.439  27.364  1.00  0.00     0.074 A 
ATOM     66  C   UNL A   1      47.240  32.057  27.023  1.00  0.00     0.031 C 
ATOM     67  C   UNL A   1      44.733  31.960  27.626  1.00  0.00     0.037 A 
BRANCH  54  68
ATOM     68  C   UNL A   1      39.611  28.968  29.293  1.00  0.00     0.057 A 
ATOM     69  C   UNL A   1      38.455  29.369  28.592  1.00  0.00     0.134 A 
ATOM     70  C   UNL A   1      39.383  28.544  30.613  1.00  0.00     0.134 A 
ATOM     71  F   UNL A   1      38.499  29.753  27.311  1.00  0.00    -0.206 F 
ATOM     72  C   UNL A   1      37.181  29.406  29.170  1.00  0.00     0.040 A 
ATOM     73  C   UNL A   1      38.113  28.596  31.212  1.00  0.00     0.040 A 
ATOM     74  F   UNL A   1      40.378  28.042  31.357  1.00  0.00    -0.206 F 
ATOM     75  C   UNL A   1      37.007  29.034  30.492  1.00  0.00     0.006 A 
ENDBRANCH  54  68
BRANCH  55  76
ATOM     76  C   UNL A   1      48.859  27.747  26.503  1.00  0.00     0.057 A 
ATOM     77  C   UNL A   1      48.154  27.570  25.289  1.00  0.00     0.134 A 
ATOM     78  C   UNL A   1      50.163  27.247  26.528  1.00  0.00     0.134 A 
ATOM     79  F   UNL A   1      46.886  28.002  25.177  1.00  0.00    -0.206 F 
ATOM     80  C   UNL A   1      48.744  27.033  24.140  1.00  0.00     0.040 A 
ATOM     81  C   UNL A   1      50.761  26.679  25.387  1.00  0.00     0.040 A 
ATOM     82  F   UNL A   1      50.919  27.356  27.629  1.00  0.00    -0.206 F 
ATOM     83  C   UNL A   1      50.063  26.600  24.182  1.00  0.00     0.006 A 
ENDBRANCH  55  76
BRANCH  67  84
ATOM     84  C   UNL A   1      44.246  33.346  27.278  1.00  0.00     0.057 A 
ATOM     85  C   UNL A   1      43.826  33.731  25.999  1.00  0.00     0.134 A 
ATOM     86  C   UNL A   1      44.030  34.315  28.291  1.00  0.00     0.134 A 
ATOM     87  F   UNL A   1      43.840  32.881  24.965  1.00  0.00    -0.206 F 
ATOM     88  C   UNL A   1      43.305  35.002  25.732  1.00  0.00     0.040 A 
ATOM     89  C   UNL A   1      43.441  35.556  28.048  1.00  0.00     0.040 A 
ATOM     90  F   UNL A   1      44.350  34.097  29.574  1.00  0.00    -0.206 F 
ATOM     91  C   UNL A   1      43.096  35.914  26.758  1.00  0.00     0.006 A 
ENDBRANCH  67  84
ENDBRANCH  41  42
ENDBRANCH  34  36
ENDBRANCH  33  34
ENDBRANCH  32  33
ENDBRANCH   1  32
TORSDOF 15
ENDMDL
