MODEL 1
REMARK VINA RESULT:     -11.8      0.000      0.000
REMARK SMILES Cc1cccc(-n2nc(Br)c(C(=O)OCCOC(=O)c3ccc(-c4c5nc(c(-c6c(F)cccc6F)c6ccc([nH]6)c(-c6c(F)cccc6F)c6nc(c(-c7c(F)cccc7F)c7ccc4[nH]7)C=C6)C=C5)cc3)n2)c1
REMARK SMILES IDX 16 1 15 2 14 3 12 4 13 5 11 6 7 7 8 8 74 9 9 10 10 11 6 12
REMARK SMILES IDX 1 13 2 14 3 15 75 16 4 17 5 18 17 19 18 20 19 21 20 22 21 23
REMARK SMILES IDX 73 24 22 25 72 26 23 27 24 28 25 29 66 30 26 31 71 32 65 33
REMARK SMILES IDX 67 34 27 35 70 36 64 37 63 38 28 40 54 41 37 42 53 43 38 44
REMARK SMILES IDX 41 45 52 46 68 47 39 48 40 49 51 51 69 52 42 53 29 54 30 55
REMARK SMILES IDX 35 56 31 57 32 58 34 59 36 60 33 61 55 62 56 63 61 64 57 65
REMARK SMILES IDX 58 66 60 67 62 68 59 69 43 70 44 71 49 72 45 73 46 74 48 75
REMARK SMILES IDX 50 76 47 77
REMARK H PARENT 67 39 41 50
REMARK Flexibility Score: inf
ROOT
ATOM      1  C   UNL A   1      32.961  29.868  25.981  1.00  0.00     0.275 C 
ENDROOT
BRANCH   1   2
ATOM      2  C   UNL A   1      33.769  28.643  25.480  1.00  0.00     0.275 C 
BRANCH   2   3
ATOM      3  O   UNL A   1      33.857  28.346  24.083  1.00  0.00    -0.457 OA
BRANCH   3   4
ATOM      4  C   UNL A   1      33.174  27.275  23.613  1.00  0.00     0.361 C 
ATOM      5  O   UNL A   1      33.676  26.166  23.453  1.00  0.00    -0.244 OA
BRANCH   4   6
ATOM      6  C   UNL A   1      31.787  27.572  23.300  1.00  0.00     0.205 A 
ATOM      7  N   UNL A   1      30.080  28.668  22.765  1.00  0.00    -0.150 N 
ATOM      8  N   UNL A   1      29.552  27.672  23.518  1.00  0.00    -0.140 NA
ATOM      9  N   UNL A   1      31.388  28.508  22.405  1.00  0.00    -0.140 NA
ATOM     10  C   UNL A   1      30.644  27.017  23.897  1.00  0.00     0.163 A 
ATOM     11  Br  UNL A   1      30.579  25.567  25.086  1.00  0.00    -0.024 Br
BRANCH   7  12
ATOM     12  C   UNL A   1      29.448  29.931  22.682  1.00  0.00     0.086 A 
ATOM     13  C   UNL A   1      27.856  32.277  20.139  1.00  0.00     0.044 C 
ATOM     14  C   UNL A   1      28.445  31.727  21.405  1.00  0.00    -0.049 A 
ATOM     15  C   UNL A   1      28.485  32.539  22.549  1.00  0.00     0.003 A 
ATOM     16  C   UNL A   1      28.974  30.429  21.462  1.00  0.00     0.033 A 
ATOM     17  C   UNL A   1      28.966  32.042  23.759  1.00  0.00     0.003 A 
ATOM     18  C   UNL A   1      29.412  30.728  23.837  1.00  0.00     0.030 A 
ENDBRANCH   7  12
ENDBRANCH   4   6
ENDBRANCH   3   4
ENDBRANCH   2   3
ENDBRANCH   1   2
BRANCH   1  19
ATOM     19  O   UNL A   1      33.154  30.550  27.266  1.00  0.00    -0.458 OA
BRANCH  19  20
ATOM     20  C   UNL A   1      33.784  31.675  27.666  1.00  0.00     0.338 C 
ATOM     21  O   UNL A   1      33.259  32.779  27.659  1.00  0.00    -0.246 OA
BRANCH  20  22
ATOM     22  C   UNL A   1      35.147  31.521  28.150  1.00  0.00     0.060 A 
ATOM     23  C   UNL A   1      36.067  32.581  28.042  1.00  0.00     0.016 A 
ATOM     24  C   UNL A   1      35.454  30.337  28.799  1.00  0.00     0.016 A 
ATOM     25  C   UNL A   1      37.303  32.468  28.654  1.00  0.00     0.010 A 
ATOM     26  C   UNL A   1      36.570  30.312  29.579  1.00  0.00     0.010 A 
ATOM     27  C   UNL A   1      37.526  31.324  29.414  1.00  0.00    -0.014 A 
BRANCH  27  28
ATOM     28  C   UNL A   1      38.840  30.850  29.783  1.00  0.00     0.031 A 
ATOM     29  C   UNL A   1      39.393  29.655  29.153  1.00  0.00     0.074 A 
ATOM     30  C   UNL A   1      39.482  31.786  30.523  1.00  0.00     0.049 A 
ATOM     31  N   UNL A   1      40.315  28.933  29.676  1.00  0.00    -0.248 NA
ATOM     32  C   UNL A   1      38.923  29.137  27.869  1.00  0.00     0.031 C 
ATOM     33  C   UNL A   1      40.879  32.016  30.822  1.00  0.00     0.029 A 
ATOM     34  N   UNL A   1      38.823  32.788  31.256  1.00  0.00    -0.354 N 
ATOM     35  C   UNL A   1      40.827  28.149  28.664  1.00  0.00     0.074 A 
ATOM     36  C   UNL A   1      39.827  28.180  27.623  1.00  0.00     0.031 C 
ATOM     37  C   UNL A   1      40.951  32.837  31.893  1.00  0.00     0.029 A 
ATOM     38  C   UNL A   1      39.591  33.063  32.381  1.00  0.00     0.049 A 
ATOM     39  H   UNL A   1      37.970  33.219  31.016  1.00  0.00     0.167 HD
ATOM     40  C   UNL A   1      42.136  27.770  28.748  1.00  0.00     0.037 A 
ATOM     41  C   UNL A   1      39.068  32.646  33.573  1.00  0.00     0.037 A 
ATOM     42  C   UNL A   1      42.725  28.348  29.962  1.00  0.00     0.049 A 
ATOM     43  C   UNL A   1      39.835  31.441  34.065  1.00  0.00     0.074 A 
ATOM     44  C   UNL A   1      43.426  29.528  30.157  1.00  0.00     0.029 A 
ATOM     45  N   UNL A   1      42.246  27.967  31.211  1.00  0.00    -0.354 N 
ATOM     46  N   UNL A   1      40.465  30.601  33.285  1.00  0.00    -0.248 NA
ATOM     47  C   UNL A   1      40.031  31.154  35.479  1.00  0.00     0.031 C 
ATOM     48  C   UNL A   1      43.275  29.905  31.519  1.00  0.00     0.029 A 
ATOM     49  C   UNL A   1      42.481  28.961  32.148  1.00  0.00     0.049 A 
ATOM     50  H   UNL A   1      41.801  27.110  31.404  1.00  0.00     0.167 HD
ATOM     51  C   UNL A   1      41.197  29.737  34.048  1.00  0.00     0.074 A 
ATOM     52  C   UNL A   1      40.878  30.114  35.417  1.00  0.00     0.031 C 
ATOM     53  C   UNL A   1      42.037  28.794  33.526  1.00  0.00     0.037 A 
BRANCH  40  54
ATOM     54  C   UNL A   1      42.963  27.213  27.608  1.00  0.00     0.057 A 
ATOM     55  C   UNL A   1      43.272  28.012  26.486  1.00  0.00     0.134 A 
ATOM     56  C   UNL A   1      43.486  25.908  27.544  1.00  0.00     0.134 A 
ATOM     57  F   UNL A   1      42.914  29.301  26.417  1.00  0.00    -0.206 F 
ATOM     58  C   UNL A   1      43.972  27.536  25.368  1.00  0.00     0.040 A 
ATOM     59  C   UNL A   1      44.160  25.408  26.416  1.00  0.00     0.040 A 
ATOM     60  F   UNL A   1      43.415  25.072  28.586  1.00  0.00    -0.206 F 
ATOM     61  C   UNL A   1      44.401  26.220  25.319  1.00  0.00     0.006 A 
ENDBRANCH  40  54
BRANCH  41  62
ATOM     62  C   UNL A   1      37.578  32.858  33.664  1.00  0.00     0.057 A 
ATOM     63  C   UNL A   1      37.103  34.147  34.006  1.00  0.00     0.134 A 
ATOM     64  C   UNL A   1      36.628  31.979  33.132  1.00  0.00     0.134 A 
ATOM     65  F   UNL A   1      37.943  35.055  34.531  1.00  0.00    -0.206 F 
ATOM     66  C   UNL A   1      35.801  34.577  33.721  1.00  0.00     0.040 A 
ATOM     67  C   UNL A   1      35.307  32.392  32.870  1.00  0.00     0.040 A 
ATOM     68  F   UNL A   1      36.971  30.735  32.773  1.00  0.00    -0.206 F 
ATOM     69  C   UNL A   1      34.902  33.703  33.125  1.00  0.00     0.006 A 
ENDBRANCH  41  62
BRANCH  53  70
ATOM     70  C   UNL A   1      42.598  27.646  34.314  1.00  0.00     0.057 A 
ATOM     71  C   UNL A   1      41.830  26.549  34.724  1.00  0.00     0.134 A 
ATOM     72  C   UNL A   1      43.989  27.532  34.529  1.00  0.00     0.134 A 
ATOM     73  F   UNL A   1      40.518  26.471  34.460  1.00  0.00    -0.206 F 
ATOM     74  C   UNL A   1      42.392  25.449  35.376  1.00  0.00     0.040 A 
ATOM     75  C   UNL A   1      44.569  26.405  35.109  1.00  0.00     0.040 A 
ATOM     76  F   UNL A   1      44.847  28.491  34.152  1.00  0.00    -0.206 F 
ATOM     77  C   UNL A   1      43.767  25.368  35.557  1.00  0.00     0.006 A 
ENDBRANCH  53  70
ENDBRANCH  27  28
ENDBRANCH  20  22
ENDBRANCH  19  20
ENDBRANCH   1  19
TORSDOF 12
ENDMDL
MODEL 2
REMARK VINA RESULT:     -11.8      3.219      5.744
REMARK SMILES Cc1cccc(-n2nc(Br)c(C(=O)OCCOC(=O)c3ccc(-c4c5nc(c(-c6c(F)cccc6F)c6ccc([nH]6)c(-c6c(F)cccc6F)c6nc(c(-c7c(F)cccc7F)c7ccc4[nH]7)C=C6)C=C5)cc3)n2)c1
REMARK SMILES IDX 16 1 15 2 14 3 12 4 13 5 11 6 7 7 8 8 74 9 9 10 10 11 6 12
REMARK SMILES IDX 1 13 2 14 3 15 75 16 4 17 5 18 17 19 18 20 19 21 20 22 21 23
REMARK SMILES IDX 73 24 22 25 72 26 23 27 24 28 25 29 66 30 26 31 71 32 65 33
REMARK SMILES IDX 67 34 27 35 70 36 64 37 63 38 28 40 54 41 37 42 53 43 38 44
REMARK SMILES IDX 41 45 52 46 68 47 39 48 40 49 51 51 69 52 42 53 29 54 30 55
REMARK SMILES IDX 35 56 31 57 32 58 34 59 36 60 33 61 55 62 56 63 61 64 57 65
REMARK SMILES IDX 58 66 60 67 62 68 59 69 43 70 44 71 49 72 45 73 46 74 48 75
REMARK SMILES IDX 50 76 47 77
REMARK H PARENT 67 39 41 50
REMARK Flexibility Score: inf
ROOT
ATOM      1  C   UNL A   1      34.373  30.875  27.369  1.00  0.00     0.275 C 
ENDROOT
BRANCH   1   2
ATOM      2  C   UNL A   1      33.078  30.028  27.250  1.00  0.00     0.275 C 
BRANCH   2   3
ATOM      3  O   UNL A   1      33.141  28.601  27.168  1.00  0.00    -0.457 OA
BRANCH   3   4
ATOM      4  C   UNL A   1      31.979  27.908  27.208  1.00  0.00     0.361 C 
ATOM      5  O   UNL A   1      31.063  28.162  27.985  1.00  0.00    -0.244 OA
BRANCH   4   6
ATOM      6  C   UNL A   1      31.928  26.818  26.250  1.00  0.00     0.205 A 
ATOM      7  N   UNL A   1      32.429  25.030  25.273  1.00  0.00    -0.150 N 
ATOM      8  N   UNL A   1      31.866  25.751  24.272  1.00  0.00    -0.140 NA
ATOM      9  N   UNL A   1      32.265  25.535  26.531  1.00  0.00    -0.140 NA
ATOM     10  C   UNL A   1      31.604  26.900  24.886  1.00  0.00     0.163 A 
ATOM     11  Br  UNL A   1      30.910  28.386  23.976  1.00  0.00    -0.024 Br
BRANCH   7  12
ATOM     12  C   UNL A   1      33.414  24.052  24.999  1.00  0.00     0.086 A 
ATOM     13  C   UNL A   1      37.180  23.516  25.193  1.00  0.00     0.044 C 
ATOM     14  C   UNL A   1      35.724  23.338  24.874  1.00  0.00    -0.049 A 
ATOM     15  C   UNL A   1      35.314  22.199  24.164  1.00  0.00     0.003 A 
ATOM     16  C   UNL A   1      34.770  24.294  25.253  1.00  0.00     0.033 A 
ATOM     17  C   UNL A   1      33.965  21.967  23.905  1.00  0.00     0.003 A 
ATOM     18  C   UNL A   1      33.011  22.872  24.355  1.00  0.00     0.030 A 
ENDBRANCH   7  12
ENDBRANCH   4   6
ENDBRANCH   3   4
ENDBRANCH   2   3
ENDBRANCH   1   2
BRANCH   1  19
ATOM     19  O   UNL A   1      35.722  30.343  27.597  1.00  0.00    -0.458 OA
BRANCH  19  20
ATOM     20  C   UNL A   1      36.826  30.781  28.239  1.00  0.00     0.338 C 
ATOM     21  O   UNL A   1      36.977  31.939  28.604  1.00  0.00    -0.246 OA
BRANCH  20  22
ATOM     22  C   UNL A   1      37.853  29.790  28.518  1.00  0.00     0.060 A 
ATOM     23  C   UNL A   1      37.736  28.934  29.629  1.00  0.00     0.016 A 
ATOM     24  C   UNL A   1      38.879  29.671  27.595  1.00  0.00     0.016 A 
ATOM     25  C   UNL A   1      38.640  27.897  29.781  1.00  0.00     0.010 A 
ATOM     26  C   UNL A   1      39.625  28.533  27.621  1.00  0.00     0.010 A 
ATOM     27  C   UNL A   1      39.572  27.721  28.763  1.00  0.00    -0.014 A 
BRANCH  27  28
ATOM     28  C   UNL A   1      40.801  26.981  28.921  1.00  0.00     0.031 A 
ATOM     29  C   UNL A   1      40.854  25.563  28.577  1.00  0.00     0.074 A 
ATOM     30  C   UNL A   1      41.832  27.830  29.148  1.00  0.00     0.049 A 
ATOM     31  N   UNL A   1      41.720  24.744  29.052  1.00  0.00    -0.248 NA
ATOM     32  C   UNL A   1      39.895  24.921  27.678  1.00  0.00     0.031 C 
ATOM     33  C   UNL A   1      43.265  27.701  29.002  1.00  0.00     0.029 A 
ATOM     34  N   UNL A   1      41.674  29.126  29.673  1.00  0.00    -0.354 N 
ATOM     35  C   UNL A   1      41.698  23.630  28.240  1.00  0.00     0.074 A 
ATOM     36  C   UNL A   1      40.446  23.710  27.525  1.00  0.00     0.031 C 
ATOM     37  C   UNL A   1      43.853  28.690  29.710  1.00  0.00     0.029 A 
ATOM     38  C   UNL A   1      42.804  29.416  30.427  1.00  0.00     0.049 A 
ATOM     39  H   UNL A   1      40.902  29.720  29.531  1.00  0.00     0.167 HD
ATOM     40  C   UNL A   1      42.852  22.912  28.107  1.00  0.00     0.037 A 
ATOM     41  C   UNL A   1      42.619  29.463  31.780  1.00  0.00     0.037 A 
ATOM     42  C   UNL A   1      43.910  23.557  28.894  1.00  0.00     0.049 A 
ATOM     43  C   UNL A   1      43.229  28.235  32.416  1.00  0.00     0.074 A 
ATOM     44  C   UNL A   1      44.871  24.488  28.531  1.00  0.00     0.029 A 
ATOM     45  N   UNL A   1      43.791  23.638  30.278  1.00  0.00    -0.354 N 
ATOM     46  N   UNL A   1      43.379  27.089  31.804  1.00  0.00    -0.248 NA
ATOM     47  C   UNL A   1      43.805  28.243  33.753  1.00  0.00     0.031 C 
ATOM     48  C   UNL A   1      45.251  25.200  29.700  1.00  0.00     0.029 A 
ATOM     49  C   UNL A   1      44.522  24.707  30.769  1.00  0.00     0.049 A 
ATOM     50  H   UNL A   1      43.261  23.020  30.832  1.00  0.00     0.167 HD
ATOM     51  C   UNL A   1      44.117  26.250  32.590  1.00  0.00     0.074 A 
ATOM     52  C   UNL A   1      44.345  27.014  33.807  1.00  0.00     0.031 C 
ATOM     53  C   UNL A   1      44.523  25.007  32.195  1.00  0.00     0.037 A 
BRANCH  40  54
ATOM     54  C   UNL A   1      43.127  21.884  27.029  1.00  0.00     0.057 A 
ATOM     55  C   UNL A   1      42.447  20.647  27.024  1.00  0.00     0.134 A 
ATOM     56  C   UNL A   1      44.040  22.040  25.970  1.00  0.00     0.134 A 
ATOM     57  F   UNL A   1      41.490  20.364  27.919  1.00  0.00    -0.206 F 
ATOM     58  C   UNL A   1      42.705  19.627  26.097  1.00  0.00     0.040 A 
ATOM     59  C   UNL A   1      44.333  21.014  25.054  1.00  0.00     0.040 A 
ATOM     60  F   UNL A   1      44.656  23.206  25.740  1.00  0.00    -0.206 F 
ATOM     61  C   UNL A   1      43.668  19.799  25.118  1.00  0.00     0.006 A 
ENDBRANCH  40  54
BRANCH  41  62
ATOM     62  C   UNL A   1      41.319  30.121  32.170  1.00  0.00     0.057 A 
ATOM     63  C   UNL A   1      40.285  29.308  32.692  1.00  0.00     0.134 A 
ATOM     64  C   UNL A   1      41.164  31.499  32.354  1.00  0.00     0.134 A 
ATOM     65  F   UNL A   1      40.345  27.973  32.553  1.00  0.00    -0.206 F 
ATOM     66  C   UNL A   1      39.231  29.820  33.459  1.00  0.00     0.040 A 
ATOM     67  C   UNL A   1      40.091  32.027  33.098  1.00  0.00     0.040 A 
ATOM     68  F   UNL A   1      42.085  32.360  31.900  1.00  0.00    -0.206 F 
ATOM     69  C   UNL A   1      39.145  31.187  33.687  1.00  0.00     0.006 A 
ENDBRANCH  41  62
BRANCH  53  70
ATOM     70  C   UNL A   1      45.051  23.962  33.135  1.00  0.00     0.057 A 
ATOM     71  C   UNL A   1      46.334  24.011  33.694  1.00  0.00     0.134 A 
ATOM     72  C   UNL A   1      44.199  22.958  33.647  1.00  0.00     0.134 A 
ATOM     73  F   UNL A   1      47.195  24.993  33.394  1.00  0.00    -0.206 F 
ATOM     74  C   UNL A   1      46.770  23.078  34.637  1.00  0.00     0.040 A 
ATOM     75  C   UNL A   1      44.600  22.071  34.644  1.00  0.00     0.040 A 
ATOM     76  F   UNL A   1      42.932  22.820  33.229  1.00  0.00    -0.206 F 
ATOM     77  C   UNL A   1      45.898  22.113  35.125  1.00  0.00     0.006 A 
ENDBRANCH  53  70
ENDBRANCH  27  28
ENDBRANCH  20  22
ENDBRANCH  19  20
ENDBRANCH   1  19
TORSDOF 12
ENDMDL
MODEL 3
REMARK VINA RESULT:     -11.8      1.796      2.729
REMARK SMILES Cc1cccc(-n2nc(Br)c(C(=O)OCCOC(=O)c3ccc(-c4c5nc(c(-c6c(F)cccc6F)c6ccc([nH]6)c(-c6c(F)cccc6F)c6nc(c(-c7c(F)cccc7F)c7ccc4[nH]7)C=C6)C=C5)cc3)n2)c1
REMARK SMILES IDX 16 1 15 2 14 3 12 4 13 5 11 6 7 7 8 8 74 9 9 10 10 11 6 12
REMARK SMILES IDX 1 13 2 14 3 15 75 16 4 17 5 18 17 19 18 20 19 21 20 22 21 23
REMARK SMILES IDX 73 24 22 25 72 26 23 27 24 28 25 29 66 30 26 31 71 32 65 33
REMARK SMILES IDX 67 34 27 35 70 36 64 37 63 38 28 40 54 41 37 42 53 43 38 44
REMARK SMILES IDX 41 45 52 46 68 47 39 48 40 49 51 51 69 52 42 53 29 54 30 55
REMARK SMILES IDX 35 56 31 57 32 58 34 59 36 60 33 61 55 62 56 63 61 64 57 65
REMARK SMILES IDX 58 66 60 67 62 68 59 69 43 70 44 71 49 72 45 73 46 74 48 75
REMARK SMILES IDX 50 76 47 77
REMARK H PARENT 67 39 41 50
REMARK Flexibility Score: inf
ROOT
ATOM      1  C   UNL A   1      33.470  29.611  27.016  1.00  0.00     0.275 C 
ENDROOT
BRANCH   1   2
ATOM      2  C   UNL A   1      33.943  28.467  26.081  1.00  0.00     0.275 C 
BRANCH   2   3
ATOM      3  O   UNL A   1      33.696  28.523  24.673  1.00  0.00    -0.457 OA
BRANCH   3   4
ATOM      4  C   UNL A   1      33.128  27.446  24.081  1.00  0.00     0.361 C 
ATOM      5  O   UNL A   1      33.690  26.359  23.966  1.00  0.00    -0.244 OA
BRANCH   4   6
ATOM      6  C   UNL A   1      31.792  27.705  23.577  1.00  0.00     0.205 A 
ATOM      7  N   UNL A   1      30.133  28.763  22.848  1.00  0.00    -0.150 N 
ATOM      8  N   UNL A   1      29.546  27.705  23.460  1.00  0.00    -0.140 NA
ATOM      9  N   UNL A   1      31.486  28.675  22.681  1.00  0.00    -0.140 NA
ATOM     10  C   UNL A   1      30.599  27.073  23.966  1.00  0.00     0.163 A 
ATOM     11  Br  UNL A   1      30.428  25.556  25.056  1.00  0.00    -0.024 Br
BRANCH   7  12
ATOM     12  C   UNL A   1      29.461  30.003  22.734  1.00  0.00     0.086 A 
ATOM     13  C   UNL A   1      27.804  32.239  20.134  1.00  0.00     0.044 C 
ATOM     14  C   UNL A   1      28.406  31.737  21.414  1.00  0.00    -0.049 A 
ATOM     15  C   UNL A   1      28.416  32.575  22.540  1.00  0.00     0.003 A 
ATOM     16  C   UNL A   1      28.976  30.458  21.502  1.00  0.00     0.033 A 
ATOM     17  C   UNL A   1      28.909  32.121  23.762  1.00  0.00     0.003 A 
ATOM     18  C   UNL A   1      29.396  30.824  23.871  1.00  0.00     0.030 A 
ENDBRANCH   7  12
ENDBRANCH   4   6
ENDBRANCH   3   4
ENDBRANCH   2   3
ENDBRANCH   1   2
BRANCH   1  19
ATOM     19  O   UNL A   1      34.249  30.804  27.366  1.00  0.00    -0.458 OA
BRANCH  19  20
ATOM     20  C   UNL A   1      34.960  31.199  28.443  1.00  0.00     0.338 C 
ATOM     21  O   UNL A   1      34.600  32.093  29.197  1.00  0.00    -0.246 OA
BRANCH  20  22
ATOM     22  C   UNL A   1      36.199  30.483  28.704  1.00  0.00     0.060 A 
ATOM     23  C   UNL A   1      36.366  29.760  29.900  1.00  0.00     0.016 A 
ATOM     24  C   UNL A   1      37.143  30.468  27.691  1.00  0.00     0.016 A 
ATOM     25  C   UNL A   1      37.483  28.957  30.054  1.00  0.00     0.010 A 
ATOM     26  C   UNL A   1      38.118  29.520  27.747  1.00  0.00     0.010 A 
ATOM     27  C   UNL A   1      38.340  28.857  28.962  1.00  0.00    -0.014 A 
BRANCH  27  28
ATOM     28  C   UNL A   1      39.710  28.410  29.057  1.00  0.00     0.031 A 
ATOM     29  C   UNL A   1      40.065  27.045  28.683  1.00  0.00     0.074 A 
ATOM     30  C   UNL A   1      40.532  29.468  29.261  1.00  0.00     0.049 A 
ATOM     31  N   UNL A   1      41.112  26.437  29.107  1.00  0.00    -0.248 NA
ATOM     32  C   UNL A   1      39.237  26.214  27.810  1.00  0.00     0.031 C 
ATOM     33  C   UNL A   1      41.951  29.666  29.056  1.00  0.00     0.029 A 
ATOM     34  N   UNL A   1      40.110  30.688  29.818  1.00  0.00    -0.354 N 
ATOM     35  C   UNL A   1      41.306  25.355  28.274  1.00  0.00     0.074 A 
ATOM     36  C   UNL A   1      40.039  25.159  27.611  1.00  0.00     0.031 C 
ATOM     37  C   UNL A   1      42.331  30.754  29.761  1.00  0.00     0.029 A 
ATOM     38  C   UNL A   1      41.178  31.217  30.533  1.00  0.00     0.049 A 
ATOM     39  H   UNL A   1      39.219  31.095  29.719  1.00  0.00     0.167 HD
ATOM     40  C   UNL A   1      42.585  24.916  28.082  1.00  0.00     0.037 A 
ATOM     41  C   UNL A   1      41.044  31.207  31.893  1.00  0.00     0.037 A 
ATOM     42  C   UNL A   1      43.503  25.774  28.840  1.00  0.00     0.049 A 
ATOM     43  C   UNL A   1      41.941  30.141  32.479  1.00  0.00     0.074 A 
ATOM     44  C   UNL A   1      44.215  26.902  28.458  1.00  0.00     0.029 A 
ATOM     45  N   UNL A   1      43.429  25.811  30.229  1.00  0.00    -0.354 N 
ATOM     46  N   UNL A   1      42.318  29.064  31.839  1.00  0.00    -0.248 NA
ATOM     47  C   UNL A   1      42.557  30.263  33.792  1.00  0.00     0.031 C 
ATOM     48  C   UNL A   1      44.475  27.669  29.626  1.00  0.00     0.029 A 
ATOM     49  C   UNL A   1      43.921  27.013  30.712  1.00  0.00     0.049 A 
ATOM     50  H   UNL A   1      43.075  25.084  30.790  1.00  0.00     0.167 HD
ATOM     51  C   UNL A   1      43.259  28.405  32.578  1.00  0.00     0.074 A 
ATOM     52  C   UNL A   1      43.361  29.187  33.801  1.00  0.00     0.031 C 
ATOM     53  C   UNL A   1      43.915  27.289  32.143  1.00  0.00     0.037 A 
BRANCH  40  54
ATOM     54  C   UNL A   1      43.037  23.989  26.973  1.00  0.00     0.057 A 
ATOM     55  C   UNL A   1      43.414  24.504  25.714  1.00  0.00     0.134 A 
ATOM     56  C   UNL A   1      43.128  22.588  27.070  1.00  0.00     0.134 A 
ATOM     57  F   UNL A   1      43.457  25.821  25.474  1.00  0.00    -0.206 F 
ATOM     58  C   UNL A   1      43.775  23.696  24.626  1.00  0.00     0.040 A 
ATOM     59  C   UNL A   1      43.456  21.764  25.979  1.00  0.00     0.040 A 
ATOM     60  F   UNL A   1      42.954  21.953  28.235  1.00  0.00    -0.206 F 
ATOM     61  C   UNL A   1      43.776  22.317  24.749  1.00  0.00     0.006 A 
ENDBRANCH  40  54
BRANCH  41  62
ATOM     62  C   UNL A   1      39.648  31.551  32.346  1.00  0.00     0.057 A 
ATOM     63  C   UNL A   1      38.868  30.536  32.949  1.00  0.00     0.134 A 
ATOM     64  C   UNL A   1      39.178  32.859  32.508  1.00  0.00     0.134 A 
ATOM     65  F   UNL A   1      39.239  29.249  32.837  1.00  0.00    -0.206 F 
ATOM     66  C   UNL A   1      37.765  30.810  33.768  1.00  0.00     0.040 A 
ATOM     67  C   UNL A   1      38.051  33.144  33.304  1.00  0.00     0.040 A 
ATOM     68  F   UNL A   1      39.840  33.896  31.979  1.00  0.00    -0.206 F 
ATOM     69  C   UNL A   1      37.367  32.125  33.969  1.00  0.00     0.006 A 
ENDBRANCH  41  62
BRANCH  53  70
ATOM     70  C   UNL A   1      44.704  26.379  33.040  1.00  0.00     0.057 A 
ATOM     71  C   UNL A   1      44.116  25.574  34.023  1.00  0.00     0.134 A 
ATOM     72  C   UNL A   1      46.080  26.157  32.810  1.00  0.00     0.134 A 
ATOM     73  F   UNL A   1      42.795  25.589  34.248  1.00  0.00    -0.206 F 
ATOM     74  C   UNL A   1      44.858  24.668  34.784  1.00  0.00     0.040 A 
ATOM     75  C   UNL A   1      46.812  25.201  33.511  1.00  0.00     0.040 A 
ATOM     76  F   UNL A   1      46.762  26.832  31.873  1.00  0.00    -0.206 F 
ATOM     77  C   UNL A   1      46.207  24.469  34.519  1.00  0.00     0.006 A 
ENDBRANCH  53  70
ENDBRANCH  27  28
ENDBRANCH  20  22
ENDBRANCH  19  20
ENDBRANCH   1  19
TORSDOF 12
ENDMDL
