MODEL 1
REMARK VINA RESULT:     -12.4      0.000      0.000
REMARK SMILES Cc1nc(N2CCCC[C@H]2C(=O)OCCOC(=O)c2ccc(-c3c4nc(c(-c5c(F)cccc5F)c5ccc([nH]5)c(-c5c(F)cccc5F)c5nc(c(-c6c(F)cccc6F)c6ccc3[nH]6)C=C5)C=C4)cc2)c2oc3ccccc3c2n1
REMARK SMILES IDX 15 1 14 2 13 3 11 4 12 5 10 6 5 7 6 8 7 9 9 10 8 11 4 12
REMARK SMILES IDX 1 13 2 14 3 15 82 16 81 17 73 18 80 19 74 20 75 21 79 22
REMARK SMILES IDX 76 23 78 24 77 25 16 26 17 27 18 28 19 29 20 30 72 31 21 32
REMARK SMILES IDX 71 33 22 34 23 35 24 36 65 37 25 38 70 39 64 40 66 41 26 42
REMARK SMILES IDX 69 43 63 44 62 45 27 47 53 48 36 49 52 50 37 51 40 52 51 53
REMARK SMILES IDX 67 54 38 55 39 56 50 58 68 59 41 60 28 61 29 62 34 63 30 64
REMARK SMILES IDX 31 65 33 66 35 67 32 68 54 69 55 70 60 71 56 72 57 73 59 74
REMARK SMILES IDX 61 75 58 76 42 77 43 78 48 79 44 80 45 81 47 82 49 83 46 84
REMARK H PARENT 66 46 40 57
REMARK Flexibility Score: inf
ROOT
ATOM      1  C   UNL A   1      38.505  21.302  25.756  1.00  0.00     0.275 C 
ENDROOT
BRANCH   1   2
ATOM      2  C   UNL A   1      37.627  22.366  25.107  1.00  0.00     0.274 C 
BRANCH   2   3
ATOM      3  O   UNL A   1      36.639  21.752  24.251  1.00  0.00    -0.461 OA
BRANCH   3   4
ATOM      4  C   UNL A   1      35.466  22.437  24.085  1.00  0.00     0.328 C 
ATOM      5  O   UNL A   1      35.325  23.368  23.300  1.00  0.00    -0.250 OA
BRANCH   4   6
ATOM      6  C   UNL A   1      34.391  21.917  25.059  1.00  0.00     0.194 C 
ATOM      7  N   UNL A   1      33.027  22.165  24.568  1.00  0.00    -0.340 N 
ATOM      8  C   UNL A   1      32.515  21.357  23.472  1.00  0.00     0.119 C 
ATOM      9  C   UNL A   1      32.544  19.886  23.861  1.00  0.00     0.022 C 
ATOM     10  C   UNL A   1      34.507  20.424  25.419  1.00  0.00     0.037 C 
ATOM     11  C   UNL A   1      33.914  19.461  24.386  1.00  0.00     0.005 C 
BRANCH   7  12
ATOM     12  C   UNL A   1      32.206  22.976  25.315  1.00  0.00     0.176 A 
ATOM     13  C   UNL A   1      29.181  22.554  27.388  1.00  0.00     0.090 C 
ATOM     14  C   UNL A   1      30.319  23.236  26.691  1.00  0.00     0.128 A 
ATOM     15  N   UNL A   1      31.107  22.452  25.917  1.00  0.00    -0.212 NA
ATOM     16  N   UNL A   1      30.457  24.560  26.903  1.00  0.00    -0.229 NA
ATOM     17  C   UNL A   1      31.517  25.098  26.256  1.00  0.00     0.123 A 
ATOM     18  C   UNL A   1      32.386  24.344  25.490  1.00  0.00     0.196 A 
ATOM     19  C   UNL A   1      31.976  26.441  26.172  1.00  0.00     0.047 A 
ATOM     20  O   UNL A   1      33.344  25.137  24.932  1.00  0.00    -0.450 OA
ATOM     21  C   UNL A   1      33.088  26.406  25.338  1.00  0.00     0.137 A 
ATOM     22  C   UNL A   1      31.573  27.686  26.688  1.00  0.00     0.014 A 
ATOM     23  C   UNL A   1      33.832  27.521  24.964  1.00  0.00     0.048 A 
ATOM     24  C   UNL A   1      32.305  28.830  26.334  1.00  0.00     0.001 A 
ATOM     25  C   UNL A   1      33.411  28.748  25.483  1.00  0.00     0.004 A 
ENDBRANCH   7  12
ENDBRANCH   4   6
ENDBRANCH   3   4
ENDBRANCH   2   3
ENDBRANCH   1   2
BRANCH   1  26
ATOM     26  O   UNL A   1      39.846  21.800  25.855  1.00  0.00    -0.458 OA
BRANCH  26  27
ATOM     27  C   UNL A   1      40.327  21.969  27.102  1.00  0.00     0.338 C 
ATOM     28  O   UNL A   1      40.487  21.128  27.976  1.00  0.00    -0.246 OA
BRANCH  27  29
ATOM     29  C   UNL A   1      40.692  23.378  27.254  1.00  0.00     0.060 A 
ATOM     30  C   UNL A   1      41.917  23.841  26.780  1.00  0.00     0.016 A 
ATOM     31  C   UNL A   1      39.762  24.254  27.816  1.00  0.00     0.016 A 
ATOM     32  C   UNL A   1      42.211  25.197  26.896  1.00  0.00     0.010 A 
ATOM     33  C   UNL A   1      40.017  25.613  27.852  1.00  0.00     0.010 A 
ATOM     34  C   UNL A   1      41.257  26.086  27.421  1.00  0.00    -0.014 A 
BRANCH  34  35
ATOM     35  C   UNL A   1      41.636  27.499  27.579  1.00  0.00     0.031 A 
ATOM     36  C   UNL A   1      40.474  28.463  27.623  1.00  0.00     0.074 A 
ATOM     37  C   UNL A   1      42.669  27.740  28.414  1.00  0.00     0.049 A 
ATOM     38  N   UNL A   1      39.732  28.743  28.656  1.00  0.00    -0.248 NA
ATOM     39  C   UNL A   1      39.975  29.040  26.370  1.00  0.00     0.031 C 
ATOM     40  C   UNL A   1      42.852  27.131  29.737  1.00  0.00     0.029 A 
ATOM     41  N   UNL A   1      43.662  28.691  28.331  1.00  0.00    -0.354 N 
ATOM     42  C   UNL A   1      38.677  29.530  28.203  1.00  0.00     0.074 A 
ATOM     43  C   UNL A   1      38.866  29.674  26.777  1.00  0.00     0.031 C 
ATOM     44  C   UNL A   1      43.789  27.823  30.408  1.00  0.00     0.029 A 
ATOM     45  C   UNL A   1      44.319  28.872  29.547  1.00  0.00     0.049 A 
ATOM     46  H   UNL A   1      43.882  29.183  27.508  1.00  0.00     0.167 HD
ATOM     47  C   UNL A   1      37.711  30.059  29.002  1.00  0.00     0.037 A 
ATOM     48  C   UNL A   1      44.775  30.078  29.984  1.00  0.00     0.037 A 
ATOM     49  C   UNL A   1      37.842  29.809  30.401  1.00  0.00     0.049 A 
ATOM     50  C   UNL A   1      43.508  30.651  30.578  1.00  0.00     0.074 A 
ATOM     51  C   UNL A   1      37.339  28.932  31.336  1.00  0.00     0.029 A 
ATOM     52  N   UNL A   1      38.677  30.635  31.115  1.00  0.00    -0.354 N 
ATOM     53  N   UNL A   1      42.991  30.371  31.747  1.00  0.00    -0.248 NA
ATOM     54  C   UNL A   1      42.579  31.292  29.643  1.00  0.00     0.031 C 
ATOM     55  C   UNL A   1      38.255  28.988  32.434  1.00  0.00     0.029 A 
ATOM     56  C   UNL A   1      39.281  29.857  32.066  1.00  0.00     0.049 A 
ATOM     57  H   UNL A   1      38.815  31.600  30.971  1.00  0.00     0.167 HD
ATOM     58  C   UNL A   1      41.611  30.546  31.595  1.00  0.00     0.074 A 
ATOM     59  C   UNL A   1      41.433  31.156  30.293  1.00  0.00     0.031 C 
ATOM     60  C   UNL A   1      40.672  30.007  32.428  1.00  0.00     0.037 A 
BRANCH  47  61
ATOM     61  C   UNL A   1      36.671  31.016  28.561  1.00  0.00     0.057 A 
ATOM     62  C   UNL A   1      35.354  30.629  28.311  1.00  0.00     0.134 A 
ATOM     63  C   UNL A   1      36.944  32.389  28.643  1.00  0.00     0.134 A 
ATOM     64  F   UNL A   1      35.025  29.330  28.241  1.00  0.00    -0.206 F 
ATOM     65  C   UNL A   1      34.336  31.579  28.186  1.00  0.00     0.040 A 
ATOM     66  C   UNL A   1      35.937  33.345  28.532  1.00  0.00     0.040 A 
ATOM     67  F   UNL A   1      38.194  32.814  28.896  1.00  0.00    -0.206 F 
ATOM     68  C   UNL A   1      34.624  32.940  28.316  1.00  0.00     0.006 A 
ENDBRANCH  47  61
BRANCH  48  69
ATOM     69  C   UNL A   1      45.678  30.797  29.035  1.00  0.00     0.057 A 
ATOM     70  C   UNL A   1      45.323  31.300  27.780  1.00  0.00     0.134 A 
ATOM     71  C   UNL A   1      47.026  30.983  29.410  1.00  0.00     0.134 A 
ATOM     72  F   UNL A   1      44.052  31.297  27.361  1.00  0.00    -0.206 F 
ATOM     73  C   UNL A   1      46.274  31.818  26.892  1.00  0.00     0.040 A 
ATOM     74  C   UNL A   1      47.982  31.517  28.542  1.00  0.00     0.040 A 
ATOM     75  F   UNL A   1      47.446  30.632  30.635  1.00  0.00    -0.206 F 
ATOM     76  C   UNL A   1      47.612  31.908  27.262  1.00  0.00     0.006 A 
ENDBRANCH  48  69
BRANCH  60  77
ATOM     77  C   UNL A   1      41.179  29.315  33.644  1.00  0.00     0.057 A 
ATOM     78  C   UNL A   1      41.442  27.938  33.645  1.00  0.00     0.134 A 
ATOM     79  C   UNL A   1      41.325  30.003  34.851  1.00  0.00     0.134 A 
ATOM     80  F   UNL A   1      41.339  27.215  32.518  1.00  0.00    -0.206 F 
ATOM     81  C   UNL A   1      41.782  27.259  34.816  1.00  0.00     0.040 A 
ATOM     82  C   UNL A   1      41.694  29.340  36.023  1.00  0.00     0.040 A 
ATOM     83  F   UNL A   1      41.073  31.319  34.921  1.00  0.00    -0.206 F 
ATOM     84  C   UNL A   1      41.907  27.962  36.010  1.00  0.00     0.006 A 
ENDBRANCH  60  77
ENDBRANCH  34  35
ENDBRANCH  27  29
ENDBRANCH  26  27
ENDBRANCH   1  26
TORSDOF 12
ENDMDL
MODEL 2
REMARK VINA RESULT:     -12.0      2.708      7.465
REMARK SMILES Cc1nc(N2CCCC[C@H]2C(=O)OCCOC(=O)c2ccc(-c3c4nc(c(-c5c(F)cccc5F)c5ccc([nH]5)c(-c5c(F)cccc5F)c5nc(c(-c6c(F)cccc6F)c6ccc3[nH]6)C=C5)C=C4)cc2)c2oc3ccccc3c2n1
REMARK SMILES IDX 15 1 14 2 13 3 11 4 12 5 10 6 5 7 6 8 7 9 9 10 8 11 4 12
REMARK SMILES IDX 1 13 2 14 3 15 82 16 81 17 73 18 80 19 74 20 75 21 79 22
REMARK SMILES IDX 76 23 78 24 77 25 16 26 17 27 18 28 19 29 20 30 72 31 21 32
REMARK SMILES IDX 71 33 22 34 23 35 24 36 65 37 25 38 70 39 64 40 66 41 26 42
REMARK SMILES IDX 69 43 63 44 62 45 27 47 53 48 36 49 52 50 37 51 40 52 51 53
REMARK SMILES IDX 67 54 38 55 39 56 50 58 68 59 41 60 28 61 29 62 34 63 30 64
REMARK SMILES IDX 31 65 33 66 35 67 32 68 54 69 55 70 60 71 56 72 57 73 59 74
REMARK SMILES IDX 61 75 58 76 42 77 43 78 48 79 44 80 45 81 47 82 49 83 46 84
REMARK H PARENT 66 46 40 57
REMARK Flexibility Score: inf
ROOT
ATOM      1  C   UNL A   1      33.334  31.388  27.126  1.00  0.00     0.275 C 
ENDROOT
BRANCH   1   2
ATOM      2  C   UNL A   1      32.977  29.916  27.294  1.00  0.00     0.274 C 
BRANCH   2   3
ATOM      3  O   UNL A   1      31.777  29.599  26.555  1.00  0.00    -0.461 OA
BRANCH   3   4
ATOM      4  C   UNL A   1      31.680  28.325  26.068  1.00  0.00     0.328 C 
ATOM      5  O   UNL A   1      31.589  27.329  26.776  1.00  0.00    -0.250 OA
BRANCH   4   6
ATOM      6  C   UNL A   1      31.769  28.323  24.529  1.00  0.00     0.194 C 
ATOM      7  N   UNL A   1      31.141  27.133  23.935  1.00  0.00    -0.340 N 
ATOM      8  C   UNL A   1      29.690  27.038  23.916  1.00  0.00     0.119 C 
ATOM      9  C   UNL A   1      29.108  28.224  23.158  1.00  0.00     0.022 C 
ATOM     10  C   UNL A   1      31.178  29.570  23.843  1.00  0.00     0.037 C 
ATOM     11  C   UNL A   1      29.656  29.554  23.670  1.00  0.00     0.005 C 
BRANCH   7  12
ATOM     12  C   UNL A   1      31.933  26.277  23.209  1.00  0.00     0.176 A 
ATOM     13  C   UNL A   1      32.479  25.499  19.642  1.00  0.00     0.090 C 
ATOM     14  C   UNL A   1      32.621  25.420  21.132  1.00  0.00     0.128 A 
ATOM     15  N   UNL A   1      31.812  26.229  21.857  1.00  0.00    -0.212 NA
ATOM     16  N   UNL A   1      33.541  24.559  21.610  1.00  0.00    -0.229 NA
ATOM     17  C   UNL A   1      33.623  24.560  22.962  1.00  0.00     0.123 A 
ATOM     18  C   UNL A   1      32.860  25.396  23.756  1.00  0.00     0.196 A 
ATOM     19  C   UNL A   1      34.411  23.778  23.850  1.00  0.00     0.047 A 
ATOM     20  O   UNL A   1      33.121  25.172  25.074  1.00  0.00    -0.450 OA
ATOM     21  C   UNL A   1      34.052  24.186  25.129  1.00  0.00     0.137 A 
ATOM     22  C   UNL A   1      35.375  22.760  23.724  1.00  0.00     0.014 A 
ATOM     23  C   UNL A   1      34.569  23.651  26.305  1.00  0.00     0.048 A 
ATOM     24  C   UNL A   1      35.921  22.203  24.891  1.00  0.00     0.001 A 
ATOM     25  C   UNL A   1      35.520  22.638  26.157  1.00  0.00     0.004 A 
ENDBRANCH   7  12
ENDBRANCH   4   6
ENDBRANCH   3   4
ENDBRANCH   2   3
ENDBRANCH   1   2
BRANCH   1  26
ATOM     26  O   UNL A   1      33.996  31.848  28.313  1.00  0.00    -0.458 OA
BRANCH  26  27
ATOM     27  C   UNL A   1      35.186  32.451  28.133  1.00  0.00     0.338 C 
ATOM     28  O   UNL A   1      35.425  33.508  27.564  1.00  0.00    -0.246 OA
BRANCH  27  29
ATOM     29  C   UNL A   1      36.207  31.636  28.793  1.00  0.00     0.060 A 
ATOM     30  C   UNL A   1      36.852  30.619  28.095  1.00  0.00     0.016 A 
ATOM     31  C   UNL A   1      36.568  31.948  30.105  1.00  0.00     0.016 A 
ATOM     32  C   UNL A   1      37.853  29.896  28.738  1.00  0.00     0.010 A 
ATOM     33  C   UNL A   1      37.621  31.289  30.713  1.00  0.00     0.010 A 
ATOM     34  C   UNL A   1      38.248  30.239  30.043  1.00  0.00    -0.014 A 
BRANCH  34  35
ATOM     35  C   UNL A   1      39.269  29.408  30.702  1.00  0.00     0.031 A 
ATOM     36  C   UNL A   1      39.419  28.020  30.127  1.00  0.00     0.074 A 
ATOM     37  C   UNL A   1      40.399  30.050  31.068  1.00  0.00     0.049 A 
ATOM     38  N   UNL A   1      40.099  27.683  29.068  1.00  0.00    -0.248 NA
ATOM     39  C   UNL A   1      38.602  26.928  30.670  1.00  0.00     0.031 C 
ATOM     40  C   UNL A   1      41.141  31.007  30.238  1.00  0.00     0.029 A 
ATOM     41  N   UNL A   1      41.201  29.854  32.171  1.00  0.00    -0.354 N 
ATOM     42  C   UNL A   1      39.811  26.347  28.804  1.00  0.00     0.074 A 
ATOM     43  C   UNL A   1      38.869  25.930  29.817  1.00  0.00     0.031 C 
ATOM     44  C   UNL A   1      42.357  31.198  30.778  1.00  0.00     0.029 A 
ATOM     45  C   UNL A   1      42.457  30.438  32.018  1.00  0.00     0.049 A 
ATOM     46  H   UNL A   1      40.918  29.360  32.974  1.00  0.00     0.167 HD
ATOM     47  C   UNL A   1      40.369  25.623  27.796  1.00  0.00     0.037 A 
ATOM     48  C   UNL A   1      43.606  29.893  32.503  1.00  0.00     0.037 A 
ATOM     49  C   UNL A   1      41.346  26.296  27.001  1.00  0.00     0.049 A 
ATOM     50  C   UNL A   1      43.926  28.905  31.404  1.00  0.00     0.074 A 
ATOM     51  C   UNL A   1      41.406  26.959  25.796  1.00  0.00     0.029 A 
ATOM     52  N   UNL A   1      42.633  26.338  27.484  1.00  0.00    -0.354 N 
ATOM     53  N   UNL A   1      44.484  29.167  30.248  1.00  0.00    -0.248 NA
ATOM     54  C   UNL A   1      43.236  27.614  31.463  1.00  0.00     0.031 C 
ATOM     55  C   UNL A   1      42.594  27.752  25.862  1.00  0.00     0.029 A 
ATOM     56  C   UNL A   1      43.146  27.556  27.127  1.00  0.00     0.049 A 
ATOM     57  H   UNL A   1      43.095  25.630  27.988  1.00  0.00     0.167 HD
ATOM     58  C   UNL A   1      43.979  28.207  29.366  1.00  0.00     0.074 A 
ATOM     59  C   UNL A   1      43.256  27.258  30.187  1.00  0.00     0.031 C 
ATOM     60  C   UNL A   1      43.992  28.333  28.005  1.00  0.00     0.037 A 
BRANCH  47  61
ATOM     61  C   UNL A   1      40.189  24.169  27.590  1.00  0.00     0.057 A 
ATOM     62  C   UNL A   1      39.281  23.648  26.667  1.00  0.00     0.134 A 
ATOM     63  C   UNL A   1      41.129  23.290  28.148  1.00  0.00     0.134 A 
ATOM     64  F   UNL A   1      38.369  24.441  26.084  1.00  0.00    -0.206 F 
ATOM     65  C   UNL A   1      39.336  22.305  26.282  1.00  0.00     0.040 A 
ATOM     66  C   UNL A   1      41.202  21.953  27.764  1.00  0.00     0.040 A 
ATOM     67  F   UNL A   1      42.034  23.744  29.031  1.00  0.00    -0.206 F 
ATOM     68  C   UNL A   1      40.310  21.459  26.817  1.00  0.00     0.006 A 
ENDBRANCH  47  61
BRANCH  48  69
ATOM     69  C   UNL A   1      43.590  29.575  33.963  1.00  0.00     0.057 A 
ATOM     70  C   UNL A   1      42.747  28.657  34.597  1.00  0.00     0.134 A 
ATOM     71  C   UNL A   1      44.488  30.264  34.805  1.00  0.00     0.134 A 
ATOM     72  F   UNL A   1      41.938  27.853  33.898  1.00  0.00    -0.206 F 
ATOM     73  C   UNL A   1      42.693  28.540  35.992  1.00  0.00     0.040 A 
ATOM     74  C   UNL A   1      44.460  30.142  36.197  1.00  0.00     0.040 A 
ATOM     75  F   UNL A   1      45.411  31.089  34.285  1.00  0.00    -0.206 F 
ATOM     76  C   UNL A   1      43.536  29.299  36.798  1.00  0.00     0.006 A 
ENDBRANCH  48  69
BRANCH  60  77
ATOM     77  C   UNL A   1      44.721  29.506  27.451  1.00  0.00     0.057 A 
ATOM     78  C   UNL A   1      44.062  30.714  27.179  1.00  0.00     0.134 A 
ATOM     79  C   UNL A   1      46.070  29.411  27.102  1.00  0.00     0.134 A 
ATOM     80  F   UNL A   1      42.770  30.882  27.504  1.00  0.00    -0.206 F 
ATOM     81  C   UNL A   1      44.706  31.768  26.532  1.00  0.00     0.040 A 
ATOM     82  C   UNL A   1      46.733  30.471  26.481  1.00  0.00     0.040 A 
ATOM     83  F   UNL A   1      46.753  28.277  27.321  1.00  0.00    -0.206 F 
ATOM     84  C   UNL A   1      46.046  31.646  26.179  1.00  0.00     0.006 A 
ENDBRANCH  60  77
ENDBRANCH  34  35
ENDBRANCH  27  29
ENDBRANCH  26  27
ENDBRANCH   1  26
TORSDOF 12
ENDMDL
MODEL 3
REMARK VINA RESULT:     -12.0      1.380      2.190
REMARK SMILES Cc1nc(N2CCCC[C@H]2C(=O)OCCOC(=O)c2ccc(-c3c4nc(c(-c5c(F)cccc5F)c5ccc([nH]5)c(-c5c(F)cccc5F)c5nc(c(-c6c(F)cccc6F)c6ccc3[nH]6)C=C5)C=C4)cc2)c2oc3ccccc3c2n1
REMARK SMILES IDX 15 1 14 2 13 3 11 4 12 5 10 6 5 7 6 8 7 9 9 10 8 11 4 12
REMARK SMILES IDX 1 13 2 14 3 15 82 16 81 17 73 18 80 19 74 20 75 21 79 22
REMARK SMILES IDX 76 23 78 24 77 25 16 26 17 27 18 28 19 29 20 30 72 31 21 32
REMARK SMILES IDX 71 33 22 34 23 35 24 36 65 37 25 38 70 39 64 40 66 41 26 42
REMARK SMILES IDX 69 43 63 44 62 45 27 47 53 48 36 49 52 50 37 51 40 52 51 53
REMARK SMILES IDX 67 54 38 55 39 56 50 58 68 59 41 60 28 61 29 62 34 63 30 64
REMARK SMILES IDX 31 65 33 66 35 67 32 68 54 69 55 70 60 71 56 72 57 73 59 74
REMARK SMILES IDX 61 75 58 76 42 77 43 78 48 79 44 80 45 81 47 82 49 83 46 84
REMARK H PARENT 66 46 40 57
REMARK Flexibility Score: inf
ROOT
ATOM      1  C   UNL A   1      38.067  22.142  25.806  1.00  0.00     0.275 C 
ENDROOT
BRANCH   1   2
ATOM      2  C   UNL A   1      37.403  21.432  24.632  1.00  0.00     0.274 C 
BRANCH   2   3
ATOM      3  O   UNL A   1      36.285  22.203  24.143  1.00  0.00    -0.461 OA
BRANCH   3   4
ATOM      4  C   UNL A   1      35.064  21.924  24.693  1.00  0.00     0.328 C 
ATOM      5  O   UNL A   1      34.530  20.822  24.645  1.00  0.00    -0.250 OA
BRANCH   4   6
ATOM      6  C   UNL A   1      34.445  23.193  25.313  1.00  0.00     0.194 C 
ATOM      7  N   UNL A   1      33.075  23.434  24.836  1.00  0.00    -0.340 N 
ATOM      8  C   UNL A   1      31.998  22.590  25.330  1.00  0.00     0.119 C 
ATOM      9  C   UNL A   1      31.922  22.689  26.848  1.00  0.00     0.022 C 
ATOM     10  C   UNL A   1      34.429  23.222  26.853  1.00  0.00     0.037 C 
ATOM     11  C   UNL A   1      33.280  22.446  27.504  1.00  0.00     0.005 C 
BRANCH   7  12
ATOM     12  C   UNL A   1      32.826  24.592  24.138  1.00  0.00     0.176 A 
ATOM     13  C   UNL A   1      32.591  25.590  20.592  1.00  0.00     0.090 C 
ATOM     14  C   UNL A   1      32.593  25.712  22.086  1.00  0.00     0.128 A 
ATOM     15  N   UNL A   1      32.882  24.586  22.781  1.00  0.00    -0.212 NA
ATOM     16  N   UNL A   1      32.303  26.925  22.598  1.00  0.00    -0.229 NA
ATOM     17  C   UNL A   1      32.305  26.949  23.951  1.00  0.00     0.123 A 
ATOM     18  C   UNL A   1      32.545  25.824  24.718  1.00  0.00     0.196 A 
ATOM     19  C   UNL A   1      32.106  28.019  24.866  1.00  0.00     0.047 A 
ATOM     20  O   UNL A   1      32.514  26.134  26.045  1.00  0.00    -0.450 OA
ATOM     21  C   UNL A   1      32.259  27.464  26.132  1.00  0.00     0.137 A 
ATOM     22  C   UNL A   1      31.831  29.396  24.774  1.00  0.00     0.014 A 
ATOM     23  C   UNL A   1      32.171  28.177  27.324  1.00  0.00     0.048 A 
ATOM     24  C   UNL A   1      31.731  30.142  25.959  1.00  0.00     0.001 A 
ATOM     25  C   UNL A   1      31.903  29.543  27.209  1.00  0.00     0.004 A 
ENDBRANCH   7  12
ENDBRANCH   4   6
ENDBRANCH   3   4
ENDBRANCH   2   3
ENDBRANCH   1   2
BRANCH   1  26
ATOM     26  O   UNL A   1      39.477  21.875  25.777  1.00  0.00    -0.458 OA
BRANCH  26  27
ATOM     27  C   UNL A   1      40.124  21.973  26.954  1.00  0.00     0.338 C 
ATOM     28  O   UNL A   1      40.381  21.085  27.757  1.00  0.00    -0.246 OA
BRANCH  27  29
ATOM     29  C   UNL A   1      40.539  23.365  27.123  1.00  0.00     0.060 A 
ATOM     30  C   UNL A   1      39.744  24.252  27.846  1.00  0.00     0.016 A 
ATOM     31  C   UNL A   1      41.775  23.764  26.612  1.00  0.00     0.016 A 
ATOM     32  C   UNL A   1      40.194  25.557  28.030  1.00  0.00     0.010 A 
ATOM     33  C   UNL A   1      42.261  25.033  26.870  1.00  0.00     0.010 A 
ATOM     34  C   UNL A   1      41.458  25.945  27.553  1.00  0.00    -0.014 A 
BRANCH  34  35
ATOM     35  C   UNL A   1      41.863  27.350  27.721  1.00  0.00     0.031 A 
ATOM     36  C   UNL A   1      40.718  28.325  27.854  1.00  0.00     0.074 A 
ATOM     37  C   UNL A   1      42.945  27.558  28.503  1.00  0.00     0.049 A 
ATOM     38  N   UNL A   1      40.039  28.589  28.934  1.00  0.00    -0.248 NA
ATOM     39  C   UNL A   1      40.156  28.938  26.645  1.00  0.00     0.031 C 
ATOM     40  C   UNL A   1      43.195  26.916  29.799  1.00  0.00     0.029 A 
ATOM     41  N   UNL A   1      43.944  28.500  28.385  1.00  0.00    -0.354 N 
ATOM     42  C   UNL A   1      38.970  29.399  28.560  1.00  0.00     0.074 A 
ATOM     43  C   UNL A   1      39.081  29.574  27.129  1.00  0.00     0.031 C 
ATOM     44  C   UNL A   1      44.177  27.581  30.430  1.00  0.00     0.029 A 
ATOM     45  C   UNL A   1      44.671  28.645  29.565  1.00  0.00     0.049 A 
ATOM     46  H   UNL A   1      44.123  29.009  27.562  1.00  0.00     0.167 HD
ATOM     47  C   UNL A   1      38.058  29.920  29.424  1.00  0.00     0.037 A 
ATOM     48  C   UNL A   1      45.166  29.834  30.004  1.00  0.00     0.037 A 
ATOM     49  C   UNL A   1      38.264  29.635  30.808  1.00  0.00     0.049 A 
ATOM     50  C   UNL A   1      43.942  30.408  30.681  1.00  0.00     0.074 A 
ATOM     51  C   UNL A   1      37.804  28.742  31.749  1.00  0.00     0.029 A 
ATOM     52  N   UNL A   1      39.149  30.434  31.492  1.00  0.00    -0.354 N 
ATOM     53  N   UNL A   1      43.488  30.106  31.872  1.00  0.00    -0.248 NA
ATOM     54  C   UNL A   1      42.969  31.082  29.816  1.00  0.00     0.031 C 
ATOM     55  C   UNL A   1      38.781  28.760  32.794  1.00  0.00     0.029 A 
ATOM     56  C   UNL A   1      39.795  29.626  32.389  1.00  0.00     0.049 A 
ATOM     57  H   UNL A   1      39.290  31.400  31.362  1.00  0.00     0.167 HD
ATOM     58  C   UNL A   1      42.104  30.300  31.801  1.00  0.00     0.074 A 
ATOM     59  C   UNL A   1      41.860  30.943  30.527  1.00  0.00     0.031 C 
ATOM     60  C   UNL A   1      41.207  29.752  32.675  1.00  0.00     0.037 A 
BRANCH  47  61
ATOM     61  C   UNL A   1      37.007  30.898  29.066  1.00  0.00     0.057 A 
ATOM     62  C   UNL A   1      37.246  32.271  29.014  1.00  0.00     0.134 A 
ATOM     63  C   UNL A   1      35.807  30.422  28.515  1.00  0.00     0.134 A 
ATOM     64  F   UNL A   1      38.384  32.786  29.506  1.00  0.00    -0.206 F 
ATOM     65  C   UNL A   1      36.338  33.138  28.397  1.00  0.00     0.040 A 
ATOM     66  C   UNL A   1      34.900  31.274  27.887  1.00  0.00     0.040 A 
ATOM     67  F   UNL A   1      35.535  29.107  28.527  1.00  0.00    -0.206 F 
ATOM     68  C   UNL A   1      35.172  32.636  27.815  1.00  0.00     0.006 A 
ENDBRANCH  47  61
BRANCH  48  69
ATOM     69  C   UNL A   1      46.023  30.565  29.021  1.00  0.00     0.057 A 
ATOM     70  C   UNL A   1      45.996  31.939  28.766  1.00  0.00     0.134 A 
ATOM     71  C   UNL A   1      46.942  29.818  28.254  1.00  0.00     0.134 A 
ATOM     72  F   UNL A   1      45.260  32.774  29.510  1.00  0.00    -0.206 F 
ATOM     73  C   UNL A   1      46.723  32.513  27.716  1.00  0.00     0.040 A 
ATOM     74  C   UNL A   1      47.689  30.381  27.216  1.00  0.00     0.040 A 
ATOM     75  F   UNL A   1      47.123  28.510  28.494  1.00  0.00    -0.206 F 
ATOM     76  C   UNL A   1      47.556  31.731  26.922  1.00  0.00     0.006 A 
ENDBRANCH  48  69
BRANCH  60  77
ATOM     77  C   UNL A   1      41.773  29.026  33.844  1.00  0.00     0.057 A 
ATOM     78  C   UNL A   1      42.033  27.649  33.792  1.00  0.00     0.134 A 
ATOM     79  C   UNL A   1      41.981  29.680  35.060  1.00  0.00     0.134 A 
ATOM     80  F   UNL A   1      41.871  26.959  32.652  1.00  0.00    -0.206 F 
ATOM     81  C   UNL A   1      42.429  26.937  34.925  1.00  0.00     0.040 A 
ATOM     82  C   UNL A   1      42.407  28.983  36.193  1.00  0.00     0.040 A 
ATOM     83  F   UNL A   1      41.736  30.993  35.180  1.00  0.00    -0.206 F 
ATOM     84  C   UNL A   1      42.616  27.606  36.130  1.00  0.00     0.006 A 
ENDBRANCH  60  77
ENDBRANCH  34  35
ENDBRANCH  27  29
ENDBRANCH  26  27
ENDBRANCH   1  26
TORSDOF 12
ENDMDL
