MODEL 1
REMARK VINA RESULT:     -10.9      0.000      0.000
REMARK SMILES COCC1CCN(C(=O)NC[C@H]2CC[C@H](C(=O)OCCOC(=O)c3ccc(-c4c5nc(c(-c6c(F)cccc6F)c6ccc([nH]6)c(-c6c(F)cccc6F)c6nc(c(-c7c(F)cccc7F)c7ccc4[nH]7)C=C6)C=C5)cc3)O2)CC1
REMARK SMILES IDX 19 1 18 2 16 3 17 4 15 5 12 6 13 7 78 8 14 9 11 10 10 11
REMARK SMILES IDX 4 12 5 13 80 14 6 15 79 16 7 17 8 18 9 19 3 21 2 22 1 23
REMARK SMILES IDX 20 24 21 25 22 26 23 27 24 28 25 29 77 30 26 31 76 32 27 33
REMARK SMILES IDX 28 34 29 35 70 36 30 37 75 38 69 39 71 40 31 41 74 42 68 43
REMARK SMILES IDX 67 44 32 46 58 47 41 48 57 49 42 50 45 51 56 52 72 53 43 54
REMARK SMILES IDX 44 55 55 57 73 58 46 59 33 60 34 61 39 62 35 63 36 64 38 65
REMARK SMILES IDX 40 66 37 67 59 68 60 69 65 70 61 71 62 72 64 73 66 74 63 75
REMARK SMILES IDX 47 76 48 77 53 78 49 79 50 80 52 81 54 82 51 83
REMARK H PARENT 10 20 71 45 45 56
REMARK Flexibility Score: inf
ROOT
ATOM      1  C   UNL A   1      34.163  34.328  30.764  1.00  0.00     0.274 C 
ENDROOT
BRANCH   1   2
ATOM      2  O   UNL A   1      34.132  33.288  29.767  1.00  0.00    -0.460 OA
BRANCH   2   3
ATOM      3  C   UNL A   1      33.451  33.561  28.622  1.00  0.00     0.335 C 
ATOM      4  O   UNL A   1      32.691  34.511  28.474  1.00  0.00    -0.249 OA
BRANCH   3   5
ATOM      5  C   UNL A   1      33.755  32.555  27.500  1.00  0.00     0.228 C 
ATOM      6  C   UNL A   1      33.186  30.297  27.296  1.00  0.00     0.138 C 
ATOM      7  C   UNL A   1      34.478  30.375  28.089  1.00  0.00     0.037 C 
ATOM      8  O   UNL A   1      32.674  31.642  27.273  1.00  0.00    -0.361 OA
ATOM      9  C   UNL A   1      35.019  31.726  27.689  1.00  0.00     0.047 C 
BRANCH   6  10
ATOM     10  C   UNL A   1      33.401  29.790  25.854  1.00  0.00     0.149 C 
BRANCH  10  11
ATOM     11  N   UNL A   1      32.214  29.961  25.038  1.00  0.00    -0.335 N 
ATOM     12  C   UNL A   1      30.636  25.245  25.804  1.00  0.00     0.018 C 
ATOM     13  C   UNL A   1      29.600  26.123  25.073  1.00  0.00     0.027 C 
ATOM     14  C   UNL A   1      31.794  26.131  26.292  1.00  0.00     0.027 C 
ATOM     15  C   UNL A   1      30.232  27.024  24.003  1.00  0.00     0.121 C 
ATOM     16  C   UNL A   1      32.387  26.922  25.131  1.00  0.00     0.121 C 
ATOM     17  N   UNL A   1      31.362  27.783  24.550  1.00  0.00    -0.325 N 
ATOM     18  C   UNL A   1      31.310  29.144  24.470  1.00  0.00     0.317 C 
ATOM     19  O   UNL A   1      30.404  29.729  23.865  1.00  0.00    -0.249 OA
ATOM     20  H   UNL A   1      32.023  30.908  24.856  1.00  0.00     0.165 HD
BRANCH  12  21
ATOM     21  C   UNL A   1      31.093  24.074  24.914  1.00  0.00     0.163 C 
BRANCH  21  22
ATOM     22  O   UNL A   1      31.150  22.846  25.637  1.00  0.00    -0.384 OA
ATOM     23  C   UNL A   1      30.232  22.779  26.724  1.00  0.00     0.194 C 
ENDBRANCH  21  22
ENDBRANCH  12  21
ENDBRANCH  10  11
ENDBRANCH   6  10
ENDBRANCH   3   5
ENDBRANCH   2   3
ENDBRANCH   1   2
BRANCH   1  24
ATOM     24  C   UNL A   1      34.429  33.745  32.155  1.00  0.00     0.275 C 
BRANCH  24  25
ATOM     25  O   UNL A   1      34.966  32.410  32.076  1.00  0.00    -0.458 OA
BRANCH  25  26
ATOM     26  C   UNL A   1      36.041  32.170  32.854  1.00  0.00     0.338 C 
ATOM     27  O   UNL A   1      36.137  32.331  34.066  1.00  0.00    -0.246 OA
BRANCH  26  28
ATOM     28  C   UNL A   1      37.104  31.536  32.066  1.00  0.00     0.060 A 
ATOM     29  C   UNL A   1      38.107  30.850  32.753  1.00  0.00     0.016 A 
ATOM     30  C   UNL A   1      37.175  31.704  30.683  1.00  0.00     0.016 A 
ATOM     31  C   UNL A   1      39.199  30.334  32.064  1.00  0.00     0.010 A 
ATOM     32  C   UNL A   1      38.269  31.178  29.988  1.00  0.00     0.010 A 
ATOM     33  C   UNL A   1      39.294  30.504  30.678  1.00  0.00    -0.014 A 
BRANCH  33  34
ATOM     34  C   UNL A   1      40.500  30.019  29.966  1.00  0.00     0.031 A 
ATOM     35  C   UNL A   1      41.672  30.936  29.771  1.00  0.00     0.074 A 
ATOM     36  C   UNL A   1      40.556  28.746  29.535  1.00  0.00     0.049 A 
ATOM     37  N   UNL A   1      42.789  30.724  29.124  1.00  0.00    -0.248 NA
ATOM     38  C   UNL A   1      41.576  32.267  30.389  1.00  0.00     0.031 C 
ATOM     39  C   UNL A   1      39.503  27.747  29.716  1.00  0.00     0.029 A 
ATOM     40  N   UNL A   1      41.543  28.077  28.860  1.00  0.00    -0.354 N 
ATOM     41  C   UNL A   1      43.521  31.898  29.240  1.00  0.00     0.074 A 
ATOM     42  C   UNL A   1      42.717  32.824  30.008  1.00  0.00     0.031 C 
ATOM     43  C   UNL A   1      39.906  26.587  29.172  1.00  0.00     0.029 A 
ATOM     44  C   UNL A   1      41.222  26.775  28.568  1.00  0.00     0.049 A 
ATOM     45  H   UNL A   1      42.401  28.491  28.609  1.00  0.00     0.167 HD
ATOM     46  C   UNL A   1      44.752  32.175  28.750  1.00  0.00     0.037 A 
ATOM     47  C   UNL A   1      41.903  25.847  27.872  1.00  0.00     0.037 A 
ATOM     48  C   UNL A   1      45.557  31.249  27.997  1.00  0.00     0.049 A 
ATOM     49  C   UNL A   1      43.243  26.200  27.288  1.00  0.00     0.074 A 
ATOM     50  C   UNL A   1      46.815  31.440  27.453  1.00  0.00     0.029 A 
ATOM     51  N   UNL A   1      45.178  29.952  27.686  1.00  0.00    -0.354 N 
ATOM     52  N   UNL A   1      43.912  27.322  27.379  1.00  0.00    -0.248 NA
ATOM     53  C   UNL A   1      43.914  25.159  26.497  1.00  0.00     0.031 C 
ATOM     54  C   UNL A   1      47.187  30.265  26.788  1.00  0.00     0.029 A 
ATOM     55  C   UNL A   1      46.174  29.334  26.947  1.00  0.00     0.049 A 
ATOM     56  H   UNL A   1      44.329  29.532  27.951  1.00  0.00     0.167 HD
ATOM     57  C   UNL A   1      45.090  27.120  26.672  1.00  0.00     0.074 A 
ATOM     58  C   UNL A   1      45.048  25.761  26.169  1.00  0.00     0.031 C 
ATOM     59  C   UNL A   1      46.114  27.981  26.458  1.00  0.00     0.037 A 
BRANCH  46  60
ATOM     60  C   UNL A   1      45.291  33.552  28.994  1.00  0.00     0.057 A 
ATOM     61  C   UNL A   1      46.097  33.845  30.101  1.00  0.00     0.134 A 
ATOM     62  C   UNL A   1      45.016  34.594  28.099  1.00  0.00     0.134 A 
ATOM     63  F   UNL A   1      46.383  32.895  31.004  1.00  0.00    -0.206 F 
ATOM     64  C   UNL A   1      46.594  35.131  30.320  1.00  0.00     0.040 A 
ATOM     65  C   UNL A   1      45.522  35.879  28.297  1.00  0.00     0.040 A 
ATOM     66  F   UNL A   1      44.251  34.378  27.019  1.00  0.00    -0.206 F 
ATOM     67  C   UNL A   1      46.310  36.152  29.413  1.00  0.00     0.006 A 
ENDBRANCH  46  60
BRANCH  47  68
ATOM     68  C   UNL A   1      41.323  24.497  27.675  1.00  0.00     0.057 A 
ATOM     69  C   UNL A   1      41.774  23.402  28.417  1.00  0.00     0.134 A 
ATOM     70  C   UNL A   1      40.305  24.273  26.741  1.00  0.00     0.134 A 
ATOM     71  F   UNL A   1      42.763  23.552  29.311  1.00  0.00    -0.206 F 
ATOM     72  C   UNL A   1      41.240  22.126  28.233  1.00  0.00     0.040 A 
ATOM     73  C   UNL A   1      39.747  23.007  26.560  1.00  0.00     0.040 A 
ATOM     74  F   UNL A   1      39.831  25.284  25.998  1.00  0.00    -0.206 F 
ATOM     75  C   UNL A   1      40.219  21.927  27.306  1.00  0.00     0.006 A 
ENDBRANCH  47  68
BRANCH  59  76
ATOM     76  C   UNL A   1      47.279  27.468  25.667  1.00  0.00     0.057 A 
ATOM     77  C   UNL A   1      48.348  26.803  26.281  1.00  0.00     0.134 A 
ATOM     78  C   UNL A   1      47.319  27.619  24.276  1.00  0.00     0.134 A 
ATOM     79  F   UNL A   1      48.373  26.641  27.612  1.00  0.00    -0.206 F 
ATOM     80  C   UNL A   1      49.427  26.321  25.538  1.00  0.00     0.040 A 
ATOM     81  C   UNL A   1      48.383  27.123  23.521  1.00  0.00     0.040 A 
ATOM     82  F   UNL A   1      46.323  28.242  23.630  1.00  0.00    -0.206 F 
ATOM     83  C   UNL A   1      49.442  26.476  24.153  1.00  0.00     0.006 A 
ENDBRANCH  59  76
ENDBRANCH  33  34
ENDBRANCH  26  28
ENDBRANCH  25  26
ENDBRANCH  24  25
ENDBRANCH   1  24
TORSDOF 15
ENDMDL
MODEL 2
REMARK VINA RESULT:     -10.9      4.628      7.157
REMARK SMILES COCC1CCN(C(=O)NC[C@H]2CC[C@H](C(=O)OCCOC(=O)c3ccc(-c4c5nc(c(-c6c(F)cccc6F)c6ccc([nH]6)c(-c6c(F)cccc6F)c6nc(c(-c7c(F)cccc7F)c7ccc4[nH]7)C=C6)C=C5)cc3)O2)CC1
REMARK SMILES IDX 19 1 18 2 16 3 17 4 15 5 12 6 13 7 78 8 14 9 11 10 10 11
REMARK SMILES IDX 4 12 5 13 80 14 6 15 79 16 7 17 8 18 9 19 3 21 2 22 1 23
REMARK SMILES IDX 20 24 21 25 22 26 23 27 24 28 25 29 77 30 26 31 76 32 27 33
REMARK SMILES IDX 28 34 29 35 70 36 30 37 75 38 69 39 71 40 31 41 74 42 68 43
REMARK SMILES IDX 67 44 32 46 58 47 41 48 57 49 42 50 45 51 56 52 72 53 43 54
REMARK SMILES IDX 44 55 55 57 73 58 46 59 33 60 34 61 39 62 35 63 36 64 38 65
REMARK SMILES IDX 40 66 37 67 59 68 60 69 65 70 61 71 62 72 64 73 66 74 63 75
REMARK SMILES IDX 47 76 48 77 53 78 49 79 50 80 52 81 54 82 51 83
REMARK H PARENT 10 20 71 45 45 56
REMARK Flexibility Score: inf
ROOT
ATOM      1  C   UNL A   1      33.246  34.956  28.646  1.00  0.00     0.274 C 
ENDROOT
BRANCH   1   2
ATOM      2  O   UNL A   1      34.504  34.305  28.914  1.00  0.00    -0.460 OA
BRANCH   2   3
ATOM      3  C   UNL A   1      34.460  32.965  29.143  1.00  0.00     0.335 C 
ATOM      4  O   UNL A   1      34.367  32.451  30.253  1.00  0.00    -0.249 OA
BRANCH   3   5
ATOM      5  C   UNL A   1      34.515  32.142  27.846  1.00  0.00     0.228 C 
ATOM      6  C   UNL A   1      33.481  30.119  27.292  1.00  0.00     0.138 C 
ATOM      7  C   UNL A   1      34.783  29.790  28.000  1.00  0.00     0.037 C 
ATOM      8  O   UNL A   1      33.260  31.520  27.536  1.00  0.00    -0.361 OA
ATOM      9  C   UNL A   1      35.583  31.055  27.805  1.00  0.00     0.047 C 
BRANCH   6  10
ATOM     10  C   UNL A   1      33.544  29.853  25.772  1.00  0.00     0.149 C 
BRANCH  10  11
ATOM     11  N   UNL A   1      32.252  30.033  25.138  1.00  0.00    -0.335 N 
ATOM     12  C   UNL A   1      30.953  25.207  25.712  1.00  0.00     0.018 C 
ATOM     13  C   UNL A   1      29.798  26.092  25.200  1.00  0.00     0.027 C 
ATOM     14  C   UNL A   1      32.135  26.103  26.114  1.00  0.00     0.027 C 
ATOM     15  C   UNL A   1      30.248  27.100  24.134  1.00  0.00     0.121 C 
ATOM     16  C   UNL A   1      32.539  27.007  24.954  1.00  0.00     0.121 C 
ATOM     17  N   UNL A   1      31.416  27.864  24.588  1.00  0.00    -0.325 N 
ATOM     18  C   UNL A   1      31.307  29.224  24.629  1.00  0.00     0.317 C 
ATOM     19  O   UNL A   1      30.309  29.813  24.200  1.00  0.00    -0.249 OA
ATOM     20  H   UNL A   1      32.006  30.983  25.062  1.00  0.00     0.165 HD
BRANCH  12  21
ATOM     21  C   UNL A   1      31.324  24.130  24.675  1.00  0.00     0.163 C 
BRANCH  21  22
ATOM     22  O   UNL A   1      32.660  23.659  24.851  1.00  0.00    -0.384 OA
ATOM     23  C   UNL A   1      32.804  22.259  24.641  1.00  0.00     0.194 C 
ENDBRANCH  21  22
ENDBRANCH  12  21
ENDBRANCH  10  11
ENDBRANCH   6  10
ENDBRANCH   3   5
ENDBRANCH   2   3
ENDBRANCH   1   2
BRANCH   1  24
ATOM     24  C   UNL A   1      32.903  35.959  29.751  1.00  0.00     0.275 C 
BRANCH  24  25
ATOM     25  O   UNL A   1      32.382  35.299  30.922  1.00  0.00    -0.458 OA
BRANCH  25  26
ATOM     26  C   UNL A   1      32.769  35.824  32.103  1.00  0.00     0.338 C 
ATOM     27  O   UNL A   1      32.204  36.696  32.755  1.00  0.00    -0.246 OA
BRANCH  26  28
ATOM     28  C   UNL A   1      33.939  35.103  32.616  1.00  0.00     0.060 A 
ATOM     29  C   UNL A   1      35.203  35.639  32.357  1.00  0.00     0.016 A 
ATOM     30  C   UNL A   1      33.807  33.865  33.246  1.00  0.00     0.016 A 
ATOM     31  C   UNL A   1      36.347  34.936  32.716  1.00  0.00     0.010 A 
ATOM     32  C   UNL A   1      34.958  33.162  33.614  1.00  0.00     0.010 A 
ATOM     33  C   UNL A   1      36.234  33.687  33.337  1.00  0.00    -0.014 A 
BRANCH  33  34
ATOM     34  C   UNL A   1      37.460  32.913  33.643  1.00  0.00     0.031 A 
ATOM     35  C   UNL A   1      38.187  33.145  34.935  1.00  0.00     0.074 A 
ATOM     36  C   UNL A   1      37.893  31.976  32.780  1.00  0.00     0.049 A 
ATOM     37  N   UNL A   1      39.307  32.618  35.360  1.00  0.00    -0.248 NA
ATOM     38  C   UNL A   1      37.571  34.093  35.875  1.00  0.00     0.031 C 
ATOM     39  C   UNL A   1      37.239  31.621  31.521  1.00  0.00     0.029 A 
ATOM     40  N   UNL A   1      38.983  31.148  32.838  1.00  0.00    -0.354 N 
ATOM     41  C   UNL A   1      39.540  33.182  36.606  1.00  0.00     0.074 A 
ATOM     42  C   UNL A   1      38.453  34.102  36.865  1.00  0.00     0.031 C 
ATOM     43  C   UNL A   1      37.938  30.641  30.927  1.00  0.00     0.029 A 
ATOM     44  C   UNL A   1      39.108  30.330  31.743  1.00  0.00     0.049 A 
ATOM     45  H   UNL A   1      39.615  31.140  33.593  1.00  0.00     0.167 HD
ATOM     46  C   UNL A   1      40.568  32.952  37.457  1.00  0.00     0.037 A 
ATOM     47  C   UNL A   1      40.072  29.447  31.424  1.00  0.00     0.037 A 
ATOM     48  C   UNL A   1      41.642  32.028  37.205  1.00  0.00     0.049 A 
ATOM     49  C   UNL A   1      41.233  29.253  32.358  1.00  0.00     0.074 A 
ATOM     50  C   UNL A   1      42.732  31.730  38.003  1.00  0.00     0.029 A 
ATOM     51  N   UNL A   1      41.756  31.247  36.064  1.00  0.00    -0.354 N 
ATOM     52  N   UNL A   1      41.459  29.814  33.521  1.00  0.00    -0.248 NA
ATOM     53  C   UNL A   1      42.278  28.312  31.930  1.00  0.00     0.031 C 
ATOM     54  C   UNL A   1      43.522  30.788  37.333  1.00  0.00     0.029 A 
ATOM     55  C   UNL A   1      42.905  30.477  36.132  1.00  0.00     0.049 A 
ATOM     56  H   UNL A   1      41.116  31.242  35.317  1.00  0.00     0.167 HD
ATOM     57  C   UNL A   1      42.661  29.283  33.971  1.00  0.00     0.074 A 
ATOM     58  C   UNL A   1      43.109  28.346  32.961  1.00  0.00     0.031 C 
ATOM     59  C   UNL A   1      43.333  29.548  35.118  1.00  0.00     0.037 A 
BRANCH  46  60
ATOM     60  C   UNL A   1      40.590  33.739  38.733  1.00  0.00     0.057 A 
ATOM     61  C   UNL A   1      41.367  34.894  38.876  1.00  0.00     0.134 A 
ATOM     62  C   UNL A   1      39.808  33.344  39.826  1.00  0.00     0.134 A 
ATOM     63  F   UNL A   1      42.151  35.314  37.871  1.00  0.00    -0.206 F 
ATOM     64  C   UNL A   1      41.381  35.620  40.068  1.00  0.00     0.040 A 
ATOM     65  C   UNL A   1      39.799  34.072  41.017  1.00  0.00     0.040 A 
ATOM     66  F   UNL A   1      39.040  32.247  39.753  1.00  0.00    -0.206 F 
ATOM     67  C   UNL A   1      40.591  35.211  41.142  1.00  0.00     0.006 A 
ENDBRANCH  46  60
BRANCH  47  68
ATOM     68  C   UNL A   1      39.988  28.689  30.153  1.00  0.00     0.057 A 
ATOM     69  C   UNL A   1      39.268  27.494  30.071  1.00  0.00     0.134 A 
ATOM     70  C   UNL A   1      40.628  29.142  28.992  1.00  0.00     0.134 A 
ATOM     71  F   UNL A   1      38.654  27.000  31.155  1.00  0.00    -0.206 F 
ATOM     72  C   UNL A   1      39.190  26.769  28.881  1.00  0.00     0.040 A 
ATOM     73  C   UNL A   1      40.542  28.439  27.790  1.00  0.00     0.040 A 
ATOM     74  F   UNL A   1      41.335  30.281  29.008  1.00  0.00    -0.206 F 
ATOM     75  C   UNL A   1      39.824  27.244  27.734  1.00  0.00     0.006 A 
ENDBRANCH  47  68
BRANCH  59  76
ATOM     76  C   UNL A   1      44.608  28.795  35.347  1.00  0.00     0.057 A 
ATOM     77  C   UNL A   1      45.846  29.304  34.935  1.00  0.00     0.134 A 
ATOM     78  C   UNL A   1      44.598  27.562  36.009  1.00  0.00     0.134 A 
ATOM     79  F   UNL A   1      45.917  30.473  34.283  1.00  0.00    -0.206 F 
ATOM     80  C   UNL A   1      47.030  28.601  35.159  1.00  0.00     0.040 A 
ATOM     81  C   UNL A   1      45.779  26.860  36.256  1.00  0.00     0.040 A 
ATOM     82  F   UNL A   1      43.444  27.025  36.434  1.00  0.00    -0.206 F 
ATOM     83  C   UNL A   1      46.998  27.377  35.826  1.00  0.00     0.006 A 
ENDBRANCH  59  76
ENDBRANCH  33  34
ENDBRANCH  26  28
ENDBRANCH  25  26
ENDBRANCH  24  25
ENDBRANCH   1  24
TORSDOF 15
ENDMDL
MODEL 3
REMARK VINA RESULT:     -10.9      4.712      7.509
REMARK SMILES COCC1CCN(C(=O)NC[C@H]2CC[C@H](C(=O)OCCOC(=O)c3ccc(-c4c5nc(c(-c6c(F)cccc6F)c6ccc([nH]6)c(-c6c(F)cccc6F)c6nc(c(-c7c(F)cccc7F)c7ccc4[nH]7)C=C6)C=C5)cc3)O2)CC1
REMARK SMILES IDX 19 1 18 2 16 3 17 4 15 5 12 6 13 7 78 8 14 9 11 10 10 11
REMARK SMILES IDX 4 12 5 13 80 14 6 15 79 16 7 17 8 18 9 19 3 21 2 22 1 23
REMARK SMILES IDX 20 24 21 25 22 26 23 27 24 28 25 29 77 30 26 31 76 32 27 33
REMARK SMILES IDX 28 34 29 35 70 36 30 37 75 38 69 39 71 40 31 41 74 42 68 43
REMARK SMILES IDX 67 44 32 46 58 47 41 48 57 49 42 50 45 51 56 52 72 53 43 54
REMARK SMILES IDX 44 55 55 57 73 58 46 59 33 60 34 61 39 62 35 63 36 64 38 65
REMARK SMILES IDX 40 66 37 67 59 68 60 69 65 70 61 71 62 72 64 73 66 74 63 75
REMARK SMILES IDX 47 76 48 77 53 78 49 79 50 80 52 81 54 82 51 83
REMARK H PARENT 10 20 71 45 45 56
REMARK Flexibility Score: inf
ROOT
ATOM      1  C   UNL A   1      33.929  35.131  28.625  1.00  0.00     0.274 C 
ENDROOT
BRANCH   1   2
ATOM      2  O   UNL A   1      33.379  33.845  28.279  1.00  0.00    -0.460 OA
BRANCH   2   3
ATOM      3  C   UNL A   1      34.051  32.753  28.731  1.00  0.00     0.335 C 
ATOM      4  O   UNL A   1      34.403  32.585  29.894  1.00  0.00    -0.249 OA
BRANCH   3   5
ATOM      5  C   UNL A   1      34.309  31.717  27.625  1.00  0.00     0.228 C 
ATOM      6  C   UNL A   1      34.062  29.392  27.641  1.00  0.00     0.138 C 
ATOM      7  C   UNL A   1      35.443  29.711  28.184  1.00  0.00     0.037 C 
ATOM      8  O   UNL A   1      33.356  30.646  27.642  1.00  0.00    -0.361 OA
ATOM      9  C   UNL A   1      35.698  31.090  27.626  1.00  0.00     0.047 C 
BRANCH   6  10
ATOM     10  C   UNL A   1      34.103  28.812  26.210  1.00  0.00     0.149 C 
BRANCH  10  11
ATOM     11  N   UNL A   1      33.548  27.474  26.154  1.00  0.00    -0.335 N 
ATOM     12  C   UNL A   1      30.377  28.615  22.419  1.00  0.00     0.018 C 
ATOM     13  C   UNL A   1      30.419  27.107  22.743  1.00  0.00     0.027 C 
ATOM     14  C   UNL A   1      31.494  29.330  23.197  1.00  0.00     0.027 C 
ATOM     15  C   UNL A   1      30.453  26.823  24.251  1.00  0.00     0.121 C 
ATOM     16  C   UNL A   1      31.381  29.031  24.688  1.00  0.00     0.121 C 
ATOM     17  N   UNL A   1      31.511  27.595  24.911  1.00  0.00    -0.325 N 
ATOM     18  C   UNL A   1      32.460  26.904  25.607  1.00  0.00     0.317 C 
ATOM     19  O   UNL A   1      32.385  25.682  25.778  1.00  0.00    -0.249 OA
ATOM     20  H   UNL A   1      34.106  26.820  26.633  1.00  0.00     0.165 HD
BRANCH  12  21
ATOM     21  C   UNL A   1      28.975  29.197  22.684  1.00  0.00     0.163 C 
BRANCH  21  22
ATOM     22  O   UNL A   1      28.375  29.704  21.493  1.00  0.00    -0.384 OA
ATOM     23  C   UNL A   1      28.060  31.091  21.558  1.00  0.00     0.194 C 
ENDBRANCH  21  22
ENDBRANCH  12  21
ENDBRANCH  10  11
ENDBRANCH   6  10
ENDBRANCH   3   5
ENDBRANCH   2   3
ENDBRANCH   1   2
BRANCH   1  24
ATOM     24  C   UNL A   1      32.907  35.975  29.392  1.00  0.00     0.275 C 
BRANCH  24  25
ATOM     25  O   UNL A   1      32.382  35.265  30.531  1.00  0.00    -0.458 OA
BRANCH  25  26
ATOM     26  C   UNL A   1      32.694  35.788  31.734  1.00  0.00     0.338 C 
ATOM     27  O   UNL A   1      32.081  36.649  32.357  1.00  0.00    -0.246 OA
BRANCH  26  28
ATOM     28  C   UNL A   1      33.843  35.081  32.310  1.00  0.00     0.060 A 
ATOM     29  C   UNL A   1      35.112  35.636  32.127  1.00  0.00     0.016 A 
ATOM     30  C   UNL A   1      33.693  33.838  32.924  1.00  0.00     0.016 A 
ATOM     31  C   UNL A   1      36.244  34.948  32.547  1.00  0.00     0.010 A 
ATOM     32  C   UNL A   1      34.831  33.148  33.354  1.00  0.00     0.010 A 
ATOM     33  C   UNL A   1      36.113  33.693  33.154  1.00  0.00    -0.014 A 
BRANCH  33  34
ATOM     34  C   UNL A   1      37.330  32.934  33.526  1.00  0.00     0.031 A 
ATOM     35  C   UNL A   1      38.005  33.201  34.839  1.00  0.00     0.074 A 
ATOM     36  C   UNL A   1      37.802  31.980  32.703  1.00  0.00     0.049 A 
ATOM     37  N   UNL A   1      39.111  32.692  35.320  1.00  0.00    -0.248 NA
ATOM     38  C   UNL A   1      37.347  34.167  35.732  1.00  0.00     0.031 C 
ATOM     39  C   UNL A   1      37.200  31.592  31.428  1.00  0.00     0.029 A 
ATOM     40  N   UNL A   1      38.894  31.161  32.823  1.00  0.00    -0.354 N 
ATOM     41  C   UNL A   1      39.292  33.287  36.561  1.00  0.00     0.074 A 
ATOM     42  C   UNL A   1      38.190  34.206  36.755  1.00  0.00     0.031 C 
ATOM     43  C   UNL A   1      37.927  30.602  30.886  1.00  0.00     0.029 A 
ATOM     44  C   UNL A   1      39.066  30.318  31.753  1.00  0.00     0.049 A 
ATOM     45  H   UNL A   1      39.496  31.175  33.602  1.00  0.00     0.167 HD
ATOM     46  C   UNL A   1      40.286  33.083  37.456  1.00  0.00     0.037 A 
ATOM     47  C   UNL A   1      40.047  29.434  31.493  1.00  0.00     0.037 A 
ATOM     48  C   UNL A   1      41.375  32.160  37.268  1.00  0.00     0.049 A 
ATOM     49  C   UNL A   1      41.172  29.270  32.476  1.00  0.00     0.074 A 
ATOM     50  C   UNL A   1      42.435  31.888  38.115  1.00  0.00     0.029 A 
ATOM     51  N   UNL A   1      41.538  31.354  36.151  1.00  0.00    -0.354 N 
ATOM     52  N   UNL A   1      41.349  29.860  33.633  1.00  0.00    -0.248 NA
ATOM     53  C   UNL A   1      42.237  28.326  32.111  1.00  0.00     0.031 C 
ATOM     54  C   UNL A   1      43.255  30.936  37.498  1.00  0.00     0.029 A 
ATOM     55  C   UNL A   1      42.687  30.593  36.282  1.00  0.00     0.049 A 
ATOM     56  H   UNL A   1      40.928  31.327  35.380  1.00  0.00     0.167 HD
ATOM     57  C   UNL A   1      42.534  29.347  34.143  1.00  0.00     0.074 A 
ATOM     58  C   UNL A   1      43.028  28.389  33.174  1.00  0.00     0.031 C 
ATOM     59  C   UNL A   1      43.160  29.644  35.308  1.00  0.00     0.037 A 
BRANCH  46  60
ATOM     60  C   UNL A   1      40.254  33.900  38.713  1.00  0.00     0.057 A 
ATOM     61  C   UNL A   1      40.945  35.111  38.825  1.00  0.00     0.134 A 
ATOM     62  C   UNL A   1      39.505  33.476  39.818  1.00  0.00     0.134 A 
ATOM     63  F   UNL A   1      41.694  35.564  37.807  1.00  0.00    -0.206 F 
ATOM     64  C   UNL A   1      40.910  35.865  40.000  1.00  0.00     0.040 A 
ATOM     65  C   UNL A   1      39.446  34.229  40.991  1.00  0.00     0.040 A 
ATOM     66  F   UNL A   1      38.819  32.324  39.774  1.00  0.00    -0.206 F 
ATOM     67  C   UNL A   1      40.154  35.426  41.086  1.00  0.00     0.006 A 
ENDBRANCH  46  60
BRANCH  47  68
ATOM     68  C   UNL A   1      40.017  28.646  30.238  1.00  0.00     0.057 A 
ATOM     69  C   UNL A   1      40.718  29.067  29.104  1.00  0.00     0.134 A 
ATOM     70  C   UNL A   1      39.287  27.454  30.144  1.00  0.00     0.134 A 
ATOM     71  F   UNL A   1      41.416  30.212  29.128  1.00  0.00    -0.206 F 
ATOM     72  C   UNL A   1      40.689  28.337  27.915  1.00  0.00     0.040 A 
ATOM     73  C   UNL A   1      39.266  26.703  28.969  1.00  0.00     0.040 A 
ATOM     74  F   UNL A   1      38.594  27.000  31.198  1.00  0.00    -0.206 F 
ATOM     75  C   UNL A   1      39.966  27.147  27.848  1.00  0.00     0.006 A 
ENDBRANCH  47  68
BRANCH  59  76
ATOM     76  C   UNL A   1      44.429  28.905  35.605  1.00  0.00     0.057 A 
ATOM     77  C   UNL A   1      44.425  27.687  36.297  1.00  0.00     0.134 A 
ATOM     78  C   UNL A   1      45.663  29.404  35.172  1.00  0.00     0.134 A 
ATOM     79  F   UNL A   1      43.276  27.166  36.750  1.00  0.00    -0.206 F 
ATOM     80  C   UNL A   1      45.611  27.000  36.564  1.00  0.00     0.040 A 
ATOM     81  C   UNL A   1      46.852  28.716  35.415  1.00  0.00     0.040 A 
ATOM     82  F   UNL A   1      45.731  30.562  34.499  1.00  0.00    -0.206 F 
ATOM     83  C   UNL A   1      46.828  27.513  36.117  1.00  0.00     0.006 A 
ENDBRANCH  59  76
ENDBRANCH  33  34
ENDBRANCH  26  28
ENDBRANCH  25  26
ENDBRANCH  24  25
ENDBRANCH   1  24
TORSDOF 15
ENDMDL
