MODEL 1
REMARK VINA RESULT:     -10.5      0.000      0.000
REMARK SMILES CCOc1cccc2c(SCC(=O)OCCOC(=O)c3ccc(-c4c5nc(c(-c6c(F)cccc6F)c6ccc([nH]6)c(-c6c(F)cccc6F)c6nc(c(-c7c(F)cccc7F)c7ccc4[nH]7)C=C6)C=C5)cc3)cc(C)nc12
REMARK SMILES IDX 15 1 14 2 12 3 13 4 11 5 10 6 9 7 4 8 5 9 78 10 6 11 8 12
REMARK SMILES IDX 77 13 7 14 75 15 74 16 76 17 3 18 2 19 1 20 16 21 17 22
REMARK SMILES IDX 18 23 19 24 20 25 21 26 73 27 22 28 72 29 23 30 24 31 25 32
REMARK SMILES IDX 66 33 26 34 71 35 65 36 67 37 27 38 70 39 64 40 63 41 28 43
REMARK SMILES IDX 54 44 37 45 53 46 38 47 41 48 52 49 68 50 39 51 40 52 51 54
REMARK SMILES IDX 69 55 42 56 29 57 30 58 35 59 31 60 32 61 34 62 36 63 33 64
REMARK SMILES IDX 55 65 56 66 61 67 57 68 58 69 60 70 62 71 59 72 43 73 44 74
REMARK SMILES IDX 49 75 45 76 46 77 48 78 50 79 47 80
REMARK H PARENT 67 42 41 53
REMARK Flexibility Score: inf
ROOT
ATOM      1  C   UNL A   1      32.603  30.813  26.915  1.00  0.00     0.274 C 
ENDROOT
BRANCH   1   2
ATOM      2  O   UNL A   1      31.568  29.809  26.891  1.00  0.00    -0.461 OA
BRANCH   2   3
ATOM      3  C   UNL A   1      31.934  28.561  27.281  1.00  0.00     0.316 C 
ATOM      4  O   UNL A   1      31.291  27.869  28.066  1.00  0.00    -0.251 OA
BRANCH   3   5
ATOM      5  C   UNL A   1      33.221  28.049  26.668  1.00  0.00     0.197 C 
BRANCH   5   6
ATOM      6  S   UNL A   1      33.040  27.062  25.150  1.00  0.00    -0.114 SA
BRANCH   6   7
ATOM      7  C   UNL A   1      32.751  25.363  25.703  1.00  0.00     0.019 A 
ATOM      8  C   UNL A   1      34.471  22.081  25.801  1.00  0.00     0.145 A 
ATOM      9  C   UNL A   1      35.778  22.380  25.428  1.00  0.00     0.049 A 
ATOM     10  C   UNL A   1      33.503  23.074  25.969  1.00  0.00     0.114 A 
ATOM     11  C   UNL A   1      36.121  23.696  25.156  1.00  0.00     0.005 A 
ATOM     12  C   UNL A   1      33.812  24.408  25.632  1.00  0.00     0.018 A 
ATOM     13  N   UNL A   1      32.300  22.717  26.431  1.00  0.00    -0.249 NA
ATOM     14  C   UNL A   1      35.148  24.694  25.239  1.00  0.00     0.012 A 
ATOM     15  C   UNL A   1      31.320  23.623  26.515  1.00  0.00     0.039 A 
ATOM     16  C   UNL A   1      31.491  24.941  26.132  1.00  0.00     0.039 A 
ATOM     17  C   UNL A   1      30.011  23.095  26.993  1.00  0.00     0.067 C 
BRANCH   8  18
ATOM     18  O   UNL A   1      34.170  20.757  26.042  1.00  0.00    -0.492 OA
BRANCH  18  19
ATOM     19  C   UNL A   1      34.064  20.010  24.818  1.00  0.00     0.226 C 
ATOM     20  C   UNL A   1      32.619  19.700  24.453  1.00  0.00     0.049 C 
ENDBRANCH  18  19
ENDBRANCH   8  18
ENDBRANCH   6   7
ENDBRANCH   5   6
ENDBRANCH   3   5
ENDBRANCH   2   3
ENDBRANCH   1   2
BRANCH   1  21
ATOM     21  C   UNL A   1      32.000  32.209  27.040  1.00  0.00     0.275 C 
BRANCH  21  22
ATOM     22  O   UNL A   1      33.045  33.197  26.961  1.00  0.00    -0.458 OA
BRANCH  22  23
ATOM     23  C   UNL A   1      33.207  33.947  28.070  1.00  0.00     0.338 C 
ATOM     24  O   UNL A   1      32.476  34.849  28.459  1.00  0.00    -0.246 OA
BRANCH  23  25
ATOM     25  C   UNL A   1      34.404  33.530  28.828  1.00  0.00     0.060 A 
ATOM     26  C   UNL A   1      35.691  33.904  28.430  1.00  0.00     0.016 A 
ATOM     27  C   UNL A   1      34.235  32.598  29.858  1.00  0.00     0.016 A 
ATOM     28  C   UNL A   1      36.801  33.277  29.002  1.00  0.00     0.010 A 
ATOM     29  C   UNL A   1      35.347  32.022  30.474  1.00  0.00     0.010 A 
ATOM     30  C   UNL A   1      36.640  32.325  30.026  1.00  0.00    -0.014 A 
BRANCH  30  31
ATOM     31  C   UNL A   1      37.821  31.678  30.652  1.00  0.00     0.031 A 
ATOM     32  C   UNL A   1      38.615  30.615  29.940  1.00  0.00     0.074 A 
ATOM     33  C   UNL A   1      38.174  32.051  31.896  1.00  0.00     0.049 A 
ATOM     34  N   UNL A   1      39.665  29.948  30.355  1.00  0.00    -0.248 NA
ATOM     35  C   UNL A   1      38.187  30.258  28.580  1.00  0.00     0.031 C 
ATOM     36  C   UNL A   1      37.489  33.066  32.697  1.00  0.00     0.029 A 
ATOM     37  N   UNL A   1      39.191  31.615  32.704  1.00  0.00    -0.354 N 
ATOM     38  C   UNL A   1      40.028  29.112  29.305  1.00  0.00     0.074 A 
ATOM     39  C   UNL A   1      39.081  29.341  28.237  1.00  0.00     0.031 C 
ATOM     40  C   UNL A   1      38.111  33.182  33.879  1.00  0.00     0.029 A 
ATOM     41  C   UNL A   1      39.204  32.218  33.936  1.00  0.00     0.049 A 
ATOM     42  H   UNL A   1      39.848  30.935  32.428  1.00  0.00     0.167 HD
ATOM     43  C   UNL A   1      41.053  28.228  29.238  1.00  0.00     0.037 A 
ATOM     44  C   UNL A   1      39.987  32.000  35.007  1.00  0.00     0.037 A 
ATOM     45  C   UNL A   1      41.970  27.958  30.314  1.00  0.00     0.049 A 
ATOM     46  C   UNL A   1      41.064  30.963  34.937  1.00  0.00     0.074 A 
ATOM     47  C   UNL A   1      43.034  27.072  30.342  1.00  0.00     0.029 A 
ATOM     48  N   UNL A   1      41.918  28.560  31.561  1.00  0.00    -0.354 N 
ATOM     49  N   UNL A   1      41.401  30.191  33.933  1.00  0.00    -0.248 NA
ATOM     50  C   UNL A   1      41.865  30.761  36.151  1.00  0.00     0.031 C 
ATOM     51  C   UNL A   1      43.604  27.111  31.621  1.00  0.00     0.029 A 
ATOM     52  C   UNL A   1      42.915  28.047  32.375  1.00  0.00     0.049 A 
ATOM     53  H   UNL A   1      41.269  29.250  31.829  1.00  0.00     0.167 HD
ATOM     54  C   UNL A   1      42.453  29.412  34.391  1.00  0.00     0.074 A 
ATOM     55  C   UNL A   1      42.712  29.818  35.758  1.00  0.00     0.031 C 
ATOM     56  C   UNL A   1      43.143  28.446  33.739  1.00  0.00     0.037 A 
BRANCH  43  57
ATOM     57  C   UNL A   1      41.227  27.461  27.961  1.00  0.00     0.057 A 
ATOM     58  C   UNL A   1      40.611  26.219  27.765  1.00  0.00     0.134 A 
ATOM     59  C   UNL A   1      41.964  27.997  26.898  1.00  0.00     0.134 A 
ATOM     60  F   UNL A   1      39.899  25.651  28.748  1.00  0.00    -0.206 F 
ATOM     61  C   UNL A   1      40.726  25.534  26.553  1.00  0.00     0.040 A 
ATOM     62  C   UNL A   1      42.073  27.328  25.677  1.00  0.00     0.040 A 
ATOM     63  F   UNL A   1      42.574  29.185  27.024  1.00  0.00    -0.206 F 
ATOM     64  C   UNL A   1      41.454  26.092  25.503  1.00  0.00     0.006 A 
ENDBRANCH  43  57
BRANCH  44  65
ATOM     65  C   UNL A   1      39.748  32.781  36.241  1.00  0.00     0.057 A 
ATOM     66  C   UNL A   1      40.458  33.955  36.501  1.00  0.00     0.134 A 
ATOM     67  C   UNL A   1      38.765  32.396  37.160  1.00  0.00     0.134 A 
ATOM     68  F   UNL A   1      41.422  34.363  35.660  1.00  0.00    -0.206 F 
ATOM     69  C   UNL A   1      40.197  34.727  37.633  1.00  0.00     0.040 A 
ATOM     70  C   UNL A   1      38.480  33.167  38.286  1.00  0.00     0.040 A 
ATOM     71  F   UNL A   1      38.047  31.282  36.957  1.00  0.00    -0.206 F 
ATOM     72  C   UNL A   1      39.199  34.337  38.524  1.00  0.00     0.006 A 
ENDBRANCH  44  65
BRANCH  56  73
ATOM     73  C   UNL A   1      44.236  27.768  34.503  1.00  0.00     0.057 A 
ATOM     74  C   UNL A   1      44.004  26.584  35.215  1.00  0.00     0.134 A 
ATOM     75  C   UNL A   1      45.530  28.300  34.527  1.00  0.00     0.134 A 
ATOM     76  F   UNL A   1      42.780  26.035  35.240  1.00  0.00    -0.206 F 
ATOM     77  C   UNL A   1      45.018  25.966  35.946  1.00  0.00     0.040 A 
ATOM     78  C   UNL A   1      46.557  27.682  35.241  1.00  0.00     0.040 A 
ATOM     79  F   UNL A   1      45.814  29.429  33.862  1.00  0.00    -0.206 F 
ATOM     80  C   UNL A   1      46.300  26.514  35.959  1.00  0.00     0.006 A 
ENDBRANCH  56  73
ENDBRANCH  30  31
ENDBRANCH  23  25
ENDBRANCH  22  23
ENDBRANCH  21  22
ENDBRANCH   1  21
TORSDOF 15
ENDMDL
MODEL 2
REMARK VINA RESULT:     -10.5      4.307      9.291
REMARK SMILES CCOc1cccc2c(SCC(=O)OCCOC(=O)c3ccc(-c4c5nc(c(-c6c(F)cccc6F)c6ccc([nH]6)c(-c6c(F)cccc6F)c6nc(c(-c7c(F)cccc7F)c7ccc4[nH]7)C=C6)C=C5)cc3)cc(C)nc12
REMARK SMILES IDX 15 1 14 2 12 3 13 4 11 5 10 6 9 7 4 8 5 9 78 10 6 11 8 12
REMARK SMILES IDX 77 13 7 14 75 15 74 16 76 17 3 18 2 19 1 20 16 21 17 22
REMARK SMILES IDX 18 23 19 24 20 25 21 26 73 27 22 28 72 29 23 30 24 31 25 32
REMARK SMILES IDX 66 33 26 34 71 35 65 36 67 37 27 38 70 39 64 40 63 41 28 43
REMARK SMILES IDX 54 44 37 45 53 46 38 47 41 48 52 49 68 50 39 51 40 52 51 54
REMARK SMILES IDX 69 55 42 56 29 57 30 58 35 59 31 60 32 61 34 62 36 63 33 64
REMARK SMILES IDX 55 65 56 66 61 67 57 68 58 69 60 70 62 71 59 72 43 73 44 74
REMARK SMILES IDX 49 75 45 76 46 77 48 78 50 79 47 80
REMARK H PARENT 67 42 41 53
REMARK Flexibility Score: inf
ROOT
ATOM      1  C   UNL A   1      37.287  20.588  24.948  1.00  0.00     0.274 C 
ENDROOT
BRANCH   1   2
ATOM      2  O   UNL A   1      37.539  21.945  24.529  1.00  0.00    -0.461 OA
BRANCH   2   3
ATOM      3  C   UNL A   1      36.553  22.545  23.814  1.00  0.00     0.316 C 
ATOM      4  O   UNL A   1      36.701  22.997  22.681  1.00  0.00    -0.251 OA
BRANCH   3   5
ATOM      5  C   UNL A   1      35.212  22.624  24.513  1.00  0.00     0.197 C 
BRANCH   5   6
ATOM      6  S   UNL A   1      34.885  24.157  25.437  1.00  0.00    -0.114 SA
BRANCH   6   7
ATOM      7  C   UNL A   1      34.065  25.269  24.266  1.00  0.00     0.019 A 
ATOM      8  C   UNL A   1      32.376  28.567  24.195  1.00  0.00     0.145 A 
ATOM      9  C   UNL A   1      32.643  29.104  25.452  1.00  0.00     0.049 A 
ATOM     10  C   UNL A   1      32.913  27.345  23.782  1.00  0.00     0.114 A 
ATOM     11  C   UNL A   1      33.418  28.381  26.347  1.00  0.00     0.005 A 
ATOM     12  C   UNL A   1      33.646  26.564  24.700  1.00  0.00     0.018 A 
ATOM     13  N   UNL A   1      32.696  26.949  22.524  1.00  0.00    -0.249 NA
ATOM     14  C   UNL A   1      33.897  27.121  25.983  1.00  0.00     0.012 A 
ATOM     15  C   UNL A   1      33.113  25.744  22.121  1.00  0.00     0.039 A 
ATOM     16  C   UNL A   1      33.768  24.864  22.964  1.00  0.00     0.039 A 
ATOM     17  C   UNL A   1      32.766  25.392  20.715  1.00  0.00     0.067 C 
BRANCH   8  18
ATOM     18  O   UNL A   1      31.585  29.312  23.345  1.00  0.00    -0.492 OA
BRANCH  18  19
ATOM     19  C   UNL A   1      30.297  29.579  23.925  1.00  0.00     0.226 C 
ATOM     20  C   UNL A   1      29.156  29.286  22.961  1.00  0.00     0.049 C 
ENDBRANCH  18  19
ENDBRANCH   8  18
ENDBRANCH   6   7
ENDBRANCH   5   6
ENDBRANCH   3   5
ENDBRANCH   2   3
ENDBRANCH   1   2
BRANCH   1  21
ATOM     21  C   UNL A   1      38.564  19.757  24.888  1.00  0.00     0.275 C 
BRANCH  21  22
ATOM     22  O   UNL A   1      39.253  19.836  26.150  1.00  0.00    -0.458 OA
BRANCH  22  23
ATOM     23  C   UNL A   1      40.598  19.773  26.072  1.00  0.00     0.338 C 
ATOM     24  O   UNL A   1      41.263  18.873  25.576  1.00  0.00    -0.246 OA
BRANCH  23  25
ATOM     25  C   UNL A   1      41.224  20.980  26.649  1.00  0.00     0.060 A 
ATOM     26  C   UNL A   1      41.214  21.224  28.025  1.00  0.00     0.016 A 
ATOM     27  C   UNL A   1      41.674  21.969  25.767  1.00  0.00     0.016 A 
ATOM     28  C   UNL A   1      41.570  22.488  28.506  1.00  0.00     0.010 A 
ATOM     29  C   UNL A   1      42.091  23.209  26.255  1.00  0.00     0.010 A 
ATOM     30  C   UNL A   1      42.005  23.494  27.625  1.00  0.00    -0.014 A 
BRANCH  30  31
ATOM     31  C   UNL A   1      42.408  24.829  28.139  1.00  0.00     0.031 A 
ATOM     32  C   UNL A   1      41.405  25.932  28.354  1.00  0.00     0.074 A 
ATOM     33  C   UNL A   1      43.708  25.050  28.404  1.00  0.00     0.049 A 
ATOM     34  N   UNL A   1      41.600  27.155  28.786  1.00  0.00    -0.248 NA
ATOM     35  C   UNL A   1      39.999  25.626  28.056  1.00  0.00     0.031 C 
ATOM     36  C   UNL A   1      44.780  24.068  28.238  1.00  0.00     0.029 A 
ATOM     37  N   UNL A   1      44.347  26.173  28.862  1.00  0.00    -0.354 N 
ATOM     38  C   UNL A   1      40.344  27.751  28.828  1.00  0.00     0.074 A 
ATOM     39  C   UNL A   1      39.394  26.765  28.364  1.00  0.00     0.031 C 
ATOM     40  C   UNL A   1      45.944  24.628  28.598  1.00  0.00     0.029 A 
ATOM     41  C   UNL A   1      45.706  26.018  28.972  1.00  0.00     0.049 A 
ATOM     42  H   UNL A   1      43.878  27.008  29.090  1.00  0.00     0.167 HD
ATOM     43  C   UNL A   1      40.012  29.008  29.211  1.00  0.00     0.037 A 
ATOM     44  C   UNL A   1      46.661  26.903  29.307  1.00  0.00     0.037 A 
ATOM     45  C   UNL A   1      40.958  30.010  29.628  1.00  0.00     0.049 A 
ATOM     46  C   UNL A   1      46.280  28.309  29.652  1.00  0.00     0.074 A 
ATOM     47  C   UNL A   1      40.716  31.314  30.025  1.00  0.00     0.029 A 
ATOM     48  N   UNL A   1      42.330  29.824  29.681  1.00  0.00    -0.354 N 
ATOM     49  N   UNL A   1      45.087  28.851  29.698  1.00  0.00    -0.248 NA
ATOM     50  C   UNL A   1      47.376  29.227  29.984  1.00  0.00     0.031 C 
ATOM     51  C   UNL A   1      41.947  31.929  30.284  1.00  0.00     0.029 A 
ATOM     52  C   UNL A   1      42.950  30.996  30.080  1.00  0.00     0.049 A 
ATOM     53  H   UNL A   1      42.795  28.983  29.467  1.00  0.00     0.167 HD
ATOM     54  C   UNL A   1      45.288  30.173  30.065  1.00  0.00     0.074 A 
ATOM     55  C   UNL A   1      46.715  30.346  30.248  1.00  0.00     0.031 C 
ATOM     56  C   UNL A   1      44.372  31.157  30.235  1.00  0.00     0.037 A 
BRANCH  43  57
ATOM     57  C   UNL A   1      38.562  29.385  29.176  1.00  0.00     0.057 A 
ATOM     58  C   UNL A   1      37.941  29.793  27.988  1.00  0.00     0.134 A 
ATOM     59  C   UNL A   1      37.765  29.280  30.323  1.00  0.00     0.134 A 
ATOM     60  F   UNL A   1      38.652  29.919  26.859  1.00  0.00    -0.206 F 
ATOM     61  C   UNL A   1      36.576  30.087  27.945  1.00  0.00     0.040 A 
ATOM     62  C   UNL A   1      36.397  29.558  30.287  1.00  0.00     0.040 A 
ATOM     63  F   UNL A   1      38.301  28.892  31.489  1.00  0.00    -0.206 F 
ATOM     64  C   UNL A   1      35.800  29.963  29.096  1.00  0.00     0.006 A 
ENDBRANCH  43  57
BRANCH  44  65
ATOM     65  C   UNL A   1      48.075  26.467  29.304  1.00  0.00     0.057 A 
ATOM     66  C   UNL A   1      48.642  25.849  30.422  1.00  0.00     0.134 A 
ATOM     67  C   UNL A   1      48.873  26.610  28.164  1.00  0.00     0.134 A 
ATOM     68  F   UNL A   1      47.927  25.700  31.547  1.00  0.00    -0.206 F 
ATOM     69  C   UNL A   1      49.957  25.384  30.406  1.00  0.00     0.040 A 
ATOM     70  C   UNL A   1      50.182  26.133  28.126  1.00  0.00     0.040 A 
ATOM     71  F   UNL A   1      48.378  27.188  27.059  1.00  0.00    -0.206 F 
ATOM     72  C   UNL A   1      50.727  25.517  29.252  1.00  0.00     0.006 A 
ENDBRANCH  44  65
BRANCH  56  73
ATOM     73  C   UNL A   1      44.895  32.500  30.634  1.00  0.00     0.057 A 
ATOM     74  C   UNL A   1      45.223  33.470  29.678  1.00  0.00     0.134 A 
ATOM     75  C   UNL A   1      45.071  32.829  31.983  1.00  0.00     0.134 A 
ATOM     76  F   UNL A   1      45.089  33.207  28.369  1.00  0.00    -0.206 F 
ATOM     77  C   UNL A   1      45.733  34.714  30.051  1.00  0.00     0.040 A 
ATOM     78  C   UNL A   1      45.564  34.076  32.369  1.00  0.00     0.040 A 
ATOM     79  F   UNL A   1      44.771  31.944  32.944  1.00  0.00    -0.206 F 
ATOM     80  C   UNL A   1      45.903  35.020  31.400  1.00  0.00     0.006 A 
ENDBRANCH  56  73
ENDBRANCH  30  31
ENDBRANCH  23  25
ENDBRANCH  22  23
ENDBRANCH  21  22
ENDBRANCH   1  21
TORSDOF 15
ENDMDL
MODEL 3
REMARK VINA RESULT:     -10.3      3.612      7.545
REMARK SMILES CCOc1cccc2c(SCC(=O)OCCOC(=O)c3ccc(-c4c5nc(c(-c6c(F)cccc6F)c6ccc([nH]6)c(-c6c(F)cccc6F)c6nc(c(-c7c(F)cccc7F)c7ccc4[nH]7)C=C6)C=C5)cc3)cc(C)nc12
REMARK SMILES IDX 15 1 14 2 12 3 13 4 11 5 10 6 9 7 4 8 5 9 78 10 6 11 8 12
REMARK SMILES IDX 77 13 7 14 75 15 74 16 76 17 3 18 2 19 1 20 16 21 17 22
REMARK SMILES IDX 18 23 19 24 20 25 21 26 73 27 22 28 72 29 23 30 24 31 25 32
REMARK SMILES IDX 66 33 26 34 71 35 65 36 67 37 27 38 70 39 64 40 63 41 28 43
REMARK SMILES IDX 54 44 37 45 53 46 38 47 41 48 52 49 68 50 39 51 40 52 51 54
REMARK SMILES IDX 69 55 42 56 29 57 30 58 35 59 31 60 32 61 34 62 36 63 33 64
REMARK SMILES IDX 55 65 56 66 61 67 57 68 58 69 60 70 62 71 59 72 43 73 44 74
REMARK SMILES IDX 49 75 45 76 46 77 48 78 50 79 47 80
REMARK H PARENT 67 42 41 53
REMARK Flexibility Score: inf
ROOT
ATOM      1  C   UNL A   1      32.597  28.581  26.046  1.00  0.00     0.274 C 
ENDROOT
BRANCH   1   2
ATOM      2  O   UNL A   1      33.368  28.152  24.904  1.00  0.00    -0.461 OA
BRANCH   2   3
ATOM      3  C   UNL A   1      33.045  26.939  24.385  1.00  0.00     0.316 C 
ATOM      4  O   UNL A   1      31.998  26.702  23.787  1.00  0.00    -0.251 OA
BRANCH   3   5
ATOM      5  C   UNL A   1      34.088  25.859  24.583  1.00  0.00     0.197 C 
BRANCH   5   6
ATOM      6  S   UNL A   1      33.788  24.708  25.961  1.00  0.00    -0.114 SA
BRANCH   6   7
ATOM      7  C   UNL A   1      34.748  23.222  25.575  1.00  0.00     0.019 A 
ATOM      8  C   UNL A   1      34.227  19.664  24.679  1.00  0.00     0.145 A 
ATOM      9  C   UNL A   1      32.859  19.580  24.432  1.00  0.00     0.049 A 
ATOM     10  C   UNL A   1      34.854  20.877  24.973  1.00  0.00     0.114 A 
ATOM     11  C   UNL A   1      32.081  20.723  24.538  1.00  0.00     0.005 A 
ATOM     12  C   UNL A   1      34.071  22.037  25.152  1.00  0.00     0.018 A 
ATOM     13  N   UNL A   1      36.185  20.891  25.092  1.00  0.00    -0.249 NA
ATOM     14  C   UNL A   1      32.675  21.930  24.911  1.00  0.00     0.012 A 
ATOM     15  C   UNL A   1      36.811  22.013  25.466  1.00  0.00     0.039 A 
ATOM     16  C   UNL A   1      36.132  23.184  25.748  1.00  0.00     0.039 A 
ATOM     17  C   UNL A   1      38.288  21.891  25.617  1.00  0.00     0.067 C 
BRANCH   8  18
ATOM     18  O   UNL A   1      34.959  18.498  24.581  1.00  0.00    -0.492 OA
BRANCH  18  19
ATOM     19  C   UNL A   1      34.105  17.342  24.563  1.00  0.00     0.226 C 
ATOM     20  C   UNL A   1      34.170  16.594  23.239  1.00  0.00     0.049 C 
ENDBRANCH  18  19
ENDBRANCH   8  18
ENDBRANCH   6   7
ENDBRANCH   5   6
ENDBRANCH   3   5
ENDBRANCH   2   3
ENDBRANCH   1   2
BRANCH   1  21
ATOM     21  C   UNL A   1      33.510  28.909  27.222  1.00  0.00     0.275 C 
BRANCH  21  22
ATOM     22  O   UNL A   1      34.186  30.158  26.978  1.00  0.00    -0.458 OA
BRANCH  22  23
ATOM     23  C   UNL A   1      34.806  30.692  28.050  1.00  0.00     0.338 C 
ATOM     24  O   UNL A   1      34.380  31.579  28.777  1.00  0.00    -0.246 OA
BRANCH  23  25
ATOM     25  C   UNL A   1      36.110  30.041  28.292  1.00  0.00     0.060 A 
ATOM     26  C   UNL A   1      36.456  29.540  29.551  1.00  0.00     0.016 A 
ATOM     27  C   UNL A   1      37.068  30.096  27.274  1.00  0.00     0.016 A 
ATOM     28  C   UNL A   1      37.782  29.181  29.811  1.00  0.00     0.010 A 
ATOM     29  C   UNL A   1      38.376  29.675  27.517  1.00  0.00     0.010 A 
ATOM     30  C   UNL A   1      38.756  29.251  28.798  1.00  0.00    -0.014 A 
BRANCH  30  31
ATOM     31  C   UNL A   1      40.159  28.845  29.068  1.00  0.00     0.031 A 
ATOM     32  C   UNL A   1      41.142  29.774  29.731  1.00  0.00     0.074 A 
ATOM     33  C   UNL A   1      40.556  27.615  28.692  1.00  0.00     0.049 A 
ATOM     34  N   UNL A   1      42.403  29.571  30.026  1.00  0.00    -0.248 NA
ATOM     35  C   UNL A   1      40.647  31.099  30.127  1.00  0.00     0.031 C 
ATOM     36  C   UNL A   1      39.705  26.619  28.039  1.00  0.00     0.029 A 
ATOM     37  N   UNL A   1      41.775  26.998  28.801  1.00  0.00    -0.354 N 
ATOM     38  C   UNL A   1      42.842  30.732  30.654  1.00  0.00     0.074 A 
ATOM     39  C   UNL A   1      41.719  31.643  30.686  1.00  0.00     0.031 C 
ATOM     40  C   UNL A   1      40.426  25.511  27.813  1.00  0.00     0.029 A 
ATOM     41  C   UNL A   1      41.796  25.738  28.259  1.00  0.00     0.049 A 
ATOM     42  H   UNL A   1      42.558  27.418  29.225  1.00  0.00     0.167 HD
ATOM     43  C   UNL A   1      44.069  31.017  31.152  1.00  0.00     0.037 A 
ATOM     44  C   UNL A   1      42.811  24.869  28.110  1.00  0.00     0.037 A 
ATOM     45  C   UNL A   1      45.204  30.135  31.080  1.00  0.00     0.049 A 
ATOM     46  C   UNL A   1      44.178  25.236  28.598  1.00  0.00     0.074 A 
ATOM     47  C   UNL A   1      46.491  30.342  31.549  1.00  0.00     0.029 A 
ATOM     48  N   UNL A   1      45.192  28.885  30.482  1.00  0.00    -0.354 N 
ATOM     49  N   UNL A   1      44.570  26.332  29.200  1.00  0.00    -0.248 NA
ATOM     50  C   UNL A   1      45.243  24.249  28.380  1.00  0.00     0.031 C 
ATOM     51  C   UNL A   1      47.268  29.230  31.201  1.00  0.00     0.029 A 
ATOM     52  C   UNL A   1      46.455  28.319  30.548  1.00  0.00     0.049 A 
ATOM     53  H   UNL A   1      44.403  28.462  30.072  1.00  0.00     0.167 HD
ATOM     54  C   UNL A   1      45.928  26.168  29.435  1.00  0.00     0.074 A 
ATOM     55  C   UNL A   1      46.287  24.859  28.927  1.00  0.00     0.031 C 
ATOM     56  C   UNL A   1      46.799  27.026  30.018  1.00  0.00     0.037 A 
BRANCH  43  57
ATOM     57  C   UNL A   1      44.261  32.355  31.803  1.00  0.00     0.057 A 
ATOM     58  C   UNL A   1      44.166  32.512  33.191  1.00  0.00     0.134 A 
ATOM     59  C   UNL A   1      44.604  33.479  31.042  1.00  0.00     0.134 A 
ATOM     60  F   UNL A   1      43.833  31.475  33.971  1.00  0.00    -0.206 F 
ATOM     61  C   UNL A   1      44.403  33.746  33.801  1.00  0.00     0.040 A 
ATOM     62  C   UNL A   1      44.857  34.714  31.643  1.00  0.00     0.040 A 
ATOM     63  F   UNL A   1      44.713  33.391  29.709  1.00  0.00    -0.206 F 
ATOM     64  C   UNL A   1      44.756  34.850  33.025  1.00  0.00     0.006 A 
ENDBRANCH  43  57
BRANCH  44  65
ATOM     65  C   UNL A   1      42.554  23.573  27.443  1.00  0.00     0.057 A 
ATOM     66  C   UNL A   1      42.678  23.437  26.058  1.00  0.00     0.134 A 
ATOM     67  C   UNL A   1      42.230  22.430  28.184  1.00  0.00     0.134 A 
ATOM     68  F   UNL A   1      42.972  24.503  25.298  1.00  0.00    -0.206 F 
ATOM     69  C   UNL A   1      42.494  22.206  25.429  1.00  0.00     0.040 A 
ATOM     70  C   UNL A   1      42.063  21.190  27.572  1.00  0.00     0.040 A 
ATOM     71  F   UNL A   1      42.106  22.501  29.517  1.00  0.00    -0.206 F 
ATOM     72  C   UNL A   1      42.195  21.076  26.189  1.00  0.00     0.006 A 
ENDBRANCH  44  65
BRANCH  56  73
ATOM     73  C   UNL A   1      48.219  26.569  30.129  1.00  0.00     0.057 A 
ATOM     74  C   UNL A   1      49.165  26.874  29.142  1.00  0.00     0.134 A 
ATOM     75  C   UNL A   1      48.646  25.819  31.231  1.00  0.00     0.134 A 
ATOM     76  F   UNL A   1      48.810  27.577  28.056  1.00  0.00    -0.206 F 
ATOM     77  C   UNL A   1      50.482  26.427  29.235  1.00  0.00     0.040 A 
ATOM     78  C   UNL A   1      49.966  25.381  31.344  1.00  0.00     0.040 A 
ATOM     79  F   UNL A   1      47.788  25.499  32.210  1.00  0.00    -0.206 F 
ATOM     80  C   UNL A   1      50.887  25.679  30.341  1.00  0.00     0.006 A 
ENDBRANCH  56  73
ENDBRANCH  30  31
ENDBRANCH  23  25
ENDBRANCH  22  23
ENDBRANCH  21  22
ENDBRANCH   1  21
TORSDOF 15
ENDMDL
