MODEL 1
REMARK VINA RESULT:     -11.8      0.000      0.000
REMARK SMILES C[C@@H](C(=O)OCCOC(=O)c1ccc(-c2c3nc(c(-c4c(F)cccc4F)c4ccc([nH]4)c(-c4c(F)cccc4F)c4nc(c(-c5c(F)cccc5F)c5ccc2[nH]5)C=C4)C=C3)cc1)c1ccc(-c2ccn(C(F)F)c(=O)c2)cc1
REMARK SMILES IDX 6 1 5 2 3 3 4 4 2 5 1 6 65 7 66 8 80 9 67 10 79 11 68 12
REMARK SMILES IDX 69 13 70 14 78 15 71 16 76 17 72 18 77 19 73 20 74 21 75 22
REMARK SMILES IDX 7 23 8 24 9 25 10 26 11 27 12 28 64 29 13 30 63 31 14 32
REMARK SMILES IDX 15 33 16 34 57 35 17 36 62 37 56 38 58 39 18 40 61 41 55 42
REMARK SMILES IDX 54 43 19 45 45 46 28 47 44 48 29 49 32 50 43 51 59 52 30 53
REMARK SMILES IDX 31 54 42 56 60 57 33 58 20 59 21 60 26 61 22 62 23 63 25 64
REMARK SMILES IDX 27 65 24 66 46 67 47 68 52 69 48 70 49 71 51 72 53 73 50 74
REMARK SMILES IDX 34 75 35 76 40 77 36 78 37 79 39 80 41 81 38 82
REMARK H PARENT 58 44 32 55
REMARK Flexibility Score: inf
ROOT
ATOM      1  C   UNL A   1      31.395  28.288  24.626  1.00  0.00     0.274 C 
ENDROOT
BRANCH   1   2
ATOM      2  O   UNL A   1      30.813  27.485  25.678  1.00  0.00    -0.462 OA
BRANCH   2   3
ATOM      3  C   UNL A   1      30.914  26.129  25.579  1.00  0.00     0.313 C 
ATOM      4  O   UNL A   1      30.571  25.349  26.461  1.00  0.00    -0.252 OA
BRANCH   3   5
ATOM      5  C   UNL A   1      31.530  25.685  24.236  1.00  0.00     0.126 C 
ATOM      6  C   UNL A   1      30.653  24.689  23.469  1.00  0.00     0.025 C 
BRANCH   5   7
ATOM      7  C   UNL A   1      32.924  25.087  24.399  1.00  0.00    -0.034 A 
ATOM      8  C   UNL A   1      33.707  25.450  25.495  1.00  0.00     0.005 A 
ATOM      9  C   UNL A   1      33.427  24.109  23.524  1.00  0.00     0.005 A 
ATOM     10  C   UNL A   1      34.962  24.890  25.696  1.00  0.00     0.009 A 
ATOM     11  C   UNL A   1      34.693  23.532  23.733  1.00  0.00     0.009 A 
ATOM     12  C   UNL A   1      35.470  23.926  24.825  1.00  0.00    -0.018 A 
BRANCH  12  13
ATOM     13  C   UNL A   1      36.787  23.358  25.160  1.00  0.00    -0.011 A 
ATOM     14  C   UNL A   1      37.781  24.040  25.965  1.00  0.00     0.027 A 
ATOM     15  C   UNL A   1      36.973  22.062  24.852  1.00  0.00     0.080 A 
ATOM     16  C   UNL A   1      38.817  23.360  26.475  1.00  0.00     0.095 A 
ATOM     17  C   UNL A   1      38.154  21.314  25.353  1.00  0.00     0.255 A 
ATOM     18  N   UNL A   1      38.986  22.013  26.210  1.00  0.00    -0.258 N 
ATOM     19  O   UNL A   1      38.288  20.148  24.999  1.00  0.00    -0.269 OA
BRANCH  18  20
ATOM     20  C   UNL A   1      40.092  21.281  26.777  1.00  0.00     0.451 C 
ATOM     21  F   UNL A   1      41.144  21.242  25.928  1.00  0.00    -0.185 F 
ATOM     22  F   UNL A   1      40.502  21.869  27.928  1.00  0.00    -0.185 F 
ENDBRANCH  18  20
ENDBRANCH  12  13
ENDBRANCH   5   7
ENDBRANCH   3   5
ENDBRANCH   2   3
ENDBRANCH   1   2
BRANCH   1  23
ATOM     23  C   UNL A   1      31.400  29.758  25.051  1.00  0.00     0.275 C 
BRANCH  23  24
ATOM     24  O   UNL A   1      32.730  30.075  25.492  1.00  0.00    -0.458 OA
BRANCH  24  25
ATOM     25  C   UNL A   1      32.859  30.801  26.629  1.00  0.00     0.338 C 
ATOM     26  O   UNL A   1      31.991  31.456  27.175  1.00  0.00    -0.246 OA
BRANCH  25  27
ATOM     27  C   UNL A   1      34.237  30.608  27.166  1.00  0.00     0.060 A 
ATOM     28  C   UNL A   1      34.764  29.328  27.305  1.00  0.00     0.016 A 
ATOM     29  C   UNL A   1      34.981  31.694  27.637  1.00  0.00     0.016 A 
ATOM     30  C   UNL A   1      35.941  29.127  28.025  1.00  0.00     0.010 A 
ATOM     31  C   UNL A   1      36.221  31.485  28.275  1.00  0.00     0.010 A 
ATOM     32  C   UNL A   1      36.699  30.189  28.540  1.00  0.00    -0.014 A 
BRANCH  32  33
ATOM     33  C   UNL A   1      37.903  29.927  29.411  1.00  0.00     0.031 A 
ATOM     34  C   UNL A   1      39.111  29.188  28.866  1.00  0.00     0.074 A 
ATOM     35  C   UNL A   1      38.008  30.419  30.667  1.00  0.00     0.049 A 
ATOM     36  N   UNL A   1      40.109  28.643  29.520  1.00  0.00    -0.248 NA
ATOM     37  C   UNL A   1      39.203  29.032  27.407  1.00  0.00     0.031 C 
ATOM     38  C   UNL A   1      37.005  31.227  31.359  1.00  0.00     0.029 A 
ATOM     39  N   UNL A   1      39.042  30.347  31.578  1.00  0.00    -0.354 N 
ATOM     40  C   UNL A   1      40.896  28.008  28.563  1.00  0.00     0.074 A 
ATOM     41  C   UNL A   1      40.269  28.252  27.282  1.00  0.00     0.031 C 
ATOM     42  C   UNL A   1      37.515  31.681  32.512  1.00  0.00     0.029 A 
ATOM     43  C   UNL A   1      38.815  31.060  32.732  1.00  0.00     0.049 A 
ATOM     44  H   UNL A   1      39.866  29.833  31.416  1.00  0.00     0.167 HD
ATOM     45  C   UNL A   1      42.025  27.275  28.736  1.00  0.00     0.037 A 
ATOM     46  C   UNL A   1      39.520  31.162  33.876  1.00  0.00     0.037 A 
ATOM     47  C   UNL A   1      42.713  27.109  29.991  1.00  0.00     0.049 A 
ATOM     48  C   UNL A   1      40.748  30.326  34.070  1.00  0.00     0.074 A 
ATOM     49  C   UNL A   1      43.795  26.298  30.291  1.00  0.00     0.029 A 
ATOM     50  N   UNL A   1      42.432  27.833  31.137  1.00  0.00    -0.354 N 
ATOM     51  N   UNL A   1      41.364  29.559  33.209  1.00  0.00    -0.248 NA
ATOM     52  C   UNL A   1      41.353  30.333  35.412  1.00  0.00     0.031 C 
ATOM     53  C   UNL A   1      44.150  26.511  31.628  1.00  0.00     0.029 A 
ATOM     54  C   UNL A   1      43.305  27.473  32.152  1.00  0.00     0.049 A 
ATOM     55  H   UNL A   1      41.718  28.504  31.220  1.00  0.00     0.167 HD
ATOM     56  C   UNL A   1      42.410  28.970  33.904  1.00  0.00     0.074 A 
ATOM     57  C   UNL A   1      42.382  29.512  35.247  1.00  0.00     0.031 C 
ATOM     58  C   UNL A   1      43.293  28.037  33.475  1.00  0.00     0.037 A 
BRANCH  45  59
ATOM     59  C   UNL A   1      42.557  26.529  27.546  1.00  0.00     0.057 A 
ATOM     60  C   UNL A   1      43.505  27.074  26.675  1.00  0.00     0.134 A 
ATOM     61  C   UNL A   1      42.138  25.212  27.302  1.00  0.00     0.134 A 
ATOM     62  F   UNL A   1      43.932  28.334  26.836  1.00  0.00    -0.206 F 
ATOM     63  C   UNL A   1      44.007  26.343  25.595  1.00  0.00     0.040 A 
ATOM     64  C   UNL A   1      42.650  24.464  26.241  1.00  0.00     0.040 A 
ATOM     65  F   UNL A   1      41.236  24.625  28.104  1.00  0.00    -0.206 F 
ATOM     66  C   UNL A   1      43.586  25.032  25.380  1.00  0.00     0.006 A 
ENDBRANCH  45  59
BRANCH  46  67
ATOM     67  C   UNL A   1      39.037  32.037  34.975  1.00  0.00     0.057 A 
ATOM     68  C   UNL A   1      39.346  33.401  34.990  1.00  0.00     0.134 A 
ATOM     69  C   UNL A   1      38.275  31.533  36.037  1.00  0.00     0.134 A 
ATOM     70  F   UNL A   1      40.094  33.934  34.010  1.00  0.00    -0.206 F 
ATOM     71  C   UNL A   1      38.916  34.234  36.024  1.00  0.00     0.040 A 
ATOM     72  C   UNL A   1      37.808  32.361  37.057  1.00  0.00     0.040 A 
ATOM     73  F   UNL A   1      37.951  30.233  36.081  1.00  0.00    -0.206 F 
ATOM     74  C   UNL A   1      38.135  33.715  37.056  1.00  0.00     0.006 A 
ENDBRANCH  46  67
BRANCH  58  75
ATOM     75  C   UNL A   1      44.315  27.559  34.460  1.00  0.00     0.057 A 
ATOM     76  C   UNL A   1      44.084  26.440  35.270  1.00  0.00     0.134 A 
ATOM     77  C   UNL A   1      45.549  28.206  34.582  1.00  0.00     0.134 A 
ATOM     78  F   UNL A   1      42.913  25.787  35.210  1.00  0.00    -0.206 F 
ATOM     79  C   UNL A   1      45.041  25.991  36.181  1.00  0.00     0.040 A 
ATOM     80  C   UNL A   1      46.521  27.756  35.478  1.00  0.00     0.040 A 
ATOM     81  F   UNL A   1      45.830  29.286  33.837  1.00  0.00    -0.206 F 
ATOM     82  C   UNL A   1      46.266  26.646  36.282  1.00  0.00     0.006 A 
ENDBRANCH  58  75
ENDBRANCH  32  33
ENDBRANCH  25  27
ENDBRANCH  24  25
ENDBRANCH  23  24
ENDBRANCH   1  23
TORSDOF 14
ENDMDL
MODEL 2
REMARK VINA RESULT:     -11.7      2.437      3.096
REMARK SMILES C[C@@H](C(=O)OCCOC(=O)c1ccc(-c2c3nc(c(-c4c(F)cccc4F)c4ccc([nH]4)c(-c4c(F)cccc4F)c4nc(c(-c5c(F)cccc5F)c5ccc2[nH]5)C=C4)C=C3)cc1)c1ccc(-c2ccn(C(F)F)c(=O)c2)cc1
REMARK SMILES IDX 6 1 5 2 3 3 4 4 2 5 1 6 65 7 66 8 80 9 67 10 79 11 68 12
REMARK SMILES IDX 69 13 70 14 78 15 71 16 76 17 72 18 77 19 73 20 74 21 75 22
REMARK SMILES IDX 7 23 8 24 9 25 10 26 11 27 12 28 64 29 13 30 63 31 14 32
REMARK SMILES IDX 15 33 16 34 57 35 17 36 62 37 56 38 58 39 18 40 61 41 55 42
REMARK SMILES IDX 54 43 19 45 45 46 28 47 44 48 29 49 32 50 43 51 59 52 30 53
REMARK SMILES IDX 31 54 42 56 60 57 33 58 20 59 21 60 26 61 22 62 23 63 25 64
REMARK SMILES IDX 27 65 24 66 46 67 47 68 52 69 48 70 49 71 51 72 53 73 50 74
REMARK SMILES IDX 34 75 35 76 40 77 36 78 37 79 39 80 41 81 38 82
REMARK H PARENT 58 44 32 55
REMARK Flexibility Score: inf
ROOT
ATOM      1  C   UNL A   1      32.274  28.661  24.601  1.00  0.00     0.274 C 
ENDROOT
BRANCH   1   2
ATOM      2  O   UNL A   1      32.347  27.538  25.509  1.00  0.00    -0.462 OA
BRANCH   2   3
ATOM      3  C   UNL A   1      31.261  26.720  25.604  1.00  0.00     0.313 C 
ATOM      4  O   UNL A   1      30.642  26.519  26.643  1.00  0.00    -0.252 OA
BRANCH   3   5
ATOM      5  C   UNL A   1      30.908  26.058  24.257  1.00  0.00     0.126 C 
ATOM      6  C   UNL A   1      29.399  25.973  24.001  1.00  0.00     0.025 C 
BRANCH   5   7
ATOM      7  C   UNL A   1      31.508  24.662  24.113  1.00  0.00    -0.034 A 
ATOM      8  C   UNL A   1      31.044  23.625  24.924  1.00  0.00     0.005 A 
ATOM      9  C   UNL A   1      32.462  24.354  23.128  1.00  0.00     0.005 A 
ATOM     10  C   UNL A   1      31.538  22.334  24.787  1.00  0.00     0.009 A 
ATOM     11  C   UNL A   1      32.953  23.043  22.981  1.00  0.00     0.009 A 
ATOM     12  C   UNL A   1      32.492  22.025  23.817  1.00  0.00    -0.018 A 
BRANCH  12  13
ATOM     13  C   UNL A   1      32.907  20.614  23.723  1.00  0.00    -0.011 A 
ATOM     14  C   UNL A   1      33.730  19.945  24.710  1.00  0.00     0.027 A 
ATOM     15  C   UNL A   1      32.319  19.884  22.759  1.00  0.00     0.080 A 
ATOM     16  C   UNL A   1      33.819  18.608  24.718  1.00  0.00     0.095 A 
ATOM     17  C   UNL A   1      32.466  18.407  22.714  1.00  0.00     0.255 A 
ATOM     18  N   UNL A   1      33.170  17.844  23.765  1.00  0.00    -0.258 N 
ATOM     19  O   UNL A   1      31.942  17.804  21.784  1.00  0.00    -0.269 OA
BRANCH  18  20
ATOM     20  C   UNL A   1      33.253  16.404  23.789  1.00  0.00     0.451 C 
ATOM     21  F   UNL A   1      34.467  15.974  23.376  1.00  0.00    -0.185 F 
ATOM     22  F   UNL A   1      33.050  15.944  25.048  1.00  0.00    -0.185 F 
ENDBRANCH  18  20
ENDBRANCH  12  13
ENDBRANCH   5   7
ENDBRANCH   3   5
ENDBRANCH   2   3
ENDBRANCH   1   2
BRANCH   1  23
ATOM     23  C   UNL A   1      31.453  29.781  25.242  1.00  0.00     0.275 C 
BRANCH  23  24
ATOM     24  O   UNL A   1      31.933  29.955  26.585  1.00  0.00    -0.458 OA
BRANCH  24  25
ATOM     25  C   UNL A   1      32.487  31.151  26.904  1.00  0.00     0.338 C 
ATOM     26  O   UNL A   1      31.938  32.237  26.874  1.00  0.00    -0.246 OA
BRANCH  25  27
ATOM     27  C   UNL A   1      33.880  30.920  27.383  1.00  0.00     0.060 A 
ATOM     28  C   UNL A   1      34.346  29.625  27.590  1.00  0.00     0.016 A 
ATOM     29  C   UNL A   1      34.704  31.993  27.733  1.00  0.00     0.016 A 
ATOM     30  C   UNL A   1      35.549  29.411  28.261  1.00  0.00     0.010 A 
ATOM     31  C   UNL A   1      35.965  31.762  28.322  1.00  0.00     0.010 A 
ATOM     32  C   UNL A   1      36.388  30.463  28.657  1.00  0.00    -0.014 A 
BRANCH  32  33
ATOM     33  C   UNL A   1      37.622  30.196  29.483  1.00  0.00     0.031 A 
ATOM     34  C   UNL A   1      38.825  29.494  28.880  1.00  0.00     0.074 A 
ATOM     35  C   UNL A   1      37.758  30.654  30.750  1.00  0.00     0.049 A 
ATOM     36  N   UNL A   1      39.852  28.948  29.487  1.00  0.00    -0.248 NA
ATOM     37  C   UNL A   1      38.875  29.382  27.416  1.00  0.00     0.031 C 
ATOM     38  C   UNL A   1      36.764  31.424  31.495  1.00  0.00     0.029 A 
ATOM     39  N   UNL A   1      38.821  30.574  31.626  1.00  0.00    -0.354 N 
ATOM     40  C   UNL A   1      40.619  28.355  28.489  1.00  0.00     0.074 A 
ATOM     41  C   UNL A   1      39.949  28.625  27.235  1.00  0.00     0.031 C 
ATOM     42  C   UNL A   1      37.301  31.854  32.645  1.00  0.00     0.029 A 
ATOM     43  C   UNL A   1      38.618  31.248  32.807  1.00  0.00     0.049 A 
ATOM     44  H   UNL A   1      39.648  30.079  31.424  1.00  0.00     0.167 HD
ATOM     45  C   UNL A   1      41.764  27.637  28.605  1.00  0.00     0.037 A 
ATOM     46  C   UNL A   1      39.356  31.330  33.932  1.00  0.00     0.037 A 
ATOM     47  C   UNL A   1      42.494  27.447  29.833  1.00  0.00     0.049 A 
ATOM     48  C   UNL A   1      40.603  30.510  34.064  1.00  0.00     0.074 A 
ATOM     49  C   UNL A   1      43.598  26.646  30.076  1.00  0.00     0.029 A 
ATOM     50  N   UNL A   1      42.236  28.132  31.009  1.00  0.00    -0.354 N 
ATOM     51  N   UNL A   1      41.205  29.779  33.162  1.00  0.00    -0.248 NA
ATOM     52  C   UNL A   1      41.249  30.488  35.386  1.00  0.00     0.031 C 
ATOM     53  C   UNL A   1      43.990  26.826  31.408  1.00  0.00     0.029 A 
ATOM     54  C   UNL A   1      43.146  27.758  31.986  1.00  0.00     0.049 A 
ATOM     55  H   UNL A   1      41.514  28.788  31.133  1.00  0.00     0.167 HD
ATOM     56  C   UNL A   1      42.281  29.188  33.808  1.00  0.00     0.074 A 
ATOM     57  C   UNL A   1      42.286  29.690  35.165  1.00  0.00     0.031 C 
ATOM     58  C   UNL A   1      43.165  28.284  33.324  1.00  0.00     0.037 A 
BRANCH  45  59
ATOM     59  C   UNL A   1      42.272  26.935  27.379  1.00  0.00     0.057 A 
ATOM     60  C   UNL A   1      43.178  27.524  26.492  1.00  0.00     0.134 A 
ATOM     61  C   UNL A   1      41.872  25.617  27.112  1.00  0.00     0.134 A 
ATOM     62  F   UNL A   1      43.585  28.788  26.674  1.00  0.00    -0.206 F 
ATOM     63  C   UNL A   1      43.660  26.833  25.376  1.00  0.00     0.040 A 
ATOM     64  C   UNL A   1      42.364  24.909  26.014  1.00  0.00     0.040 A 
ATOM     65  F   UNL A   1      41.010  24.989  27.926  1.00  0.00    -0.206 F 
ATOM     66  C   UNL A   1      43.259  25.519  25.139  1.00  0.00     0.006 A 
ENDBRANCH  45  59
BRANCH  46  67
ATOM     67  C   UNL A   1      38.893  32.164  35.070  1.00  0.00     0.057 A 
ATOM     68  C   UNL A   1      38.227  31.584  36.155  1.00  0.00     0.134 A 
ATOM     69  C   UNL A   1      39.092  33.550  35.097  1.00  0.00     0.134 A 
ATOM     70  F   UNL A   1      37.988  30.263  36.172  1.00  0.00    -0.206 F 
ATOM     71  C   UNL A   1      37.769  32.354  37.225  1.00  0.00     0.040 A 
ATOM     72  C   UNL A   1      38.673  34.326  36.177  1.00  0.00     0.040 A 
ATOM     73  F   UNL A   1      39.720  34.164  34.084  1.00  0.00    -0.206 F 
ATOM     74  C   UNL A   1      38.002  33.730  37.242  1.00  0.00     0.006 A 
ENDBRANCH  46  67
BRANCH  58  75
ATOM     75  C   UNL A   1      44.225  27.795  34.263  1.00  0.00     0.057 A 
ATOM     76  C   UNL A   1      45.436  28.482  34.422  1.00  0.00     0.134 A 
ATOM     77  C   UNL A   1      44.025  26.645  35.034  1.00  0.00     0.134 A 
ATOM     78  F   UNL A   1      45.694  29.582  33.698  1.00  0.00    -0.206 F 
ATOM     79  C   UNL A   1      46.419  28.029  35.304  1.00  0.00     0.040 A 
ATOM     80  C   UNL A   1      44.993  26.192  35.932  1.00  0.00     0.040 A 
ATOM     81  F   UNL A   1      42.888  25.941  34.925  1.00  0.00    -0.206 F 
ATOM     82  C   UNL A   1      46.196  26.884  36.066  1.00  0.00     0.006 A 
ENDBRANCH  58  75
ENDBRANCH  32  33
ENDBRANCH  25  27
ENDBRANCH  24  25
ENDBRANCH  23  24
ENDBRANCH   1  23
TORSDOF 14
ENDMDL
MODEL 3
REMARK VINA RESULT:     -11.5      3.698      9.008
REMARK SMILES C[C@@H](C(=O)OCCOC(=O)c1ccc(-c2c3nc(c(-c4c(F)cccc4F)c4ccc([nH]4)c(-c4c(F)cccc4F)c4nc(c(-c5c(F)cccc5F)c5ccc2[nH]5)C=C4)C=C3)cc1)c1ccc(-c2ccn(C(F)F)c(=O)c2)cc1
REMARK SMILES IDX 6 1 5 2 3 3 4 4 2 5 1 6 65 7 66 8 80 9 67 10 79 11 68 12
REMARK SMILES IDX 69 13 70 14 78 15 71 16 76 17 72 18 77 19 73 20 74 21 75 22
REMARK SMILES IDX 7 23 8 24 9 25 10 26 11 27 12 28 64 29 13 30 63 31 14 32
REMARK SMILES IDX 15 33 16 34 57 35 17 36 62 37 56 38 58 39 18 40 61 41 55 42
REMARK SMILES IDX 54 43 19 45 45 46 28 47 44 48 29 49 32 50 43 51 59 52 30 53
REMARK SMILES IDX 31 54 42 56 60 57 33 58 20 59 21 60 26 61 22 62 23 63 25 64
REMARK SMILES IDX 27 65 24 66 46 67 47 68 52 69 48 70 49 71 51 72 53 73 50 74
REMARK SMILES IDX 34 75 35 76 40 77 36 78 37 79 39 80 41 81 38 82
REMARK H PARENT 58 44 32 55
REMARK Flexibility Score: inf
ROOT
ATOM      1  C   UNL A   1      35.250  22.339  24.027  1.00  0.00     0.274 C 
ENDROOT
BRANCH   1   2
ATOM      2  O   UNL A   1      33.834  22.175  23.779  1.00  0.00    -0.462 OA
BRANCH   2   3
ATOM      3  C   UNL A   1      33.167  23.201  23.177  1.00  0.00     0.313 C 
ATOM      4  O   UNL A   1      33.431  23.629  22.059  1.00  0.00    -0.252 OA
BRANCH   3   5
ATOM      5  C   UNL A   1      32.052  23.778  24.073  1.00  0.00     0.126 C 
ATOM      6  C   UNL A   1      30.715  23.943  23.342  1.00  0.00     0.025 C 
BRANCH   5   7
ATOM      7  C   UNL A   1      32.435  25.114  24.701  1.00  0.00    -0.034 A 
ATOM      8  C   UNL A   1      31.526  25.771  25.532  1.00  0.00     0.005 A 
ATOM      9  C   UNL A   1      33.713  25.678  24.544  1.00  0.00     0.005 A 
ATOM     10  C   UNL A   1      31.861  26.967  26.155  1.00  0.00     0.009 A 
ATOM     11  C   UNL A   1      34.056  26.883  25.185  1.00  0.00     0.009 A 
ATOM     12  C   UNL A   1      33.125  27.536  25.995  1.00  0.00    -0.018 A 
BRANCH  12  13
ATOM     13  C   UNL A   1      33.393  28.776  26.743  1.00  0.00    -0.011 A 
ATOM     14  C   UNL A   1      34.635  29.048  27.439  1.00  0.00     0.027 A 
ATOM     15  C   UNL A   1      32.496  29.766  26.595  1.00  0.00     0.080 A 
ATOM     16  C   UNL A   1      34.924  30.294  27.839  1.00  0.00     0.095 A 
ATOM     17  C   UNL A   1      32.773  31.137  27.095  1.00  0.00     0.255 A 
ATOM     18  N   UNL A   1      34.031  31.333  27.639  1.00  0.00    -0.258 N 
ATOM     19  O   UNL A   1      31.895  31.984  26.969  1.00  0.00    -0.269 OA
BRANCH  18  20
ATOM     20  C   UNL A   1      34.354  32.676  28.053  1.00  0.00     0.451 C 
ATOM     21  F   UNL A   1      34.146  32.845  29.379  1.00  0.00    -0.185 F 
ATOM     22  F   UNL A   1      35.657  32.945  27.795  1.00  0.00    -0.185 F 
ENDBRANCH  18  20
ENDBRANCH  12  13
ENDBRANCH   5   7
ENDBRANCH   3   5
ENDBRANCH   2   3
ENDBRANCH   1   2
BRANCH   1  23
ATOM     23  C   UNL A   1      35.805  21.062  24.661  1.00  0.00     0.275 C 
BRANCH  23  24
ATOM     24  O   UNL A   1      36.632  21.455  25.769  1.00  0.00    -0.458 OA
BRANCH  24  25
ATOM     25  C   UNL A   1      37.973  21.313  25.634  1.00  0.00     0.338 C 
ATOM     26  O   UNL A   1      38.552  20.443  25.009  1.00  0.00    -0.246 OA
BRANCH  25  27
ATOM     27  C   UNL A   1      38.647  22.455  26.316  1.00  0.00     0.060 A 
ATOM     28  C   UNL A   1      38.145  23.746  26.186  1.00  0.00     0.016 A 
ATOM     29  C   UNL A   1      39.847  22.269  27.008  1.00  0.00     0.016 A 
ATOM     30  C   UNL A   1      38.898  24.838  26.613  1.00  0.00     0.010 A 
ATOM     31  C   UNL A   1      40.551  23.376  27.525  1.00  0.00     0.010 A 
ATOM     32  C   UNL A   1      40.122  24.693  27.283  1.00  0.00    -0.014 A 
BRANCH  32  33
ATOM     33  C   UNL A   1      40.961  25.900  27.626  1.00  0.00     0.031 A 
ATOM     34  C   UNL A   1      40.450  26.954  28.589  1.00  0.00     0.074 A 
ATOM     35  C   UNL A   1      42.231  26.048  27.182  1.00  0.00     0.049 A 
ATOM     36  N   UNL A   1      40.900  28.169  28.799  1.00  0.00    -0.248 NA
ATOM     37  C   UNL A   1      39.282  26.606  29.411  1.00  0.00     0.031 C 
ATOM     38  C   UNL A   1      42.952  25.115  26.316  1.00  0.00     0.029 A 
ATOM     39  N   UNL A   1      43.165  27.029  27.440  1.00  0.00    -0.354 N 
ATOM     40  C   UNL A   1      40.022  28.754  29.706  1.00  0.00     0.074 A 
ATOM     41  C   UNL A   1      39.023  27.755  30.021  1.00  0.00     0.031 C 
ATOM     42  C   UNL A   1      44.235  25.492  26.224  1.00  0.00     0.029 A 
ATOM     43  C   UNL A   1      44.396  26.786  26.876  1.00  0.00     0.049 A 
ATOM     44  H   UNL A   1      42.970  27.830  27.978  1.00  0.00     0.167 HD
ATOM     45  C   UNL A   1      40.033  30.012  30.216  1.00  0.00     0.037 A 
ATOM     46  C   UNL A   1      45.518  27.530  26.815  1.00  0.00     0.037 A 
ATOM     47  C   UNL A   1      41.075  30.981  29.989  1.00  0.00     0.049 A 
ATOM     48  C   UNL A   1      45.513  28.928  27.352  1.00  0.00     0.074 A 
ATOM     49  C   UNL A   1      41.124  32.313  30.366  1.00  0.00     0.029 A 
ATOM     50  N   UNL A   1      42.291  30.695  29.391  1.00  0.00    -0.354 N 
ATOM     51  N   UNL A   1      44.580  29.544  28.031  1.00  0.00    -0.248 NA
ATOM     52  C   UNL A   1      46.699  29.753  27.074  1.00  0.00     0.031 C 
ATOM     53  C   UNL A   1      42.359  32.840  29.970  1.00  0.00     0.029 A 
ATOM     54  C   UNL A   1      43.089  31.828  29.371  1.00  0.00     0.049 A 
ATOM     55  H   UNL A   1      42.552  29.816  29.035  1.00  0.00     0.167 HD
ATOM     56  C   UNL A   1      45.049  30.833  28.239  1.00  0.00     0.074 A 
ATOM     57  C   UNL A   1      46.376  30.897  27.664  1.00  0.00     0.031 C 
ATOM     58  C   UNL A   1      44.418  31.878  28.825  1.00  0.00     0.037 A 
BRANCH  45  59
ATOM     59  C   UNL A   1      38.842  30.447  31.019  1.00  0.00     0.057 A 
ATOM     60  C   UNL A   1      37.743  31.099  30.450  1.00  0.00     0.134 A 
ATOM     61  C   UNL A   1      38.782  30.159  32.391  1.00  0.00     0.134 A 
ATOM     62  F   UNL A   1      37.743  31.423  29.150  1.00  0.00    -0.206 F 
ATOM     63  C   UNL A   1      36.633  31.461  31.217  1.00  0.00     0.040 A 
ATOM     64  C   UNL A   1      37.668  30.496  33.163  1.00  0.00     0.040 A 
ATOM     65  F   UNL A   1      39.798  29.530  33.000  1.00  0.00    -0.206 F 
ATOM     66  C   UNL A   1      36.590  31.153  32.576  1.00  0.00     0.006 A 
ENDBRANCH  45  59
BRANCH  46  67
ATOM     67  C   UNL A   1      46.731  26.999  26.143  1.00  0.00     0.057 A 
ATOM     68  C   UNL A   1      46.938  27.206  24.775  1.00  0.00     0.134 A 
ATOM     69  C   UNL A   1      47.699  26.266  26.841  1.00  0.00     0.134 A 
ATOM     70  F   UNL A   1      46.032  27.882  24.050  1.00  0.00    -0.206 F 
ATOM     71  C   UNL A   1      48.064  26.700  24.123  1.00  0.00     0.040 A 
ATOM     72  C   UNL A   1      48.846  25.785  26.211  1.00  0.00     0.040 A 
ATOM     73  F   UNL A   1      47.554  26.030  28.153  1.00  0.00    -0.206 F 
ATOM     74  C   UNL A   1      49.027  25.995  24.846  1.00  0.00     0.006 A 
ENDBRANCH  46  67
BRANCH  58  75
ATOM     75  C   UNL A   1      45.165  33.175  28.893  1.00  0.00     0.057 A 
ATOM     76  C   UNL A   1      45.044  34.143  27.888  1.00  0.00     0.134 A 
ATOM     77  C   UNL A   1      45.991  33.470  29.984  1.00  0.00     0.134 A 
ATOM     78  F   UNL A   1      44.281  33.911  26.809  1.00  0.00    -0.206 F 
ATOM     79  C   UNL A   1      45.734  35.355  27.957  1.00  0.00     0.040 A 
ATOM     80  C   UNL A   1      46.672  34.686  30.073  1.00  0.00     0.040 A 
ATOM     81  F   UNL A   1      46.151  32.583  30.977  1.00  0.00    -0.206 F 
ATOM     82  C   UNL A   1      46.547  35.630  29.055  1.00  0.00     0.006 A 
ENDBRANCH  58  75
ENDBRANCH  32  33
ENDBRANCH  25  27
ENDBRANCH  24  25
ENDBRANCH  23  24
ENDBRANCH   1  23
TORSDOF 14
ENDMDL
