MODEL 1
REMARK VINA RESULT:     -11.2      0.000      0.000
REMARK SMILES CC(C)C[C@H](CNC(=O)Nc1cccc(Cl)c1)C(=O)OCCOC(=O)c1ccc(-c2c3nc(c(-c4c(F)cccc4F)c4ccc([nH]4)c(-c4c(F)cccc4F)c4nc(c(-c5c(F)cccc5F)c5ccc2[nH]5)C=C4)C=C3)cc1
REMARK SMILES IDX 21 1 20 2 18 3 19 4 5 5 4 6 2 7 1 8 3 9 6 10 7 11 8 12 9 14
REMARK SMILES IDX 10 15 11 17 12 18 17 19 13 20 15 21 14 22 16 23 22 24 23 25
REMARK SMILES IDX 24 26 25 27 26 28 27 29 79 30 28 31 78 32 29 33 30 34 31 35
REMARK SMILES IDX 72 36 32 37 77 38 71 39 73 40 33 41 76 42 70 43 69 44 34 46
REMARK SMILES IDX 60 47 43 48 59 49 44 50 47 51 58 52 74 53 45 54 46 55 57 57
REMARK SMILES IDX 75 58 48 59 35 60 36 61 41 62 37 63 38 64 40 65 42 66 39 67
REMARK SMILES IDX 61 68 62 69 67 70 63 71 64 72 66 73 68 74 65 75 49 76 50 77
REMARK SMILES IDX 55 78 51 79 52 80 54 81 56 82 53 83
REMARK H PARENT 7 13 10 16 73 45 47 56
REMARK Flexibility Score: inf
ROOT
ATOM      1  C   UNL A   1      32.092  31.911  27.249  1.00  0.00     0.274 C 
ENDROOT
BRANCH   1   2
ATOM      2  O   UNL A   1      33.352  31.216  27.200  1.00  0.00    -0.462 OA
BRANCH   2   3
ATOM      3  C   UNL A   1      33.279  29.863  27.114  1.00  0.00     0.310 C 
ATOM      4  O   UNL A   1      34.175  29.090  27.431  1.00  0.00    -0.252 OA
BRANCH   3   5
ATOM      5  C   UNL A   1      31.955  29.379  26.574  1.00  0.00     0.119 C 
BRANCH   5   6
ATOM      6  C   UNL A   1      31.543  27.961  26.993  1.00  0.00     0.020 C 
BRANCH   6   7
ATOM      7  C   UNL A   1      31.569  26.845  25.935  1.00  0.00    -0.017 C 
ATOM      8  C   UNL A   1      32.824  25.974  26.036  1.00  0.00     0.007 C 
ATOM      9  C   UNL A   1      30.336  25.951  26.128  1.00  0.00     0.007 C 
ENDBRANCH   6   7
ENDBRANCH   5   6
BRANCH   5  10
ATOM     10  C   UNL A   1      31.681  29.740  25.110  1.00  0.00     0.133 C 
BRANCH  10  11
ATOM     11  N   UNL A   1      32.714  29.455  24.134  1.00  0.00    -0.337 N 
ATOM     12  C   UNL A   1      32.710  28.849  22.928  1.00  0.00     0.319 C 
ATOM     13  H   UNL A   1      33.607  29.768  24.409  1.00  0.00     0.165 HD
ATOM     14  O   UNL A   1      33.796  28.579  22.411  1.00  0.00    -0.249 OA
ATOM     15  N   UNL A   1      31.574  28.409  22.342  1.00  0.00    -0.308 N 
ATOM     16  H   UNL A   1      31.699  27.648  21.731  1.00  0.00     0.171 HD
BRANCH  15  17
ATOM     17  C   UNL A   1      30.251  28.849  22.455  1.00  0.00     0.044 A 
ATOM     18  C   UNL A   1      29.273  28.112  23.136  1.00  0.00     0.026 A 
ATOM     19  C   UNL A   1      29.911  30.041  21.819  1.00  0.00     0.046 A 
ATOM     20  C   UNL A   1      27.936  28.514  23.084  1.00  0.00     0.004 A 
ATOM     21  C   UNL A   1      28.572  30.418  21.745  1.00  0.00     0.043 A 
ATOM     22  C   UNL A   1      27.582  29.655  22.363  1.00  0.00     0.020 A 
ATOM     23  Cl  UNL A   1      28.133  31.805  20.825  1.00  0.00    -0.084 Cl
ENDBRANCH  15  17
ENDBRANCH  10  11
ENDBRANCH   5  10
ENDBRANCH   3   5
ENDBRANCH   2   3
ENDBRANCH   1   2
BRANCH   1  24
ATOM     24  C   UNL A   1      32.287  33.427  27.175  1.00  0.00     0.275 C 
BRANCH  24  25
ATOM     25  O   UNL A   1      32.316  34.024  28.486  1.00  0.00    -0.458 OA
BRANCH  25  26
ATOM     26  C   UNL A   1      33.388  34.814  28.732  1.00  0.00     0.338 C 
ATOM     27  O   UNL A   1      33.416  36.033  28.757  1.00  0.00    -0.246 OA
BRANCH  26  28
ATOM     28  C   UNL A   1      34.545  33.992  29.124  1.00  0.00     0.060 A 
ATOM     29  C   UNL A   1      34.319  32.921  29.994  1.00  0.00     0.016 A 
ATOM     30  C   UNL A   1      35.843  34.315  28.727  1.00  0.00     0.016 A 
ATOM     31  C   UNL A   1      35.383  32.165  30.470  1.00  0.00     0.010 A 
ATOM     32  C   UNL A   1      36.917  33.559  29.213  1.00  0.00     0.010 A 
ATOM     33  C   UNL A   1      36.692  32.486  30.094  1.00  0.00    -0.014 A 
BRANCH  33  34
ATOM     34  C   UNL A   1      37.815  31.720  30.680  1.00  0.00     0.031 A 
ATOM     35  C   UNL A   1      38.200  31.939  32.114  1.00  0.00     0.074 A 
ATOM     36  C   UNL A   1      38.440  30.783  29.946  1.00  0.00     0.049 A 
ATOM     37  N   UNL A   1      39.170  31.393  32.803  1.00  0.00    -0.248 NA
ATOM     38  C   UNL A   1      37.383  32.895  32.877  1.00  0.00     0.031 C 
ATOM     39  C   UNL A   1      38.117  30.443  28.559  1.00  0.00     0.029 A 
ATOM     40  N   UNL A   1      39.476  29.942  30.265  1.00  0.00    -0.354 N 
ATOM     41  C   UNL A   1      39.086  31.942  34.076  1.00  0.00     0.074 A 
ATOM     42  C   UNL A   1      37.982  32.878  34.061  1.00  0.00     0.031 C 
ATOM     43  C   UNL A   1      38.940  29.464  28.148  1.00  0.00     0.029 A 
ATOM     44  C   UNL A   1      39.869  29.137  29.226  1.00  0.00     0.049 A 
ATOM     45  H   UNL A   1      39.897  29.919  31.155  1.00  0.00     0.167 HD
ATOM     46  C   UNL A   1      39.859  31.685  35.157  1.00  0.00     0.037 A 
ATOM     47  C   UNL A   1      40.881  28.252  29.147  1.00  0.00     0.037 A 
ATOM     48  C   UNL A   1      40.957  30.753  35.170  1.00  0.00     0.049 A 
ATOM     49  C   UNL A   1      41.758  28.029  30.347  1.00  0.00     0.074 A 
ATOM     50  C   UNL A   1      41.812  30.441  36.213  1.00  0.00     0.029 A 
ATOM     51  N   UNL A   1      41.347  29.979  34.088  1.00  0.00    -0.354 N 
ATOM     52  N   UNL A   1      41.686  28.573  31.537  1.00  0.00    -0.248 NA
ATOM     53  C   UNL A   1      42.863  27.073  30.190  1.00  0.00     0.031 C 
ATOM     54  C   UNL A   1      42.739  29.499  35.753  1.00  0.00     0.029 A 
ATOM     55  C   UNL A   1      42.437  29.199  34.434  1.00  0.00     0.049 A 
ATOM     56  H   UNL A   1      40.914  29.986  33.204  1.00  0.00     0.167 HD
ATOM     57  C   UNL A   1      42.724  28.018  32.273  1.00  0.00     0.074 A 
ATOM     58  C   UNL A   1      43.398  27.075  31.403  1.00  0.00     0.031 C 
ATOM     59  C   UNL A   1      43.094  28.269  33.552  1.00  0.00     0.037 A 
BRANCH  46  60
ATOM     60  C   UNL A   1      39.557  32.442  36.415  1.00  0.00     0.057 A 
ATOM     61  C   UNL A   1      40.260  33.602  36.763  1.00  0.00     0.134 A 
ATOM     62  C   UNL A   1      38.526  32.028  37.266  1.00  0.00     0.134 A 
ATOM     63  F   UNL A   1      41.271  34.040  35.998  1.00  0.00    -0.206 F 
ATOM     64  C   UNL A   1      39.955  34.317  37.923  1.00  0.00     0.040 A 
ATOM     65  C   UNL A   1      38.199  32.746  38.418  1.00  0.00     0.040 A 
ATOM     66  F   UNL A   1      37.814  30.925  36.987  1.00  0.00    -0.206 F 
ATOM     67  C   UNL A   1      38.916  33.893  38.750  1.00  0.00     0.006 A 
ENDBRANCH  46  60
BRANCH  47  68
ATOM     68  C   UNL A   1      41.143  27.532  27.875  1.00  0.00     0.057 A 
ATOM     69  C   UNL A   1      40.632  26.250  27.647  1.00  0.00     0.134 A 
ATOM     70  C   UNL A   1      41.936  28.100  26.872  1.00  0.00     0.134 A 
ATOM     71  F   UNL A   1      39.887  25.644  28.582  1.00  0.00    -0.206 F 
ATOM     72  C   UNL A   1      40.916  25.550  26.473  1.00  0.00     0.040 A 
ATOM     73  C   UNL A   1      42.208  27.424  25.683  1.00  0.00     0.040 A 
ATOM     74  F   UNL A   1      42.456  29.326  27.033  1.00  0.00    -0.206 F 
ATOM     75  C   UNL A   1      41.704  26.140  25.485  1.00  0.00     0.006 A 
ENDBRANCH  47  68
BRANCH  59  76
ATOM     76  C   UNL A   1      44.266  27.499  34.084  1.00  0.00     0.057 A 
ATOM     77  C   UNL A   1      45.570  28.002  34.007  1.00  0.00     0.134 A 
ATOM     78  C   UNL A   1      44.086  26.249  34.687  1.00  0.00     0.134 A 
ATOM     79  F   UNL A   1      45.808  29.188  33.426  1.00  0.00    -0.206 F 
ATOM     80  C   UNL A   1      46.660  27.277  34.490  1.00  0.00     0.040 A 
ATOM     81  C   UNL A   1      45.166  25.524  35.194  1.00  0.00     0.040 A 
ATOM     82  F   UNL A   1      42.860  25.715  34.798  1.00  0.00    -0.206 F 
ATOM     83  C   UNL A   1      46.458  26.035  35.090  1.00  0.00     0.006 A 
ENDBRANCH  59  76
ENDBRANCH  33  34
ENDBRANCH  26  28
ENDBRANCH  25  26
ENDBRANCH  24  25
ENDBRANCH   1  24
TORSDOF 16
ENDMDL
MODEL 2
REMARK VINA RESULT:     -11.2      0.209      1.330
REMARK SMILES CC(C)C[C@H](CNC(=O)Nc1cccc(Cl)c1)C(=O)OCCOC(=O)c1ccc(-c2c3nc(c(-c4c(F)cccc4F)c4ccc([nH]4)c(-c4c(F)cccc4F)c4nc(c(-c5c(F)cccc5F)c5ccc2[nH]5)C=C4)C=C3)cc1
REMARK SMILES IDX 21 1 20 2 18 3 19 4 5 5 4 6 2 7 1 8 3 9 6 10 7 11 8 12 9 14
REMARK SMILES IDX 10 15 11 17 12 18 17 19 13 20 15 21 14 22 16 23 22 24 23 25
REMARK SMILES IDX 24 26 25 27 26 28 27 29 79 30 28 31 78 32 29 33 30 34 31 35
REMARK SMILES IDX 72 36 32 37 77 38 71 39 73 40 33 41 76 42 70 43 69 44 34 46
REMARK SMILES IDX 60 47 43 48 59 49 44 50 47 51 58 52 74 53 45 54 46 55 57 57
REMARK SMILES IDX 75 58 48 59 35 60 36 61 41 62 37 63 38 64 40 65 42 66 39 67
REMARK SMILES IDX 61 68 62 69 67 70 63 71 64 72 66 73 68 74 65 75 49 76 50 77
REMARK SMILES IDX 55 78 51 79 52 80 54 81 56 82 53 83
REMARK H PARENT 7 13 10 16 73 45 47 56
REMARK Flexibility Score: inf
ROOT
ATOM      1  C   UNL A   1      32.107  31.900  27.244  1.00  0.00     0.274 C 
ENDROOT
BRANCH   1   2
ATOM      2  O   UNL A   1      33.379  31.224  27.201  1.00  0.00    -0.462 OA
BRANCH   2   3
ATOM      3  C   UNL A   1      33.326  29.871  27.114  1.00  0.00     0.310 C 
ATOM      4  O   UNL A   1      34.234  29.111  27.430  1.00  0.00    -0.252 OA
BRANCH   3   5
ATOM      5  C   UNL A   1      32.009  29.368  26.573  1.00  0.00     0.119 C 
BRANCH   5   6
ATOM      6  C   UNL A   1      31.620  27.941  26.986  1.00  0.00     0.020 C 
BRANCH   6   7
ATOM      7  C   UNL A   1      31.628  26.838  25.915  1.00  0.00    -0.017 C 
ATOM      8  C   UNL A   1      32.870  25.947  26.003  1.00  0.00     0.007 C 
ATOM      9  C   UNL A   1      30.383  25.960  26.100  1.00  0.00     0.007 C 
ENDBRANCH   6   7
ENDBRANCH   5   6
BRANCH   5  10
ATOM     10  C   UNL A   1      31.728  29.730  25.111  1.00  0.00     0.133 C 
BRANCH  10  11
ATOM     11  N   UNL A   1      32.766  29.471  24.133  1.00  0.00    -0.337 N 
ATOM     12  C   UNL A   1      32.777  28.860  22.930  1.00  0.00     0.319 C 
ATOM     13  H   UNL A   1      33.650  29.812  24.404  1.00  0.00     0.165 HD
ATOM     14  O   UNL A   1      33.869  28.619  22.411  1.00  0.00    -0.249 OA
ATOM     15  N   UNL A   1      31.653  28.383  22.350  1.00  0.00    -0.308 N 
ATOM     16  H   UNL A   1      31.800  27.623  21.741  1.00  0.00     0.171 HD
BRANCH  15  17
ATOM     17  C   UNL A   1      30.318  28.784  22.463  1.00  0.00     0.044 A 
ATOM     18  C   UNL A   1      29.363  28.018  23.145  1.00  0.00     0.026 A 
ATOM     19  C   UNL A   1      29.943  29.967  21.829  1.00  0.00     0.046 A 
ATOM     20  C   UNL A   1      28.015  28.382  23.094  1.00  0.00     0.004 A 
ATOM     21  C   UNL A   1      28.593  30.305  21.756  1.00  0.00     0.043 A 
ATOM     22  C   UNL A   1      27.626  29.512  22.374  1.00  0.00     0.020 A 
ATOM     23  Cl  UNL A   1      28.113  31.679  20.838  1.00  0.00    -0.084 Cl
ENDBRANCH  15  17
ENDBRANCH  10  11
ENDBRANCH   5  10
ENDBRANCH   3   5
ENDBRANCH   2   3
ENDBRANCH   1   2
BRANCH   1  24
ATOM     24  C   UNL A   1      32.282  33.420  27.182  1.00  0.00     0.275 C 
BRANCH  24  25
ATOM     25  O   UNL A   1      32.315  34.006  28.498  1.00  0.00    -0.458 OA
BRANCH  25  26
ATOM     26  C   UNL A   1      33.376  34.810  28.740  1.00  0.00     0.338 C 
ATOM     27  O   UNL A   1      33.387  36.030  28.764  1.00  0.00    -0.246 OA
BRANCH  26  28
ATOM     28  C   UNL A   1      34.546  34.005  29.128  1.00  0.00     0.060 A 
ATOM     29  C   UNL A   1      34.344  32.951  30.024  1.00  0.00     0.016 A 
ATOM     30  C   UNL A   1      35.834  34.330  28.702  1.00  0.00     0.016 A 
ATOM     31  C   UNL A   1      35.422  32.213  30.497  1.00  0.00     0.010 A 
ATOM     32  C   UNL A   1      36.923  33.592  29.185  1.00  0.00     0.010 A 
ATOM     33  C   UNL A   1      36.722  32.536  30.092  1.00  0.00    -0.014 A 
BRANCH  33  34
ATOM     34  C   UNL A   1      37.861  31.791  30.674  1.00  0.00     0.031 A 
ATOM     35  C   UNL A   1      38.287  32.063  32.087  1.00  0.00     0.074 A 
ATOM     36  C   UNL A   1      38.464  30.826  29.957  1.00  0.00     0.049 A 
ATOM     37  N   UNL A   1      39.276  31.541  32.767  1.00  0.00    -0.248 NA
ATOM     38  C   UNL A   1      37.493  33.048  32.836  1.00  0.00     0.031 C 
ATOM     39  C   UNL A   1      38.101  30.434  28.594  1.00  0.00     0.029 A 
ATOM     40  N   UNL A   1      39.509  29.996  30.278  1.00  0.00    -0.354 N 
ATOM     41  C   UNL A   1      39.229  32.138  34.020  1.00  0.00     0.074 A 
ATOM     42  C   UNL A   1      38.125  33.074  34.002  1.00  0.00     0.031 C 
ATOM     43  C   UNL A   1      38.911  29.440  28.196  1.00  0.00     0.029 A 
ATOM     44  C   UNL A   1      39.871  29.152  29.259  1.00  0.00     0.049 A 
ATOM     45  H   UNL A   1      39.954  30.006  31.156  1.00  0.00     0.167 HD
ATOM     46  C   UNL A   1      40.033  31.921  35.088  1.00  0.00     0.037 A 
ATOM     47  C   UNL A   1      40.879  28.263  29.183  1.00  0.00     0.037 A 
ATOM     48  C   UNL A   1      41.130  30.988  35.105  1.00  0.00     0.049 A 
ATOM     49  C   UNL A   1      41.791  28.084  30.365  1.00  0.00     0.074 A 
ATOM     50  C   UNL A   1      42.015  30.713  36.133  1.00  0.00     0.029 A 
ATOM     51  N   UNL A   1      41.489  30.174  34.041  1.00  0.00    -0.354 N 
ATOM     52  N   UNL A   1      41.753  28.672  31.536  1.00  0.00    -0.248 NA
ATOM     53  C   UNL A   1      42.891  27.121  30.213  1.00  0.00     0.031 C 
ATOM     54  C   UNL A   1      42.928  29.753  35.682  1.00  0.00     0.029 A 
ATOM     55  C   UNL A   1      42.587  29.405  34.384  1.00  0.00     0.049 A 
ATOM     56  H   UNL A   1      41.030  30.148  33.170  1.00  0.00     0.167 HD
ATOM     57  C   UNL A   1      42.812  28.143  32.262  1.00  0.00     0.074 A 
ATOM     58  C   UNL A   1      43.459  27.168  31.409  1.00  0.00     0.031 C 
ATOM     59  C   UNL A   1      43.218  28.441  33.520  1.00  0.00     0.037 A 
BRANCH  46  60
ATOM     60  C   UNL A   1      39.768  32.725  36.324  1.00  0.00     0.057 A 
ATOM     61  C   UNL A   1      38.809  32.332  37.267  1.00  0.00     0.134 A 
ATOM     62  C   UNL A   1      40.506  33.883  36.594  1.00  0.00     0.134 A 
ATOM     63  F   UNL A   1      38.057  31.242  37.057  1.00  0.00    -0.206 F 
ATOM     64  C   UNL A   1      38.587  33.072  38.430  1.00  0.00     0.040 A 
ATOM     65  C   UNL A   1      40.306  34.620  37.763  1.00  0.00     0.040 A 
ATOM     66  F   UNL A   1      41.440  34.312  35.732  1.00  0.00    -0.206 F 
ATOM     67  C   UNL A   1      39.342  34.215  38.684  1.00  0.00     0.006 A 
ENDBRANCH  46  60
BRANCH  47  68
ATOM     68  C   UNL A   1      41.104  27.496  27.933  1.00  0.00     0.057 A 
ATOM     69  C   UNL A   1      41.886  28.011  26.894  1.00  0.00     0.134 A 
ATOM     70  C   UNL A   1      40.515  26.241  27.738  1.00  0.00     0.134 A 
ATOM     71  F   UNL A   1      42.455  29.219  27.012  1.00  0.00    -0.206 F 
ATOM     72  C   UNL A   1      42.060  27.314  25.697  1.00  0.00     0.040 A 
ATOM     73  C   UNL A   1      40.701  25.521  26.558  1.00  0.00     0.040 A 
ATOM     74  F   UNL A   1      39.753  25.695  28.697  1.00  0.00    -0.206 F 
ATOM     75  C   UNL A   1      41.469  26.061  25.529  1.00  0.00     0.006 A 
ENDBRANCH  47  68
BRANCH  59  76
ATOM     76  C   UNL A   1      44.405  27.690  34.046  1.00  0.00     0.057 A 
ATOM     77  C   UNL A   1      45.706  28.192  33.920  1.00  0.00     0.134 A 
ATOM     78  C   UNL A   1      44.242  26.460  34.694  1.00  0.00     0.134 A 
ATOM     79  F   UNL A   1      45.927  29.359  33.294  1.00  0.00    -0.206 F 
ATOM     80  C   UNL A   1      46.809  27.483  34.398  1.00  0.00     0.040 A 
ATOM     81  C   UNL A   1      45.336  25.753  35.196  1.00  0.00     0.040 A 
ATOM     82  F   UNL A   1      43.021  25.929  34.853  1.00  0.00    -0.206 F 
ATOM     83  C   UNL A   1      46.625  26.261  35.043  1.00  0.00     0.006 A 
ENDBRANCH  59  76
ENDBRANCH  33  34
ENDBRANCH  26  28
ENDBRANCH  25  26
ENDBRANCH  24  25
ENDBRANCH   1  24
TORSDOF 16
ENDMDL
MODEL 3
REMARK VINA RESULT:     -11.2      4.950      8.098
REMARK SMILES CC(C)C[C@H](CNC(=O)Nc1cccc(Cl)c1)C(=O)OCCOC(=O)c1ccc(-c2c3nc(c(-c4c(F)cccc4F)c4ccc([nH]4)c(-c4c(F)cccc4F)c4nc(c(-c5c(F)cccc5F)c5ccc2[nH]5)C=C4)C=C3)cc1
REMARK SMILES IDX 21 1 20 2 18 3 19 4 5 5 4 6 2 7 1 8 3 9 6 10 7 11 8 12 9 14
REMARK SMILES IDX 10 15 11 17 12 18 17 19 13 20 15 21 14 22 16 23 22 24 23 25
REMARK SMILES IDX 24 26 25 27 26 28 27 29 79 30 28 31 78 32 29 33 30 34 31 35
REMARK SMILES IDX 72 36 32 37 77 38 71 39 73 40 33 41 76 42 70 43 69 44 34 46
REMARK SMILES IDX 60 47 43 48 59 49 44 50 47 51 58 52 74 53 45 54 46 55 57 57
REMARK SMILES IDX 75 58 48 59 35 60 36 61 41 62 37 63 38 64 40 65 42 66 39 67
REMARK SMILES IDX 61 68 62 69 67 70 63 71 64 72 66 73 68 74 65 75 49 76 50 77
REMARK SMILES IDX 55 78 51 79 52 80 54 81 56 82 53 83
REMARK H PARENT 7 13 10 16 73 45 47 56
REMARK Flexibility Score: inf
ROOT
ATOM      1  C   UNL A   1      35.085  20.247  25.427  1.00  0.00     0.274 C 
ENDROOT
BRANCH   1   2
ATOM      2  O   UNL A   1      34.182  19.710  24.442  1.00  0.00    -0.462 OA
BRANCH   2   3
ATOM      3  C   UNL A   1      32.860  19.838  24.720  1.00  0.00     0.310 C 
ATOM      4  O   UNL A   1      32.152  18.954  25.189  1.00  0.00    -0.252 OA
BRANCH   3   5
ATOM      5  C   UNL A   1      32.318  21.208  24.388  1.00  0.00     0.119 C 
BRANCH   5   6
ATOM      6  C   UNL A   1      32.805  21.814  23.064  1.00  0.00     0.020 C 
BRANCH   6   7
ATOM      7  C   UNL A   1      33.328  23.260  23.066  1.00  0.00    -0.017 C 
ATOM      8  C   UNL A   1      34.853  23.330  23.189  1.00  0.00     0.007 C 
ATOM      9  C   UNL A   1      32.911  23.938  21.754  1.00  0.00     0.007 C 
ENDBRANCH   6   7
ENDBRANCH   5   6
BRANCH   5  10
ATOM     10  C   UNL A   1      32.244  22.180  25.570  1.00  0.00     0.133 C 
BRANCH  10  11
ATOM     11  N   UNL A   1      30.996  22.268  26.302  1.00  0.00    -0.337 N 
ATOM     12  C   UNL A   1      30.345  23.283  26.908  1.00  0.00     0.319 C 
ATOM     13  H   UNL A   1      30.524  21.406  26.372  1.00  0.00     0.165 HD
ATOM     14  O   UNL A   1      29.382  23.008  27.626  1.00  0.00    -0.249 OA
ATOM     15  N   UNL A   1      30.793  24.558  26.866  1.00  0.00    -0.308 N 
ATOM     16  H   UNL A   1      30.529  25.107  27.640  1.00  0.00     0.171 HD
BRANCH  15  17
ATOM     17  C   UNL A   1      31.566  25.231  25.916  1.00  0.00     0.044 A 
ATOM     18  C   UNL A   1      32.922  25.517  26.120  1.00  0.00     0.026 A 
ATOM     19  C   UNL A   1      30.928  25.661  24.753  1.00  0.00     0.046 A 
ATOM     20  C   UNL A   1      33.607  26.329  25.213  1.00  0.00     0.004 A 
ATOM     21  C   UNL A   1      31.609  26.496  23.870  1.00  0.00     0.043 A 
ATOM     22  C   UNL A   1      32.941  26.842  24.099  1.00  0.00     0.020 A 
ATOM     23  Cl  UNL A   1      30.776  27.157  22.517  1.00  0.00    -0.084 Cl
ENDBRANCH  15  17
ENDBRANCH  10  11
ENDBRANCH   5  10
ENDBRANCH   3   5
ENDBRANCH   2   3
ENDBRANCH   1   2
BRANCH   1  24
ATOM     24  C   UNL A   1      36.483  20.463  24.843  1.00  0.00     0.275 C 
BRANCH  24  25
ATOM     25  O   UNL A   1      37.197  21.502  25.542  1.00  0.00    -0.458 OA
BRANCH  25  26
ATOM     26  C   UNL A   1      38.458  21.180  25.911  1.00  0.00     0.338 C 
ATOM     27  O   UNL A   1      39.023  20.111  25.753  1.00  0.00    -0.246 OA
BRANCH  26  28
ATOM     28  C   UNL A   1      39.156  22.369  26.427  1.00  0.00     0.060 A 
ATOM     29  C   UNL A   1      38.636  23.625  26.099  1.00  0.00     0.016 A 
ATOM     30  C   UNL A   1      40.352  22.267  27.139  1.00  0.00     0.016 A 
ATOM     31  C   UNL A   1      39.300  24.784  26.481  1.00  0.00     0.010 A 
ATOM     32  C   UNL A   1      41.027  23.435  27.517  1.00  0.00     0.010 A 
ATOM     33  C   UNL A   1      40.508  24.698  27.182  1.00  0.00    -0.014 A 
BRANCH  33  34
ATOM     34  C   UNL A   1      41.240  25.944  27.504  1.00  0.00     0.031 A 
ATOM     35  C   UNL A   1      40.570  27.015  28.316  1.00  0.00     0.074 A 
ATOM     36  C   UNL A   1      42.522  26.083  27.124  1.00  0.00     0.049 A 
ATOM     37  N   UNL A   1      41.027  28.187  28.676  1.00  0.00    -0.248 NA
ATOM     38  C   UNL A   1      39.208  26.725  28.791  1.00  0.00     0.031 C 
ATOM     39  C   UNL A   1      43.295  25.089  26.379  1.00  0.00     0.029 A 
ATOM     40  N   UNL A   1      43.403  27.117  27.318  1.00  0.00    -0.354 N 
ATOM     41  C   UNL A   1      40.010  28.779  29.413  1.00  0.00     0.074 A 
ATOM     42  C   UNL A   1      38.904  27.845  29.435  1.00  0.00     0.031 C 
ATOM     43  C   UNL A   1      44.536  25.561  26.178  1.00  0.00     0.029 A 
ATOM     44  C   UNL A   1      44.633  26.904  26.746  1.00  0.00     0.049 A 
ATOM     45  H   UNL A   1      43.175  27.933  27.819  1.00  0.00     0.167 HD
ATOM     46  C   UNL A   1      40.002  29.990  30.017  1.00  0.00     0.037 A 
ATOM     47  C   UNL A   1      45.707  27.711  26.669  1.00  0.00     0.037 A 
ATOM     48  C   UNL A   1      41.104  30.918  29.996  1.00  0.00     0.049 A 
ATOM     49  C   UNL A   1      45.650  29.074  27.301  1.00  0.00     0.074 A 
ATOM     50  C   UNL A   1      41.183  32.179  30.562  1.00  0.00     0.029 A 
ATOM     51  N   UNL A   1      42.322  30.681  29.377  1.00  0.00    -0.354 N 
ATOM     52  N   UNL A   1      44.674  29.633  27.973  1.00  0.00    -0.248 NA
ATOM     53  C   UNL A   1      46.843  29.920  27.159  1.00  0.00     0.031 C 
ATOM     54  C   UNL A   1      42.439  32.717  30.261  1.00  0.00     0.029 A 
ATOM     55  C   UNL A   1      43.154  31.775  29.538  1.00  0.00     0.049 A 
ATOM     56  H   UNL A   1      42.559  29.857  28.894  1.00  0.00     0.167 HD
ATOM     57  C   UNL A   1      45.138  30.888  28.344  1.00  0.00     0.074 A 
ATOM     58  C   UNL A   1      46.492  30.999  27.843  1.00  0.00     0.031 C 
ATOM     59  C   UNL A   1      44.499  31.867  29.030  1.00  0.00     0.037 A 
BRANCH  46  60
ATOM     60  C   UNL A   1      38.751  30.392  30.738  1.00  0.00     0.057 A 
ATOM     61  C   UNL A   1      37.720  31.085  30.093  1.00  0.00     0.134 A 
ATOM     62  C   UNL A   1      38.561  30.048  32.082  1.00  0.00     0.134 A 
ATOM     63  F   UNL A   1      37.849  31.459  28.811  1.00  0.00    -0.206 F 
ATOM     64  C   UNL A   1      36.545  31.433  30.764  1.00  0.00     0.040 A 
ATOM     65  C   UNL A   1      37.383  30.373  32.758  1.00  0.00     0.040 A 
ATOM     66  F   UNL A   1      39.511  29.383  32.756  1.00  0.00    -0.206 F 
ATOM     67  C   UNL A   1      36.372  31.069  32.099  1.00  0.00     0.006 A 
ENDBRANCH  46  60
BRANCH  47  68
ATOM     68  C   UNL A   1      46.921  27.268  25.938  1.00  0.00     0.057 A 
ATOM     69  C   UNL A   1      47.062  27.485  24.563  1.00  0.00     0.134 A 
ATOM     70  C   UNL A   1      47.954  26.589  26.594  1.00  0.00     0.134 A 
ATOM     71  F   UNL A   1      46.093  28.108  23.875  1.00  0.00    -0.206 F 
ATOM     72  C   UNL A   1      48.179  27.028  23.863  1.00  0.00     0.040 A 
ATOM     73  C   UNL A   1      49.088  26.148  25.913  1.00  0.00     0.040 A 
ATOM     74  F   UNL A   1      47.876  26.349  27.912  1.00  0.00    -0.206 F 
ATOM     75  C   UNL A   1      49.199  26.360  24.540  1.00  0.00     0.006 A 
ENDBRANCH  47  68
BRANCH  59  76
ATOM     76  C   UNL A   1      45.268  33.127  29.291  1.00  0.00     0.057 A 
ATOM     77  C   UNL A   1      45.208  34.218  28.415  1.00  0.00     0.134 A 
ATOM     78  C   UNL A   1      46.067  33.254  30.433  1.00  0.00     0.134 A 
ATOM     79  F   UNL A   1      44.471  34.151  27.294  1.00  0.00    -0.206 F 
ATOM     80  C   UNL A   1      45.937  35.384  28.653  1.00  0.00     0.040 A 
ATOM     81  C   UNL A   1      46.783  34.424  30.693  1.00  0.00     0.040 A 
ATOM     82  F   UNL A   1      46.162  32.247  31.315  1.00  0.00    -0.206 F 
ATOM     83  C   UNL A   1      46.724  35.490  29.798  1.00  0.00     0.006 A 
ENDBRANCH  59  76
ENDBRANCH  33  34
ENDBRANCH  26  28
ENDBRANCH  25  26
ENDBRANCH  24  25
ENDBRANCH   1  24
TORSDOF 16
ENDMDL
