MODEL 1
REMARK VINA RESULT:     -11.2      0.000      0.000
REMARK SMILES COC(=O)c1sc(NC(=O)[C@H]2CC=CC[C@H]2C(=O)OCCOC(=O)c2ccc(-c3c4nc(c(-c5c(F)cccc5F)c5ccc([nH]5)c(-c5c(F)cccc5F)c5nc(c(-c6c(F)cccc6F)c6ccc3[nH]6)C=C5)C=C4)cc2)nc1C
REMARK SMILES IDX 20 1 19 2 17 3 18 4 16 5 11 6 12 7 13 8 15 9 14 10 9 11 8 12
REMARK SMILES IDX 10 14 7 15 5 16 6 17 80 18 79 19 81 20 3 21 4 22 2 23 1 24
REMARK SMILES IDX 21 25 22 26 23 27 24 28 25 29 26 30 78 31 27 32 77 33 28 34
REMARK SMILES IDX 29 35 30 36 71 37 31 38 76 39 70 40 72 41 32 42 75 43 69 44
REMARK SMILES IDX 68 45 33 47 59 48 42 49 58 50 43 51 46 52 57 53 73 54 44 55
REMARK SMILES IDX 45 56 56 58 74 59 47 60 34 61 35 62 40 63 36 64 37 65 39 66
REMARK SMILES IDX 41 67 38 68 60 69 61 70 66 71 62 72 63 73 65 74 67 75 64 76
REMARK SMILES IDX 48 77 49 78 54 79 50 80 51 81 53 82 55 83 52 84
REMARK H PARENT 8 13 72 46 46 57
REMARK Flexibility Score: inf
ROOT
ATOM      1  C   UNL A   1      37.896  21.488  24.971  1.00  0.00     0.274 C 
ENDROOT
BRANCH   1   2
ATOM      2  O   UNL A   1      36.544  21.482  24.468  1.00  0.00    -0.462 OA
BRANCH   2   3
ATOM      3  C   UNL A   1      35.598  21.960  25.307  1.00  0.00     0.310 C 
ATOM      4  O   UNL A   1      35.349  21.481  26.411  1.00  0.00    -0.252 OA
BRANCH   3   5
ATOM      5  C   UNL A   1      34.837  23.163  24.791  1.00  0.00     0.116 C 
ATOM      6  C   UNL A   1      33.384  22.978  24.301  1.00  0.00     0.097 C 
ATOM      7  C   UNL A   1      32.936  24.294  23.612  1.00  0.00     0.041 C 
ATOM      8  C   UNL A   1      33.416  25.557  24.271  1.00  0.00    -0.030 C 
ATOM      9  C   UNL A   1      35.029  24.348  25.741  1.00  0.00     0.043 C 
ATOM     10  C   UNL A   1      34.331  25.580  25.250  1.00  0.00    -0.030 C 
BRANCH   6  11
ATOM     11  C   UNL A   1      32.384  22.568  25.388  1.00  0.00     0.230 C 
ATOM     12  N   UNL A   1      32.026  21.262  25.572  1.00  0.00    -0.302 N 
ATOM     13  H   UNL A   1      31.409  21.081  26.318  1.00  0.00     0.172 HD
ATOM     14  O   UNL A   1      31.850  23.404  26.126  1.00  0.00    -0.274 OA
BRANCH  12  15
ATOM     15  C   UNL A   1      32.424  20.179  24.845  1.00  0.00     0.190 A 
ATOM     16  C   UNL A   1      33.147  17.924  24.364  1.00  0.00     0.137 A 
ATOM     17  S   UNL A   1      33.173  18.948  25.751  1.00  0.00    -0.089 S 
ATOM     18  C   UNL A   1      32.597  18.615  23.293  1.00  0.00     0.065 A 
ATOM     19  N   UNL A   1      32.234  19.923  23.579  1.00  0.00    -0.224 NA
ATOM     20  C   UNL A   1      32.280  18.125  21.924  1.00  0.00     0.069 C 
BRANCH  16  21
ATOM     21  C   UNL A   1      33.631  16.570  24.477  1.00  0.00     0.350 C 
ATOM     22  O   UNL A   1      34.214  15.938  23.596  1.00  0.00    -0.245 OA
BRANCH  21  23
ATOM     23  O   UNL A   1      33.338  16.069  25.708  1.00  0.00    -0.465 OA
ATOM     24  C   UNL A   1      32.248  15.146  25.739  1.00  0.00     0.282 C 
ENDBRANCH  21  23
ENDBRANCH  16  21
ENDBRANCH  12  15
ENDBRANCH   6  11
ENDBRANCH   3   5
ENDBRANCH   2   3
ENDBRANCH   1   2
BRANCH   1  25
ATOM     25  C   UNL A   1      38.477  20.074  25.028  1.00  0.00     0.275 C 
BRANCH  25  26
ATOM     26  O   UNL A   1      39.184  19.835  26.260  1.00  0.00    -0.458 OA
BRANCH  26  27
ATOM     27  C   UNL A   1      40.527  19.746  26.132  1.00  0.00     0.338 C 
ATOM     28  O   UNL A   1      41.166  18.847  25.613  1.00  0.00    -0.246 OA
BRANCH  27  29
ATOM     29  C   UNL A   1      41.158  20.975  26.627  1.00  0.00     0.060 A 
ATOM     30  C   UNL A   1      41.109  21.235  27.998  1.00  0.00     0.016 A 
ATOM     31  C   UNL A   1      41.687  21.916  25.745  1.00  0.00     0.016 A 
ATOM     32  C   UNL A   1      41.571  22.446  28.498  1.00  0.00     0.010 A 
ATOM     33  C   UNL A   1      42.167  23.129  26.249  1.00  0.00     0.010 A 
ATOM     34  C   UNL A   1      42.097  23.408  27.626  1.00  0.00    -0.014 A 
BRANCH  34  35
ATOM     35  C   UNL A   1      42.530  24.723  28.154  1.00  0.00     0.031 A 
ATOM     36  C   UNL A   1      41.515  25.800  28.411  1.00  0.00     0.074 A 
ATOM     37  C   UNL A   1      43.832  24.944  28.410  1.00  0.00     0.049 A 
ATOM     38  N   UNL A   1      41.699  27.042  28.779  1.00  0.00    -0.248 NA
ATOM     39  C   UNL A   1      40.104  25.429  28.223  1.00  0.00     0.031 C 
ATOM     40  C   UNL A   1      44.903  23.963  28.241  1.00  0.00     0.029 A 
ATOM     41  N   UNL A   1      44.475  26.070  28.860  1.00  0.00    -0.354 N 
ATOM     42  C   UNL A   1      40.433  27.610  28.840  1.00  0.00     0.074 A 
ATOM     43  C   UNL A   1      39.490  26.582  28.452  1.00  0.00     0.031 C 
ATOM     44  C   UNL A   1      46.073  24.529  28.581  1.00  0.00     0.029 A 
ATOM     45  C   UNL A   1      45.839  25.925  28.939  1.00  0.00     0.049 A 
ATOM     46  H   UNL A   1      44.005  26.901  29.102  1.00  0.00     0.167 HD
ATOM     47  C   UNL A   1      40.092  28.873  29.191  1.00  0.00     0.037 A 
ATOM     48  C   UNL A   1      46.794  26.826  29.232  1.00  0.00     0.037 A 
ATOM     49  C   UNL A   1      41.037  29.885  29.586  1.00  0.00     0.049 A 
ATOM     50  C   UNL A   1      46.396  28.238  29.558  1.00  0.00     0.074 A 
ATOM     51  C   UNL A   1      40.791  31.188  29.984  1.00  0.00     0.029 A 
ATOM     52  N   UNL A   1      42.413  29.709  29.628  1.00  0.00    -0.354 N 
ATOM     53  N   UNL A   1      45.196  28.765  29.620  1.00  0.00    -0.248 NA
ATOM     54  C   UNL A   1      47.482  29.182  29.850  1.00  0.00     0.031 C 
ATOM     55  C   UNL A   1      42.021  31.815  30.214  1.00  0.00     0.029 A 
ATOM     56  C   UNL A   1      43.031  30.887  30.017  1.00  0.00     0.049 A 
ATOM     57  H   UNL A   1      42.881  28.870  29.413  1.00  0.00     0.167 HD
ATOM     58  C   UNL A   1      45.382  30.092  29.982  1.00  0.00     0.074 A 
ATOM     59  C   UNL A   1      46.809  30.286  30.139  1.00  0.00     0.031 C 
ATOM     60  C   UNL A   1      44.454  31.063  30.169  1.00  0.00     0.037 A 
BRANCH  47  61
ATOM     61  C   UNL A   1      38.636  29.239  29.124  1.00  0.00     0.057 A 
ATOM     62  C   UNL A   1      37.799  29.182  30.246  1.00  0.00     0.134 A 
ATOM     63  C   UNL A   1      38.070  29.676  27.919  1.00  0.00     0.134 A 
ATOM     64  F   UNL A   1      38.273  28.760  31.428  1.00  0.00    -0.206 F 
ATOM     65  C   UNL A   1      36.445  29.514  30.164  1.00  0.00     0.040 A 
ATOM     66  C   UNL A   1      36.724  30.039  27.833  1.00  0.00     0.040 A 
ATOM     67  F   UNL A   1      38.815  29.762  26.807  1.00  0.00    -0.206 F 
ATOM     68  C   UNL A   1      35.905  29.951  28.956  1.00  0.00     0.006 A 
ENDBRANCH  47  61
BRANCH  48  69
ATOM     69  C   UNL A   1      48.222  26.420  29.209  1.00  0.00     0.057 A 
ATOM     70  C   UNL A   1      48.992  26.540  28.046  1.00  0.00     0.134 A 
ATOM     71  C   UNL A   1      48.853  25.909  30.349  1.00  0.00     0.134 A 
ATOM     72  F   UNL A   1      48.438  27.003  26.916  1.00  0.00    -0.206 F 
ATOM     73  C   UNL A   1      50.334  26.157  28.015  1.00  0.00     0.040 A 
ATOM     74  C   UNL A   1      50.200  25.547  30.341  1.00  0.00     0.040 A 
ATOM     75  F   UNL A   1      48.171  25.770  31.496  1.00  0.00    -0.206 F 
ATOM     76  C   UNL A   1      50.944  25.665  29.168  1.00  0.00     0.006 A 
ENDBRANCH  48  69
BRANCH  60  77
ATOM     77  C   UNL A   1      44.952  32.413  30.600  1.00  0.00     0.057 A 
ATOM     78  C   UNL A   1      45.141  32.738  31.949  1.00  0.00     0.134 A 
ATOM     79  C   UNL A   1      45.277  33.389  29.649  1.00  0.00     0.134 A 
ATOM     80  F   UNL A   1      44.836  31.855  32.912  1.00  0.00    -0.206 F 
ATOM     81  C   UNL A   1      45.612  33.993  32.337  1.00  0.00     0.040 A 
ATOM     82  C   UNL A   1      45.776  34.636  30.023  1.00  0.00     0.040 A 
ATOM     83  F   UNL A   1      45.128  33.139  28.339  1.00  0.00    -0.206 F 
ATOM     84  C   UNL A   1      45.938  34.944  31.372  1.00  0.00     0.006 A 
ENDBRANCH  60  77
ENDBRANCH  34  35
ENDBRANCH  27  29
ENDBRANCH  26  27
ENDBRANCH  25  26
ENDBRANCH   1  25
TORSDOF 15
ENDMDL
MODEL 2
REMARK VINA RESULT:     -11.2      5.311      9.928
REMARK SMILES COC(=O)c1sc(NC(=O)[C@H]2CC=CC[C@H]2C(=O)OCCOC(=O)c2ccc(-c3c4nc(c(-c5c(F)cccc5F)c5ccc([nH]5)c(-c5c(F)cccc5F)c5nc(c(-c6c(F)cccc6F)c6ccc3[nH]6)C=C5)C=C4)cc2)nc1C
REMARK SMILES IDX 20 1 19 2 17 3 18 4 16 5 11 6 12 7 13 8 15 9 14 10 9 11 8 12
REMARK SMILES IDX 10 14 7 15 5 16 6 17 80 18 79 19 81 20 3 21 4 22 2 23 1 24
REMARK SMILES IDX 21 25 22 26 23 27 24 28 25 29 26 30 78 31 27 32 77 33 28 34
REMARK SMILES IDX 29 35 30 36 71 37 31 38 76 39 70 40 72 41 32 42 75 43 69 44
REMARK SMILES IDX 68 45 33 47 59 48 42 49 58 50 43 51 46 52 57 53 73 54 44 55
REMARK SMILES IDX 45 56 56 58 74 59 47 60 34 61 35 62 40 63 36 64 37 65 39 66
REMARK SMILES IDX 41 67 38 68 60 69 61 70 66 71 62 72 63 73 65 74 67 75 64 76
REMARK SMILES IDX 48 77 49 78 54 79 50 80 51 81 53 82 55 83 52 84
REMARK H PARENT 8 13 72 46 46 57
REMARK Flexibility Score: inf
ROOT
ATOM      1  C   UNL A   1      31.372  30.787  25.811  1.00  0.00     0.274 C 
ENDROOT
BRANCH   1   2
ATOM      2  O   UNL A   1      32.000  29.584  26.297  1.00  0.00    -0.462 OA
BRANCH   2   3
ATOM      3  C   UNL A   1      32.657  28.844  25.376  1.00  0.00     0.310 C 
ATOM      4  O   UNL A   1      33.246  29.314  24.406  1.00  0.00    -0.252 OA
BRANCH   3   5
ATOM      5  C   UNL A   1      32.624  27.349  25.617  1.00  0.00     0.116 C 
ATOM      6  C   UNL A   1      31.622  26.483  24.824  1.00  0.00     0.097 C 
ATOM      7  C   UNL A   1      31.632  25.056  25.432  1.00  0.00     0.041 C 
ATOM      8  C   UNL A   1      32.981  24.551  25.859  1.00  0.00    -0.030 C 
ATOM      9  C   UNL A   1      34.050  26.794  25.637  1.00  0.00     0.043 C 
ATOM     10  C   UNL A   1      34.075  25.322  25.919  1.00  0.00    -0.030 C 
BRANCH   6  11
ATOM     11  C   UNL A   1      31.871  26.429  23.313  1.00  0.00     0.230 C 
ATOM     12  N   UNL A   1      31.119  27.165  22.439  1.00  0.00    -0.302 N 
ATOM     13  H   UNL A   1      31.371  27.102  21.489  1.00  0.00     0.172 HD
ATOM     14  O   UNL A   1      32.746  25.706  22.825  1.00  0.00    -0.274 OA
BRANCH  12  15
ATOM     15  C   UNL A   1      30.061  27.976  22.729  1.00  0.00     0.190 A 
ATOM     16  C   UNL A   1      28.634  29.925  22.690  1.00  0.00     0.137 A 
ATOM     17  S   UNL A   1      30.293  29.615  22.338  1.00  0.00    -0.089 S 
ATOM     18  C   UNL A   1      28.029  28.751  23.119  1.00  0.00     0.065 A 
ATOM     19  N   UNL A   1      28.879  27.656  23.181  1.00  0.00    -0.224 NA
ATOM     20  C   UNL A   1      26.599  28.497  23.444  1.00  0.00     0.069 C 
BRANCH  16  21
ATOM     21  C   UNL A   1      28.103  31.250  22.486  1.00  0.00     0.350 C 
ATOM     22  O   UNL A   1      27.234  31.791  23.168  1.00  0.00    -0.245 OA
BRANCH  21  23
ATOM     23  O   UNL A   1      28.694  31.829  21.405  1.00  0.00    -0.465 OA
ATOM     24  C   UNL A   1      27.795  32.462  20.493  1.00  0.00     0.282 C 
ENDBRANCH  21  23
ENDBRANCH  16  21
ENDBRANCH  12  15
ENDBRANCH   6  11
ENDBRANCH   3   5
ENDBRANCH   2   3
ENDBRANCH   1   2
BRANCH   1  25
ATOM     25  C   UNL A   1      31.498  31.930  26.820  1.00  0.00     0.275 C 
BRANCH  25  26
ATOM     26  O   UNL A   1      32.680  32.719  26.592  1.00  0.00    -0.458 OA
BRANCH  26  27
ATOM     27  C   UNL A   1      33.094  33.440  27.659  1.00  0.00     0.338 C 
ATOM     28  O   UNL A   1      32.513  34.365  28.201  1.00  0.00    -0.246 OA
BRANCH  27  29
ATOM     29  C   UNL A   1      34.345  32.881  28.184  1.00  0.00     0.060 A 
ATOM     30  C   UNL A   1      34.329  31.575  28.676  1.00  0.00     0.016 A 
ATOM     31  C   UNL A   1      35.490  33.668  28.297  1.00  0.00     0.016 A 
ATOM     32  C   UNL A   1      35.452  31.050  29.305  1.00  0.00     0.010 A 
ATOM     33  C   UNL A   1      36.625  33.135  28.916  1.00  0.00     0.010 A 
ATOM     34  C   UNL A   1      36.607  31.829  29.438  1.00  0.00    -0.014 A 
BRANCH  34  35
ATOM     35  C   UNL A   1      37.781  31.289  30.164  1.00  0.00     0.031 A 
ATOM     36  C   UNL A   1      38.703  30.318  29.484  1.00  0.00     0.074 A 
ATOM     37  C   UNL A   1      38.020  31.677  31.430  1.00  0.00     0.049 A 
ATOM     38  N   UNL A   1      39.723  29.661  29.973  1.00  0.00    -0.248 NA
ATOM     39  C   UNL A   1      38.436  30.048  28.063  1.00  0.00     0.031 C 
ATOM     40  C   UNL A   1      37.221  32.645  32.181  1.00  0.00     0.029 A 
ATOM     41  N   UNL A   1      39.002  31.297  32.310  1.00  0.00    -0.354 N 
ATOM     42  C   UNL A   1      40.204  28.879  28.931  1.00  0.00     0.074 A 
ATOM     43  C   UNL A   1      39.351  29.128  27.788  1.00  0.00     0.031 C 
ATOM     44  C   UNL A   1      37.744  32.783  33.410  1.00  0.00     0.029 A 
ATOM     45  C   UNL A   1      38.878  31.875  33.549  1.00  0.00     0.049 A 
ATOM     46  H   UNL A   1      39.725  30.671  32.076  1.00  0.00     0.167 HD
ATOM     47  C   UNL A   1      41.262  28.032  28.931  1.00  0.00     0.037 A 
ATOM     48  C   UNL A   1      39.577  31.669  34.680  1.00  0.00     0.037 A 
ATOM     49  C   UNL A   1      42.110  27.800  30.071  1.00  0.00     0.049 A 
ATOM     50  C   UNL A   1      40.708  30.679  34.673  1.00  0.00     0.074 A 
ATOM     51  C   UNL A   1      43.222  26.981  30.167  1.00  0.00     0.029 A 
ATOM     52  N   UNL A   1      41.936  28.383  31.318  1.00  0.00    -0.354 N 
ATOM     53  N   UNL A   1      41.161  29.948  33.681  1.00  0.00    -0.248 NA
ATOM     54  C   UNL A   1      41.423  30.481  35.940  1.00  0.00     0.031 C 
ATOM     55  C   UNL A   1      43.688  27.028  31.486  1.00  0.00     0.029 A 
ATOM     56  C   UNL A   1      42.903  27.921  32.197  1.00  0.00     0.049 A 
ATOM     57  H   UNL A   1      41.230  29.030  31.545  1.00  0.00     0.167 HD
ATOM     58  C   UNL A   1      42.227  29.225  34.198  1.00  0.00     0.074 A 
ATOM     59  C   UNL A   1      42.362  29.614  35.587  1.00  0.00     0.031 C 
ATOM     60  C   UNL A   1      43.024  28.320  33.578  1.00  0.00     0.037 A 
BRANCH  47  61
ATOM     61  C   UNL A   1      41.535  27.268  27.667  1.00  0.00     0.057 A 
ATOM     62  C   UNL A   1      42.368  27.766  26.657  1.00  0.00     0.134 A 
ATOM     63  C   UNL A   1      40.968  26.001  27.469  1.00  0.00     0.134 A 
ATOM     64  F   UNL A   1      42.932  28.977  26.776  1.00  0.00    -0.206 F 
ATOM     65  C   UNL A   1      42.602  27.048  25.482  1.00  0.00     0.040 A 
ATOM     66  C   UNL A   1      41.219  25.261  26.311  1.00  0.00     0.040 A 
ATOM     67  F   UNL A   1      40.166  25.460  28.398  1.00  0.00    -0.206 F 
ATOM     68  C   UNL A   1      42.031  25.787  25.310  1.00  0.00     0.006 A 
ENDBRANCH  47  61
BRANCH  48  69
ATOM     69  C   UNL A   1      39.211  32.402  35.918  1.00  0.00     0.057 A 
ATOM     70  C   UNL A   1      38.319  31.856  36.847  1.00  0.00     0.134 A 
ATOM     71  C   UNL A   1      39.749  33.663  36.204  1.00  0.00     0.134 A 
ATOM     72  F   UNL A   1      37.754  30.662  36.619  1.00  0.00    -0.206 F 
ATOM     73  C   UNL A   1      37.967  32.541  38.012  1.00  0.00     0.040 A 
ATOM     74  C   UNL A   1      39.427  34.347  37.376  1.00  0.00     0.040 A 
ATOM     75  F   UNL A   1      40.612  34.240  35.355  1.00  0.00    -0.206 F 
ATOM     76  C   UNL A   1      38.528  33.788  38.282  1.00  0.00     0.006 A 
ENDBRANCH  48  69
BRANCH  60  77
ATOM     77  C   UNL A   1      44.135  27.716  34.388  1.00  0.00     0.057 A 
ATOM     78  C   UNL A   1      45.381  28.343  34.522  1.00  0.00     0.134 A 
ATOM     79  C   UNL A   1      43.944  26.507  35.069  1.00  0.00     0.134 A 
ATOM     80  F   UNL A   1      45.635  29.496  33.885  1.00  0.00    -0.206 F 
ATOM     81  C   UNL A   1      46.403  27.776  35.285  1.00  0.00     0.040 A 
ATOM     82  C   UNL A   1      44.948  25.946  35.857  1.00  0.00     0.040 A 
ATOM     83  F   UNL A   1      42.772  25.859  34.990  1.00  0.00    -0.206 F 
ATOM     84  C   UNL A   1      46.185  26.577  35.961  1.00  0.00     0.006 A 
ENDBRANCH  60  77
ENDBRANCH  34  35
ENDBRANCH  27  29
ENDBRANCH  26  27
ENDBRANCH  25  26
ENDBRANCH   1  25
TORSDOF 15
ENDMDL
MODEL 3
REMARK VINA RESULT:     -11.0      1.740      6.206
REMARK SMILES COC(=O)c1sc(NC(=O)[C@H]2CC=CC[C@H]2C(=O)OCCOC(=O)c2ccc(-c3c4nc(c(-c5c(F)cccc5F)c5ccc([nH]5)c(-c5c(F)cccc5F)c5nc(c(-c6c(F)cccc6F)c6ccc3[nH]6)C=C5)C=C4)cc2)nc1C
REMARK SMILES IDX 20 1 19 2 17 3 18 4 16 5 11 6 12 7 13 8 15 9 14 10 9 11 8 12
REMARK SMILES IDX 10 14 7 15 5 16 6 17 80 18 79 19 81 20 3 21 4 22 2 23 1 24
REMARK SMILES IDX 21 25 22 26 23 27 24 28 25 29 26 30 78 31 27 32 77 33 28 34
REMARK SMILES IDX 29 35 30 36 71 37 31 38 76 39 70 40 72 41 32 42 75 43 69 44
REMARK SMILES IDX 68 45 33 47 59 48 42 49 58 50 43 51 46 52 57 53 73 54 44 55
REMARK SMILES IDX 45 56 56 58 74 59 47 60 34 61 35 62 40 63 36 64 37 65 39 66
REMARK SMILES IDX 41 67 38 68 60 69 61 70 66 71 62 72 63 73 65 74 67 75 64 76
REMARK SMILES IDX 48 77 49 78 54 79 50 80 51 81 53 82 55 83 52 84
REMARK H PARENT 8 13 72 46 46 57
REMARK Flexibility Score: inf
ROOT
ATOM      1  C   UNL A   1      36.883  20.243  24.884  1.00  0.00     0.274 C 
ENDROOT
BRANCH   1   2
ATOM      2  O   UNL A   1      36.807  21.467  25.642  1.00  0.00    -0.462 OA
BRANCH   2   3
ATOM      3  C   UNL A   1      35.566  21.874  25.988  1.00  0.00     0.310 C 
ATOM      4  O   UNL A   1      34.932  21.425  26.940  1.00  0.00    -0.252 OA
BRANCH   3   5
ATOM      5  C   UNL A   1      34.980  22.956  25.104  1.00  0.00     0.116 C 
ATOM      6  C   UNL A   1      33.679  22.666  24.326  1.00  0.00     0.097 C 
ATOM      7  C   UNL A   1      33.442  23.833  23.331  1.00  0.00     0.041 C 
ATOM      8  C   UNL A   1      33.789  25.199  23.853  1.00  0.00    -0.030 C 
ATOM      9  C   UNL A   1      34.977  24.292  25.850  1.00  0.00     0.043 C 
ATOM     10  C   UNL A   1      34.448  25.408  25.000  1.00  0.00    -0.030 C 
BRANCH   6  11
ATOM     11  C   UNL A   1      32.441  22.440  25.201  1.00  0.00     0.230 C 
ATOM     12  N   UNL A   1      31.893  21.197  25.356  1.00  0.00    -0.302 N 
ATOM     13  H   UNL A   1      31.124  21.134  25.966  1.00  0.00     0.172 HD
ATOM     14  O   UNL A   1      31.879  23.375  25.784  1.00  0.00    -0.274 OA
BRANCH  12  15
ATOM     15  C   UNL A   1      32.290  20.033  24.764  1.00  0.00     0.190 A 
ATOM     16  C   UNL A   1      32.844  17.693  24.533  1.00  0.00     0.137 A 
ATOM     17  S   UNL A   1      32.750  18.805  25.848  1.00  0.00    -0.089 S 
ATOM     18  C   UNL A   1      32.548  18.356  23.350  1.00  0.00     0.065 A 
ATOM     19  N   UNL A   1      32.282  19.709  23.500  1.00  0.00    -0.224 NA
ATOM     20  C   UNL A   1      32.409  17.803  21.975  1.00  0.00     0.069 C 
BRANCH  16  21
ATOM     21  C   UNL A   1      33.159  16.311  24.798  1.00  0.00     0.350 C 
ATOM     22  O   UNL A   1      32.438  15.507  25.388  1.00  0.00    -0.245 OA
BRANCH  21  23
ATOM     23  O   UNL A   1      34.394  16.011  24.311  1.00  0.00    -0.465 OA
ATOM     24  C   UNL A   1      35.395  15.780  25.305  1.00  0.00     0.282 C 
ENDBRANCH  21  23
ENDBRANCH  16  21
ENDBRANCH  12  15
ENDBRANCH   6  11
ENDBRANCH   3   5
ENDBRANCH   2   3
ENDBRANCH   1   2
BRANCH   1  25
ATOM     25  C   UNL A   1      38.268  19.602  24.993  1.00  0.00     0.275 C 
BRANCH  25  26
ATOM     26  O   UNL A   1      38.880  19.864  26.270  1.00  0.00    -0.458 OA
BRANCH  26  27
ATOM     27  C   UNL A   1      40.226  19.990  26.237  1.00  0.00     0.338 C 
ATOM     28  O   UNL A   1      41.038  19.175  25.834  1.00  0.00    -0.246 OA
BRANCH  27  29
ATOM     29  C   UNL A   1      40.612  21.337  26.671  1.00  0.00     0.060 A 
ATOM     30  C   UNL A   1      39.842  22.416  26.234  1.00  0.00     0.016 A 
ATOM     31  C   UNL A   1      41.781  21.549  27.400  1.00  0.00     0.016 A 
ATOM     32  C   UNL A   1      40.243  23.719  26.505  1.00  0.00     0.010 A 
ATOM     33  C   UNL A   1      42.177  22.859  27.687  1.00  0.00     0.010 A 
ATOM     34  C   UNL A   1      41.420  23.952  27.227  1.00  0.00    -0.014 A 
BRANCH  34  35
ATOM     35  C   UNL A   1      41.879  25.341  27.460  1.00  0.00     0.031 A 
ATOM     36  C   UNL A   1      43.211  25.790  26.932  1.00  0.00     0.074 A 
ATOM     37  C   UNL A   1      41.094  26.199  28.137  1.00  0.00     0.049 A 
ATOM     38  N   UNL A   1      43.833  26.928  27.110  1.00  0.00    -0.248 NA
ATOM     39  C   UNL A   1      43.944  24.826  26.098  1.00  0.00     0.031 C 
ATOM     40  C   UNL A   1      39.764  25.892  28.661  1.00  0.00     0.029 A 
ATOM     41  N   UNL A   1      41.309  27.503  28.507  1.00  0.00    -0.354 N 
ATOM     42  C   UNL A   1      45.040  26.808  26.434  1.00  0.00     0.074 A 
ATOM     43  C   UNL A   1      45.073  25.479  25.860  1.00  0.00     0.031 C 
ATOM     44  C   UNL A   1      39.279  26.977  29.287  1.00  0.00     0.029 A 
ATOM     45  C   UNL A   1      40.285  28.033  29.254  1.00  0.00     0.049 A 
ATOM     46  H   UNL A   1      42.117  28.009  28.262  1.00  0.00     0.167 HD
ATOM     47  C   UNL A   1      46.029  27.726  26.304  1.00  0.00     0.037 A 
ATOM     48  C   UNL A   1      40.186  29.224  29.873  1.00  0.00     0.037 A 
ATOM     49  C   UNL A   1      45.981  29.049  26.871  1.00  0.00     0.049 A 
ATOM     50  C   UNL A   1      41.321  30.204  29.766  1.00  0.00     0.074 A 
ATOM     51  C   UNL A   1      46.920  30.063  26.776  1.00  0.00     0.029 A 
ATOM     52  N   UNL A   1      44.940  29.541  27.645  1.00  0.00    -0.354 N 
ATOM     53  N   UNL A   1      42.457  30.085  29.119  1.00  0.00    -0.248 NA
ATOM     54  C   UNL A   1      41.166  31.479  30.477  1.00  0.00     0.031 C 
ATOM     55  C   UNL A   1      46.470  31.148  27.537  1.00  0.00     0.029 A 
ATOM     56  C   UNL A   1      45.225  30.833  28.058  1.00  0.00     0.049 A 
ATOM     57  H   UNL A   1      44.119  29.046  27.867  1.00  0.00     0.167 HD
ATOM     58  C   UNL A   1      43.138  31.278  29.325  1.00  0.00     0.074 A 
ATOM     59  C   UNL A   1      42.282  32.111  30.145  1.00  0.00     0.031 C 
ATOM     60  C   UNL A   1      44.361  31.650  28.874  1.00  0.00     0.037 A 
BRANCH  47  61
ATOM     61  C   UNL A   1      47.261  27.313  25.551  1.00  0.00     0.057 A 
ATOM     62  C   UNL A   1      47.420  27.565  24.182  1.00  0.00     0.134 A 
ATOM     63  C   UNL A   1      48.314  26.669  26.214  1.00  0.00     0.134 A 
ATOM     64  F   UNL A   1      46.446  28.166  23.483  1.00  0.00    -0.206 F 
ATOM     65  C   UNL A   1      48.567  27.164  23.494  1.00  0.00     0.040 A 
ATOM     66  C   UNL A   1      49.478  26.289  25.542  1.00  0.00     0.040 A 
ATOM     67  F   UNL A   1      48.233  26.402  27.526  1.00  0.00    -0.206 F 
ATOM     68  C   UNL A   1      49.604  26.529  24.176  1.00  0.00     0.006 A 
ENDBRANCH  47  61
BRANCH  48  69
ATOM     69  C   UNL A   1      38.972  29.545  30.664  1.00  0.00     0.057 A 
ATOM     70  C   UNL A   1      38.863  29.173  32.009  1.00  0.00     0.134 A 
ATOM     71  C   UNL A   1      37.894  30.237  30.098  1.00  0.00     0.134 A 
ATOM     72  F   UNL A   1      39.853  28.490  32.602  1.00  0.00    -0.206 F 
ATOM     73  C   UNL A   1      37.724  29.467  32.759  1.00  0.00     0.040 A 
ATOM     74  C   UNL A   1      36.760  30.561  30.842  1.00  0.00     0.040 A 
ATOM     75  F   UNL A   1      37.937  30.623  28.815  1.00  0.00    -0.206 F 
ATOM     76  C   UNL A   1      36.670  30.170  32.177  1.00  0.00     0.006 A 
ENDBRANCH  48  69
BRANCH  60  77
ATOM     77  C   UNL A   1      44.831  33.032  29.228  1.00  0.00     0.057 A 
ATOM     78  C   UNL A   1      44.531  34.145  28.432  1.00  0.00     0.134 A 
ATOM     79  C   UNL A   1      45.566  33.255  30.400  1.00  0.00     0.134 A 
ATOM     80  F   UNL A   1      43.843  33.998  27.289  1.00  0.00    -0.206 F 
ATOM     81  C   UNL A   1      44.965  35.426  28.776  1.00  0.00     0.040 A 
ATOM     82  C   UNL A   1      45.981  34.535  30.769  1.00  0.00     0.040 A 
ATOM     83  F   UNL A   1      45.879  32.235  31.212  1.00  0.00    -0.206 F 
ATOM     84  C   UNL A   1      45.687  35.624  29.952  1.00  0.00     0.006 A 
ENDBRANCH  60  77
ENDBRANCH  34  35
ENDBRANCH  27  29
ENDBRANCH  26  27
ENDBRANCH  25  26
ENDBRANCH   1  25
TORSDOF 15
ENDMDL
