MODEL 1
REMARK VINA RESULT:      -9.4      0.000      0.000
REMARK SMILES O=C(CSc1ccc2ccccc2c1)OCCOC(=O)c1ccc(-c2c3nc(c(-c4c(F)cccc4F)c4ccc([nH]4)c(-c4c(F)cccc4F)c4nc(c(-c5c(F)cccc5F)c5ccc2[nH]5)C=C4)C=C3)cc1
REMARK SMILES IDX 16 1 15 2 2 3 1 4 3 5 4 6 5 7 6 8 14 9 7 10 13 11 8 12 12 13
REMARK SMILES IDX 9 14 11 15 10 16 17 17 18 18 19 19 20 20 21 21 22 22 74 23
REMARK SMILES IDX 23 24 73 25 24 26 25 27 26 28 67 29 27 30 72 31 66 32 68 33
REMARK SMILES IDX 28 34 71 35 65 36 64 37 29 39 55 40 38 41 54 42 39 43 42 44
REMARK SMILES IDX 53 45 69 46 40 47 41 48 52 50 70 51 43 52 30 53 31 54 36 55
REMARK SMILES IDX 32 56 33 57 35 58 37 59 34 60 56 61 57 62 62 63 58 64 59 65
REMARK SMILES IDX 61 66 63 67 60 68 44 69 45 70 50 71 46 72 47 73 49 74 51 75
REMARK SMILES IDX 48 76
REMARK H PARENT 68 38 42 49
REMARK Flexibility Score: inf
ROOT
ATOM      1  C   UNL A   1      44.905  19.701  25.316  1.00  0.00     0.274 C 
ENDROOT
BRANCH   1   2
ATOM      2  O   UNL A   1      45.284  20.596  24.248  1.00  0.00    -0.461 OA
BRANCH   2   3
ATOM      3  C   UNL A   1      45.052  21.932  24.229  1.00  0.00     0.316 C 
ATOM      4  O   UNL A   1      44.432  22.431  23.291  1.00  0.00    -0.251 OA
BRANCH   3   5
ATOM      5  C   UNL A   1      45.569  22.791  25.361  1.00  0.00     0.197 C 
BRANCH   5   6
ATOM      6  S   UNL A   1      46.757  24.040  24.799  1.00  0.00    -0.114 SA
BRANCH   6   7
ATOM      7  C   UNL A   1      45.916  25.509  25.347  1.00  0.00     0.008 A 
ATOM      8  C   UNL A   1      46.584  26.497  26.071  1.00  0.00     0.016 A 
ATOM      9  C   UNL A   1      44.560  25.662  25.051  1.00  0.00     0.023 A 
ATOM     10  C   UNL A   1      45.900  27.640  26.491  1.00  0.00     0.010 A 
ATOM     11  C   UNL A   1      43.860  26.803  25.467  1.00  0.00    -0.017 A 
ATOM     12  C   UNL A   1      44.537  27.804  26.200  1.00  0.00    -0.018 A 
ATOM     13  C   UNL A   1      42.500  26.968  25.166  1.00  0.00     0.009 A 
ATOM     14  C   UNL A   1      43.829  28.941  26.620  1.00  0.00     0.009 A 
ATOM     15  C   UNL A   1      41.810  28.102  25.592  1.00  0.00     0.001 A 
ATOM     16  C   UNL A   1      42.473  29.086  26.320  1.00  0.00     0.001 A 
ENDBRANCH   6   7
ENDBRANCH   5   6
ENDBRANCH   3   5
ENDBRANCH   2   3
ENDBRANCH   1   2
BRANCH   1  17
ATOM     17  C   UNL A   1      43.624  18.937  24.971  1.00  0.00     0.275 C 
BRANCH  17  18
ATOM     18  O   UNL A   1      42.760  18.888  26.121  1.00  0.00    -0.458 OA
BRANCH  18  19
ATOM     19  C   UNL A   1      41.621  19.622  26.037  1.00  0.00     0.338 C 
ATOM     20  O   UNL A   1      40.532  19.238  25.650  1.00  0.00    -0.246 OA
BRANCH  19  21
ATOM     21  C   UNL A   1      41.846  20.940  26.679  1.00  0.00     0.060 A 
ATOM     22  C   UNL A   1      41.959  22.062  25.850  1.00  0.00     0.016 A 
ATOM     23  C   UNL A   1      41.912  21.089  28.070  1.00  0.00     0.016 A 
ATOM     24  C   UNL A   1      42.168  23.326  26.406  1.00  0.00     0.010 A 
ATOM     25  C   UNL A   1      42.117  22.357  28.625  1.00  0.00     0.010 A 
ATOM     26  C   UNL A   1      42.272  23.481  27.795  1.00  0.00    -0.014 A 
BRANCH  26  27
ATOM     27  C   UNL A   1      42.645  24.799  28.367  1.00  0.00     0.031 A 
ATOM     28  C   UNL A   1      41.597  25.869  28.499  1.00  0.00     0.074 A 
ATOM     29  C   UNL A   1      43.900  25.037  28.792  1.00  0.00     0.049 A 
ATOM     30  N   UNL A   1      41.699  27.073  29.007  1.00  0.00    -0.248 NA
ATOM     31  C   UNL A   1      40.255  25.541  27.993  1.00  0.00     0.031 C 
ATOM     32  C   UNL A   1      45.012  24.091  28.728  1.00  0.00     0.029 A 
ATOM     33  N   UNL A   1      44.446  26.162  29.363  1.00  0.00    -0.354 N 
ATOM     34  C   UNL A   1      40.434  27.636  28.899  1.00  0.00     0.074 A 
ATOM     35  C   UNL A   1      39.593  26.664  28.233  1.00  0.00     0.031 C 
ATOM     36  C   UNL A   1      46.112  24.677  29.235  1.00  0.00     0.029 A 
ATOM     37  C   UNL A   1      45.784  26.041  29.649  1.00  0.00     0.049 A 
ATOM     38  H   UNL A   1      43.927  26.977  29.550  1.00  0.00     0.167 HD
ATOM     39  C   UNL A   1      40.004  28.844  29.333  1.00  0.00     0.037 A 
ATOM     40  C   UNL A   1      46.645  26.930  30.180  1.00  0.00     0.037 A 
ATOM     41  C   UNL A   1      40.831  29.823  29.987  1.00  0.00     0.049 A 
ATOM     42  C   UNL A   1      46.153  28.292  30.597  1.00  0.00     0.074 A 
ATOM     43  C   UNL A   1      40.473  31.069  30.474  1.00  0.00     0.029 A 
ATOM     44  N   UNL A   1      42.185  29.672  30.236  1.00  0.00    -0.354 N 
ATOM     45  N   UNL A   1      44.942  28.790  30.542  1.00  0.00    -0.248 NA
ATOM     46  C   UNL A   1      47.153  29.214  31.160  1.00  0.00     0.031 C 
ATOM     47  C   UNL A   1      41.619  31.687  30.983  1.00  0.00     0.029 A 
ATOM     48  C   UNL A   1      42.682  30.810  30.850  1.00  0.00     0.049 A 
ATOM     49  H   UNL A   1      42.716  28.874  30.011  1.00  0.00     0.167 HD
ATOM     50  C   UNL A   1      45.029  30.065  31.089  1.00  0.00     0.074 A 
ATOM     51  C   UNL A   1      46.407  30.259  31.485  1.00  0.00     0.031 C 
ATOM     52  C   UNL A   1      44.053  30.993  31.249  1.00  0.00     0.037 A 
BRANCH  39  53
ATOM     53  C   UNL A   1      38.558  29.177  29.118  1.00  0.00     0.057 A 
ATOM     54  C   UNL A   1      37.633  29.124  30.169  1.00  0.00     0.134 A 
ATOM     55  C   UNL A   1      38.097  29.602  27.867  1.00  0.00     0.134 A 
ATOM     56  F   UNL A   1      38.012  28.712  31.388  1.00  0.00    -0.206 F 
ATOM     57  C   UNL A   1      36.295  29.471  29.978  1.00  0.00     0.040 A 
ATOM     58  C   UNL A   1      36.766  29.971  27.669  1.00  0.00     0.040 A 
ATOM     59  F   UNL A   1      38.934  29.676  26.822  1.00  0.00    -0.206 F 
ATOM     60  C   UNL A   1      35.860  29.904  28.727  1.00  0.00     0.006 A 
ENDBRANCH  39  53
BRANCH  40  61
ATOM     61  C   UNL A   1      48.076  26.575  30.357  1.00  0.00     0.057 A 
ATOM     62  C   UNL A   1      48.515  25.871  31.484  1.00  0.00     0.134 A 
ATOM     63  C   UNL A   1      49.044  26.987  29.434  1.00  0.00     0.134 A 
ATOM     64  F   UNL A   1      47.637  25.475  32.418  1.00  0.00    -0.206 F 
ATOM     65  C   UNL A   1      49.869  25.615  31.702  1.00  0.00     0.040 A 
ATOM     66  C   UNL A   1      50.399  26.715  29.627  1.00  0.00     0.040 A 
ATOM     67  F   UNL A   1      48.686  27.665  28.335  1.00  0.00    -0.206 F 
ATOM     68  C   UNL A   1      50.816  26.036  30.770  1.00  0.00     0.006 A 
ENDBRANCH  40  61
BRANCH  52  69
ATOM     69  C   UNL A   1      44.433  32.287  31.907  1.00  0.00     0.057 A 
ATOM     70  C   UNL A   1      44.439  32.435  33.300  1.00  0.00     0.134 A 
ATOM     71  C   UNL A   1      44.825  33.391  31.139  1.00  0.00     0.134 A 
ATOM     72  F   UNL A   1      44.064  31.419  34.092  1.00  0.00    -0.206 F 
ATOM     73  C   UNL A   1      44.795  33.641  33.905  1.00  0.00     0.040 A 
ATOM     74  C   UNL A   1      45.206  34.596  31.733  1.00  0.00     0.040 A 
ATOM     75  F   UNL A   1      44.850  33.316  29.800  1.00  0.00    -0.206 F 
ATOM     76  C   UNL A   1      45.186  34.725  33.120  1.00  0.00     0.006 A 
ENDBRANCH  52  69
ENDBRANCH  26  27
ENDBRANCH  19  21
ENDBRANCH  18  19
ENDBRANCH  17  18
ENDBRANCH   1  17
TORSDOF 13
ENDMDL
MODEL 2
REMARK VINA RESULT:      -9.3      0.533      6.504
REMARK SMILES O=C(CSc1ccc2ccccc2c1)OCCOC(=O)c1ccc(-c2c3nc(c(-c4c(F)cccc4F)c4ccc([nH]4)c(-c4c(F)cccc4F)c4nc(c(-c5c(F)cccc5F)c5ccc2[nH]5)C=C4)C=C3)cc1
REMARK SMILES IDX 16 1 15 2 2 3 1 4 3 5 4 6 5 7 6 8 14 9 7 10 13 11 8 12 12 13
REMARK SMILES IDX 9 14 11 15 10 16 17 17 18 18 19 19 20 20 21 21 22 22 74 23
REMARK SMILES IDX 23 24 73 25 24 26 25 27 26 28 67 29 27 30 72 31 66 32 68 33
REMARK SMILES IDX 28 34 71 35 65 36 64 37 29 39 55 40 38 41 54 42 39 43 42 44
REMARK SMILES IDX 53 45 69 46 40 47 41 48 52 50 70 51 43 52 30 53 31 54 36 55
REMARK SMILES IDX 32 56 33 57 35 58 37 59 34 60 56 61 57 62 62 63 58 64 59 65
REMARK SMILES IDX 61 66 63 67 60 68 44 69 45 70 50 71 46 72 47 73 49 74 51 75
REMARK SMILES IDX 48 76
REMARK H PARENT 68 38 42 49
REMARK Flexibility Score: inf
ROOT
ATOM      1  C   UNL A   1      45.584  19.857  25.346  1.00  0.00     0.274 C 
ENDROOT
BRANCH   1   2
ATOM      2  O   UNL A   1      46.153  20.911  24.539  1.00  0.00    -0.461 OA
BRANCH   2   3
ATOM      3  C   UNL A   1      45.699  22.188  24.488  1.00  0.00     0.316 C 
ATOM      4  O   UNL A   1      45.039  22.563  23.520  1.00  0.00    -0.251 OA
BRANCH   3   5
ATOM      5  C   UNL A   1      46.020  23.136  25.621  1.00  0.00     0.197 C 
BRANCH   5   6
ATOM      6  S   UNL A   1      46.913  24.612  25.060  1.00  0.00    -0.114 SA
BRANCH   6   7
ATOM      7  C   UNL A   1      45.678  25.846  25.406  1.00  0.00     0.008 A 
ATOM      8  C   UNL A   1      44.338  25.641  25.074  1.00  0.00     0.016 A 
ATOM      9  C   UNL A   1      46.068  27.042  26.012  1.00  0.00     0.023 A 
ATOM     10  C   UNL A   1      43.389  26.626  25.355  1.00  0.00     0.010 A 
ATOM     11  C   UNL A   1      45.128  28.040  26.299  1.00  0.00    -0.017 A 
ATOM     12  C   UNL A   1      43.770  27.832  25.963  1.00  0.00    -0.018 A 
ATOM     13  C   UNL A   1      45.511  29.240  26.915  1.00  0.00     0.009 A 
ATOM     14  C   UNL A   1      42.834  28.838  26.246  1.00  0.00     0.009 A 
ATOM     15  C   UNL A   1      44.569  30.231  27.188  1.00  0.00     0.001 A 
ATOM     16  C   UNL A   1      43.233  30.032  26.852  1.00  0.00     0.001 A 
ENDBRANCH   6   7
ENDBRANCH   5   6
ENDBRANCH   3   5
ENDBRANCH   2   3
ENDBRANCH   1   2
BRANCH   1  17
ATOM     17  C   UNL A   1      44.228  19.408  24.795  1.00  0.00     0.275 C 
BRANCH  17  18
ATOM     18  O   UNL A   1      43.376  18.988  25.878  1.00  0.00    -0.458 OA
BRANCH  18  19
ATOM     19  C   UNL A   1      42.136  19.538  25.901  1.00  0.00     0.338 C 
ATOM     20  O   UNL A   1      41.091  18.995  25.591  1.00  0.00    -0.246 OA
BRANCH  19  21
ATOM     21  C   UNL A   1      42.208  20.866  26.558  1.00  0.00     0.060 A 
ATOM     22  C   UNL A   1      42.298  21.997  25.739  1.00  0.00     0.016 A 
ATOM     23  C   UNL A   1      42.152  21.012  27.949  1.00  0.00     0.016 A 
ATOM     24  C   UNL A   1      42.366  23.271  26.309  1.00  0.00     0.010 A 
ATOM     25  C   UNL A   1      42.215  22.290  28.517  1.00  0.00     0.010 A 
ATOM     26  C   UNL A   1      42.348  23.426  27.701  1.00  0.00    -0.014 A 
BRANCH  26  27
ATOM     27  C   UNL A   1      42.573  24.766  28.299  1.00  0.00     0.031 A 
ATOM     28  C   UNL A   1      43.945  25.131  28.796  1.00  0.00     0.074 A 
ATOM     29  C   UNL A   1      41.574  25.664  28.378  1.00  0.00     0.049 A 
ATOM     30  N   UNL A   1      44.368  26.257  29.315  1.00  0.00    -0.248 NA
ATOM     31  C   UNL A   1      44.979  24.089  28.696  1.00  0.00     0.031 C 
ATOM     32  C   UNL A   1      40.199  25.446  27.933  1.00  0.00     0.029 A 
ATOM     33  N   UNL A   1      41.570  26.948  28.868  1.00  0.00    -0.354 N 
ATOM     34  C   UNL A   1      45.717  26.067  29.584  1.00  0.00     0.074 A 
ATOM     35  C   UNL A   1      46.032  24.702  29.219  1.00  0.00     0.031 C 
ATOM     36  C   UNL A   1      39.481  26.558  28.175  1.00  0.00     0.029 A 
ATOM     37  C   UNL A   1      40.342  27.560  28.802  1.00  0.00     0.049 A 
ATOM     38  H   UNL A   1      42.371  27.388  29.233  1.00  0.00     0.167 HD
ATOM     39  C   UNL A   1      46.618  26.952  30.069  1.00  0.00     0.037 A 
ATOM     40  C   UNL A   1      39.957  28.787  29.205  1.00  0.00     0.037 A 
ATOM     41  C   UNL A   1      46.316  28.308  30.446  1.00  0.00     0.049 A 
ATOM     42  C   UNL A   1      40.969  29.731  29.802  1.00  0.00     0.074 A 
ATOM     43  C   UNL A   1      47.174  29.279  30.933  1.00  0.00     0.029 A 
ATOM     44  N   UNL A   1      45.057  28.881  30.385  1.00  0.00    -0.354 N 
ATOM     45  N   UNL A   1      42.253  29.557  29.996  1.00  0.00    -0.248 NA
ATOM     46  C   UNL A   1      40.473  31.050  30.227  1.00  0.00     0.031 C 
ATOM     47  C   UNL A   1      46.425  30.429  31.205  1.00  0.00     0.029 A 
ATOM     48  C   UNL A   1      45.110  30.186  30.848  1.00  0.00     0.049 A 
ATOM     49  H   UNL A   1      44.245  28.429  30.062  1.00  0.00     0.167 HD
ATOM     50  C   UNL A   1      42.721  30.750  30.535  1.00  0.00     0.074 A 
ATOM     51  C   UNL A   1      41.589  31.645  30.623  1.00  0.00     0.031 C 
ATOM     52  C   UNL A   1      43.979  31.074  30.924  1.00  0.00     0.037 A 
BRANCH  39  53
ATOM     53  C   UNL A   1      48.034  26.480  30.219  1.00  0.00     0.057 A 
ATOM     54  C   UNL A   1      48.990  26.713  29.223  1.00  0.00     0.134 A 
ATOM     55  C   UNL A   1      48.456  25.834  31.387  1.00  0.00     0.134 A 
ATOM     56  F   UNL A   1      48.643  27.316  28.075  1.00  0.00    -0.206 F 
ATOM     57  C   UNL A   1      50.317  26.308  29.378  1.00  0.00     0.040 A 
ATOM     58  C   UNL A   1      49.784  25.444  31.563  1.00  0.00     0.040 A 
ATOM     59  F   UNL A   1      47.588  25.585  32.379  1.00  0.00    -0.206 F 
ATOM     60  C   UNL A   1      50.718  25.679  30.555  1.00  0.00     0.006 A 
ENDBRANCH  39  53
BRANCH  40  61
ATOM     61  C   UNL A   1      38.542  29.212  29.063  1.00  0.00     0.057 A 
ATOM     62  C   UNL A   1      37.646  29.123  30.134  1.00  0.00     0.134 A 
ATOM     63  C   UNL A   1      38.039  29.656  27.834  1.00  0.00     0.134 A 
ATOM     64  F   UNL A   1      38.062  28.677  31.328  1.00  0.00    -0.206 F 
ATOM     65  C   UNL A   1      36.293  29.433  29.982  1.00  0.00     0.040 A 
ATOM     66  C   UNL A   1      36.694  29.993  27.674  1.00  0.00     0.040 A 
ATOM     67  F   UNL A   1      38.847  29.761  26.770  1.00  0.00    -0.206 F 
ATOM     68  C   UNL A   1      35.815  29.872  28.749  1.00  0.00     0.006 A 
ENDBRANCH  40  61
BRANCH  52  69
ATOM     69  C   UNL A   1      44.203  32.463  31.448  1.00  0.00     0.057 A 
ATOM     70  C   UNL A   1      44.120  32.760  32.814  1.00  0.00     0.134 A 
ATOM     71  C   UNL A   1      44.532  33.510  30.578  1.00  0.00     0.134 A 
ATOM     72  F   UNL A   1      43.797  31.803  33.699  1.00  0.00    -0.206 F 
ATOM     73  C   UNL A   1      44.330  34.053  33.294  1.00  0.00     0.040 A 
ATOM     74  C   UNL A   1      44.769  34.803  31.048  1.00  0.00     0.040 A 
ATOM     75  F   UNL A   1      44.637  33.294  29.258  1.00  0.00    -0.206 F 
ATOM     76  C   UNL A   1      44.661  35.079  32.410  1.00  0.00     0.006 A 
ENDBRANCH  52  69
ENDBRANCH  26  27
ENDBRANCH  19  21
ENDBRANCH  18  19
ENDBRANCH  17  18
ENDBRANCH   1  17
TORSDOF 13
ENDMDL
MODEL 3
REMARK VINA RESULT:      -9.3      5.721     10.772
REMARK SMILES O=C(CSc1ccc2ccccc2c1)OCCOC(=O)c1ccc(-c2c3nc(c(-c4c(F)cccc4F)c4ccc([nH]4)c(-c4c(F)cccc4F)c4nc(c(-c5c(F)cccc5F)c5ccc2[nH]5)C=C4)C=C3)cc1
REMARK SMILES IDX 16 1 15 2 2 3 1 4 3 5 4 6 5 7 6 8 14 9 7 10 13 11 8 12 12 13
REMARK SMILES IDX 9 14 11 15 10 16 17 17 18 18 19 19 20 20 21 21 22 22 74 23
REMARK SMILES IDX 23 24 73 25 24 26 25 27 26 28 67 29 27 30 72 31 66 32 68 33
REMARK SMILES IDX 28 34 71 35 65 36 64 37 29 39 55 40 38 41 54 42 39 43 42 44
REMARK SMILES IDX 53 45 69 46 40 47 41 48 52 50 70 51 43 52 30 53 31 54 36 55
REMARK SMILES IDX 32 56 33 57 35 58 37 59 34 60 56 61 57 62 62 63 58 64 59 65
REMARK SMILES IDX 61 66 63 67 60 68 44 69 45 70 50 71 46 72 47 73 49 74 51 75
REMARK SMILES IDX 48 76
REMARK H PARENT 68 38 42 49
REMARK Flexibility Score: inf
ROOT
ATOM      1  C   UNL A   1      33.383  36.445  32.118  1.00  0.00     0.274 C 
ENDROOT
BRANCH   1   2
ATOM      2  O   UNL A   1      34.586  35.667  32.302  1.00  0.00    -0.461 OA
BRANCH   2   3
ATOM      3  C   UNL A   1      34.961  35.070  33.460  1.00  0.00     0.316 C 
ATOM      4  O   UNL A   1      34.793  35.653  34.530  1.00  0.00    -0.251 OA
BRANCH   3   5
ATOM      5  C   UNL A   1      35.591  33.696  33.417  1.00  0.00     0.197 C 
BRANCH   5   6
ATOM      6  S   UNL A   1      36.812  33.450  34.736  1.00  0.00    -0.114 SA
BRANCH   6   7
ATOM      7  C   UNL A   1      37.581  31.959  34.145  1.00  0.00     0.008 A 
ATOM      8  C   UNL A   1      36.937  31.128  33.227  1.00  0.00     0.016 A 
ATOM      9  C   UNL A   1      38.848  31.616  34.621  1.00  0.00     0.023 A 
ATOM     10  C   UNL A   1      37.562  29.962  32.780  1.00  0.00     0.010 A 
ATOM     11  C   UNL A   1      39.488  30.449  34.182  1.00  0.00    -0.017 A 
ATOM     12  C   UNL A   1      38.835  29.608  33.251  1.00  0.00    -0.018 A 
ATOM     13  C   UNL A   1      40.764  30.103  34.650  1.00  0.00     0.009 A 
ATOM     14  C   UNL A   1      39.477  28.436  32.822  1.00  0.00     0.009 A 
ATOM     15  C   UNL A   1      41.388  28.935  34.214  1.00  0.00     0.001 A 
ATOM     16  C   UNL A   1      40.745  28.101  33.303  1.00  0.00     0.001 A 
ENDBRANCH   6   7
ENDBRANCH   5   6
ENDBRANCH   3   5
ENDBRANCH   2   3
ENDBRANCH   1   2
BRANCH   1  17
ATOM     17  C   UNL A   1      32.901  36.386  30.667  1.00  0.00     0.275 C 
BRANCH  17  18
ATOM     18  O   UNL A   1      32.583  35.027  30.313  1.00  0.00    -0.458 OA
BRANCH  18  19
ATOM     19  C   UNL A   1      33.020  34.616  29.095  1.00  0.00     0.338 C 
ATOM     20  O   UNL A   1      32.513  34.866  28.016  1.00  0.00    -0.246 OA
BRANCH  19  21
ATOM     21  C   UNL A   1      34.343  33.965  29.250  1.00  0.00     0.060 A 
ATOM     22  C   UNL A   1      34.430  32.851  30.093  1.00  0.00     0.016 A 
ATOM     23  C   UNL A   1      35.476  34.408  28.558  1.00  0.00     0.016 A 
ATOM     24  C   UNL A   1      35.654  32.201  30.271  1.00  0.00     0.010 A 
ATOM     25  C   UNL A   1      36.700  33.752  28.733  1.00  0.00     0.010 A 
ATOM     26  C   UNL A   1      36.802  32.659  29.611  1.00  0.00    -0.014 A 
BRANCH  26  27
ATOM     27  C   UNL A   1      38.124  32.058  29.922  1.00  0.00     0.031 A 
ATOM     28  C   UNL A   1      39.083  32.805  30.808  1.00  0.00     0.074 A 
ATOM     29  C   UNL A   1      38.461  30.847  29.444  1.00  0.00     0.049 A 
ATOM     30  N   UNL A   1      40.267  32.446  31.236  1.00  0.00    -0.248 NA
ATOM     31  C   UNL A   1      38.651  34.132  31.273  1.00  0.00     0.031 C 
ATOM     32  C   UNL A   1      37.629  30.013  28.579  1.00  0.00     0.029 A 
ATOM     33  N   UNL A   1      39.607  30.108  29.622  1.00  0.00    -0.354 N 
ATOM     34  C   UNL A   1      40.713  33.491  32.035  1.00  0.00     0.074 A 
ATOM     35  C   UNL A   1      39.695  34.519  31.992  1.00  0.00     0.031 C 
ATOM     36  C   UNL A   1      38.294  28.877  28.297  1.00  0.00     0.029 A 
ATOM     37  C   UNL A   1      39.601  28.910  28.952  1.00  0.00     0.049 A 
ATOM     38  H   UNL A   1      40.360  30.410  30.179  1.00  0.00     0.167 HD
ATOM     39  C   UNL A   1      41.854  33.580  32.757  1.00  0.00     0.037 A 
ATOM     40  C   UNL A   1      40.545  27.952  28.872  1.00  0.00     0.037 A 
ATOM     41  C   UNL A   1      42.879  32.570  32.800  1.00  0.00     0.049 A 
ATOM     42  C   UNL A   1      41.835  28.105  29.635  1.00  0.00     0.074 A 
ATOM     43  C   UNL A   1      44.063  32.572  33.518  1.00  0.00     0.029 A 
ATOM     44  N   UNL A   1      42.846  31.382  32.088  1.00  0.00    -0.354 N 
ATOM     45  N   UNL A   1      42.217  29.073  30.433  1.00  0.00    -0.248 NA
ATOM     46  C   UNL A   1      42.822  27.023  29.493  1.00  0.00     0.031 C 
ATOM     47  C   UNL A   1      44.764  31.402  33.210  1.00  0.00     0.029 A 
ATOM     48  C   UNL A   1      43.999  30.654  32.333  1.00  0.00     0.049 A 
ATOM     49  H   UNL A   1      42.113  31.098  31.496  1.00  0.00     0.167 HD
ATOM     50  C   UNL A   1      43.470  28.701  30.908  1.00  0.00     0.074 A 
ATOM     51  C   UNL A   1      43.777  27.415  30.323  1.00  0.00     0.031 C 
ATOM     52  C   UNL A   1      44.293  29.369  31.754  1.00  0.00     0.037 A 
BRANCH  39  53
ATOM     53  C   UNL A   1      42.058  34.822  33.572  1.00  0.00     0.057 A 
ATOM     54  C   UNL A   1      41.599  34.911  34.893  1.00  0.00     0.134 A 
ATOM     55  C   UNL A   1      42.760  35.916  33.052  1.00  0.00     0.134 A 
ATOM     56  F   UNL A   1      40.908  33.901  35.442  1.00  0.00    -0.206 F 
ATOM     57  C   UNL A   1      41.822  36.052  35.665  1.00  0.00     0.040 A 
ATOM     58  C   UNL A   1      43.007  37.053  33.821  1.00  0.00     0.040 A 
ATOM     59  F   UNL A   1      43.227  35.889  31.795  1.00  0.00    -0.206 F 
ATOM     60  C   UNL A   1      42.535  37.124  35.131  1.00  0.00     0.006 A 
ENDBRANCH  39  53
BRANCH  40  61
ATOM     61  C   UNL A   1      40.319  26.746  28.036  1.00  0.00     0.057 A 
ATOM     62  C   UNL A   1      40.862  26.641  26.750  1.00  0.00     0.134 A 
ATOM     63  C   UNL A   1      39.502  25.699  28.480  1.00  0.00     0.134 A 
ATOM     64  F   UNL A   1      41.629  27.626  26.259  1.00  0.00    -0.206 F 
ATOM     65  C   UNL A   1      40.578  25.553  25.924  1.00  0.00     0.040 A 
ATOM     66  C   UNL A   1      39.230  24.593  27.674  1.00  0.00     0.040 A 
ATOM     67  F   UNL A   1      38.952  25.742  29.701  1.00  0.00    -0.206 F 
ATOM     68  C   UNL A   1      39.761  24.523  26.387  1.00  0.00     0.006 A 
ENDBRANCH  40  61
BRANCH  52  69
ATOM     69  C   UNL A   1      45.589  28.706  32.122  1.00  0.00     0.057 A 
ATOM     70  C   UNL A   1      46.765  28.926  31.395  1.00  0.00     0.134 A 
ATOM     71  C   UNL A   1      45.666  27.858  33.234  1.00  0.00     0.134 A 
ATOM     72  F   UNL A   1      46.756  29.719  30.312  1.00  0.00    -0.206 F 
ATOM     73  C   UNL A   1      47.966  28.307  31.744  1.00  0.00     0.040 A 
ATOM     74  C   UNL A   1      46.866  27.251  33.608  1.00  0.00     0.040 A 
ATOM     75  F   UNL A   1      44.579  27.610  33.980  1.00  0.00    -0.206 F 
ATOM     76  C   UNL A   1      48.020  27.470  32.858  1.00  0.00     0.006 A 
ENDBRANCH  52  69
ENDBRANCH  26  27
ENDBRANCH  19  21
ENDBRANCH  18  19
ENDBRANCH  17  18
ENDBRANCH   1  17
TORSDOF 13
ENDMDL
