MODEL 1
REMARK VINA RESULT:     -12.1      0.000      0.000
REMARK SMILES Cc1c(C(=O)OCCOC(=O)c2ccc(-c3c4nc(c(-c5c(F)cccc5F)c5ccc([nH]5)c(-c5c(F)cccc5F)c5nc(c(-c6c(F)cccc6F)c6ccc3[nH]6)C=C5)C=C4)cc2)sc2c1=C(CSc1nncn1-c1ccccc1)CC(=O)N=2
REMARK SMILES IDX 7 1 6 2 4 3 5 4 3 5 1 6 2 7 68 8 66 9 67 10 69 11 86 12
REMARK SMILES IDX 83 13 84 14 85 15 70 16 71 17 72 18 73 19 76 20 74 21 75 22
REMARK SMILES IDX 77 23 78 24 82 25 79 26 81 27 80 28 8 29 9 30 10 31 11 32
REMARK SMILES IDX 12 33 13 34 65 35 14 36 64 37 15 38 16 39 17 40 58 41 18 42
REMARK SMILES IDX 63 43 57 44 59 45 19 46 62 47 56 48 55 49 20 51 46 52 29 53
REMARK SMILES IDX 45 54 30 55 33 56 44 57 60 58 31 59 32 60 43 62 61 63 34 64
REMARK SMILES IDX 21 65 22 66 27 67 23 68 24 69 26 70 28 71 25 72 47 73 48 74
REMARK SMILES IDX 53 75 49 76 50 77 52 78 54 79 51 80 35 81 36 82 41 83 37 84
REMARK SMILES IDX 38 85 40 86 42 87 39 88
REMARK H PARENT 59 50 33 61
REMARK Flexibility Score: inf
ROOT
ATOM      1  C   UNL A   1      41.371  20.183  26.839  1.00  0.00     0.275 C 
ENDROOT
BRANCH   1   2
ATOM      2  O   UNL A   1      40.246  20.320  25.952  1.00  0.00    -0.458 OA
BRANCH   2   3
ATOM      3  C   UNL A   1      39.663  21.546  25.915  1.00  0.00     0.348 C 
ATOM      4  O   UNL A   1      40.262  22.601  26.084  1.00  0.00    -0.245 OA
BRANCH   3   5
ATOM      5  C   UNL A   1      38.209  21.469  25.580  1.00  0.00     0.118 A 
ATOM      6  C   UNL A   1      37.237  23.722  26.351  1.00  0.00     0.047 C 
ATOM      7  C   UNL A   1      37.221  22.384  25.685  1.00  0.00    -0.016 A 
ATOM      8  C   UNL A   1      35.923  21.856  25.313  1.00  0.00     0.016 A 
ATOM      9  S   UNL A   1      37.620  19.874  25.096  1.00  0.00    -0.108 S 
ATOM     10  C   UNL A   1      35.945  20.383  25.092  1.00  0.00     0.128 A 
ATOM     11  C   UNL A   1      34.834  22.375  24.709  1.00  0.00    -0.040 C 
ATOM     12  N   UNL A   1      34.965  19.589  24.859  1.00  0.00    -0.202 NA
ATOM     13  C   UNL A   1      33.561  21.643  25.096  1.00  0.00     0.135 C 
ATOM     14  C   UNL A   1      33.699  20.148  24.797  1.00  0.00     0.251 C 
ATOM     15  O   UNL A   1      32.703  19.492  24.542  1.00  0.00    -0.272 OA
BRANCH  11  16
ATOM     16  C   UNL A   1      34.753  22.829  23.252  1.00  0.00     0.110 C 
BRANCH  16  17
ATOM     17  S   UNL A   1      33.136  22.893  22.485  1.00  0.00    -0.081 SA
BRANCH  17  18
ATOM     18  C   UNL A   1      33.157  24.484  21.798  1.00  0.00     0.195 A 
ATOM     19  N   UNL A   1      33.226  24.739  20.510  1.00  0.00    -0.123 NA
ATOM     20  N   UNL A   1      32.846  25.636  22.497  1.00  0.00    -0.277 N 
ATOM     21  N   UNL A   1      32.898  26.057  20.325  1.00  0.00    -0.138 NA
ATOM     22  C   UNL A   1      32.642  26.569  21.508  1.00  0.00     0.231 A 
BRANCH  20  23
ATOM     23  C   UNL A   1      32.607  25.803  23.885  1.00  0.00     0.049 A 
ATOM     24  C   UNL A   1      31.299  25.806  24.389  1.00  0.00     0.027 A 
ATOM     25  C   UNL A   1      33.681  26.071  24.742  1.00  0.00     0.027 A 
ATOM     26  C   UNL A   1      31.061  26.171  25.712  1.00  0.00     0.002 A 
ATOM     27  C   UNL A   1      33.431  26.453  26.060  1.00  0.00     0.002 A 
ATOM     28  C   UNL A   1      32.124  26.521  26.539  1.00  0.00     0.000 A 
ENDBRANCH  20  23
ENDBRANCH  17  18
ENDBRANCH  16  17
ENDBRANCH  11  16
ENDBRANCH   3   5
ENDBRANCH   2   3
ENDBRANCH   1   2
BRANCH   1  29
ATOM     29  C   UNL A   1      42.572  19.576  26.130  1.00  0.00     0.275 C 
BRANCH  29  30
ATOM     30  O   UNL A   1      43.003  20.362  25.020  1.00  0.00    -0.458 OA
BRANCH  30  31
ATOM     31  C   UNL A   1      44.269  20.825  25.117  1.00  0.00     0.338 C 
ATOM     32  O   UNL A   1      45.300  20.170  25.071  1.00  0.00    -0.246 OA
BRANCH  31  33
ATOM     33  C   UNL A   1      44.235  22.226  25.558  1.00  0.00     0.060 A 
ATOM     34  C   UNL A   1      44.834  22.528  26.785  1.00  0.00     0.016 A 
ATOM     35  C   UNL A   1      43.429  23.159  24.889  1.00  0.00     0.016 A 
ATOM     36  C   UNL A   1      44.538  23.734  27.391  1.00  0.00     0.010 A 
ATOM     37  C   UNL A   1      43.126  24.357  25.501  1.00  0.00     0.010 A 
ATOM     38  C   UNL A   1      43.648  24.616  26.767  1.00  0.00    -0.014 A 
BRANCH  38  39
ATOM     39  C   UNL A   1      43.394  25.891  27.411  1.00  0.00     0.031 A 
ATOM     40  C   UNL A   1      44.397  26.937  27.085  1.00  0.00     0.074 A 
ATOM     41  C   UNL A   1      42.278  26.155  28.115  1.00  0.00     0.049 A 
ATOM     42  N   UNL A   1      45.164  27.584  27.897  1.00  0.00    -0.248 NA
ATOM     43  C   UNL A   1      44.652  27.213  25.661  1.00  0.00     0.031 C 
ATOM     44  C   UNL A   1      41.081  25.322  28.251  1.00  0.00     0.029 A 
ATOM     45  N   UNL A   1      41.939  27.296  28.775  1.00  0.00    -0.354 N 
ATOM     46  C   UNL A   1      45.875  28.483  27.106  1.00  0.00     0.074 A 
ATOM     47  C   UNL A   1      45.635  28.110  25.738  1.00  0.00     0.031 C 
ATOM     48  C   UNL A   1      40.078  26.070  28.761  1.00  0.00     0.029 A 
ATOM     49  C   UNL A   1      40.591  27.390  29.093  1.00  0.00     0.049 A 
ATOM     50  H   UNL A   1      42.593  27.993  29.009  1.00  0.00     0.167 HD
ATOM     51  C   UNL A   1      46.414  29.613  27.635  1.00  0.00     0.037 A 
ATOM     52  C   UNL A   1      39.940  28.499  29.522  1.00  0.00     0.037 A 
ATOM     53  C   UNL A   1      46.588  29.497  29.060  1.00  0.00     0.049 A 
ATOM     54  C   UNL A   1      40.957  29.454  30.029  1.00  0.00     0.074 A 
ATOM     55  C   UNL A   1      47.278  28.632  29.888  1.00  0.00     0.029 A 
ATOM     56  N   UNL A   1      45.713  30.170  29.874  1.00  0.00    -0.354 N 
ATOM     57  N   UNL A   1      41.639  29.289  31.126  1.00  0.00    -0.248 NA
ATOM     58  C   UNL A   1      41.511  30.421  29.091  1.00  0.00     0.031 C 
ATOM     59  C   UNL A   1      46.454  28.489  31.043  1.00  0.00     0.029 A 
ATOM     60  C   UNL A   1      45.337  29.307  30.868  1.00  0.00     0.049 A 
ATOM     61  H   UNL A   1      45.412  31.101  29.764  1.00  0.00     0.167 HD
ATOM     62  C   UNL A   1      42.902  29.779  30.831  1.00  0.00     0.074 A 
ATOM     63  C   UNL A   1      42.731  30.564  29.612  1.00  0.00     0.031 C 
ATOM     64  C   UNL A   1      44.013  29.271  31.439  1.00  0.00     0.037 A 
BRANCH  51  65
ATOM     65  C   UNL A   1      46.404  30.947  26.927  1.00  0.00     0.057 A 
ATOM     66  C   UNL A   1      47.582  31.714  26.901  1.00  0.00     0.134 A 
ATOM     67  C   UNL A   1      45.232  31.640  26.556  1.00  0.00     0.134 A 
ATOM     68  F   UNL A   1      48.763  31.174  27.241  1.00  0.00    -0.206 F 
ATOM     69  C   UNL A   1      47.579  33.086  26.623  1.00  0.00     0.040 A 
ATOM     70  C   UNL A   1      45.226  32.997  26.224  1.00  0.00     0.040 A 
ATOM     71  F   UNL A   1      44.018  31.078  26.592  1.00  0.00    -0.206 F 
ATOM     72  C   UNL A   1      46.395  33.734  26.294  1.00  0.00     0.006 A 
ENDBRANCH  51  65
BRANCH  52  73
ATOM     73  C   UNL A   1      38.535  28.907  29.289  1.00  0.00     0.057 A 
ATOM     74  C   UNL A   1      37.629  29.017  30.353  1.00  0.00     0.134 A 
ATOM     75  C   UNL A   1      38.117  29.459  28.065  1.00  0.00     0.134 A 
ATOM     76  F   UNL A   1      37.946  28.555  31.571  1.00  0.00    -0.206 F 
ATOM     77  C   UNL A   1      36.393  29.663  30.217  1.00  0.00     0.040 A 
ATOM     78  C   UNL A   1      36.882  30.097  27.913  1.00  0.00     0.040 A 
ATOM     79  F   UNL A   1      38.928  29.481  26.998  1.00  0.00    -0.206 F 
ATOM     80  C   UNL A   1      36.021  30.216  28.996  1.00  0.00     0.006 A 
ENDBRANCH  52  73
BRANCH  64  81
ATOM     81  C   UNL A   1      43.817  28.391  32.640  1.00  0.00     0.057 A 
ATOM     82  C   UNL A   1      43.633  28.870  33.946  1.00  0.00     0.134 A 
ATOM     83  C   UNL A   1      43.667  27.014  32.443  1.00  0.00     0.134 A 
ATOM     84  F   UNL A   1      43.656  30.182  34.214  1.00  0.00    -0.206 F 
ATOM     85  C   UNL A   1      43.362  28.010  35.014  1.00  0.00     0.040 A 
ATOM     86  C   UNL A   1      43.360  26.148  33.495  1.00  0.00     0.040 A 
ATOM     87  F   UNL A   1      43.772  26.491  31.211  1.00  0.00    -0.206 F 
ATOM     88  C   UNL A   1      43.218  26.644  34.789  1.00  0.00     0.006 A 
ENDBRANCH  64  81
ENDBRANCH  38  39
ENDBRANCH  31  33
ENDBRANCH  30  31
ENDBRANCH  29  30
ENDBRANCH   1  29
TORSDOF 15
ENDMDL
MODEL 2
REMARK VINA RESULT:     -12.1      2.550      3.638
REMARK SMILES Cc1c(C(=O)OCCOC(=O)c2ccc(-c3c4nc(c(-c5c(F)cccc5F)c5ccc([nH]5)c(-c5c(F)cccc5F)c5nc(c(-c6c(F)cccc6F)c6ccc3[nH]6)C=C5)C=C4)cc2)sc2c1=C(CSc1nncn1-c1ccccc1)CC(=O)N=2
REMARK SMILES IDX 7 1 6 2 4 3 5 4 3 5 1 6 2 7 68 8 66 9 67 10 69 11 86 12
REMARK SMILES IDX 83 13 84 14 85 15 70 16 71 17 72 18 73 19 76 20 74 21 75 22
REMARK SMILES IDX 77 23 78 24 82 25 79 26 81 27 80 28 8 29 9 30 10 31 11 32
REMARK SMILES IDX 12 33 13 34 65 35 14 36 64 37 15 38 16 39 17 40 58 41 18 42
REMARK SMILES IDX 63 43 57 44 59 45 19 46 62 47 56 48 55 49 20 51 46 52 29 53
REMARK SMILES IDX 45 54 30 55 33 56 44 57 60 58 31 59 32 60 43 62 61 63 34 64
REMARK SMILES IDX 21 65 22 66 27 67 23 68 24 69 26 70 28 71 25 72 47 73 48 74
REMARK SMILES IDX 53 75 49 76 50 77 52 78 54 79 51 80 35 81 36 82 41 83 37 84
REMARK SMILES IDX 38 85 40 86 42 87 39 88
REMARK H PARENT 59 50 33 61
REMARK Flexibility Score: inf
ROOT
ATOM      1  C   UNL A   1      37.739  22.454  25.465  1.00  0.00     0.275 C 
ENDROOT
BRANCH   1   2
ATOM      2  O   UNL A   1      36.748  21.775  24.672  1.00  0.00    -0.458 OA
BRANCH   2   3
ATOM      3  C   UNL A   1      36.015  22.556  23.838  1.00  0.00     0.348 C 
ATOM      4  O   UNL A   1      36.403  22.953  22.746  1.00  0.00    -0.245 OA
BRANCH   3   5
ATOM      5  C   UNL A   1      34.648  22.827  24.376  1.00  0.00     0.118 A 
ATOM      6  C   UNL A   1      34.784  25.203  25.349  1.00  0.00     0.047 C 
ATOM      7  C   UNL A   1      34.112  23.937  24.928  1.00  0.00    -0.016 A 
ATOM      8  C   UNL A   1      32.752  23.736  25.389  1.00  0.00     0.016 A 
ATOM      9  S   UNL A   1      33.564  21.432  24.447  1.00  0.00    -0.108 S 
ATOM     10  C   UNL A   1      32.331  22.308  25.328  1.00  0.00     0.128 A 
ATOM     11  C   UNL A   1      31.653  24.516  25.448  1.00  0.00    -0.040 C 
ATOM     12  N   UNL A   1      31.247  21.769  25.751  1.00  0.00    -0.202 NA
ATOM     13  C   UNL A   1      30.695  24.076  26.541  1.00  0.00     0.135 C 
ATOM     14  C   UNL A   1      30.319  22.603  26.352  1.00  0.00     0.251 C 
ATOM     15  O   UNL A   1      29.239  22.203  26.754  1.00  0.00    -0.272 OA
BRANCH  11  16
ATOM     16  C   UNL A   1      30.868  25.043  24.248  1.00  0.00     0.110 C 
BRANCH  16  17
ATOM     17  S   UNL A   1      31.793  25.778  22.902  1.00  0.00    -0.081 SA
BRANCH  17  18
ATOM     18  C   UNL A   1      31.103  27.367  22.852  1.00  0.00     0.195 A 
ATOM     19  N   UNL A   1      30.177  27.752  22.001  1.00  0.00    -0.123 NA
ATOM     20  N   UNL A   1      31.256  28.312  23.851  1.00  0.00    -0.277 N 
ATOM     21  N   UNL A   1      29.654  28.933  22.456  1.00  0.00    -0.138 NA
ATOM     22  C   UNL A   1      30.278  29.237  23.572  1.00  0.00     0.231 A 
BRANCH  20  23
ATOM     23  C   UNL A   1      32.085  28.271  25.001  1.00  0.00     0.049 A 
ATOM     24  C   UNL A   1      31.536  28.040  26.269  1.00  0.00     0.027 A 
ATOM     25  C   UNL A   1      33.447  28.570  24.878  1.00  0.00     0.027 A 
ATOM     26  C   UNL A   1      32.320  28.203  27.409  1.00  0.00     0.002 A 
ATOM     27  C   UNL A   1      34.220  28.748  26.026  1.00  0.00     0.002 A 
ATOM     28  C   UNL A   1      33.653  28.584  27.289  1.00  0.00     0.000 A 
ENDBRANCH  20  23
ENDBRANCH  17  18
ENDBRANCH  16  17
ENDBRANCH  11  16
ENDBRANCH   3   5
ENDBRANCH   2   3
ENDBRANCH   1   2
BRANCH   1  29
ATOM     29  C   UNL A   1      38.932  21.557  25.758  1.00  0.00     0.275 C 
BRANCH  29  30
ATOM     30  O   UNL A   1      39.689  22.008  26.881  1.00  0.00    -0.458 OA
BRANCH  30  31
ATOM     31  C   UNL A   1      40.720  22.825  26.571  1.00  0.00     0.338 C 
ATOM     32  O   UNL A   1      41.705  22.550  25.901  1.00  0.00    -0.246 OA
BRANCH  31  33
ATOM     33  C   UNL A   1      40.627  24.046  27.383  1.00  0.00     0.060 A 
ATOM     34  C   UNL A   1      39.601  24.945  27.077  1.00  0.00     0.016 A 
ATOM     35  C   UNL A   1      41.667  24.394  28.259  1.00  0.00     0.016 A 
ATOM     36  C   UNL A   1      39.674  26.233  27.572  1.00  0.00     0.010 A 
ATOM     37  C   UNL A   1      41.744  25.684  28.741  1.00  0.00     0.010 A 
ATOM     38  C   UNL A   1      40.771  26.604  28.358  1.00  0.00    -0.014 A 
BRANCH  38  39
ATOM     39  C   UNL A   1      40.794  27.952  28.895  1.00  0.00     0.031 A 
ATOM     40  C   UNL A   1      41.889  28.795  28.351  1.00  0.00     0.074 A 
ATOM     41  C   UNL A   1      39.831  28.446  29.695  1.00  0.00     0.049 A 
ATOM     42  N   UNL A   1      42.843  29.376  28.998  1.00  0.00    -0.248 NA
ATOM     43  C   UNL A   1      41.994  28.910  26.886  1.00  0.00     0.031 C 
ATOM     44  C   UNL A   1      38.553  27.828  30.052  1.00  0.00     0.029 A 
ATOM     45  N   UNL A   1      39.753  29.677  30.271  1.00  0.00    -0.354 N 
ATOM     46  C   UNL A   1      43.569  30.083  28.043  1.00  0.00     0.074 A 
ATOM     47  C   UNL A   1      43.100  29.642  26.757  1.00  0.00     0.031 C 
ATOM     48  C   UNL A   1      37.746  28.765  30.597  1.00  0.00     0.029 A 
ATOM     49  C   UNL A   1      38.487  30.010  30.732  1.00  0.00     0.049 A 
ATOM     50  H   UNL A   1      40.527  30.278  30.355  1.00  0.00     0.167 HD
ATOM     51  C   UNL A   1      44.333  31.153  28.389  1.00  0.00     0.037 A 
ATOM     52  C   UNL A   1      38.068  31.239  31.120  1.00  0.00     0.037 A 
ATOM     53  C   UNL A   1      44.673  31.127  29.788  1.00  0.00     0.049 A 
ATOM     54  C   UNL A   1      39.272  32.059  31.406  1.00  0.00     0.074 A 
ATOM     55  C   UNL A   1      45.330  30.235  30.613  1.00  0.00     0.029 A 
ATOM     56  N   UNL A   1      44.020  31.996  30.626  1.00  0.00    -0.354 N 
ATOM     57  N   UNL A   1      40.060  31.878  32.427  1.00  0.00    -0.248 NA
ATOM     58  C   UNL A   1      39.835  32.845  30.317  1.00  0.00     0.031 C 
ATOM     59  C   UNL A   1      44.652  30.320  31.865  1.00  0.00     0.029 A 
ATOM     60  C   UNL A   1      43.655  31.287  31.739  1.00  0.00     0.049 A 
ATOM     61  H   UNL A   1      43.848  32.950  30.458  1.00  0.00     0.167 HD
ATOM     62  C   UNL A   1      41.332  32.136  31.939  1.00  0.00     0.074 A 
ATOM     63  C   UNL A   1      41.121  32.835  30.675  1.00  0.00     0.031 C 
ATOM     64  C   UNL A   1      42.425  31.509  32.461  1.00  0.00     0.037 A 
BRANCH  51  65
ATOM     65  C   UNL A   1      44.427  32.409  27.556  1.00  0.00     0.057 A 
ATOM     66  C   UNL A   1      45.490  32.545  26.644  1.00  0.00     0.134 A 
ATOM     67  C   UNL A   1      43.720  33.598  27.831  1.00  0.00     0.134 A 
ATOM     68  F   UNL A   1      46.246  31.489  26.306  1.00  0.00    -0.206 F 
ATOM     69  C   UNL A   1      45.880  33.784  26.126  1.00  0.00     0.040 A 
ATOM     70  C   UNL A   1      44.068  34.833  27.275  1.00  0.00     0.040 A 
ATOM     71  F   UNL A   1      42.726  33.659  28.724  1.00  0.00    -0.206 F 
ATOM     72  C   UNL A   1      45.174  34.936  26.450  1.00  0.00     0.006 A 
ENDBRANCH  51  65
BRANCH  52  73
ATOM     73  C   UNL A   1      36.721  31.845  31.012  1.00  0.00     0.057 A 
ATOM     74  C   UNL A   1      35.942  32.082  32.153  1.00  0.00     0.134 A 
ATOM     75  C   UNL A   1      36.274  32.453  29.825  1.00  0.00     0.134 A 
ATOM     76  F   UNL A   1      36.301  31.578  33.343  1.00  0.00    -0.206 F 
ATOM     77  C   UNL A   1      34.803  32.899  32.124  1.00  0.00     0.040 A 
ATOM     78  C   UNL A   1      35.134  33.262  29.780  1.00  0.00     0.040 A 
ATOM     79  F   UNL A   1      36.978  32.360  28.688  1.00  0.00    -0.206 F 
ATOM     80  C   UNL A   1      34.403  33.501  30.936  1.00  0.00     0.006 A 
ENDBRANCH  52  73
BRANCH  64  81
ATOM     81  C   UNL A   1      42.261  30.773  33.760  1.00  0.00     0.057 A 
ATOM     82  C   UNL A   1      42.384  31.369  35.024  1.00  0.00     0.134 A 
ATOM     83  C   UNL A   1      41.821  29.445  33.725  1.00  0.00     0.134 A 
ATOM     84  F   UNL A   1      42.699  32.664  35.154  1.00  0.00    -0.206 F 
ATOM     85  C   UNL A   1      42.128  30.658  36.200  1.00  0.00     0.040 A 
ATOM     86  C   UNL A   1      41.528  28.735  34.891  1.00  0.00     0.040 A 
ATOM     87  F   UNL A   1      41.626  28.827  32.549  1.00  0.00    -0.206 F 
ATOM     88  C   UNL A   1      41.693  29.338  36.136  1.00  0.00     0.006 A 
ENDBRANCH  64  81
ENDBRANCH  38  39
ENDBRANCH  31  33
ENDBRANCH  30  31
ENDBRANCH  29  30
ENDBRANCH   1  29
TORSDOF 15
ENDMDL
MODEL 3
REMARK VINA RESULT:     -12.0      3.174      8.149
REMARK SMILES Cc1c(C(=O)OCCOC(=O)c2ccc(-c3c4nc(c(-c5c(F)cccc5F)c5ccc([nH]5)c(-c5c(F)cccc5F)c5nc(c(-c6c(F)cccc6F)c6ccc3[nH]6)C=C5)C=C4)cc2)sc2c1=C(CSc1nncn1-c1ccccc1)CC(=O)N=2
REMARK SMILES IDX 7 1 6 2 4 3 5 4 3 5 1 6 2 7 68 8 66 9 67 10 69 11 86 12
REMARK SMILES IDX 83 13 84 14 85 15 70 16 71 17 72 18 73 19 76 20 74 21 75 22
REMARK SMILES IDX 77 23 78 24 82 25 79 26 81 27 80 28 8 29 9 30 10 31 11 32
REMARK SMILES IDX 12 33 13 34 65 35 14 36 64 37 15 38 16 39 17 40 58 41 18 42
REMARK SMILES IDX 63 43 57 44 59 45 19 46 62 47 56 48 55 49 20 51 46 52 29 53
REMARK SMILES IDX 45 54 30 55 33 56 44 57 60 58 31 59 32 60 43 62 61 63 34 64
REMARK SMILES IDX 21 65 22 66 27 67 23 68 24 69 26 70 28 71 25 72 47 73 48 74
REMARK SMILES IDX 53 75 49 76 50 77 52 78 54 79 51 80 35 81 36 82 41 83 37 84
REMARK SMILES IDX 38 85 40 86 42 87 39 88
REMARK H PARENT 59 50 33 61
REMARK Flexibility Score: inf
ROOT
ATOM      1  C   UNL A   1      31.830  30.487  25.995  1.00  0.00     0.275 C 
ENDROOT
BRANCH   1   2
ATOM      2  O   UNL A   1      32.527  29.755  24.971  1.00  0.00    -0.458 OA
BRANCH   2   3
ATOM      3  C   UNL A   1      31.826  28.760  24.368  1.00  0.00     0.348 C 
ATOM      4  O   UNL A   1      30.730  28.910  23.840  1.00  0.00    -0.245 OA
BRANCH   3   5
ATOM      5  C   UNL A   1      32.573  27.466  24.365  1.00  0.00     0.118 A 
ATOM      6  C   UNL A   1      33.514  27.245  26.748  1.00  0.00     0.047 C 
ATOM      7  C   UNL A   1      33.204  26.799  25.356  1.00  0.00    -0.016 A 
ATOM      8  C   UNL A   1      33.873  25.601  24.890  1.00  0.00     0.016 A 
ATOM      9  S   UNL A   1      32.813  26.727  22.778  1.00  0.00    -0.108 S 
ATOM     10  C   UNL A   1      33.878  25.487  23.405  1.00  0.00     0.128 A 
ATOM     11  C   UNL A   1      34.105  24.384  25.424  1.00  0.00    -0.040 C 
ATOM     12  N   UNL A   1      34.466  24.620  22.664  1.00  0.00    -0.202 NA
ATOM     13  C   UNL A   1      35.336  23.722  24.830  1.00  0.00     0.135 C 
ATOM     14  C   UNL A   1      35.207  23.641  23.306  1.00  0.00     0.251 C 
ATOM     15  O   UNL A   1      35.774  22.745  22.702  1.00  0.00    -0.272 OA
BRANCH  11  16
ATOM     16  C   UNL A   1      33.044  23.330  25.736  1.00  0.00     0.110 C 
BRANCH  16  17
ATOM     17  S   UNL A   1      33.535  21.609  25.685  1.00  0.00    -0.081 SA
BRANCH  17  18
ATOM     18  C   UNL A   1      32.685  21.062  24.277  1.00  0.00     0.195 A 
ATOM     19  N   UNL A   1      32.180  21.854  23.356  1.00  0.00    -0.123 NA
ATOM     20  N   UNL A   1      32.672  19.751  23.838  1.00  0.00    -0.277 N 
ATOM     21  N   UNL A   1      31.880  21.086  22.262  1.00  0.00    -0.138 NA
ATOM     22  C   UNL A   1      32.208  19.847  22.548  1.00  0.00     0.231 A 
BRANCH  20  23
ATOM     23  C   UNL A   1      33.181  18.589  24.475  1.00  0.00     0.049 A 
ATOM     24  C   UNL A   1      34.506  18.184  24.266  1.00  0.00     0.027 A 
ATOM     25  C   UNL A   1      32.321  17.787  25.233  1.00  0.00     0.027 A 
ATOM     26  C   UNL A   1      34.937  16.942  24.727  1.00  0.00     0.002 A 
ATOM     27  C   UNL A   1      32.756  16.537  25.675  1.00  0.00     0.002 A 
ATOM     28  C   UNL A   1      34.054  16.108  25.406  1.00  0.00     0.000 A 
ENDBRANCH  20  23
ENDBRANCH  17  18
ENDBRANCH  16  17
ENDBRANCH  11  16
ENDBRANCH   3   5
ENDBRANCH   2   3
ENDBRANCH   1   2
BRANCH   1  29
ATOM     29  C   UNL A   1      32.686  30.659  27.241  1.00  0.00     0.275 C 
BRANCH  29  30
ATOM     30  O   UNL A   1      34.082  30.687  26.943  1.00  0.00    -0.458 OA
BRANCH  30  31
ATOM     31  C   UNL A   1      34.785  31.608  27.638  1.00  0.00     0.338 C 
ATOM     32  O   UNL A   1      34.632  32.820  27.622  1.00  0.00    -0.246 OA
BRANCH  31  33
ATOM     33  C   UNL A   1      35.963  30.963  28.234  1.00  0.00     0.060 A 
ATOM     34  C   UNL A   1      36.971  31.796  28.728  1.00  0.00     0.016 A 
ATOM     35  C   UNL A   1      36.162  29.582  28.089  1.00  0.00     0.016 A 
ATOM     36  C   UNL A   1      38.218  31.257  28.981  1.00  0.00     0.010 A 
ATOM     37  C   UNL A   1      37.410  29.047  28.330  1.00  0.00     0.010 A 
ATOM     38  C   UNL A   1      38.439  29.897  28.732  1.00  0.00    -0.014 A 
BRANCH  38  39
ATOM     39  C   UNL A   1      39.748  29.355  29.049  1.00  0.00     0.031 A 
ATOM     40  C   UNL A   1      40.053  29.339  30.502  1.00  0.00     0.074 A 
ATOM     41  C   UNL A   1      40.551  28.780  28.136  1.00  0.00     0.049 A 
ATOM     42  N   UNL A   1      41.027  29.923  31.117  1.00  0.00    -0.248 NA
ATOM     43  C   UNL A   1      39.083  28.681  31.394  1.00  0.00     0.031 C 
ATOM     44  C   UNL A   1      40.241  28.455  26.742  1.00  0.00     0.029 A 
ATOM     45  N   UNL A   1      41.796  28.257  28.308  1.00  0.00    -0.354 N 
ATOM     46  C   UNL A   1      40.900  29.557  32.454  1.00  0.00     0.074 A 
ATOM     47  C   UNL A   1      39.615  28.925  32.591  1.00  0.00     0.031 C 
ATOM     48  C   UNL A   1      41.181  27.607  26.267  1.00  0.00     0.029 A 
ATOM     49  C   UNL A   1      42.210  27.424  27.278  1.00  0.00     0.049 A 
ATOM     50  H   UNL A   1      42.355  28.455  29.093  1.00  0.00     0.167 HD
ATOM     51  C   UNL A   1      41.967  29.588  33.298  1.00  0.00     0.037 A 
ATOM     52  C   UNL A   1      43.279  26.590  27.297  1.00  0.00     0.037 A 
ATOM     53  C   UNL A   1      43.001  30.460  32.806  1.00  0.00     0.049 A 
ATOM     54  C   UNL A   1      44.183  27.035  28.387  1.00  0.00     0.074 A 
ATOM     55  C   UNL A   1      43.067  31.800  32.474  1.00  0.00     0.029 A 
ATOM     56  N   UNL A   1      44.123  29.888  32.262  1.00  0.00    -0.354 N 
ATOM     57  N   UNL A   1      44.889  28.128  28.356  1.00  0.00    -0.248 NA
ATOM     58  C   UNL A   1      43.994  26.453  29.709  1.00  0.00     0.031 C 
ATOM     59  C   UNL A   1      43.953  31.862  31.358  1.00  0.00     0.029 A 
ATOM     60  C   UNL A   1      44.405  30.566  31.107  1.00  0.00     0.049 A 
ATOM     61  H   UNL A   1      44.631  29.131  32.634  1.00  0.00     0.167 HD
ATOM     62  C   UNL A   1      44.859  28.604  29.658  1.00  0.00     0.074 A 
ATOM     63  C   UNL A   1      44.395  27.478  30.464  1.00  0.00     0.031 C 
ATOM     64  C   UNL A   1      44.937  29.940  29.921  1.00  0.00     0.037 A 
BRANCH  51  65
ATOM     65  C   UNL A   1      42.229  28.530  34.343  1.00  0.00     0.057 A 
ATOM     66  C   UNL A   1      42.528  27.220  33.927  1.00  0.00     0.134 A 
ATOM     67  C   UNL A   1      41.894  28.662  35.707  1.00  0.00     0.134 A 
ATOM     68  F   UNL A   1      42.853  26.960  32.651  1.00  0.00    -0.206 F 
ATOM     69  C   UNL A   1      42.406  26.117  34.778  1.00  0.00     0.040 A 
ATOM     70  C   UNL A   1      41.823  27.572  36.579  1.00  0.00     0.040 A 
ATOM     71  F   UNL A   1      41.518  29.825  36.251  1.00  0.00    -0.206 F 
ATOM     72  C   UNL A   1      42.041  26.290  36.107  1.00  0.00     0.006 A 
ENDBRANCH  51  65
BRANCH  52  73
ATOM     73  C   UNL A   1      43.457  25.283  26.622  1.00  0.00     0.057 A 
ATOM     74  C   UNL A   1      42.662  24.180  26.964  1.00  0.00     0.134 A 
ATOM     75  C   UNL A   1      44.216  25.154  25.446  1.00  0.00     0.134 A 
ATOM     76  F   UNL A   1      41.873  24.216  28.047  1.00  0.00    -0.206 F 
ATOM     77  C   UNL A   1      42.603  23.028  26.169  1.00  0.00     0.040 A 
ATOM     78  C   UNL A   1      44.174  24.005  24.649  1.00  0.00     0.040 A 
ATOM     79  F   UNL A   1      44.955  26.170  24.978  1.00  0.00    -0.206 F 
ATOM     80  C   UNL A   1      43.352  22.942  25.001  1.00  0.00     0.006 A 
ENDBRANCH  52  73
BRANCH  64  81
ATOM     81  C   UNL A   1      45.357  30.853  28.804  1.00  0.00     0.057 A 
ATOM     82  C   UNL A   1      44.487  31.341  27.817  1.00  0.00     0.134 A 
ATOM     83  C   UNL A   1      46.658  31.367  28.813  1.00  0.00     0.134 A 
ATOM     84  F   UNL A   1      43.196  30.986  27.791  1.00  0.00    -0.206 F 
ATOM     85  C   UNL A   1      44.910  32.263  26.855  1.00  0.00     0.040 A 
ATOM     86  C   UNL A   1      47.082  32.315  27.879  1.00  0.00     0.040 A 
ATOM     87  F   UNL A   1      47.529  30.988  29.762  1.00  0.00    -0.206 F 
ATOM     88  C   UNL A   1      46.210  32.757  26.888  1.00  0.00     0.006 A 
ENDBRANCH  64  81
ENDBRANCH  38  39
ENDBRANCH  31  33
ENDBRANCH  30  31
ENDBRANCH  29  30
ENDBRANCH   1  29
TORSDOF 15
ENDMDL
