MODEL 1
REMARK VINA RESULT:     -12.3      0.000      0.000
REMARK SMILES Cc1cc(C)c(NC(=O)C2(C)CCCC2)c(C(=O)OCCOC(=O)c2ccc(-c3c4nc(c(-c5c(F)cccc5F)c5ccc([nH]5)c(-c5c(F)cccc5F)c5nc(c(-c6c(F)cccc6F)c6ccc3[nH]6)C=C5)C=C4)cc2)c1
REMARK SMILES IDX 20 1 19 2 17 3 18 4 16 5 1 6 2 7 3 8 79 9 4 10 5 11 6 12
REMARK SMILES IDX 7 13 8 14 9 16 10 17 11 18 12 19 15 20 13 21 14 22 21 23
REMARK SMILES IDX 22 24 23 25 24 26 25 27 26 28 78 29 27 30 77 31 28 32 29 33
REMARK SMILES IDX 30 34 71 35 31 36 76 37 70 38 72 39 32 40 75 41 69 42 68 43
REMARK SMILES IDX 33 45 59 46 42 47 58 48 43 49 46 50 57 51 73 52 44 53 45 54
REMARK SMILES IDX 56 56 74 57 47 58 34 59 35 60 40 61 36 62 37 63 39 64 41 65
REMARK SMILES IDX 38 66 60 67 61 68 66 69 62 70 63 71 65 72 67 73 64 74 48 75
REMARK SMILES IDX 49 76 54 77 50 78 51 79 53 80 55 81 52 82
REMARK H PARENT 7 15 72 44 46 55
REMARK Flexibility Score: inf
ROOT
ATOM      1  C   UNL A   1      33.894  29.489  26.337  1.00  0.00     0.275 C 
ENDROOT
BRANCH   1   2
ATOM      2  O   UNL A   1      33.101  29.704  25.152  1.00  0.00    -0.458 OA
BRANCH   2   3
ATOM      3  C   UNL A   1      33.082  28.744  24.192  1.00  0.00     0.340 C 
ATOM      4  O   UNL A   1      33.773  28.675  23.188  1.00  0.00    -0.246 OA
BRANCH   3   5
ATOM      5  C   UNL A   1      32.072  27.727  24.570  1.00  0.00     0.084 A 
ATOM      6  C   UNL A   1      32.125  24.476  26.537  1.00  0.00     0.044 C 
ATOM      7  C   UNL A   1      31.682  25.590  25.641  1.00  0.00    -0.050 A 
ATOM      8  C   UNL A   1      30.370  25.640  25.172  1.00  0.00     0.009 A 
ATOM      9  C   UNL A   1      32.547  26.616  25.287  1.00  0.00     0.021 A 
ATOM     10  C   UNL A   1      29.882  26.720  24.405  1.00  0.00    -0.026 A 
ATOM     11  C   UNL A   1      28.487  26.549  23.875  1.00  0.00     0.046 C 
ATOM     12  C   UNL A   1      30.703  27.852  24.222  1.00  0.00     0.058 A 
BRANCH  12  13
ATOM     13  N   UNL A   1      30.208  29.147  23.897  1.00  0.00    -0.325 N 
ATOM     14  C   UNL A   1      29.750  29.611  22.685  1.00  0.00     0.230 C 
ATOM     15  H   UNL A   1      30.192  29.796  24.637  1.00  0.00     0.169 HD
ATOM     16  O   UNL A   1      30.463  29.613  21.681  1.00  0.00    -0.274 OA
BRANCH  14  17
ATOM     17  C   UNL A   1      28.275  30.126  22.649  1.00  0.00     0.047 C 
ATOM     18  C   UNL A   1      27.242  28.999  22.750  1.00  0.00     0.022 C 
ATOM     19  C   UNL A   1      28.025  31.193  23.729  1.00  0.00     0.016 C 
ATOM     20  C   UNL A   1      28.033  30.965  21.382  1.00  0.00     0.016 C 
ATOM     21  C   UNL A   1      28.572  32.510  23.174  1.00  0.00     0.001 C 
ATOM     22  C   UNL A   1      28.713  32.304  21.669  1.00  0.00     0.001 C 
ENDBRANCH  14  17
ENDBRANCH  12  13
ENDBRANCH   3   5
ENDBRANCH   2   3
ENDBRANCH   1   2
BRANCH   1  23
ATOM     23  C   UNL A   1      33.677  30.618  27.343  1.00  0.00     0.275 C 
BRANCH  23  24
ATOM     24  O   UNL A   1      34.931  31.285  27.558  1.00  0.00    -0.458 OA
BRANCH  24  25
ATOM     25  C   UNL A   1      35.520  31.073  28.756  1.00  0.00     0.338 C 
ATOM     26  O   UNL A   1      35.145  31.464  29.848  1.00  0.00    -0.246 OA
BRANCH  25  27
ATOM     27  C   UNL A   1      36.711  30.226  28.566  1.00  0.00     0.060 A 
ATOM     28  C   UNL A   1      37.285  29.608  29.669  1.00  0.00     0.016 A 
ATOM     29  C   UNL A   1      37.352  30.172  27.329  1.00  0.00     0.016 A 
ATOM     30  C   UNL A   1      38.566  29.074  29.569  1.00  0.00     0.010 A 
ATOM     31  C   UNL A   1      38.585  29.515  27.211  1.00  0.00     0.010 A 
ATOM     32  C   UNL A   1      39.252  29.012  28.345  1.00  0.00    -0.014 A 
BRANCH  32  33
ATOM     33  C   UNL A   1      40.674  28.529  28.278  1.00  0.00     0.031 A 
ATOM     34  C   UNL A   1      41.814  29.430  28.706  1.00  0.00     0.074 A 
ATOM     35  C   UNL A   1      40.983  27.259  27.933  1.00  0.00     0.049 A 
ATOM     36  N   UNL A   1      43.100  29.301  28.484  1.00  0.00    -0.248 NA
ATOM     37  C   UNL A   1      41.463  30.648  29.452  1.00  0.00     0.031 C 
ATOM     38  C   UNL A   1      40.025  26.212  27.581  1.00  0.00     0.029 A 
ATOM     39  N   UNL A   1      42.198  26.612  27.887  1.00  0.00    -0.354 N 
ATOM     40  C   UNL A   1      43.690  30.471  28.954  1.00  0.00     0.074 A 
ATOM     41  C   UNL A   1      42.623  31.288  29.494  1.00  0.00     0.031 C 
ATOM     42  C   UNL A   1      40.664  25.038  27.489  1.00  0.00     0.029 A 
ATOM     43  C   UNL A   1      42.100  25.274  27.590  1.00  0.00     0.049 A 
ATOM     44  H   UNL A   1      43.055  27.065  28.053  1.00  0.00     0.167 HD
ATOM     45  C   UNL A   1      44.996  30.833  28.924  1.00  0.00     0.037 A 
ATOM     46  C   UNL A   1      43.044  24.343  27.350  1.00  0.00     0.037 A 
ATOM     47  C   UNL A   1      46.071  29.962  28.516  1.00  0.00     0.049 A 
ATOM     48  C   UNL A   1      44.488  24.752  27.322  1.00  0.00     0.074 A 
ATOM     49  C   UNL A   1      47.429  30.232  28.460  1.00  0.00     0.029 A 
ATOM     50  N   UNL A   1      45.917  28.636  28.143  1.00  0.00    -0.354 N 
ATOM     51  N   UNL A   1      45.021  25.917  27.594  1.00  0.00    -0.248 NA
ATOM     52  C   UNL A   1      45.456  23.732  26.898  1.00  0.00     0.031 C 
ATOM     53  C   UNL A   1      48.091  29.080  28.022  1.00  0.00     0.029 A 
ATOM     54  C   UNL A   1      47.151  28.077  27.851  1.00  0.00     0.049 A 
ATOM     55  H   UNL A   1      45.056  28.160  28.094  1.00  0.00     0.167 HD
ATOM     56  C   UNL A   1      46.382  25.776  27.362  1.00  0.00     0.074 A 
ATOM     57  C   UNL A   1      46.599  24.400  26.964  1.00  0.00     0.031 C 
ATOM     58  C   UNL A   1      47.359  26.710  27.452  1.00  0.00     0.037 A 
BRANCH  45  59
ATOM     59  C   UNL A   1      45.344  32.249  29.292  1.00  0.00     0.057 A 
ATOM     60  C   UNL A   1      45.742  32.630  30.578  1.00  0.00     0.134 A 
ATOM     61  C   UNL A   1      45.325  33.248  28.306  1.00  0.00     0.134 A 
ATOM     62  F   UNL A   1      45.780  31.729  31.572  1.00  0.00    -0.206 F 
ATOM     63  C   UNL A   1      46.080  33.953  30.878  1.00  0.00     0.040 A 
ATOM     64  C   UNL A   1      45.691  34.566  28.584  1.00  0.00     0.040 A 
ATOM     65  F   UNL A   1      44.967  32.955  27.045  1.00  0.00    -0.206 F 
ATOM     66  C   UNL A   1      46.063  34.923  29.877  1.00  0.00     0.006 A 
ENDBRANCH  45  59
BRANCH  46  67
ATOM     67  C   UNL A   1      42.640  22.952  27.012  1.00  0.00     0.057 A 
ATOM     68  C   UNL A   1      42.649  22.490  25.691  1.00  0.00     0.134 A 
ATOM     69  C   UNL A   1      42.255  22.044  28.008  1.00  0.00     0.134 A 
ATOM     70  F   UNL A   1      42.971  23.319  24.687  1.00  0.00    -0.206 F 
ATOM     71  C   UNL A   1      42.303  21.174  25.376  1.00  0.00     0.040 A 
ATOM     72  C   UNL A   1      41.947  20.716  27.712  1.00  0.00     0.040 A 
ATOM     73  F   UNL A   1      42.215  22.424  29.294  1.00  0.00    -0.206 F 
ATOM     74  C   UNL A   1      41.967  20.279  26.391  1.00  0.00     0.006 A 
ENDBRANCH  46  67
BRANCH  58  75
ATOM     75  C   UNL A   1      48.757  26.265  27.134  1.00  0.00     0.057 A 
ATOM     76  C   UNL A   1      49.294  26.382  25.846  1.00  0.00     0.134 A 
ATOM     77  C   UNL A   1      49.579  25.726  28.131  1.00  0.00     0.134 A 
ATOM     78  F   UNL A   1      48.552  26.877  24.842  1.00  0.00    -0.206 F 
ATOM     79  C   UNL A   1      50.590  25.954  25.554  1.00  0.00     0.040 A 
ATOM     80  C   UNL A   1      50.885  25.316  27.857  1.00  0.00     0.040 A 
ATOM     81  F   UNL A   1      49.129  25.591  29.387  1.00  0.00    -0.206 F 
ATOM     82  C   UNL A   1      51.391  25.424  26.563  1.00  0.00     0.006 A 
ENDBRANCH  58  75
ENDBRANCH  32  33
ENDBRANCH  25  27
ENDBRANCH  24  25
ENDBRANCH  23  24
ENDBRANCH   1  23
TORSDOF 13
ENDMDL
MODEL 2
REMARK VINA RESULT:     -12.1      4.181      7.979
REMARK SMILES Cc1cc(C)c(NC(=O)C2(C)CCCC2)c(C(=O)OCCOC(=O)c2ccc(-c3c4nc(c(-c5c(F)cccc5F)c5ccc([nH]5)c(-c5c(F)cccc5F)c5nc(c(-c6c(F)cccc6F)c6ccc3[nH]6)C=C5)C=C4)cc2)c1
REMARK SMILES IDX 20 1 19 2 17 3 18 4 16 5 1 6 2 7 3 8 79 9 4 10 5 11 6 12
REMARK SMILES IDX 7 13 8 14 9 16 10 17 11 18 12 19 15 20 13 21 14 22 21 23
REMARK SMILES IDX 22 24 23 25 24 26 25 27 26 28 78 29 27 30 77 31 28 32 29 33
REMARK SMILES IDX 30 34 71 35 31 36 76 37 70 38 72 39 32 40 75 41 69 42 68 43
REMARK SMILES IDX 33 45 59 46 42 47 58 48 43 49 46 50 57 51 73 52 44 53 45 54
REMARK SMILES IDX 56 56 74 57 47 58 34 59 35 60 40 61 36 62 37 63 39 64 41 65
REMARK SMILES IDX 38 66 60 67 61 68 66 69 62 70 63 71 65 72 67 73 64 74 48 75
REMARK SMILES IDX 49 76 54 77 50 78 51 79 53 80 55 81 52 82
REMARK H PARENT 7 15 72 44 46 55
REMARK Flexibility Score: inf
ROOT
ATOM      1  C   UNL A   1      32.738  29.088  25.118  1.00  0.00     0.275 C 
ENDROOT
BRANCH   1   2
ATOM      2  O   UNL A   1      33.255  29.339  23.796  1.00  0.00    -0.458 OA
BRANCH   2   3
ATOM      3  C   UNL A   1      32.923  28.490  22.789  1.00  0.00     0.340 C 
ATOM      4  O   UNL A   1      33.673  27.918  22.014  1.00  0.00    -0.246 OA
BRANCH   3   5
ATOM      5  C   UNL A   1      31.450  28.328  22.783  1.00  0.00     0.084 A 
ATOM      6  C   UNL A   1      28.507  30.456  21.664  1.00  0.00     0.044 C 
ATOM      7  C   UNL A   1      29.318  29.376  22.308  1.00  0.00    -0.050 A 
ATOM      8  C   UNL A   1      28.692  28.276  22.893  1.00  0.00     0.009 A 
ATOM      9  C   UNL A   1      30.705  29.420  22.306  1.00  0.00     0.021 A 
ATOM     10  C   UNL A   1      29.418  27.189  23.427  1.00  0.00    -0.026 A 
ATOM     11  C   UNL A   1      28.591  26.154  24.134  1.00  0.00     0.046 C 
ATOM     12  C   UNL A   1      30.815  27.144  23.239  1.00  0.00     0.058 A 
BRANCH  12  13
ATOM     13  N   UNL A   1      31.586  25.948  23.296  1.00  0.00    -0.325 N 
ATOM     14  C   UNL A   1      32.145  25.339  24.396  1.00  0.00     0.230 C 
ATOM     15  H   UNL A   1      31.738  25.497  22.434  1.00  0.00     0.169 HD
ATOM     16  O   UNL A   1      32.963  25.918  25.111  1.00  0.00    -0.274 OA
BRANCH  14  17
ATOM     17  C   UNL A   1      31.680  23.877  24.693  1.00  0.00     0.047 C 
ATOM     18  C   UNL A   1      30.660  23.790  25.834  1.00  0.00     0.022 C 
ATOM     19  C   UNL A   1      31.143  23.188  23.427  1.00  0.00     0.016 C 
ATOM     20  C   UNL A   1      32.896  22.981  24.990  1.00  0.00     0.016 C 
ATOM     21  C   UNL A   1      32.365  22.713  22.638  1.00  0.00     0.001 C 
ATOM     22  C   UNL A   1      33.529  22.722  23.623  1.00  0.00     0.001 C 
ENDBRANCH  14  17
ENDBRANCH  12  13
ENDBRANCH   3   5
ENDBRANCH   2   3
ENDBRANCH   1   2
BRANCH   1  23
ATOM     23  C   UNL A   1      31.985  30.309  25.643  1.00  0.00     0.275 C 
BRANCH  23  24
ATOM     24  O   UNL A   1      32.336  30.504  27.022  1.00  0.00    -0.458 OA
BRANCH  24  25
ATOM     25  C   UNL A   1      33.026  31.631  27.308  1.00  0.00     0.338 C 
ATOM     26  O   UNL A   1      32.612  32.777  27.299  1.00  0.00    -0.246 OA
BRANCH  25  27
ATOM     27  C   UNL A   1      34.401  31.270  27.696  1.00  0.00     0.060 A 
ATOM     28  C   UNL A   1      34.703  29.940  27.954  1.00  0.00     0.016 A 
ATOM     29  C   UNL A   1      35.346  32.260  27.960  1.00  0.00     0.016 A 
ATOM     30  C   UNL A   1      35.884  29.618  28.617  1.00  0.00     0.010 A 
ATOM     31  C   UNL A   1      36.589  31.909  28.508  1.00  0.00     0.010 A 
ATOM     32  C   UNL A   1      36.856  30.588  28.913  1.00  0.00    -0.014 A 
BRANCH  32  33
ATOM     33  C   UNL A   1      38.075  30.239  29.721  1.00  0.00     0.031 A 
ATOM     34  C   UNL A   1      39.217  29.465  29.097  1.00  0.00     0.074 A 
ATOM     35  C   UNL A   1      38.243  30.678  30.989  1.00  0.00     0.049 A 
ATOM     36  N   UNL A   1      40.219  28.851  29.681  1.00  0.00    -0.248 NA
ATOM     37  C   UNL A   1      39.220  29.337  27.632  1.00  0.00     0.031 C 
ATOM     38  C   UNL A   1      37.304  31.516  31.734  1.00  0.00     0.029 A 
ATOM     39  N   UNL A   1      39.304  30.535  31.855  1.00  0.00    -0.354 N 
ATOM     40  C   UNL A   1      40.893  28.171  28.670  1.00  0.00     0.074 A 
ATOM     41  C   UNL A   1      40.200  28.467  27.434  1.00  0.00     0.031 C 
ATOM     42  C   UNL A   1      37.879  31.918  32.876  1.00  0.00     0.029 A 
ATOM     43  C   UNL A   1      39.150  31.222  33.035  1.00  0.00     0.049 A 
ATOM     44  H   UNL A   1      40.098  29.991  31.648  1.00  0.00     0.167 HD
ATOM     45  C   UNL A   1      41.980  27.366  28.770  1.00  0.00     0.037 A 
ATOM     46  C   UNL A   1      39.897  31.246  34.157  1.00  0.00     0.037 A 
ATOM     47  C   UNL A   1      42.750  27.186  29.976  1.00  0.00     0.049 A 
ATOM     48  C   UNL A   1      41.100  30.353  34.257  1.00  0.00     0.074 A 
ATOM     49  C   UNL A   1      43.874  26.400  30.176  1.00  0.00     0.029 A 
ATOM     50  N   UNL A   1      42.509  27.841  31.173  1.00  0.00    -0.354 N 
ATOM     51  N   UNL A   1      41.625  29.572  33.346  1.00  0.00    -0.248 NA
ATOM     52  C   UNL A   1      41.779  30.303  35.558  1.00  0.00     0.031 C 
ATOM     53  C   UNL A   1      44.290  26.554  31.502  1.00  0.00     0.029 A 
ATOM     54  C   UNL A   1      43.456  27.473  32.116  1.00  0.00     0.049 A 
ATOM     55  H   UNL A   1      41.772  28.476  31.331  1.00  0.00     0.167 HD
ATOM     56  C   UNL A   1      42.686  28.927  33.966  1.00  0.00     0.074 A 
ATOM     57  C   UNL A   1      42.755  29.438  35.320  1.00  0.00     0.031 C 
ATOM     58  C   UNL A   1      43.516  27.982  33.462  1.00  0.00     0.037 A 
BRANCH  45  59
ATOM     59  C   UNL A   1      42.380  26.568  27.559  1.00  0.00     0.057 A 
ATOM     60  C   UNL A   1      41.881  25.289  27.287  1.00  0.00     0.134 A 
ATOM     61  C   UNL A   1      43.255  27.128  26.616  1.00  0.00     0.134 A 
ATOM     62  F   UNL A   1      41.044  24.689  28.147  1.00  0.00    -0.206 F 
ATOM     63  C   UNL A   1      42.258  24.586  26.140  1.00  0.00     0.040 A 
ATOM     64  C   UNL A   1      43.614  26.450  25.450  1.00  0.00     0.040 A 
ATOM     65  F   UNL A   1      43.762  28.357  26.802  1.00  0.00    -0.206 F 
ATOM     66  C   UNL A   1      43.120  25.170  25.213  1.00  0.00     0.006 A 
ENDBRANCH  45  59
BRANCH  46  67
ATOM     67  C   UNL A   1      39.462  32.071  35.316  1.00  0.00     0.057 A 
ATOM     68  C   UNL A   1      39.896  33.391  35.475  1.00  0.00     0.134 A 
ATOM     69  C   UNL A   1      38.583  31.562  36.282  1.00  0.00     0.134 A 
ATOM     70  F   UNL A   1      40.768  33.926  34.607  1.00  0.00    -0.206 F 
ATOM     71  C   UNL A   1      39.461  34.178  36.543  1.00  0.00     0.040 A 
ATOM     72  C   UNL A   1      38.109  32.349  37.330  1.00  0.00     0.040 A 
ATOM     73  F   UNL A   1      38.136  30.300  36.194  1.00  0.00    -0.206 F 
ATOM     74  C   UNL A   1      38.552  33.663  37.465  1.00  0.00     0.006 A 
ENDBRANCH  46  67
BRANCH  58  75
ATOM     75  C   UNL A   1      44.584  27.456  34.376  1.00  0.00     0.057 A 
ATOM     76  C   UNL A   1      45.833  28.081  34.488  1.00  0.00     0.134 A 
ATOM     77  C   UNL A   1      44.356  26.320  35.161  1.00  0.00     0.134 A 
ATOM     78  F   UNL A   1      46.120  29.165  33.750  1.00  0.00    -0.206 F 
ATOM     79  C   UNL A   1      46.826  27.579  35.329  1.00  0.00     0.040 A 
ATOM     80  C   UNL A   1      45.333  25.822  36.025  1.00  0.00     0.040 A 
ATOM     81  F   UNL A   1      43.180  25.677  35.106  1.00  0.00    -0.206 F 
ATOM     82  C   UNL A   1      46.575  26.448  36.105  1.00  0.00     0.006 A 
ENDBRANCH  58  75
ENDBRANCH  32  33
ENDBRANCH  25  27
ENDBRANCH  24  25
ENDBRANCH  23  24
ENDBRANCH   1  23
TORSDOF 13
ENDMDL
MODEL 3
REMARK VINA RESULT:     -12.0      1.280      3.582
REMARK SMILES Cc1cc(C)c(NC(=O)C2(C)CCCC2)c(C(=O)OCCOC(=O)c2ccc(-c3c4nc(c(-c5c(F)cccc5F)c5ccc([nH]5)c(-c5c(F)cccc5F)c5nc(c(-c6c(F)cccc6F)c6ccc3[nH]6)C=C5)C=C4)cc2)c1
REMARK SMILES IDX 20 1 19 2 17 3 18 4 16 5 1 6 2 7 3 8 79 9 4 10 5 11 6 12
REMARK SMILES IDX 7 13 8 14 9 16 10 17 11 18 12 19 15 20 13 21 14 22 21 23
REMARK SMILES IDX 22 24 23 25 24 26 25 27 26 28 78 29 27 30 77 31 28 32 29 33
REMARK SMILES IDX 30 34 71 35 31 36 76 37 70 38 72 39 32 40 75 41 69 42 68 43
REMARK SMILES IDX 33 45 59 46 42 47 58 48 43 49 46 50 57 51 73 52 44 53 45 54
REMARK SMILES IDX 56 56 74 57 47 58 34 59 35 60 40 61 36 62 37 63 39 64 41 65
REMARK SMILES IDX 38 66 60 67 61 68 66 69 62 70 63 71 65 72 67 73 64 74 48 75
REMARK SMILES IDX 49 76 54 77 50 78 51 79 53 80 55 81 52 82
REMARK H PARENT 7 15 72 44 46 55
REMARK Flexibility Score: inf
ROOT
ATOM      1  C   UNL A   1      32.503  30.779  26.961  1.00  0.00     0.275 C 
ENDROOT
BRANCH   1   2
ATOM      2  O   UNL A   1      32.784  29.535  26.290  1.00  0.00    -0.458 OA
BRANCH   2   3
ATOM      3  C   UNL A   1      31.978  28.468  26.521  1.00  0.00     0.340 C 
ATOM      4  O   UNL A   1      31.697  27.959  27.594  1.00  0.00    -0.246 OA
BRANCH   3   5
ATOM      5  C   UNL A   1      31.437  28.001  25.221  1.00  0.00     0.084 A 
ATOM      6  C   UNL A   1      29.932  29.687  22.166  1.00  0.00     0.044 C 
ATOM      7  C   UNL A   1      30.348  28.644  23.155  1.00  0.00    -0.050 A 
ATOM      8  C   UNL A   1      30.206  27.290  22.856  1.00  0.00     0.009 A 
ATOM      9  C   UNL A   1      30.918  28.993  24.371  1.00  0.00     0.021 A 
ATOM     10  C   UNL A   1      30.672  26.272  23.717  1.00  0.00    -0.026 A 
ATOM     11  C   UNL A   1      30.320  24.873  23.302  1.00  0.00     0.046 C 
ATOM     12  C   UNL A   1      31.430  26.632  24.850  1.00  0.00     0.058 A 
BRANCH  12  13
ATOM     13  N   UNL A   1      32.327  25.750  25.518  1.00  0.00    -0.325 N 
ATOM     14  C   UNL A   1      32.034  24.637  26.271  1.00  0.00     0.230 C 
ATOM     15  H   UNL A   1      33.284  25.966  25.428  1.00  0.00     0.169 HD
ATOM     16  O   UNL A   1      31.327  24.704  27.276  1.00  0.00    -0.274 OA
BRANCH  14  17
ATOM     17  C   UNL A   1      32.639  23.284  25.779  1.00  0.00     0.047 C 
ATOM     18  C   UNL A   1      31.576  22.223  25.477  1.00  0.00     0.022 C 
ATOM     19  C   UNL A   1      33.565  23.488  24.567  1.00  0.00     0.016 C 
ATOM     20  C   UNL A   1      33.656  22.750  26.804  1.00  0.00     0.016 C 
ATOM     21  C   UNL A   1      34.908  23.968  25.120  1.00  0.00     0.001 C 
ATOM     22  C   UNL A   1      34.899  23.617  26.605  1.00  0.00     0.001 C 
ENDBRANCH  14  17
ENDBRANCH  12  13
ENDBRANCH   3   5
ENDBRANCH   2   3
ENDBRANCH   1   2
BRANCH   1  23
ATOM     23  C   UNL A   1      33.783  31.385  27.533  1.00  0.00     0.275 C 
BRANCH  23  24
ATOM     24  O   UNL A   1      34.527  30.347  28.189  1.00  0.00    -0.458 OA
BRANCH  24  25
ATOM     25  C   UNL A   1      35.517  30.754  29.015  1.00  0.00     0.338 C 
ATOM     26  O   UNL A   1      35.458  31.613  29.877  1.00  0.00    -0.246 OA
BRANCH  25  27
ATOM     27  C   UNL A   1      36.724  29.950  28.755  1.00  0.00     0.060 A 
ATOM     28  C   UNL A   1      37.306  29.247  29.802  1.00  0.00     0.016 A 
ATOM     29  C   UNL A   1      37.370  30.019  27.522  1.00  0.00     0.016 A 
ATOM     30  C   UNL A   1      38.597  28.748  29.661  1.00  0.00     0.010 A 
ATOM     31  C   UNL A   1      38.616  29.398  27.352  1.00  0.00     0.010 A 
ATOM     32  C   UNL A   1      39.288  28.809  28.440  1.00  0.00    -0.014 A 
BRANCH  32  33
ATOM     33  C   UNL A   1      40.719  28.360  28.337  1.00  0.00     0.031 A 
ATOM     34  C   UNL A   1      41.848  29.293  28.725  1.00  0.00     0.074 A 
ATOM     35  C   UNL A   1      41.051  27.095  27.995  1.00  0.00     0.049 A 
ATOM     36  N   UNL A   1      43.131  29.193  28.468  1.00  0.00    -0.248 NA
ATOM     37  C   UNL A   1      41.487  30.508  29.470  1.00  0.00     0.031 C 
ATOM     38  C   UNL A   1      40.109  26.021  27.680  1.00  0.00     0.029 A 
ATOM     39  N   UNL A   1      42.279  26.477  27.921  1.00  0.00    -0.354 N 
ATOM     40  C   UNL A   1      43.703  30.382  28.911  1.00  0.00     0.074 A 
ATOM     41  C   UNL A   1      42.632  31.177  29.474  1.00  0.00     0.031 C 
ATOM     42  C   UNL A   1      40.775  24.863  27.580  1.00  0.00     0.029 A 
ATOM     43  C   UNL A   1      42.207  25.135  27.638  1.00  0.00     0.049 A 
ATOM     44  H   UNL A   1      43.129  26.953  28.058  1.00  0.00     0.167 HD
ATOM     45  C   UNL A   1      44.999  30.776  28.842  1.00  0.00     0.037 A 
ATOM     46  C   UNL A   1      43.167  24.225  27.380  1.00  0.00     0.037 A 
ATOM     47  C   UNL A   1      46.084  29.928  28.411  1.00  0.00     0.049 A 
ATOM     48  C   UNL A   1      44.598  24.669  27.308  1.00  0.00     0.074 A 
ATOM     49  C   UNL A   1      47.433  30.231  28.315  1.00  0.00     0.029 A 
ATOM     50  N   UNL A   1      45.952  28.595  28.054  1.00  0.00    -0.354 N 
ATOM     51  N   UNL A   1      45.109  25.850  27.554  1.00  0.00    -0.248 NA
ATOM     52  C   UNL A   1      45.579  23.669  26.865  1.00  0.00     0.031 C 
ATOM     53  C   UNL A   1      48.110  29.092  27.868  1.00  0.00     0.029 A 
ATOM     54  C   UNL A   1      47.191  28.064  27.732  1.00  0.00     0.049 A 
ATOM     55  H   UNL A   1      45.102  28.098  28.034  1.00  0.00     0.167 HD
ATOM     56  C   UNL A   1      46.466  25.740  27.285  1.00  0.00     0.074 A 
ATOM     57  C   UNL A   1      46.706  24.366  26.894  1.00  0.00     0.031 C 
ATOM     58  C   UNL A   1      47.423  26.698  27.340  1.00  0.00     0.037 A 
BRANCH  45  59
ATOM     59  C   UNL A   1      45.322  32.204  29.187  1.00  0.00     0.057 A 
ATOM     60  C   UNL A   1      45.183  33.260  28.279  1.00  0.00     0.134 A 
ATOM     61  C   UNL A   1      45.738  32.527  30.488  1.00  0.00     0.134 A 
ATOM     62  F   UNL A   1      44.795  33.025  27.017  1.00  0.00    -0.206 F 
ATOM     63  C   UNL A   1      45.472  34.579  28.643  1.00  0.00     0.040 A 
ATOM     64  C   UNL A   1      45.997  33.844  30.872  1.00  0.00     0.040 A 
ATOM     65  F   UNL A   1      45.879  31.568  31.417  1.00  0.00    -0.206 F 
ATOM     66  C   UNL A   1      45.872  34.874  29.945  1.00  0.00     0.006 A 
ENDBRANCH  45  59
BRANCH  46  67
ATOM     67  C   UNL A   1      42.788  22.821  27.065  1.00  0.00     0.057 A 
ATOM     68  C   UNL A   1      42.793  22.341  25.751  1.00  0.00     0.134 A 
ATOM     69  C   UNL A   1      42.432  21.919  28.078  1.00  0.00     0.134 A 
ATOM     70  F   UNL A   1      43.086  23.162  24.732  1.00  0.00    -0.206 F 
ATOM     71  C   UNL A   1      42.471  21.014  25.458  1.00  0.00     0.040 A 
ATOM     72  C   UNL A   1      42.149  20.582  27.804  1.00  0.00     0.040 A 
ATOM     73  F   UNL A   1      42.398  22.317  29.359  1.00  0.00    -0.206 F 
ATOM     74  C   UNL A   1      42.165  20.126  26.488  1.00  0.00     0.006 A 
ENDBRANCH  46  67
BRANCH  58  75
ATOM     75  C   UNL A   1      48.822  26.285  26.987  1.00  0.00     0.057 A 
ATOM     76  C   UNL A   1      49.682  25.710  27.931  1.00  0.00     0.134 A 
ATOM     77  C   UNL A   1      49.309  26.452  25.685  1.00  0.00     0.134 A 
ATOM     78  F   UNL A   1      49.280  25.538  29.201  1.00  0.00    -0.206 F 
ATOM     79  C   UNL A   1      50.986  25.341  27.600  1.00  0.00     0.040 A 
ATOM     80  C   UNL A   1      50.603  26.065  25.335  1.00  0.00     0.040 A 
ATOM     81  F   UNL A   1      48.535  26.991  24.731  1.00  0.00    -0.206 F 
ATOM     82  C   UNL A   1      51.448  25.513  26.297  1.00  0.00     0.006 A 
ENDBRANCH  58  75
ENDBRANCH  32  33
ENDBRANCH  25  27
ENDBRANCH  24  25
ENDBRANCH  23  24
ENDBRANCH   1  23
TORSDOF 13
ENDMDL
