MODEL 1
REMARK VINA RESULT:     -10.2      0.000      0.000
REMARK SMILES Cc1cc(C)c2c(c1)C=C(C(=O)OCCOC(=O)c1ccc(-c3c4nc(c(-c5c(F)cccc5F)c5ccc([nH]5)c(-c5c(F)cccc5F)c5nc(c(-c6c(F)cccc6F)c6ccc3[nH]6)C=C5)C=C4)cc1)[C@@H](C(F)(F)F)O2
REMARK SMILES IDX 15 1 14 2 13 3 11 4 12 5 10 6 1 7 2 8 3 9 8 10 4 11 7 12
REMARK SMILES IDX 5 13 6 14 9 15 78 16 73 17 74 18 75 19 76 20 77 21 16 22
REMARK SMILES IDX 17 23 18 24 19 25 20 26 72 27 21 28 71 29 22 30 23 31 24 32
REMARK SMILES IDX 65 33 25 34 70 35 64 36 66 37 26 38 69 39 63 40 62 41 27 43
REMARK SMILES IDX 53 44 36 45 52 46 37 47 40 48 51 49 67 50 38 51 39 52 50 54
REMARK SMILES IDX 68 55 41 56 28 57 29 58 34 59 30 60 31 61 33 62 35 63 32 64
REMARK SMILES IDX 54 65 55 66 60 67 56 68 57 69 59 70 61 71 58 72 42 73 43 74
REMARK SMILES IDX 48 75 44 76 45 77 47 78 49 79 46 80
REMARK H PARENT 66 42 40 53
REMARK Flexibility Score: inf
ROOT
ATOM      1  C   UNL A   1      33.849  33.403  28.272  1.00  0.00     0.275 C 
ENDROOT
BRANCH   1   2
ATOM      2  C   UNL A   1      34.500  34.598  28.968  1.00  0.00     0.275 C 
BRANCH   2   3
ATOM      3  O   UNL A   1      34.222  34.594  30.385  1.00  0.00    -0.459 OA
BRANCH   3   4
ATOM      4  C   UNL A   1      34.792  33.587  31.087  1.00  0.00     0.338 C 
ATOM      5  O   UNL A   1      34.351  32.457  31.229  1.00  0.00    -0.246 OA
BRANCH   4   6
ATOM      6  C   UNL A   1      36.080  34.018  31.659  1.00  0.00     0.087 C 
ATOM      7  C   UNL A   1      42.133  33.603  30.629  1.00  0.00     0.044 C 
ATOM      8  C   UNL A   1      40.893  33.982  31.384  1.00  0.00    -0.050 A 
ATOM      9  C   UNL A   1      40.964  34.461  32.697  1.00  0.00     0.010 A 
ATOM     10  C   UNL A   1      39.637  33.788  30.806  1.00  0.00     0.015 A 
ATOM     11  C   UNL A   1      39.799  34.772  33.421  1.00  0.00    -0.008 A 
ATOM     12  C   UNL A   1      38.470  34.079  31.524  1.00  0.00     0.018 A 
ATOM     13  C   UNL A   1      39.906  35.281  34.830  1.00  0.00     0.048 C 
ATOM     14  C   UNL A   1      38.545  34.583  32.823  1.00  0.00     0.130 A 
ATOM     15  C   UNL A   1      37.179  33.811  30.928  1.00  0.00     0.027 C 
ATOM     16  O   UNL A   1      37.435  34.914  33.554  1.00  0.00    -0.475 OA
ATOM     17  C   UNL A   1      36.120  34.520  33.072  1.00  0.00     0.316 C 
BRANCH  17  18
ATOM     18  C   UNL A   1      35.523  33.490  34.045  1.00  0.00     0.430 C 
ATOM     19  F   UNL A   1      34.171  33.467  33.975  1.00  0.00    -0.167 F 
ATOM     20  F   UNL A   1      35.944  32.234  33.755  1.00  0.00    -0.167 F 
ATOM     21  F   UNL A   1      35.861  33.742  35.330  1.00  0.00    -0.167 F 
ENDBRANCH  17  18
ENDBRANCH   4   6
ENDBRANCH   3   4
ENDBRANCH   2   3
ENDBRANCH   1   2
BRANCH   1  22
ATOM     22  O   UNL A   1      34.844  32.626  27.581  1.00  0.00    -0.458 OA
BRANCH  22  23
ATOM     23  C   UNL A   1      34.808  31.295  27.817  1.00  0.00     0.338 C 
ATOM     24  O   UNL A   1      33.988  30.489  27.411  1.00  0.00    -0.246 OA
BRANCH  23  25
ATOM     25  C   UNL A   1      35.979  30.890  28.610  1.00  0.00     0.060 A 
ATOM     26  C   UNL A   1      37.192  31.528  28.385  1.00  0.00     0.016 A 
ATOM     27  C   UNL A   1      35.930  29.757  29.419  1.00  0.00     0.016 A 
ATOM     28  C   UNL A   1      38.377  30.941  28.815  1.00  0.00     0.010 A 
ATOM     29  C   UNL A   1      37.112  29.261  29.986  1.00  0.00     0.010 A 
ATOM     30  C   UNL A   1      38.361  29.811  29.644  1.00  0.00    -0.014 A 
BRANCH  30  31
ATOM     31  C   UNL A   1      39.640  29.202  30.118  1.00  0.00     0.031 A 
ATOM     32  C   UNL A   1      40.297  29.687  31.388  1.00  0.00     0.074 A 
ATOM     33  C   UNL A   1      40.207  28.185  29.434  1.00  0.00     0.049 A 
ATOM     34  N   UNL A   1      41.487  29.409  31.863  1.00  0.00    -0.248 NA
ATOM     35  C   UNL A   1      39.525  30.615  32.230  1.00  0.00     0.031 C 
ATOM     36  C   UNL A   1      39.665  27.569  28.220  1.00  0.00     0.029 A 
ATOM     37  N   UNL A   1      41.359  27.472  29.671  1.00  0.00    -0.354 N 
ATOM     38  C   UNL A   1      41.625  30.169  33.019  1.00  0.00     0.074 A 
ATOM     39  C   UNL A   1      40.404  30.929  33.171  1.00  0.00     0.031 C 
ATOM     40  C   UNL A   1      40.436  26.532  27.865  1.00  0.00     0.029 A 
ATOM     41  C   UNL A   1      41.594  26.481  28.747  1.00  0.00     0.049 A 
ATOM     42  H   UNL A   1      41.958  27.654  30.431  1.00  0.00     0.167 HD
ATOM     43  C   UNL A   1      42.672  30.224  33.877  1.00  0.00     0.037 A 
ATOM     44  C   UNL A   1      42.643  25.650  28.588  1.00  0.00     0.037 A 
ATOM     45  C   UNL A   1      43.861  29.419  33.757  1.00  0.00     0.049 A 
ATOM     46  C   UNL A   1      43.815  25.771  29.517  1.00  0.00     0.074 A 
ATOM     47  C   UNL A   1      44.975  29.401  34.579  1.00  0.00     0.029 A 
ATOM     48  N   UNL A   1      44.080  28.474  32.767  1.00  0.00    -0.354 N 
ATOM     49  N   UNL A   1      43.965  26.550  30.559  1.00  0.00    -0.248 NA
ATOM     50  C   UNL A   1      44.978  24.919  29.228  1.00  0.00     0.031 C 
ATOM     51  C   UNL A   1      45.883  28.472  34.066  1.00  0.00     0.029 A 
ATOM     52  C   UNL A   1      45.316  27.877  32.950  1.00  0.00     0.049 A 
ATOM     53  H   UNL A   1      43.450  28.259  32.042  1.00  0.00     0.167 HD
ATOM     54  C   UNL A   1      45.231  26.280  31.055  1.00  0.00     0.074 A 
ATOM     55  C   UNL A   1      45.801  25.248  30.215  1.00  0.00     0.031 C 
ATOM     56  C   UNL A   1      45.869  26.847  32.108  1.00  0.00     0.037 A 
BRANCH  43  57
ATOM     57  C   UNL A   1      42.598  31.197  35.019  1.00  0.00     0.057 A 
ATOM     58  C   UNL A   1      42.091  30.837  36.273  1.00  0.00     0.134 A 
ATOM     59  C   UNL A   1      43.107  32.496  34.879  1.00  0.00     0.134 A 
ATOM     60  F   UNL A   1      41.579  29.613  36.474  1.00  0.00    -0.206 F 
ATOM     61  C   UNL A   1      42.078  31.737  37.342  1.00  0.00     0.040 A 
ATOM     62  C   UNL A   1      43.124  33.396  35.946  1.00  0.00     0.040 A 
ATOM     63  F   UNL A   1      43.618  32.904  33.707  1.00  0.00    -0.206 F 
ATOM     64  C   UNL A   1      42.605  33.018  37.183  1.00  0.00     0.006 A 
ENDBRANCH  43  57
BRANCH  44  65
ATOM     65  C   UNL A   1      42.641  24.661  27.479  1.00  0.00     0.057 A 
ATOM     66  C   UNL A   1      43.129  24.999  26.213  1.00  0.00     0.134 A 
ATOM     67  C   UNL A   1      42.180  23.351  27.663  1.00  0.00     0.134 A 
ATOM     68  F   UNL A   1      43.561  26.244  25.965  1.00  0.00    -0.206 F 
ATOM     69  C   UNL A   1      43.162  24.070  25.171  1.00  0.00     0.040 A 
ATOM     70  C   UNL A   1      42.235  22.404  26.640  1.00  0.00     0.040 A 
ATOM     71  F   UNL A   1      41.700  22.962  28.854  1.00  0.00    -0.206 F 
ATOM     72  C   UNL A   1      42.724  22.764  25.386  1.00  0.00     0.006 A 
ENDBRANCH  44  65
BRANCH  56  73
ATOM     73  C   UNL A   1      47.246  26.351  32.428  1.00  0.00     0.057 A 
ATOM     74  C   UNL A   1      47.457  25.280  33.303  1.00  0.00     0.134 A 
ATOM     75  C   UNL A   1      48.368  26.909  31.801  1.00  0.00     0.134 A 
ATOM     76  F   UNL A   1      46.424  24.712  33.944  1.00  0.00    -0.206 F 
ATOM     77  C   UNL A   1      48.737  24.786  33.554  1.00  0.00     0.040 A 
ATOM     78  C   UNL A   1      49.652  26.409  32.025  1.00  0.00     0.040 A 
ATOM     79  F   UNL A   1      48.233  27.933  30.945  1.00  0.00    -0.206 F 
ATOM     80  C   UNL A   1      49.838  25.344  32.905  1.00  0.00     0.006 A 
ENDBRANCH  56  73
ENDBRANCH  30  31
ENDBRANCH  23  25
ENDBRANCH  22  23
ENDBRANCH   1  22
TORSDOF 12
ENDMDL
MODEL 2
REMARK VINA RESULT:     -10.2      4.220     10.724
REMARK SMILES Cc1cc(C)c2c(c1)C=C(C(=O)OCCOC(=O)c1ccc(-c3c4nc(c(-c5c(F)cccc5F)c5ccc([nH]5)c(-c5c(F)cccc5F)c5nc(c(-c6c(F)cccc6F)c6ccc3[nH]6)C=C5)C=C4)cc1)[C@@H](C(F)(F)F)O2
REMARK SMILES IDX 15 1 14 2 13 3 11 4 12 5 10 6 1 7 2 8 3 9 8 10 4 11 7 12
REMARK SMILES IDX 5 13 6 14 9 15 78 16 73 17 74 18 75 19 76 20 77 21 16 22
REMARK SMILES IDX 17 23 18 24 19 25 20 26 72 27 21 28 71 29 22 30 23 31 24 32
REMARK SMILES IDX 65 33 25 34 70 35 64 36 66 37 26 38 69 39 63 40 62 41 27 43
REMARK SMILES IDX 53 44 36 45 52 46 37 47 40 48 51 49 67 50 38 51 39 52 50 54
REMARK SMILES IDX 68 55 41 56 28 57 29 58 34 59 30 60 31 61 33 62 35 63 32 64
REMARK SMILES IDX 54 65 55 66 60 67 56 68 57 69 59 70 61 71 58 72 42 73 43 74
REMARK SMILES IDX 48 75 44 76 45 77 47 78 49 79 46 80
REMARK H PARENT 66 42 40 53
REMARK Flexibility Score: inf
ROOT
ATOM      1  C   UNL A   1      40.771  20.495  26.502  1.00  0.00     0.275 C 
ENDROOT
BRANCH   1   2
ATOM      2  C   UNL A   1      42.190  20.319  27.042  1.00  0.00     0.275 C 
BRANCH   2   3
ATOM      3  O   UNL A   1      43.177  20.629  26.035  1.00  0.00    -0.459 OA
BRANCH   3   4
ATOM      4  C   UNL A   1      43.268  21.934  25.692  1.00  0.00     0.338 C 
ATOM      5  O   UNL A   1      42.554  22.532  24.901  1.00  0.00    -0.246 OA
BRANCH   4   6
ATOM      6  C   UNL A   1      44.355  22.593  26.439  1.00  0.00     0.087 C 
ATOM      7  C   UNL A   1      45.266  26.225  31.323  1.00  0.00     0.044 C 
ATOM      8  C   UNL A   1      45.655  25.446  30.100  1.00  0.00    -0.050 A 
ATOM      9  C   UNL A   1      46.930  25.576  29.536  1.00  0.00     0.010 A 
ATOM     10  C   UNL A   1      44.717  24.636  29.460  1.00  0.00     0.015 A 
ATOM     11  C   UNL A   1      47.280  24.882  28.363  1.00  0.00    -0.008 A 
ATOM     12  C   UNL A   1      45.050  23.953  28.283  1.00  0.00     0.018 A 
ATOM     13  C   UNL A   1      48.654  25.043  27.780  1.00  0.00     0.048 C 
ATOM     14  C   UNL A   1      46.329  24.062  27.739  1.00  0.00     0.130 A 
ATOM     15  C   UNL A   1      44.042  23.168  27.603  1.00  0.00     0.027 C 
ATOM     16  O   UNL A   1      46.714  23.390  26.609  1.00  0.00    -0.475 OA
ATOM     17  C   UNL A   1      45.707  22.718  25.801  1.00  0.00     0.316 C 
BRANCH  17  18
ATOM     18  C   UNL A   1      45.615  23.423  24.438  1.00  0.00     0.430 C 
ATOM     19  F   UNL A   1      45.168  22.582  23.474  1.00  0.00    -0.167 F 
ATOM     20  F   UNL A   1      44.744  24.462  24.475  1.00  0.00    -0.167 F 
ATOM     21  F   UNL A   1      46.808  23.911  24.031  1.00  0.00    -0.167 F 
ENDBRANCH  17  18
ENDBRANCH   4   6
ENDBRANCH   3   4
ENDBRANCH   2   3
ENDBRANCH   1   2
BRANCH   1  22
ATOM     22  O   UNL A   1      40.049  21.452  27.298  1.00  0.00    -0.458 OA
BRANCH  22  23
ATOM     23  C   UNL A   1      39.460  22.453  26.608  1.00  0.00     0.338 C 
ATOM     24  O   UNL A   1      38.473  22.386  25.895  1.00  0.00    -0.246 OA
BRANCH  23  25
ATOM     25  C   UNL A   1      40.141  23.728  26.883  1.00  0.00     0.060 A 
ATOM     26  C   UNL A   1      40.758  23.903  28.116  1.00  0.00     0.016 A 
ATOM     27  C   UNL A   1      39.999  24.809  26.018  1.00  0.00     0.016 A 
ATOM     28  C   UNL A   1      41.071  25.182  28.561  1.00  0.00     0.010 A 
ATOM     29  C   UNL A   1      40.466  26.072  26.407  1.00  0.00     0.010 A 
ATOM     30  C   UNL A   1      40.955  26.289  27.708  1.00  0.00    -0.014 A 
BRANCH  30  31
ATOM     31  C   UNL A   1      41.315  27.657  28.191  1.00  0.00     0.031 A 
ATOM     32  C   UNL A   1      42.749  28.131  28.154  1.00  0.00     0.074 A 
ATOM     33  C   UNL A   1      40.357  28.499  28.634  1.00  0.00     0.049 A 
ATOM     34  N   UNL A   1      43.279  29.205  28.686  1.00  0.00    -0.248 NA
ATOM     35  C   UNL A   1      43.716  27.285  27.438  1.00  0.00     0.031 C 
ATOM     36  C   UNL A   1      38.923  28.208  28.680  1.00  0.00     0.029 A 
ATOM     37  N   UNL A   1      40.441  29.785  29.115  1.00  0.00    -0.354 N 
ATOM     38  C   UNL A   1      44.642  29.131  28.420  1.00  0.00     0.074 A 
ATOM     39  C   UNL A   1      44.862  27.903  27.688  1.00  0.00     0.031 C 
ATOM     40  C   UNL A   1      38.260  29.299  29.088  1.00  0.00     0.029 A 
ATOM     41  C   UNL A   1      39.224  30.329  29.451  1.00  0.00     0.049 A 
ATOM     42  H   UNL A   1      41.293  30.270  29.209  1.00  0.00     0.167 HD
ATOM     43  C   UNL A   1      45.619  30.010  28.752  1.00  0.00     0.037 A 
ATOM     44  C   UNL A   1      38.909  31.502  30.032  1.00  0.00     0.037 A 
ATOM     45  C   UNL A   1      45.388  31.262  29.425  1.00  0.00     0.049 A 
ATOM     46  C   UNL A   1      40.013  32.432  30.442  1.00  0.00     0.074 A 
ATOM     47  C   UNL A   1      46.314  32.220  29.801  1.00  0.00     0.029 A 
ATOM     48  N   UNL A   1      44.142  31.739  29.802  1.00  0.00    -0.354 N 
ATOM     49  N   UNL A   1      41.304  32.312  30.254  1.00  0.00    -0.248 NA
ATOM     50  C   UNL A   1      39.619  33.645  31.173  1.00  0.00     0.031 C 
ATOM     51  C   UNL A   1      45.632  33.261  30.438  1.00  0.00     0.029 A 
ATOM     52  C   UNL A   1      44.277  32.973  30.418  1.00  0.00     0.049 A 
ATOM     53  H   UNL A   1      43.289  31.272  29.654  1.00  0.00     0.167 HD
ATOM     54  C   UNL A   1      41.877  33.433  30.836  1.00  0.00     0.074 A 
ATOM     55  C   UNL A   1      40.792  34.235  31.362  1.00  0.00     0.031 C 
ATOM     56  C   UNL A   1      43.188  33.762  30.933  1.00  0.00     0.037 A 
BRANCH  43  57
ATOM     57  C   UNL A   1      47.037  29.649  28.410  1.00  0.00     0.057 A 
ATOM     58  C   UNL A   1      47.878  28.994  29.317  1.00  0.00     0.134 A 
ATOM     59  C   UNL A   1      47.544  29.901  27.128  1.00  0.00     0.134 A 
ATOM     60  F   UNL A   1      47.459  28.731  30.565  1.00  0.00    -0.206 F 
ATOM     61  C   UNL A   1      49.177  28.616  28.968  1.00  0.00     0.040 A 
ATOM     62  C   UNL A   1      48.831  29.506  26.758  1.00  0.00     0.040 A 
ATOM     63  F   UNL A   1      46.789  30.517  26.206  1.00  0.00    -0.206 F 
ATOM     64  C   UNL A   1      49.653  28.863  27.681  1.00  0.00     0.006 A 
ENDBRANCH  43  57
BRANCH  44  65
ATOM     65  C   UNL A   1      37.485  31.840  30.293  1.00  0.00     0.057 A 
ATOM     66  C   UNL A   1      36.869  31.479  31.495  1.00  0.00     0.134 A 
ATOM     67  C   UNL A   1      36.717  32.553  29.364  1.00  0.00     0.134 A 
ATOM     68  F   UNL A   1      37.543  30.773  32.415  1.00  0.00    -0.206 F 
ATOM     69  C   UNL A   1      35.541  31.817  31.766  1.00  0.00     0.040 A 
ATOM     70  C   UNL A   1      35.399  32.924  29.634  1.00  0.00     0.040 A 
ATOM     71  F   UNL A   1      37.248  32.931  28.191  1.00  0.00    -0.206 F 
ATOM     72  C   UNL A   1      34.805  32.552  30.838  1.00  0.00     0.006 A 
ENDBRANCH  44  65
BRANCH  56  73
ATOM     73  C   UNL A   1      43.525  35.053  31.616  1.00  0.00     0.057 A 
ATOM     74  C   UNL A   1      43.688  36.243  30.898  1.00  0.00     0.134 A 
ATOM     75  C   UNL A   1      43.623  35.118  33.012  1.00  0.00     0.134 A 
ATOM     76  F   UNL A   1      43.619  36.243  29.558  1.00  0.00    -0.206 F 
ATOM     77  C   UNL A   1      43.947  37.453  31.543  1.00  0.00     0.040 A 
ATOM     78  C   UNL A   1      43.857  36.325  33.670  1.00  0.00     0.040 A 
ATOM     79  F   UNL A   1      43.469  34.013  33.758  1.00  0.00    -0.206 F 
ATOM     80  C   UNL A   1      44.021  37.498  32.934  1.00  0.00     0.006 A 
ENDBRANCH  56  73
ENDBRANCH  30  31
ENDBRANCH  23  25
ENDBRANCH  22  23
ENDBRANCH   1  22
TORSDOF 12
ENDMDL
MODEL 3
REMARK VINA RESULT:     -10.0      5.300      9.333
REMARK SMILES Cc1cc(C)c2c(c1)C=C(C(=O)OCCOC(=O)c1ccc(-c3c4nc(c(-c5c(F)cccc5F)c5ccc([nH]5)c(-c5c(F)cccc5F)c5nc(c(-c6c(F)cccc6F)c6ccc3[nH]6)C=C5)C=C4)cc1)[C@@H](C(F)(F)F)O2
REMARK SMILES IDX 15 1 14 2 13 3 11 4 12 5 10 6 1 7 2 8 3 9 8 10 4 11 7 12
REMARK SMILES IDX 5 13 6 14 9 15 78 16 73 17 74 18 75 19 76 20 77 21 16 22
REMARK SMILES IDX 17 23 18 24 19 25 20 26 72 27 21 28 71 29 22 30 23 31 24 32
REMARK SMILES IDX 65 33 25 34 70 35 64 36 66 37 26 38 69 39 63 40 62 41 27 43
REMARK SMILES IDX 53 44 36 45 52 46 37 47 40 48 51 49 67 50 38 51 39 52 50 54
REMARK SMILES IDX 68 55 41 56 28 57 29 58 34 59 30 60 31 61 33 62 35 63 32 64
REMARK SMILES IDX 54 65 55 66 60 67 56 68 57 69 59 70 61 71 58 72 42 73 43 74
REMARK SMILES IDX 48 75 44 76 45 77 47 78 49 79 46 80
REMARK H PARENT 66 42 40 53
REMARK Flexibility Score: inf
ROOT
ATOM      1  C   UNL A   1      36.554  20.431  25.001  1.00  0.00     0.275 C 
ENDROOT
BRANCH   1   2
ATOM      2  C   UNL A   1      35.203  21.112  24.785  1.00  0.00     0.275 C 
BRANCH   2   3
ATOM      3  O   UNL A   1      35.318  22.549  24.881  1.00  0.00    -0.459 OA
BRANCH   3   4
ATOM      4  C   UNL A   1      35.207  23.220  23.711  1.00  0.00     0.338 C 
ATOM      5  O   UNL A   1      35.799  22.975  22.671  1.00  0.00    -0.246 OA
BRANCH   4   6
ATOM      6  C   UNL A   1      34.221  24.309  23.829  1.00  0.00     0.087 C 
ATOM      7  C   UNL A   1      32.797  29.080  27.447  1.00  0.00     0.044 C 
ATOM      8  C   UNL A   1      32.615  28.119  26.309  1.00  0.00    -0.050 A 
ATOM      9  C   UNL A   1      31.423  28.083  25.576  1.00  0.00     0.010 A 
ATOM     10  C   UNL A   1      33.613  27.189  26.014  1.00  0.00     0.015 A 
ATOM     11  C   UNL A   1      31.234  27.151  24.540  1.00  0.00    -0.008 A 
ATOM     12  C   UNL A   1      33.428  26.245  24.995  1.00  0.00     0.018 A 
ATOM     13  C   UNL A   1      29.943  27.134  23.773  1.00  0.00     0.048 C 
ATOM     14  C   UNL A   1      32.251  26.230  24.248  1.00  0.00     0.130 A 
ATOM     15  C   UNL A   1      34.451  25.251  24.749  1.00  0.00     0.027 C 
ATOM     16  O   UNL A   1      32.036  25.350  23.220  1.00  0.00    -0.475 OA
ATOM     17  C   UNL A   1      32.952  24.235  23.033  1.00  0.00     0.316 C 
BRANCH  17  18
ATOM     18  C   UNL A   1      32.198  22.924  23.310  1.00  0.00     0.430 C 
ATOM     19  F   UNL A   1      32.236  22.598  24.624  1.00  0.00    -0.167 F 
ATOM     20  F   UNL A   1      30.889  23.025  22.977  1.00  0.00    -0.167 F 
ATOM     21  F   UNL A   1      32.711  21.882  22.618  1.00  0.00    -0.167 F 
ENDBRANCH  17  18
ENDBRANCH   4   6
ENDBRANCH   3   4
ENDBRANCH   2   3
ENDBRANCH   1   2
BRANCH   1  22
ATOM     22  O   UNL A   1      37.608  21.410  25.024  1.00  0.00    -0.458 OA
BRANCH  22  23
ATOM     23  C   UNL A   1      38.704  21.066  25.736  1.00  0.00     0.338 C 
ATOM     24  O   UNL A   1      39.244  19.974  25.789  1.00  0.00    -0.246 OA
BRANCH  23  25
ATOM     25  C   UNL A   1      39.248  22.244  26.429  1.00  0.00     0.060 A 
ATOM     26  C   UNL A   1      38.702  23.492  26.156  1.00  0.00     0.016 A 
ATOM     27  C   UNL A   1      40.415  22.147  27.182  1.00  0.00     0.016 A 
ATOM     28  C   UNL A   1      39.408  24.646  26.477  1.00  0.00     0.010 A 
ATOM     29  C   UNL A   1      41.038  23.314  27.645  1.00  0.00     0.010 A 
ATOM     30  C   UNL A   1      40.576  24.583  27.249  1.00  0.00    -0.014 A 
BRANCH  30  31
ATOM     31  C   UNL A   1      41.315  25.832  27.606  1.00  0.00     0.031 A 
ATOM     32  C   UNL A   1      40.676  26.875  28.492  1.00  0.00     0.074 A 
ATOM     33  C   UNL A   1      42.578  26.028  27.170  1.00  0.00     0.049 A 
ATOM     34  N   UNL A   1      41.083  28.090  28.767  1.00  0.00    -0.248 NA
ATOM     35  C   UNL A   1      39.408  26.513  29.146  1.00  0.00     0.031 C 
ATOM     36  C   UNL A   1      43.350  25.089  26.353  1.00  0.00     0.029 A 
ATOM     37  N   UNL A   1      43.446  27.075  27.368  1.00  0.00    -0.354 N 
ATOM     38  C   UNL A   1      40.097  28.651  29.570  1.00  0.00     0.074 A 
ATOM     39  C   UNL A   1      39.066  27.651  29.733  1.00  0.00     0.031 C 
ATOM     40  C   UNL A   1      44.592  25.564  26.184  1.00  0.00     0.029 A 
ATOM     41  C   UNL A   1      44.673  26.895  26.771  1.00  0.00     0.049 A 
ATOM     42  H   UNL A   1      43.213  27.878  27.888  1.00  0.00     0.167 HD
ATOM     43  C   UNL A   1      40.059  29.887  30.126  1.00  0.00     0.037 A 
ATOM     44  C   UNL A   1      45.732  27.719  26.661  1.00  0.00     0.037 A 
ATOM     45  C   UNL A   1      41.117  30.858  30.014  1.00  0.00     0.049 A 
ATOM     46  C   UNL A   1      45.643  29.102  27.235  1.00  0.00     0.074 A 
ATOM     47  C   UNL A   1      41.172  32.136  30.545  1.00  0.00     0.029 A 
ATOM     48  N   UNL A   1      42.313  30.652  29.345  1.00  0.00    -0.354 N 
ATOM     49  N   UNL A   1      44.672  29.647  27.925  1.00  0.00    -0.248 NA
ATOM     50  C   UNL A   1      46.782  29.996  26.987  1.00  0.00     0.031 C 
ATOM     51  C   UNL A   1      42.385  32.716  30.166  1.00  0.00     0.029 A 
ATOM     52  C   UNL A   1      43.107  31.783  29.439  1.00  0.00     0.049 A 
ATOM     53  H   UNL A   1      42.562  29.824  28.874  1.00  0.00     0.167 HD
ATOM     54  C   UNL A   1      45.083  30.942  28.200  1.00  0.00     0.074 A 
ATOM     55  C   UNL A   1      46.402  31.096  27.623  1.00  0.00     0.031 C 
ATOM     56  C   UNL A   1      44.421  31.921  28.864  1.00  0.00     0.037 A 
BRANCH  43  57
ATOM     57  C   UNL A   1      38.829  30.276  30.896  1.00  0.00     0.057 A 
ATOM     58  C   UNL A   1      37.738  30.905  30.285  1.00  0.00     0.134 A 
ATOM     59  C   UNL A   1      38.710  29.954  32.254  1.00  0.00     0.134 A 
ATOM     60  F   UNL A   1      37.788  31.251  28.990  1.00  0.00    -0.206 F 
ATOM     61  C   UNL A   1      36.577  31.213  31.001  1.00  0.00     0.040 A 
ATOM     62  C   UNL A   1      37.547  30.232  32.975  1.00  0.00     0.040 A 
ATOM     63  F   UNL A   1      39.714  29.342  32.900  1.00  0.00    -0.206 F 
ATOM     64  C   UNL A   1      36.476  30.867  32.348  1.00  0.00     0.006 A 
ENDBRANCH  43  57
BRANCH  44  65
ATOM     65  C   UNL A   1      46.951  27.264  25.942  1.00  0.00     0.057 A 
ATOM     66  C   UNL A   1      47.976  26.592  26.617  1.00  0.00     0.134 A 
ATOM     67  C   UNL A   1      47.110  27.463  24.565  1.00  0.00     0.134 A 
ATOM     68  F   UNL A   1      47.896  26.393  27.940  1.00  0.00    -0.206 F 
ATOM     69  C   UNL A   1      49.112  26.133  25.948  1.00  0.00     0.040 A 
ATOM     70  C   UNL A   1      48.225  26.982  23.878  1.00  0.00     0.040 A 
ATOM     71  F   UNL A   1      46.162  28.099  23.858  1.00  0.00    -0.206 F 
ATOM     72  C   UNL A   1      49.234  26.317  24.572  1.00  0.00     0.006 A 
ENDBRANCH  44  65
BRANCH  56  73
ATOM     73  C   UNL A   1      45.115  33.238  29.022  1.00  0.00     0.057 A 
ATOM     74  C   UNL A   1      45.995  33.483  30.083  1.00  0.00     0.134 A 
ATOM     75  C   UNL A   1      44.954  34.250  28.066  1.00  0.00     0.134 A 
ATOM     76  F   UNL A   1      46.183  32.558  31.037  1.00  0.00    -0.206 F 
ATOM     77  C   UNL A   1      46.683  34.691  30.195  1.00  0.00     0.040 A 
ATOM     78  C   UNL A   1      45.654  35.454  28.154  1.00  0.00     0.040 A 
ATOM     79  F   UNL A   1      44.131  34.076  27.021  1.00  0.00    -0.206 F 
ATOM     80  C   UNL A   1      46.521  35.677  29.222  1.00  0.00     0.006 A 
ENDBRANCH  56  73
ENDBRANCH  30  31
ENDBRANCH  23  25
ENDBRANCH  22  23
ENDBRANCH   1  22
TORSDOF 12
ENDMDL
