MODEL 1
REMARK VINA RESULT:      -9.7      0.000      0.000
REMARK SMILES O=C(CCS[C@H]1CC(=O)c2ccccc2C1=O)OCCOC(=O)c1ccc(-c2c3nc(c(-c4c(F)cccc4F)c4ccc([nH]4)c(-c4c(F)cccc4F)c4nc(c(-c5c(F)cccc5F)c5ccc2[nH]5)C=C4)C=C3)cc1
REMARK SMILES IDX 19 1 18 2 2 3 1 4 3 5 4 6 5 7 6 8 7 9 16 10 8 11 15 12 17 13
REMARK SMILES IDX 9 14 10 15 14 16 11 17 13 18 12 19 20 20 21 21 22 22 23 23
REMARK SMILES IDX 24 24 25 25 77 26 26 27 76 28 27 29 28 30 29 31 70 32 30 33
REMARK SMILES IDX 75 34 69 35 71 36 31 37 74 38 68 39 67 40 32 42 58 43 41 44
REMARK SMILES IDX 57 45 42 46 45 47 56 48 72 49 43 50 44 51 55 53 73 54 46 55
REMARK SMILES IDX 33 56 34 57 39 58 35 59 36 60 38 61 40 62 37 63 59 64 60 65
REMARK SMILES IDX 65 66 61 67 62 68 64 69 66 70 63 71 47 72 48 73 53 74 49 75
REMARK SMILES IDX 50 76 52 77 54 78 51 79
REMARK H PARENT 71 41 45 52
REMARK Flexibility Score: inf
ROOT
ATOM      1  C   UNL A   1      44.666  18.415  25.508  1.00  0.00     0.274 C 
ENDROOT
BRANCH   1   2
ATOM      2  O   UNL A   1      44.995  19.530  24.671  1.00  0.00    -0.462 OA
BRANCH   2   3
ATOM      3  C   UNL A   1      46.038  20.354  24.895  1.00  0.00     0.306 C 
ATOM      4  O   UNL A   1      47.176  19.954  24.646  1.00  0.00    -0.252 OA
BRANCH   3   5
ATOM      5  C   UNL A   1      45.828  21.754  25.460  1.00  0.00     0.133 C 
BRANCH   5   6
ATOM      6  C   UNL A   1      46.138  22.980  24.609  1.00  0.00     0.082 C 
BRANCH   6   7
ATOM      7  S   UNL A   1      46.741  24.515  25.462  1.00  0.00    -0.149 SA
BRANCH   7   8
ATOM      8  C   UNL A   1      45.682  26.032  25.098  1.00  0.00     0.126 C 
ATOM      9  C   UNL A   1      44.169  25.936  25.008  1.00  0.00     0.104 C 
ATOM     10  C   UNL A   1      46.294  27.304  25.662  1.00  0.00     0.176 C 
ATOM     11  C   UNL A   1      43.376  27.158  25.425  1.00  0.00     0.165 C 
ATOM     12  C   UNL A   1      45.417  28.359  26.213  1.00  0.00     0.030 A 
ATOM     13  O   UNL A   1      47.506  27.513  25.652  1.00  0.00    -0.293 OA
ATOM     14  O   UNL A   1      42.162  27.210  25.236  1.00  0.00    -0.294 OA
ATOM     15  C   UNL A   1      44.034  28.264  26.150  1.00  0.00     0.028 A 
ATOM     16  C   UNL A   1      46.004  29.430  26.909  1.00  0.00     0.012 A 
ATOM     17  C   UNL A   1      43.243  29.179  26.874  1.00  0.00     0.012 A 
ATOM     18  C   UNL A   1      45.223  30.312  27.654  1.00  0.00     0.001 A 
ATOM     19  C   UNL A   1      43.840  30.170  27.657  1.00  0.00     0.001 A 
ENDBRANCH   7   8
ENDBRANCH   6   7
ENDBRANCH   5   6
ENDBRANCH   3   5
ENDBRANCH   2   3
ENDBRANCH   1   2
BRANCH   1  20
ATOM     20  C   UNL A   1      43.270  18.477  26.112  1.00  0.00     0.275 C 
BRANCH  20  21
ATOM     21  O   UNL A   1      42.338  19.118  25.223  1.00  0.00    -0.458 OA
BRANCH  21  22
ATOM     22  C   UNL A   1      41.276  19.698  25.853  1.00  0.00     0.338 C 
ATOM     23  O   UNL A   1      40.218  19.158  26.090  1.00  0.00    -0.246 OA
BRANCH  22  24
ATOM     24  C   UNL A   1      41.617  21.049  26.378  1.00  0.00     0.060 A 
ATOM     25  C   UNL A   1      42.187  22.070  25.611  1.00  0.00     0.016 A 
ATOM     26  C   UNL A   1      41.320  21.290  27.722  1.00  0.00     0.016 A 
ATOM     27  C   UNL A   1      42.447  23.326  26.177  1.00  0.00     0.010 A 
ATOM     28  C   UNL A   1      41.578  22.539  28.289  1.00  0.00     0.010 A 
ATOM     29  C   UNL A   1      42.142  23.568  27.522  1.00  0.00    -0.014 A 
BRANCH  29  30
ATOM     30  C   UNL A   1      42.409  24.885  28.151  1.00  0.00     0.031 A 
ATOM     31  C   UNL A   1      43.768  25.189  28.713  1.00  0.00     0.074 A 
ATOM     32  C   UNL A   1      41.411  25.780  28.272  1.00  0.00     0.049 A 
ATOM     33  N   UNL A   1      44.181  26.251  29.357  1.00  0.00    -0.248 NA
ATOM     34  C   UNL A   1      44.796  24.153  28.534  1.00  0.00     0.031 C 
ATOM     35  C   UNL A   1      40.048  25.597  27.771  1.00  0.00     0.029 A 
ATOM     36  N   UNL A   1      41.384  27.014  28.870  1.00  0.00    -0.354 N 
ATOM     37  C   UNL A   1      45.515  26.013  29.663  1.00  0.00     0.074 A 
ATOM     38  C   UNL A   1      45.831  24.691  29.163  1.00  0.00     0.031 C 
ATOM     39  C   UNL A   1      39.319  26.681  28.082  1.00  0.00     0.029 A 
ATOM     40  C   UNL A   1      40.152  27.619  28.829  1.00  0.00     0.049 A 
ATOM     41  H   UNL A   1      42.174  27.427  29.289  1.00  0.00     0.167 HD
ATOM     42  C   UNL A   1      46.396  26.824  30.300  1.00  0.00     0.037 A 
ATOM     43  C   UNL A   1      39.742  28.793  29.346  1.00  0.00     0.037 A 
ATOM     44  C   UNL A   1      46.069  28.128  30.821  1.00  0.00     0.049 A 
ATOM     45  C   UNL A   1      40.726  29.647  30.098  1.00  0.00     0.074 A 
ATOM     46  C   UNL A   1      46.891  29.036  31.465  1.00  0.00     0.029 A 
ATOM     47  N   UNL A   1      44.807  28.704  30.770  1.00  0.00    -0.354 N 
ATOM     48  N   UNL A   1      41.998  29.435  30.337  1.00  0.00    -0.248 NA
ATOM     49  C   UNL A   1      40.214  30.911  30.646  1.00  0.00     0.031 C 
ATOM     50  C   UNL A   1      46.117  30.138  31.847  1.00  0.00     0.029 A 
ATOM     51  C   UNL A   1      44.823  29.942  31.392  1.00  0.00     0.049 A 
ATOM     52  H   UNL A   1      44.015  28.292  30.354  1.00  0.00     0.167 HD
ATOM     53  C   UNL A   1      42.446  30.552  31.029  1.00  0.00     0.074 A 
ATOM     54  C   UNL A   1      41.313  31.445  31.158  1.00  0.00     0.031 C 
ATOM     55  C   UNL A   1      43.685  30.820  31.512  1.00  0.00     0.037 A 
BRANCH  42  56
ATOM     56  C   UNL A   1      47.793  26.304  30.490  1.00  0.00     0.057 A 
ATOM     57  C   UNL A   1      48.160  25.646  31.671  1.00  0.00     0.134 A 
ATOM     58  C   UNL A   1      48.782  26.463  29.509  1.00  0.00     0.134 A 
ATOM     59  F   UNL A   1      47.267  25.466  32.655  1.00  0.00    -0.206 F 
ATOM     60  C   UNL A   1      49.454  25.159  31.865  1.00  0.00     0.040 A 
ATOM     61  C   UNL A   1      50.072  25.957  29.681  1.00  0.00     0.040 A 
ATOM     62  F   UNL A   1      48.498  27.076  28.350  1.00  0.00    -0.206 F 
ATOM     63  C   UNL A   1      50.412  25.306  30.865  1.00  0.00     0.006 A 
ENDBRANCH  42  56
BRANCH  43  64
ATOM     64  C   UNL A   1      38.341  29.249  29.156  1.00  0.00     0.057 A 
ATOM     65  C   UNL A   1      37.411  29.229  30.201  1.00  0.00     0.134 A 
ATOM     66  C   UNL A   1      37.912  29.748  27.920  1.00  0.00     0.134 A 
ATOM     67  F   UNL A   1      37.758  28.761  31.409  1.00  0.00    -0.206 F 
ATOM     68  C   UNL A   1      36.104  29.685  30.024  1.00  0.00     0.040 A 
ATOM     69  C   UNL A   1      36.615  30.232  27.736  1.00  0.00     0.040 A 
ATOM     70  F   UNL A   1      38.764  29.816  26.886  1.00  0.00    -0.206 F 
ATOM     71  C   UNL A   1      35.706  30.197  28.790  1.00  0.00     0.006 A 
ENDBRANCH  43  64
BRANCH  55  72
ATOM     72  C   UNL A   1      43.877  32.152  32.178  1.00  0.00     0.057 A 
ATOM     73  C   UNL A   1      43.669  32.294  33.555  1.00  0.00     0.134 A 
ATOM     74  C   UNL A   1      44.287  33.289  31.467  1.00  0.00     0.134 A 
ATOM     75  F   UNL A   1      43.269  31.249  34.296  1.00  0.00    -0.206 F 
ATOM     76  C   UNL A   1      43.872  33.514  34.204  1.00  0.00     0.040 A 
ATOM     77  C   UNL A   1      44.521  34.506  32.109  1.00  0.00     0.040 A 
ATOM     78  F   UNL A   1      44.519  33.218  30.147  1.00  0.00    -0.206 F 
ATOM     79  C   UNL A   1      44.312  34.621  33.482  1.00  0.00     0.006 A 
ENDBRANCH  55  72
ENDBRANCH  29  30
ENDBRANCH  22  24
ENDBRANCH  21  22
ENDBRANCH  20  21
ENDBRANCH   1  20
TORSDOF 14
ENDMDL
MODEL 2
REMARK VINA RESULT:      -9.4      5.134     11.029
REMARK SMILES O=C(CCS[C@H]1CC(=O)c2ccccc2C1=O)OCCOC(=O)c1ccc(-c2c3nc(c(-c4c(F)cccc4F)c4ccc([nH]4)c(-c4c(F)cccc4F)c4nc(c(-c5c(F)cccc5F)c5ccc2[nH]5)C=C4)C=C3)cc1
REMARK SMILES IDX 19 1 18 2 2 3 1 4 3 5 4 6 5 7 6 8 7 9 16 10 8 11 15 12 17 13
REMARK SMILES IDX 9 14 10 15 14 16 11 17 13 18 12 19 20 20 21 21 22 22 23 23
REMARK SMILES IDX 24 24 25 25 77 26 26 27 76 28 27 29 28 30 29 31 70 32 30 33
REMARK SMILES IDX 75 34 69 35 71 36 31 37 74 38 68 39 67 40 32 42 58 43 41 44
REMARK SMILES IDX 57 45 42 46 45 47 56 48 72 49 43 50 44 51 55 53 73 54 46 55
REMARK SMILES IDX 33 56 34 57 39 58 35 59 36 60 38 61 40 62 37 63 59 64 60 65
REMARK SMILES IDX 65 66 61 67 62 68 64 69 66 70 63 71 47 72 48 73 53 74 49 75
REMARK SMILES IDX 50 76 52 77 54 78 51 79
REMARK H PARENT 71 41 45 52
REMARK Flexibility Score: inf
ROOT
ATOM      1  C   UNL A   1      32.306  36.101  31.138  1.00  0.00     0.274 C 
ENDROOT
BRANCH   1   2
ATOM      2  O   UNL A   1      32.664  36.094  32.525  1.00  0.00    -0.462 OA
BRANCH   2   3
ATOM      3  C   UNL A   1      33.888  36.420  32.985  1.00  0.00     0.306 C 
ATOM      4  O   UNL A   1      34.089  37.570  33.377  1.00  0.00    -0.252 OA
BRANCH   3   5
ATOM      5  C   UNL A   1      35.017  35.397  33.012  1.00  0.00     0.133 C 
BRANCH   5   6
ATOM      6  C   UNL A   1      35.277  34.573  34.269  1.00  0.00     0.082 C 
BRANCH   6   7
ATOM      7  S   UNL A   1      37.019  34.047  34.634  1.00  0.00    -0.149 SA
BRANCH   7   8
ATOM      8  C   UNL A   1      37.265  32.179  34.548  1.00  0.00     0.126 C 
ATOM      9  C   UNL A   1      36.729  31.365  33.383  1.00  0.00     0.104 C 
ATOM     10  C   UNL A   1      38.570  31.745  35.196  1.00  0.00     0.176 C 
ATOM     11  C   UNL A   1      37.509  30.124  32.996  1.00  0.00     0.165 C 
ATOM     12  C   UNL A   1      39.342  30.627  34.613  1.00  0.00     0.030 A 
ATOM     13  O   UNL A   1      39.005  32.272  36.219  1.00  0.00    -0.293 OA
ATOM     14  O   UNL A   1      37.057  29.335  32.169  1.00  0.00    -0.294 OA
ATOM     15  C   UNL A   1      38.865  29.894  33.537  1.00  0.00     0.028 A 
ATOM     16  C   UNL A   1      40.636  30.374  35.101  1.00  0.00     0.012 A 
ATOM     17  C   UNL A   1      39.721  28.986  32.882  1.00  0.00     0.012 A 
ATOM     18  C   UNL A   1      41.494  29.503  34.431  1.00  0.00     0.001 A 
ATOM     19  C   UNL A   1      41.044  28.827  33.303  1.00  0.00     0.001 A 
ENDBRANCH   7   8
ENDBRANCH   6   7
ENDBRANCH   5   6
ENDBRANCH   3   5
ENDBRANCH   2   3
ENDBRANCH   1   2
BRANCH   1  20
ATOM     20  C   UNL A   1      33.492  36.027  30.186  1.00  0.00     0.275 C 
BRANCH  20  21
ATOM     21  O   UNL A   1      33.067  35.787  28.832  1.00  0.00    -0.458 OA
BRANCH  21  22
ATOM     22  C   UNL A   1      33.136  34.478  28.451  1.00  0.00     0.338 C 
ATOM     23  O   UNL A   1      32.359  33.919  27.708  1.00  0.00    -0.246 OA
BRANCH  22  24
ATOM     24  C   UNL A   1      34.391  33.832  28.925  1.00  0.00     0.060 A 
ATOM     25  C   UNL A   1      34.484  33.048  30.079  1.00  0.00     0.016 A 
ATOM     26  C   UNL A   1      35.529  34.023  28.136  1.00  0.00     0.016 A 
ATOM     27  C   UNL A   1      35.699  32.447  30.437  1.00  0.00     0.010 A 
ATOM     28  C   UNL A   1      36.741  33.427  28.489  1.00  0.00     0.010 A 
ATOM     29  C   UNL A   1      36.836  32.634  29.641  1.00  0.00    -0.014 A 
BRANCH  29  30
ATOM     30  C   UNL A   1      38.138  32.016  29.996  1.00  0.00     0.031 A 
ATOM     31  C   UNL A   1      39.115  32.762  30.858  1.00  0.00     0.074 A 
ATOM     32  C   UNL A   1      38.464  30.812  29.488  1.00  0.00     0.049 A 
ATOM     33  N   UNL A   1      40.326  32.423  31.224  1.00  0.00    -0.248 NA
ATOM     34  C   UNL A   1      38.673  34.068  31.367  1.00  0.00     0.031 C 
ATOM     35  C   UNL A   1      37.601  29.995  28.635  1.00  0.00     0.029 A 
ATOM     36  N   UNL A   1      39.616  30.076  29.603  1.00  0.00    -0.354 N 
ATOM     37  C   UNL A   1      40.793  33.473  32.004  1.00  0.00     0.074 A 
ATOM     38  C   UNL A   1      39.747  34.475  32.030  1.00  0.00     0.031 C 
ATOM     39  C   UNL A   1      38.254  28.869  28.304  1.00  0.00     0.029 A 
ATOM     40  C   UNL A   1      39.589  28.900  28.895  1.00  0.00     0.049 A 
ATOM     41  H   UNL A   1      40.388  30.364  30.141  1.00  0.00     0.167 HD
ATOM     42  C   UNL A   1      41.983  33.589  32.644  1.00  0.00     0.037 A 
ATOM     43  C   UNL A   1      40.540  27.960  28.735  1.00  0.00     0.037 A 
ATOM     44  C   UNL A   1      43.033  32.602  32.592  1.00  0.00     0.049 A 
ATOM     45  C   UNL A   1      41.873  28.142  29.408  1.00  0.00     0.074 A 
ATOM     46  C   UNL A   1      44.268  32.615  33.217  1.00  0.00     0.029 A 
ATOM     47  N   UNL A   1      42.974  31.427  31.855  1.00  0.00    -0.354 N 
ATOM     48  N   UNL A   1      42.285  29.114  30.185  1.00  0.00    -0.248 NA
ATOM     49  C   UNL A   1      42.871  27.087  29.186  1.00  0.00     0.031 C 
ATOM     50  C   UNL A   1      44.974  31.473  32.821  1.00  0.00     0.029 A 
ATOM     51  C   UNL A   1      44.158  30.720  31.992  1.00  0.00     0.049 A 
ATOM     52  H   UNL A   1      42.204  31.137  31.314  1.00  0.00     0.167 HD
ATOM     53  C   UNL A   1      43.573  28.771  30.573  1.00  0.00     0.074 A 
ATOM     54  C   UNL A   1      43.868  27.493  29.957  1.00  0.00     0.031 C 
ATOM     55  C   UNL A   1      44.436  29.448  31.372  1.00  0.00     0.037 A 
BRANCH  42  56
ATOM     56  C   UNL A   1      42.219  34.847  33.431  1.00  0.00     0.057 A 
ATOM     57  C   UNL A   1      41.758  34.966  34.749  1.00  0.00     0.134 A 
ATOM     58  C   UNL A   1      42.893  35.948  32.884  1.00  0.00     0.134 A 
ATOM     59  F   UNL A   1      41.098  33.956  35.333  1.00  0.00    -0.206 F 
ATOM     60  C   UNL A   1      41.966  36.128  35.494  1.00  0.00     0.040 A 
ATOM     61  C   UNL A   1      43.129  37.106  33.628  1.00  0.00     0.040 A 
ATOM     62  F   UNL A   1      43.368  35.900  31.631  1.00  0.00    -0.206 F 
ATOM     63  C   UNL A   1      42.661  37.200  34.937  1.00  0.00     0.006 A 
ENDBRANCH  42  56
BRANCH  43  64
ATOM     64  C   UNL A   1      40.268  26.747  27.921  1.00  0.00     0.057 A 
ATOM     65  C   UNL A   1      40.779  26.597  26.627  1.00  0.00     0.134 A 
ATOM     66  C   UNL A   1      39.508  25.691  28.441  1.00  0.00     0.134 A 
ATOM     67  F   UNL A   1      41.512  27.572  26.071  1.00  0.00    -0.206 F 
ATOM     68  C   UNL A   1      40.543  25.443  25.878  1.00  0.00     0.040 A 
ATOM     69  C   UNL A   1      39.287  24.521  27.713  1.00  0.00     0.040 A 
ATOM     70  F   UNL A   1      39.012  25.765  29.684  1.00  0.00    -0.206 F 
ATOM     71  C   UNL A   1      39.803  24.397  26.425  1.00  0.00     0.006 A 
ENDBRANCH  43  64
BRANCH  55  72
ATOM     72  C   UNL A   1      45.754  28.787  31.655  1.00  0.00     0.057 A 
ATOM     73  C   UNL A   1      45.891  27.911  32.738  1.00  0.00     0.134 A 
ATOM     74  C   UNL A   1      46.882  28.998  30.849  1.00  0.00     0.134 A 
ATOM     75  F   UNL A   1      44.854  27.670  33.555  1.00  0.00    -0.206 F 
ATOM     76  C   UNL A   1      47.097  27.259  33.004  1.00  0.00     0.040 A 
ATOM     77  C   UNL A   1      48.084  28.329  31.087  1.00  0.00     0.040 A 
ATOM     78  F   UNL A   1      46.815  29.813  29.785  1.00  0.00    -0.206 F 
ATOM     79  C   UNL A   1      48.194  27.458  32.169  1.00  0.00     0.006 A 
ENDBRANCH  55  72
ENDBRANCH  29  30
ENDBRANCH  22  24
ENDBRANCH  21  22
ENDBRANCH  20  21
ENDBRANCH   1  20
TORSDOF 14
ENDMDL
MODEL 3
REMARK VINA RESULT:      -8.9      5.010     10.516
REMARK SMILES O=C(CCS[C@H]1CC(=O)c2ccccc2C1=O)OCCOC(=O)c1ccc(-c2c3nc(c(-c4c(F)cccc4F)c4ccc([nH]4)c(-c4c(F)cccc4F)c4nc(c(-c5c(F)cccc5F)c5ccc2[nH]5)C=C4)C=C3)cc1
REMARK SMILES IDX 19 1 18 2 2 3 1 4 3 5 4 6 5 7 6 8 7 9 16 10 8 11 15 12 17 13
REMARK SMILES IDX 9 14 10 15 14 16 11 17 13 18 12 19 20 20 21 21 22 22 23 23
REMARK SMILES IDX 24 24 25 25 77 26 26 27 76 28 27 29 28 30 29 31 70 32 30 33
REMARK SMILES IDX 75 34 69 35 71 36 31 37 74 38 68 39 67 40 32 42 58 43 41 44
REMARK SMILES IDX 57 45 42 46 45 47 56 48 72 49 43 50 44 51 55 53 73 54 46 55
REMARK SMILES IDX 33 56 34 57 39 58 35 59 36 60 38 61 40 62 37 63 59 64 60 65
REMARK SMILES IDX 65 66 61 67 62 68 64 69 66 70 63 71 47 72 48 73 53 74 49 75
REMARK SMILES IDX 50 76 52 77 54 78 51 79
REMARK H PARENT 71 41 45 52
REMARK Flexibility Score: inf
ROOT
ATOM      1  C   UNL A   1      33.573  34.291  28.328  1.00  0.00     0.274 C 
ENDROOT
BRANCH   1   2
ATOM      2  O   UNL A   1      32.785  34.948  29.328  1.00  0.00    -0.462 OA
BRANCH   2   3
ATOM      3  C   UNL A   1      32.919  36.250  29.653  1.00  0.00     0.306 C 
ATOM      4  O   UNL A   1      32.940  37.088  28.752  1.00  0.00    -0.252 OA
BRANCH   3   5
ATOM      5  C   UNL A   1      33.059  36.687  31.106  1.00  0.00     0.133 C 
BRANCH   5   6
ATOM      6  C   UNL A   1      33.156  35.645  32.216  1.00  0.00     0.082 C 
BRANCH   6   7
ATOM      7  S   UNL A   1      34.732  35.543  33.192  1.00  0.00    -0.149 SA
BRANCH   7   8
ATOM      8  C   UNL A   1      35.967  34.308  32.483  1.00  0.00     0.126 C 
ATOM      9  C   UNL A   1      35.930  33.906  31.019  1.00  0.00     0.104 C 
ATOM     10  C   UNL A   1      37.317  34.388  33.178  1.00  0.00     0.176 C 
ATOM     11  C   UNL A   1      37.251  33.540  30.372  1.00  0.00     0.165 C 
ATOM     12  C   UNL A   1      38.557  34.191  32.397  1.00  0.00     0.030 A 
ATOM     13  O   UNL A   1      37.425  34.581  34.388  1.00  0.00    -0.293 OA
ATOM     14  O   UNL A   1      37.282  33.060  29.241  1.00  0.00    -0.294 OA
ATOM     15  C   UNL A   1      38.526  33.844  31.054  1.00  0.00     0.028 A 
ATOM     16  C   UNL A   1      39.792  34.468  33.010  1.00  0.00     0.012 A 
ATOM     17  C   UNL A   1      39.717  33.879  30.302  1.00  0.00     0.012 A 
ATOM     18  C   UNL A   1      40.963  34.537  32.257  1.00  0.00     0.001 A 
ATOM     19  C   UNL A   1      40.921  34.268  30.894  1.00  0.00     0.001 A 
ENDBRANCH   7   8
ENDBRANCH   6   7
ENDBRANCH   5   6
ENDBRANCH   3   5
ENDBRANCH   2   3
ENDBRANCH   1   2
BRANCH   1  20
ATOM     20  C   UNL A   1      33.560  32.772  28.421  1.00  0.00     0.275 C 
BRANCH  20  21
ATOM     21  O   UNL A   1      34.571  32.183  27.582  1.00  0.00    -0.458 OA
BRANCH  21  22
ATOM     22  C   UNL A   1      34.556  30.819  27.567  1.00  0.00     0.338 C 
ATOM     23  O   UNL A   1      33.666  30.130  27.119  1.00  0.00    -0.246 OA
BRANCH  22  24
ATOM     24  C   UNL A   1      35.854  30.248  28.024  1.00  0.00     0.060 A 
ATOM     25  C   UNL A   1      37.020  30.232  27.253  1.00  0.00     0.016 A 
ATOM     26  C   UNL A   1      35.882  29.717  29.316  1.00  0.00     0.016 A 
ATOM     27  C   UNL A   1      38.211  29.704  27.772  1.00  0.00     0.010 A 
ATOM     28  C   UNL A   1      37.065  29.190  29.836  1.00  0.00     0.010 A 
ATOM     29  C   UNL A   1      38.239  29.180  29.070  1.00  0.00    -0.014 A 
BRANCH  29  30
ATOM     30  C   UNL A   1      39.482  28.609  29.647  1.00  0.00     0.031 A 
ATOM     31  C   UNL A   1      40.110  29.241  30.855  1.00  0.00     0.074 A 
ATOM     32  C   UNL A   1      40.075  27.562  29.044  1.00  0.00     0.049 A 
ATOM     33  N   UNL A   1      41.225  28.933  31.467  1.00  0.00    -0.248 NA
ATOM     34  C   UNL A   1      39.391  30.379  31.446  1.00  0.00     0.031 C 
ATOM     35  C   UNL A   1      39.564  26.867  27.862  1.00  0.00     0.029 A 
ATOM     36  N   UNL A   1      41.249  26.912  29.333  1.00  0.00    -0.354 N 
ATOM     37  C   UNL A   1      41.345  29.838  32.514  1.00  0.00     0.074 A 
ATOM     38  C   UNL A   1      40.205  30.728  32.432  1.00  0.00     0.031 C 
ATOM     39  C   UNL A   1      40.419  25.886  27.528  1.00  0.00     0.029 A 
ATOM     40  C   UNL A   1      41.551  25.904  28.451  1.00  0.00     0.049 A 
ATOM     41  H   UNL A   1      41.820  27.146  30.100  1.00  0.00     0.167 HD
ATOM     42  C   UNL A   1      42.315  29.918  33.459  1.00  0.00     0.037 A 
ATOM     43  C   UNL A   1      42.624  25.094  28.390  1.00  0.00     0.037 A 
ATOM     44  C   UNL A   1      43.463  29.048  33.519  1.00  0.00     0.049 A 
ATOM     45  C   UNL A   1      43.714  25.242  29.417  1.00  0.00     0.074 A 
ATOM     46  C   UNL A   1      44.492  29.033  34.445  1.00  0.00     0.029 A 
ATOM     47  N   UNL A   1      43.741  28.044  32.601  1.00  0.00    -0.354 N 
ATOM     48  N   UNL A   1      43.792  26.068  30.432  1.00  0.00    -0.248 NA
ATOM     49  C   UNL A   1      44.864  24.337  29.290  1.00  0.00     0.031 C 
ATOM     50  C   UNL A   1      45.416  28.054  34.060  1.00  0.00     0.029 A 
ATOM     51  C   UNL A   1      44.936  27.421  32.925  1.00  0.00     0.049 A 
ATOM     52  H   UNL A   1      43.173  27.810  31.832  1.00  0.00     0.167 HD
ATOM     53  C   UNL A   1      44.977  25.758  31.085  1.00  0.00     0.074 A 
ATOM     54  C   UNL A   1      45.578  24.658  30.358  1.00  0.00     0.031 C 
ATOM     55  C   UNL A   1      45.520  26.326  32.190  1.00  0.00     0.037 A 
BRANCH  42  56
ATOM     56  C   UNL A   1      42.183  31.006  34.487  1.00  0.00     0.057 A 
ATOM     57  C   UNL A   1      42.830  32.237  34.316  1.00  0.00     0.134 A 
ATOM     58  C   UNL A   1      41.424  30.835  35.653  1.00  0.00     0.134 A 
ATOM     59  F   UNL A   1      43.579  32.468  33.228  1.00  0.00    -0.206 F 
ATOM     60  C   UNL A   1      42.720  33.258  35.262  1.00  0.00     0.040 A 
ATOM     61  C   UNL A   1      41.287  31.858  36.594  1.00  0.00     0.040 A 
ATOM     62  F   UNL A   1      40.772  29.685  35.877  1.00  0.00    -0.206 F 
ATOM     63  C   UNL A   1      41.940  33.074  36.401  1.00  0.00     0.006 A 
ENDBRANCH  42  56
BRANCH  43  64
ATOM     64  C   UNL A   1      42.722  24.052  27.335  1.00  0.00     0.057 A 
ATOM     65  C   UNL A   1      43.294  24.318  26.087  1.00  0.00     0.134 A 
ATOM     66  C   UNL A   1      42.266  22.749  27.571  1.00  0.00     0.134 A 
ATOM     67  F   UNL A   1      43.748  25.546  25.797  1.00  0.00    -0.206 F 
ATOM     68  C   UNL A   1      43.408  23.327  25.110  1.00  0.00     0.040 A 
ATOM     69  C   UNL A   1      42.397  21.743  26.613  1.00  0.00     0.040 A 
ATOM     70  F   UNL A   1      41.729  22.427  28.758  1.00  0.00    -0.206 F 
ATOM     71  C   UNL A   1      42.967  22.033  25.376  1.00  0.00     0.006 A 
ENDBRANCH  43  64
BRANCH  55  72
ATOM     72  C   UNL A   1      46.802  25.730  32.697  1.00  0.00     0.057 A 
ATOM     73  C   UNL A   1      46.782  24.746  33.694  1.00  0.00     0.134 A 
ATOM     74  C   UNL A   1      48.053  26.107  32.189  1.00  0.00     0.134 A 
ATOM     75  F   UNL A   1      45.620  24.343  34.231  1.00  0.00    -0.206 F 
ATOM     76  C   UNL A   1      47.957  24.152  34.159  1.00  0.00     0.040 A 
ATOM     77  C   UNL A   1      49.232  25.500  32.625  1.00  0.00     0.040 A 
ATOM     78  F   UNL A   1      48.142  27.032  31.221  1.00  0.00    -0.206 F 
ATOM     79  C   UNL A   1      49.185  24.520  33.615  1.00  0.00     0.006 A 
ENDBRANCH  55  72
ENDBRANCH  29  30
ENDBRANCH  22  24
ENDBRANCH  21  22
ENDBRANCH  20  21
ENDBRANCH   1  20
TORSDOF 14
ENDMDL
