MODEL 1
REMARK VINA RESULT:     -11.6      0.000      0.000
REMARK SMILES CC[C@](C)(NC(=O)[C@](C)([NH3+])c1ccccc1)C(=O)OCCOC(=O)c1ccc(-c2c3nc(c(-c4c(F)cccc4F)c4ccc([nH]4)c(-c4c(F)cccc4F)c4nc(c(-c5c(F)cccc5F)c5ccc2[nH]5)C=C4)C=C3)cc1
REMARK SMILES IDX 20 1 19 2 17 3 18 4 3 5 4 6 2 7 1 8 5 9 6 10 7 12 8 13 9 14
REMARK SMILES IDX 10 15 11 19 12 20 16 21 13 22 15 23 14 24 21 25 22 26 23 27
REMARK SMILES IDX 24 28 25 29 26 30 78 31 27 32 77 33 28 34 29 35 30 36 71 37
REMARK SMILES IDX 31 38 76 39 70 40 72 41 32 42 75 43 69 44 68 45 33 47 59 48
REMARK SMILES IDX 42 49 58 50 43 51 46 52 57 53 73 54 44 55 45 56 56 58 74 59
REMARK SMILES IDX 47 60 34 61 35 62 40 63 36 64 37 65 39 66 41 67 38 68 60 69
REMARK SMILES IDX 61 70 66 71 62 72 63 73 65 74 67 75 64 76 48 77 49 78 54 79
REMARK SMILES IDX 50 80 51 81 53 82 55 83 52 84
REMARK H PARENT 5 11 10 16 10 17 10 18 72 46 46 57
REMARK Flexibility Score: inf
ROOT
ATOM      1  C   UNL A   1      39.871  21.184  26.522  1.00  0.00     0.274 C 
ENDROOT
BRANCH   1   2
ATOM      2  O   UNL A   1      39.067  21.720  25.436  1.00  0.00    -0.460 OA
BRANCH   2   3
ATOM      3  C   UNL A   1      37.939  22.372  25.803  1.00  0.00     0.331 C 
ATOM      4  O   UNL A   1      37.950  23.429  26.433  1.00  0.00    -0.249 OA
BRANCH   3   5
ATOM      5  C   UNL A   1      36.594  21.651  25.431  1.00  0.00     0.135 C 
ATOM      6  C   UNL A   1      36.975  20.379  24.647  1.00  0.00     0.047 C 
BRANCH   5   7
ATOM      7  C   UNL A   1      35.957  22.715  24.463  1.00  0.00     0.037 C 
ATOM      8  C   UNL A   1      36.654  22.953  23.126  1.00  0.00     0.007 C 
ENDBRANCH   5   7
BRANCH   5   9
ATOM      9  N   UNL A   1      35.502  21.264  26.380  1.00  0.00    -0.335 N 
ATOM     10  C   UNL A   1      34.143  21.282  26.407  1.00  0.00     0.286 C 
ATOM     11  H   UNL A   1      35.870  20.894  27.216  1.00  0.00     0.164 HD
ATOM     12  O   UNL A   1      33.653  21.707  27.466  1.00  0.00    -0.267 OA
BRANCH  10  13
ATOM     13  C   UNL A   1      33.217  20.668  25.310  1.00  0.00     0.196 C 
ATOM     14  C   UNL A   1      33.393  21.462  24.023  1.00  0.00     0.096 C 
BRANCH  13  15
ATOM     15  N   UNL A   1      31.798  20.927  25.710  1.00  0.00    -0.341 N 
ATOM     16  H   UNL A   1      31.310  21.395  24.947  1.00  0.00     0.345 HD
ATOM     17  H   UNL A   1      31.781  21.521  26.538  1.00  0.00     0.345 HD
ATOM     18  H   UNL A   1      31.336  20.041  25.917  1.00  0.00     0.345 HD
ENDBRANCH  13  15
BRANCH  13  19
ATOM     19  C   UNL A   1      33.406  19.149  25.150  1.00  0.00     0.022 A 
ATOM     20  C   UNL A   1      34.326  18.579  24.246  1.00  0.00     0.011 A 
ATOM     21  C   UNL A   1      32.647  18.254  25.927  1.00  0.00     0.011 A 
ATOM     22  C   UNL A   1      34.402  17.198  24.047  1.00  0.00     0.001 A 
ATOM     23  C   UNL A   1      32.738  16.869  25.746  1.00  0.00     0.001 A 
ATOM     24  C   UNL A   1      33.597  16.343  24.788  1.00  0.00     0.000 A 
ENDBRANCH  13  19
ENDBRANCH  10  13
ENDBRANCH   5   9
ENDBRANCH   3   5
ENDBRANCH   2   3
ENDBRANCH   1   2
BRANCH   1  25
ATOM     25  C   UNL A   1      41.349  21.058  26.124  1.00  0.00     0.275 C 
BRANCH  25  26
ATOM     26  O   UNL A   1      41.770  22.275  25.483  1.00  0.00    -0.458 OA
BRANCH  26  27
ATOM     27  C   UNL A   1      42.833  22.910  26.030  1.00  0.00     0.338 C 
ATOM     28  O   UNL A   1      44.003  22.563  25.956  1.00  0.00    -0.246 OA
BRANCH  27  29
ATOM     29  C   UNL A   1      42.378  24.131  26.739  1.00  0.00     0.060 A 
ATOM     30  C   UNL A   1      41.309  24.108  27.646  1.00  0.00     0.016 A 
ATOM     31  C   UNL A   1      43.059  25.327  26.510  1.00  0.00     0.016 A 
ATOM     32  C   UNL A   1      40.956  25.249  28.362  1.00  0.00     0.010 A 
ATOM     33  C   UNL A   1      42.764  26.444  27.288  1.00  0.00     0.010 A 
ATOM     34  C   UNL A   1      41.739  26.399  28.251  1.00  0.00    -0.014 A 
BRANCH  34  35
ATOM     35  C   UNL A   1      41.626  27.526  29.210  1.00  0.00     0.031 A 
ATOM     36  C   UNL A   1      42.395  27.482  30.492  1.00  0.00     0.074 A 
ATOM     37  C   UNL A   1      40.677  28.460  29.003  1.00  0.00     0.049 A 
ATOM     38  N   UNL A   1      42.164  28.096  31.620  1.00  0.00    -0.248 NA
ATOM     39  C   UNL A   1      43.557  26.581  30.512  1.00  0.00     0.031 C 
ATOM     40  C   UNL A   1      39.874  28.601  27.786  1.00  0.00     0.029 A 
ATOM     41  N   UNL A   1      40.178  29.427  29.841  1.00  0.00    -0.354 N 
ATOM     42  C   UNL A   1      43.113  27.609  32.510  1.00  0.00     0.074 A 
ATOM     43  C   UNL A   1      43.916  26.647  31.786  1.00  0.00     0.031 C 
ATOM     44  C   UNL A   1      38.964  29.567  27.965  1.00  0.00     0.029 A 
ATOM     45  C   UNL A   1      39.064  30.055  29.332  1.00  0.00     0.049 A 
ATOM     46  H   UNL A   1      40.576  29.649  30.714  1.00  0.00     0.167 HD
ATOM     47  C   UNL A   1      43.274  27.933  33.816  1.00  0.00     0.037 A 
ATOM     48  C   UNL A   1      38.174  30.873  29.922  1.00  0.00     0.037 A 
ATOM     49  C   UNL A   1      42.458  28.904  34.498  1.00  0.00     0.049 A 
ATOM     50  C   UNL A   1      38.360  31.212  31.370  1.00  0.00     0.074 A 
ATOM     51  C   UNL A   1      42.553  29.355  35.802  1.00  0.00     0.029 A 
ATOM     52  N   UNL A   1      41.383  29.571  33.922  1.00  0.00    -0.354 N 
ATOM     53  N   UNL A   1      39.261  30.760  32.211  1.00  0.00    -0.248 NA
ATOM     54  C   UNL A   1      37.413  32.169  31.955  1.00  0.00     0.031 C 
ATOM     55  C   UNL A   1      41.507  30.255  36.029  1.00  0.00     0.029 A 
ATOM     56  C   UNL A   1      40.796  30.415  34.850  1.00  0.00     0.049 A 
ATOM     57  H   UNL A   1      41.082  29.460  32.992  1.00  0.00     0.167 HD
ATOM     58  C   UNL A   1      39.009  31.397  33.417  1.00  0.00     0.074 A 
ATOM     59  C   UNL A   1      37.871  32.269  33.196  1.00  0.00     0.031 C 
ATOM     60  C   UNL A   1      39.666  31.278  34.598  1.00  0.00     0.037 A 
BRANCH  47  61
ATOM     61  C   UNL A   1      44.332  27.190  34.585  1.00  0.00     0.057 A 
ATOM     62  C   UNL A   1      44.077  25.974  35.234  1.00  0.00     0.134 A 
ATOM     63  C   UNL A   1      45.627  27.715  34.699  1.00  0.00     0.134 A 
ATOM     64  F   UNL A   1      42.858  25.416  35.178  1.00  0.00    -0.206 F 
ATOM     65  C   UNL A   1      45.051  25.335  36.006  1.00  0.00     0.040 A 
ATOM     66  C   UNL A   1      46.620  27.068  35.439  1.00  0.00     0.040 A 
ATOM     67  F   UNL A   1      45.951  28.870  34.099  1.00  0.00    -0.206 F 
ATOM     68  C   UNL A   1      46.328  25.883  36.109  1.00  0.00     0.006 A 
ENDBRANCH  47  61
BRANCH  48  69
ATOM     69  C   UNL A   1      37.030  31.396  29.131  1.00  0.00     0.057 A 
ATOM     70  C   UNL A   1      35.891  30.615  28.918  1.00  0.00     0.134 A 
ATOM     71  C   UNL A   1      37.013  32.709  28.644  1.00  0.00     0.134 A 
ATOM     72  F   UNL A   1      35.852  29.346  29.351  1.00  0.00    -0.206 F 
ATOM     73  C   UNL A   1      34.772  31.121  28.254  1.00  0.00     0.040 A 
ATOM     74  C   UNL A   1      35.892  33.237  27.999  1.00  0.00     0.040 A 
ATOM     75  F   UNL A   1      38.069  33.516  28.829  1.00  0.00    -0.206 F 
ATOM     76  C   UNL A   1      34.766  32.439  27.802  1.00  0.00     0.006 A 
ENDBRANCH  48  69
BRANCH  60  77
ATOM     77  C   UNL A   1      39.205  32.154  35.724  1.00  0.00     0.057 A 
ATOM     78  C   UNL A   1      39.655  33.472  35.874  1.00  0.00     0.134 A 
ATOM     79  C   UNL A   1      38.253  31.683  36.637  1.00  0.00     0.134 A 
ATOM     80  F   UNL A   1      40.579  33.975  35.042  1.00  0.00    -0.206 F 
ATOM     81  C   UNL A   1      39.179  34.287  36.902  1.00  0.00     0.040 A 
ATOM     82  C   UNL A   1      37.750  32.498  37.651  1.00  0.00     0.040 A 
ATOM     83  F   UNL A   1      37.779  30.432  36.542  1.00  0.00    -0.206 F 
ATOM     84  C   UNL A   1      38.216  33.804  37.787  1.00  0.00     0.006 A 
ENDBRANCH  60  77
ENDBRANCH  34  35
ENDBRANCH  27  29
ENDBRANCH  26  27
ENDBRANCH  25  26
ENDBRANCH   1  25
TORSDOF 16
ENDMDL
MODEL 2
REMARK VINA RESULT:     -11.4      3.055      7.506
REMARK SMILES CC[C@](C)(NC(=O)[C@](C)([NH3+])c1ccccc1)C(=O)OCCOC(=O)c1ccc(-c2c3nc(c(-c4c(F)cccc4F)c4ccc([nH]4)c(-c4c(F)cccc4F)c4nc(c(-c5c(F)cccc5F)c5ccc2[nH]5)C=C4)C=C3)cc1
REMARK SMILES IDX 20 1 19 2 17 3 18 4 3 5 4 6 2 7 1 8 5 9 6 10 7 12 8 13 9 14
REMARK SMILES IDX 10 15 11 19 12 20 16 21 13 22 15 23 14 24 21 25 22 26 23 27
REMARK SMILES IDX 24 28 25 29 26 30 78 31 27 32 77 33 28 34 29 35 30 36 71 37
REMARK SMILES IDX 31 38 76 39 70 40 72 41 32 42 75 43 69 44 68 45 33 47 59 48
REMARK SMILES IDX 42 49 58 50 43 51 46 52 57 53 73 54 44 55 45 56 56 58 74 59
REMARK SMILES IDX 47 60 34 61 35 62 40 63 36 64 37 65 39 66 41 67 38 68 60 69
REMARK SMILES IDX 61 70 66 71 62 72 63 73 65 74 67 75 64 76 48 77 49 78 54 79
REMARK SMILES IDX 50 80 51 81 53 82 55 83 52 84
REMARK H PARENT 5 11 10 16 10 17 10 18 72 46 46 57
REMARK Flexibility Score: inf
ROOT
ATOM      1  C   UNL A   1      31.433  28.347  26.039  1.00  0.00     0.274 C 
ENDROOT
BRANCH   1   2
ATOM      2  O   UNL A   1      31.389  28.087  24.610  1.00  0.00    -0.460 OA
BRANCH   2   3
ATOM      3  C   UNL A   1      31.463  26.785  24.244  1.00  0.00     0.331 C 
ATOM      4  O   UNL A   1      30.653  25.938  24.616  1.00  0.00    -0.249 OA
BRANCH   3   5
ATOM      5  C   UNL A   1      32.702  26.406  23.356  1.00  0.00     0.135 C 
ATOM      6  C   UNL A   1      33.880  26.164  24.320  1.00  0.00     0.047 C 
BRANCH   5   7
ATOM      7  C   UNL A   1      32.912  27.750  22.567  1.00  0.00     0.037 C 
ATOM      8  C   UNL A   1      34.205  28.519  22.824  1.00  0.00     0.007 C 
ENDBRANCH   5   7
BRANCH   5   9
ATOM      9  N   UNL A   1      32.756  25.319  22.326  1.00  0.00    -0.335 N 
ATOM     10  C   UNL A   1      32.952  23.974  22.297  1.00  0.00     0.286 C 
ATOM     11  H   UNL A   1      32.610  25.678  21.421  1.00  0.00     0.164 HD
ATOM     12  O   UNL A   1      33.732  23.586  21.413  1.00  0.00    -0.267 OA
BRANCH  10  13
ATOM     13  C   UNL A   1      32.159  22.934  23.150  1.00  0.00     0.196 C 
ATOM     14  C   UNL A   1      32.122  21.612  22.396  1.00  0.00     0.096 C 
BRANCH  13  15
ATOM     15  N   UNL A   1      30.729  23.372  23.196  1.00  0.00    -0.341 N 
ATOM     16  H   UNL A   1      30.687  24.387  23.289  1.00  0.00     0.345 HD
ATOM     17  H   UNL A   1      30.265  22.938  23.993  1.00  0.00     0.345 HD
ATOM     18  H   UNL A   1      30.260  23.091  22.334  1.00  0.00     0.345 HD
ENDBRANCH  13  15
BRANCH  13  19
ATOM     19  C   UNL A   1      32.680  22.826  24.595  1.00  0.00     0.022 A 
ATOM     20  C   UNL A   1      31.854  22.996  25.725  1.00  0.00     0.011 A 
ATOM     21  C   UNL A   1      34.037  22.543  24.840  1.00  0.00     0.011 A 
ATOM     22  C   UNL A   1      32.374  22.996  27.023  1.00  0.00     0.001 A 
ATOM     23  C   UNL A   1      34.555  22.520  26.140  1.00  0.00     0.001 A 
ATOM     24  C   UNL A   1      33.728  22.772  27.229  1.00  0.00     0.000 A 
ENDBRANCH  13  19
ENDBRANCH  10  13
ENDBRANCH   5   9
ENDBRANCH   3   5
ENDBRANCH   2   3
ENDBRANCH   1   2
BRANCH   1  25
ATOM     25  C   UNL A   1      31.666  29.834  26.338  1.00  0.00     0.275 C 
BRANCH  25  26
ATOM     26  O   UNL A   1      32.724  29.962  27.305  1.00  0.00    -0.458 OA
BRANCH  26  27
ATOM     27  C   UNL A   1      33.289  31.187  27.424  1.00  0.00     0.338 C 
ATOM     28  O   UNL A   1      32.720  32.262  27.304  1.00  0.00    -0.246 OA
BRANCH  27  29
ATOM     29  C   UNL A   1      34.730  31.046  27.747  1.00  0.00     0.060 A 
ATOM     30  C   UNL A   1      35.566  32.159  27.910  1.00  0.00     0.016 A 
ATOM     31  C   UNL A   1      35.251  29.763  27.919  1.00  0.00     0.016 A 
ATOM     32  C   UNL A   1      36.895  32.002  28.296  1.00  0.00     0.010 A 
ATOM     33  C   UNL A   1      36.553  29.609  28.389  1.00  0.00     0.010 A 
ATOM     34  C   UNL A   1      37.370  30.730  28.624  1.00  0.00    -0.014 A 
BRANCH  34  35
ATOM     35  C   UNL A   1      38.651  30.529  29.346  1.00  0.00     0.031 A 
ATOM     36  C   UNL A   1      39.646  29.545  28.820  1.00  0.00     0.074 A 
ATOM     37  C   UNL A   1      38.798  31.078  30.568  1.00  0.00     0.049 A 
ATOM     38  N   UNL A   1      40.598  28.911  29.447  1.00  0.00    -0.248 NA
ATOM     39  C   UNL A   1      39.514  29.198  27.397  1.00  0.00     0.031 C 
ATOM     40  C   UNL A   1      37.892  32.055  31.176  1.00  0.00     0.029 A 
ATOM     41  N   UNL A   1      39.730  30.839  31.548  1.00  0.00    -0.354 N 
ATOM     42  C   UNL A   1      41.141  28.037  28.514  1.00  0.00     0.074 A 
ATOM     43  C   UNL A   1      40.407  28.225  27.281  1.00  0.00     0.031 C 
ATOM     44  C   UNL A   1      38.288  32.307  32.430  1.00  0.00     0.029 A 
ATOM     45  C   UNL A   1      39.422  31.449  32.742  1.00  0.00     0.049 A 
ATOM     46  H   UNL A   1      40.535  30.288  31.410  1.00  0.00     0.167 HD
ATOM     47  C   UNL A   1      42.151  27.150  28.691  1.00  0.00     0.037 A 
ATOM     48  C   UNL A   1      39.943  31.282  33.971  1.00  0.00     0.037 A 
ATOM     49  C   UNL A   1      42.864  26.999  29.934  1.00  0.00     0.049 A 
ATOM     50  C   UNL A   1      41.051  30.289  34.152  1.00  0.00     0.074 A 
ATOM     51  C   UNL A   1      43.934  26.174  30.225  1.00  0.00     0.029 A 
ATOM     52  N   UNL A   1      42.565  27.693  31.102  1.00  0.00    -0.354 N 
ATOM     53  N   UNL A   1      41.572  29.469  33.270  1.00  0.00    -0.248 NA
ATOM     54  C   UNL A   1      41.644  30.194  35.491  1.00  0.00     0.031 C 
ATOM     55  C   UNL A   1      44.250  26.331  31.579  1.00  0.00     0.029 A 
ATOM     56  C   UNL A   1      43.418  27.300  32.119  1.00  0.00     0.049 A 
ATOM     57  H   UNL A   1      41.850  28.364  31.192  1.00  0.00     0.167 HD
ATOM     58  C   UNL A   1      42.573  28.779  33.937  1.00  0.00     0.074 A 
ATOM     59  C   UNL A   1      42.586  29.280  35.298  1.00  0.00     0.031 C 
ATOM     60  C   UNL A   1      43.412  27.824  33.464  1.00  0.00     0.037 A 
BRANCH  47  61
ATOM     61  C   UNL A   1      42.492  26.253  27.534  1.00  0.00     0.057 A 
ATOM     62  C   UNL A   1      43.387  26.634  26.524  1.00  0.00     0.134 A 
ATOM     63  C   UNL A   1      41.896  24.990  27.414  1.00  0.00     0.134 A 
ATOM     64  F   UNL A   1      43.988  27.833  26.566  1.00  0.00    -0.206 F 
ATOM     65  C   UNL A   1      43.636  25.818  25.417  1.00  0.00     0.040 A 
ATOM     66  C   UNL A   1      42.163  24.150  26.330  1.00  0.00     0.040 A 
ATOM     67  F   UNL A   1      41.035  24.550  28.345  1.00  0.00    -0.206 F 
ATOM     68  C   UNL A   1      43.024  24.571  25.319  1.00  0.00     0.006 A 
ENDBRANCH  47  61
BRANCH  48  69
ATOM     69  C   UNL A   1      39.394  32.067  35.106  1.00  0.00     0.057 A 
ATOM     70  C   UNL A   1      38.499  31.487  36.011  1.00  0.00     0.134 A 
ATOM     71  C   UNL A   1      39.812  33.379  35.364  1.00  0.00     0.134 A 
ATOM     72  F   UNL A   1      38.053  30.238  35.812  1.00  0.00    -0.206 F 
ATOM     73  C   UNL A   1      38.042  32.181  37.133  1.00  0.00     0.040 A 
ATOM     74  C   UNL A   1      39.383  34.076  36.494  1.00  0.00     0.040 A 
ATOM     75  F   UNL A   1      40.682  33.987  34.543  1.00  0.00    -0.206 F 
ATOM     76  C   UNL A   1      38.493  33.476  37.384  1.00  0.00     0.006 A 
ENDBRANCH  48  69
BRANCH  60  77
ATOM     77  C   UNL A   1      44.451  27.301  34.410  1.00  0.00     0.057 A 
ATOM     78  C   UNL A   1      45.688  27.933  34.580  1.00  0.00     0.134 A 
ATOM     79  C   UNL A   1      44.179  26.178  35.203  1.00  0.00     0.134 A 
ATOM     80  F   UNL A   1      46.014  29.002  33.838  1.00  0.00    -0.206 F 
ATOM     81  C   UNL A   1      46.625  27.459  35.500  1.00  0.00     0.040 A 
ATOM     82  C   UNL A   1      45.096  25.712  36.144  1.00  0.00     0.040 A 
ATOM     83  F   UNL A   1      43.009  25.532  35.090  1.00  0.00    -0.206 F 
ATOM     84  C   UNL A   1      46.325  26.351  36.293  1.00  0.00     0.006 A 
ENDBRANCH  60  77
ENDBRANCH  34  35
ENDBRANCH  27  29
ENDBRANCH  26  27
ENDBRANCH  25  26
ENDBRANCH   1  25
TORSDOF 16
ENDMDL
MODEL 3
REMARK VINA RESULT:     -11.3      2.892      7.371
REMARK SMILES CC[C@](C)(NC(=O)[C@](C)([NH3+])c1ccccc1)C(=O)OCCOC(=O)c1ccc(-c2c3nc(c(-c4c(F)cccc4F)c4ccc([nH]4)c(-c4c(F)cccc4F)c4nc(c(-c5c(F)cccc5F)c5ccc2[nH]5)C=C4)C=C3)cc1
REMARK SMILES IDX 20 1 19 2 17 3 18 4 3 5 4 6 2 7 1 8 5 9 6 10 7 12 8 13 9 14
REMARK SMILES IDX 10 15 11 19 12 20 16 21 13 22 15 23 14 24 21 25 22 26 23 27
REMARK SMILES IDX 24 28 25 29 26 30 78 31 27 32 77 33 28 34 29 35 30 36 71 37
REMARK SMILES IDX 31 38 76 39 70 40 72 41 32 42 75 43 69 44 68 45 33 47 59 48
REMARK SMILES IDX 42 49 58 50 43 51 46 52 57 53 73 54 44 55 45 56 56 58 74 59
REMARK SMILES IDX 47 60 34 61 35 62 40 63 36 64 37 65 39 66 41 67 38 68 60 69
REMARK SMILES IDX 61 70 66 71 62 72 63 73 65 74 67 75 64 76 48 77 49 78 54 79
REMARK SMILES IDX 50 80 51 81 53 82 55 83 52 84
REMARK H PARENT 5 11 10 16 10 17 10 18 72 46 46 57
REMARK Flexibility Score: inf
ROOT
ATOM      1  C   UNL A   1      31.732  27.799  27.389  1.00  0.00     0.274 C 
ENDROOT
BRANCH   1   2
ATOM      2  O   UNL A   1      32.297  26.950  26.354  1.00  0.00    -0.460 OA
BRANCH   2   3
ATOM      3  C   UNL A   1      31.698  25.747  26.185  1.00  0.00     0.331 C 
ATOM      4  O   UNL A   1      31.470  24.975  27.115  1.00  0.00    -0.249 OA
BRANCH   3   5
ATOM      5  C   UNL A   1      31.370  25.362  24.698  1.00  0.00     0.135 C 
ATOM      6  C   UNL A   1      32.534  25.889  23.836  1.00  0.00     0.047 C 
BRANCH   5   7
ATOM      7  C   UNL A   1      30.079  26.229  24.456  1.00  0.00     0.037 C 
ATOM      8  C   UNL A   1      30.202  27.419  23.509  1.00  0.00     0.007 C 
ENDBRANCH   5   7
BRANCH   5   9
ATOM      9  N   UNL A   1      31.039  23.993  24.188  1.00  0.00    -0.335 N 
ATOM     10  C   UNL A   1      31.706  22.847  23.886  1.00  0.00     0.286 C 
ATOM     11  H   UNL A   1      30.072  23.896  24.027  1.00  0.00     0.164 HD
ATOM     12  O   UNL A   1      31.371  22.324  22.811  1.00  0.00    -0.267 OA
BRANCH  10  13
ATOM     13  C   UNL A   1      32.687  22.101  24.845  1.00  0.00     0.196 C 
ATOM     14  C   UNL A   1      32.621  20.610  24.546  1.00  0.00     0.096 C 
BRANCH  13  15
ATOM     15  N   UNL A   1      32.148  22.221  26.237  1.00  0.00    -0.341 N 
ATOM     16  H   UNL A   1      31.152  22.002  26.235  1.00  0.00     0.345 HD
ATOM     17  H   UNL A   1      32.285  23.173  26.574  1.00  0.00     0.345 HD
ATOM     18  H   UNL A   1      32.638  21.568  26.848  1.00  0.00     0.345 HD
ENDBRANCH  13  15
BRANCH  13  19
ATOM     19  C   UNL A   1      34.108  22.692  24.823  1.00  0.00     0.022 A 
ATOM     20  C   UNL A   1      34.926  22.685  23.675  1.00  0.00     0.011 A 
ATOM     21  C   UNL A   1      34.651  23.276  25.983  1.00  0.00     0.011 A 
ATOM     22  C   UNL A   1      36.250  23.133  23.712  1.00  0.00     0.001 A 
ATOM     23  C   UNL A   1      35.969  23.746  26.016  1.00  0.00     0.001 A 
ATOM     24  C   UNL A   1      36.776  23.651  24.887  1.00  0.00     0.000 A 
ENDBRANCH  13  19
ENDBRANCH  10  13
ENDBRANCH   5   9
ENDBRANCH   3   5
ENDBRANCH   2   3
ENDBRANCH   1   2
BRANCH   1  25
ATOM     25  C   UNL A   1      31.758  29.280  26.985  1.00  0.00     0.275 C 
BRANCH  25  26
ATOM     26  O   UNL A   1      33.120  29.681  26.745  1.00  0.00    -0.458 OA
BRANCH  26  27
ATOM     27  C   UNL A   1      33.513  30.849  27.305  1.00  0.00     0.338 C 
ATOM     28  O   UNL A   1      32.811  31.829  27.506  1.00  0.00    -0.246 OA
BRANCH  27  29
ATOM     29  C   UNL A   1      34.949  30.772  27.670  1.00  0.00     0.060 A 
ATOM     30  C   UNL A   1      35.721  31.921  27.890  1.00  0.00     0.016 A 
ATOM     31  C   UNL A   1      35.530  29.513  27.824  1.00  0.00     0.016 A 
ATOM     32  C   UNL A   1      37.044  31.821  28.315  1.00  0.00     0.010 A 
ATOM     33  C   UNL A   1      36.823  29.413  28.332  1.00  0.00     0.010 A 
ATOM     34  C   UNL A   1      37.573  30.567  28.622  1.00  0.00    -0.014 A 
BRANCH  34  35
ATOM     35  C   UNL A   1      38.840  30.410  29.380  1.00  0.00     0.031 A 
ATOM     36  C   UNL A   1      39.866  29.432  28.904  1.00  0.00     0.074 A 
ATOM     37  C   UNL A   1      38.948  30.995  30.589  1.00  0.00     0.049 A 
ATOM     38  N   UNL A   1      40.815  28.834  29.572  1.00  0.00    -0.248 NA
ATOM     39  C   UNL A   1      39.775  29.044  27.489  1.00  0.00     0.031 C 
ATOM     40  C   UNL A   1      38.010  31.971  31.148  1.00  0.00     0.029 A 
ATOM     41  N   UNL A   1      39.861  30.801  31.597  1.00  0.00    -0.354 N 
ATOM     42  C   UNL A   1      41.397  27.946  28.676  1.00  0.00     0.074 A 
ATOM     43  C   UNL A   1      40.688  28.086  27.421  1.00  0.00     0.031 C 
ATOM     44  C   UNL A   1      38.371  32.265  32.404  1.00  0.00     0.029 A 
ATOM     45  C   UNL A   1      39.513  31.438  32.766  1.00  0.00     0.049 A 
ATOM     46  H   UNL A   1      40.679  30.263  31.493  1.00  0.00     0.167 HD
ATOM     47  C   UNL A   1      42.418  27.084  28.901  1.00  0.00     0.037 A 
ATOM     48  C   UNL A   1      40.008  31.316  34.010  1.00  0.00     0.037 A 
ATOM     49  C   UNL A   1      43.104  26.981  30.164  1.00  0.00     0.049 A 
ATOM     50  C   UNL A   1      41.129  30.350  34.246  1.00  0.00     0.074 A 
ATOM     51  C   UNL A   1      44.183  26.185  30.503  1.00  0.00     0.029 A 
ATOM     52  N   UNL A   1      42.764  27.700  31.304  1.00  0.00    -0.354 N 
ATOM     53  N   UNL A   1      41.687  29.516  33.399  1.00  0.00    -0.248 NA
ATOM     54  C   UNL A   1      41.692  30.303  35.600  1.00  0.00     0.031 C 
ATOM     55  C   UNL A   1      44.463  26.386  31.858  1.00  0.00     0.029 A 
ATOM     56  C   UNL A   1      43.600  27.353  32.352  1.00  0.00     0.049 A 
ATOM     57  H   UNL A   1      42.035  28.360  31.360  1.00  0.00     0.167 HD
ATOM     58  C   UNL A   1      42.684  28.864  34.108  1.00  0.00     0.074 A 
ATOM     59  C   UNL A   1      42.655  29.403  35.455  1.00  0.00     0.031 C 
ATOM     60  C   UNL A   1      43.552  27.913  33.682  1.00  0.00     0.037 A 
BRANCH  47  61
ATOM     61  C   UNL A   1      42.804  26.162  27.777  1.00  0.00     0.057 A 
ATOM     62  C   UNL A   1      42.217  24.902  27.603  1.00  0.00     0.134 A 
ATOM     63  C   UNL A   1      43.800  26.535  26.864  1.00  0.00     0.134 A 
ATOM     64  F   UNL A   1      41.264  24.472  28.444  1.00  0.00    -0.206 F 
ATOM     65  C   UNL A   1      42.641  24.028  26.597  1.00  0.00     0.040 A 
ATOM     66  C   UNL A   1      44.208  25.685  25.834  1.00  0.00     0.040 A 
ATOM     67  F   UNL A   1      44.403  27.730  26.960  1.00  0.00    -0.206 F 
ATOM     68  C   UNL A   1      43.638  24.420  25.707  1.00  0.00     0.006 A 
ENDBRANCH  47  61
BRANCH  48  69
ATOM     69  C   UNL A   1      39.417  32.120  35.111  1.00  0.00     0.057 A 
ATOM     70  C   UNL A   1      39.767  33.462  35.285  1.00  0.00     0.134 A 
ATOM     71  C   UNL A   1      38.431  31.595  35.958  1.00  0.00     0.134 A 
ATOM     72  F   UNL A   1      40.711  34.018  34.513  1.00  0.00    -0.206 F 
ATOM     73  C   UNL A   1      39.156  34.256  36.258  1.00  0.00     0.040 A 
ATOM     74  C   UNL A   1      37.795  32.383  36.918  1.00  0.00     0.040 A 
ATOM     75  F   UNL A   1      38.039  30.318  35.832  1.00  0.00    -0.206 F 
ATOM     76  C   UNL A   1      38.158  33.720  37.070  1.00  0.00     0.006 A 
ENDBRANCH  48  69
BRANCH  60  77
ATOM     77  C   UNL A   1      44.578  27.436  34.666  1.00  0.00     0.057 A 
ATOM     78  C   UNL A   1      44.370  26.311  35.472  1.00  0.00     0.134 A 
ATOM     79  C   UNL A   1      45.816  28.086  34.760  1.00  0.00     0.134 A 
ATOM     80  F   UNL A   1      43.200  25.658  35.440  1.00  0.00    -0.206 F 
ATOM     81  C   UNL A   1      45.356  25.855  36.348  1.00  0.00     0.040 A 
ATOM     82  C   UNL A   1      46.819  27.622  35.611  1.00  0.00     0.040 A 
ATOM     83  F   UNL A   1      46.078  29.166  34.009  1.00  0.00    -0.206 F 
ATOM     84  C   UNL A   1      46.589  26.505  36.411  1.00  0.00     0.006 A 
ENDBRANCH  60  77
ENDBRANCH  34  35
ENDBRANCH  27  29
ENDBRANCH  26  27
ENDBRANCH  25  26
ENDBRANCH   1  25
TORSDOF 16
ENDMDL
