MODEL 1
REMARK VINA RESULT:     -11.3      0.000      0.000
REMARK SMILES O=C(OCCOC(=O)[C@H]1CC=CC[C@H]1c1nc2ccccc2s1)c1ccc(-c2c3nc(c(-c4c(F)cccc4F)c4ccc([nH]4)c(-c4c(F)cccc4F)c4nc(c(-c5c(F)cccc5F)c5ccc2[nH]5)C=C4)C=C3)cc1
REMARK SMILES IDX 4 1 3 2 2 3 1 4 24 5 25 6 77 7 26 8 76 9 27 10 28 11 29 12
REMARK SMILES IDX 70 13 30 14 75 15 69 16 71 17 31 18 74 19 68 20 67 21 32 23
REMARK SMILES IDX 58 24 41 25 57 26 42 27 45 28 56 29 72 30 43 31 44 32 55 34
REMARK SMILES IDX 73 35 46 36 33 37 34 38 39 39 35 40 36 41 38 42 40 43 37 44
REMARK SMILES IDX 59 45 60 46 65 47 61 48 62 49 64 50 66 51 63 52 47 53 48 54
REMARK SMILES IDX 53 55 49 56 50 57 52 58 54 59 51 60 5 61 6 62 7 63 8 64 9 65
REMARK SMILES IDX 10 66 14 67 11 68 13 69 12 70 15 71 16 72 23 73 17 74 22 75
REMARK SMILES IDX 18 76 21 77 19 78 20 79
REMARK H PARENT 71 22 45 33
REMARK Flexibility Score: inf
ROOT
ATOM      1  C   UNL A   1      31.799  26.157  22.466  1.00  0.00     0.275 C 
ENDROOT
BRANCH   1   2
ATOM      2  O   UNL A   1      31.483  27.197  23.414  1.00  0.00    -0.458 OA
BRANCH   2   3
ATOM      3  C   UNL A   1      31.606  27.222  24.762  1.00  0.00     0.338 C 
ATOM      4  O   UNL A   1      30.701  26.757  25.455  1.00  0.00    -0.246 OA
BRANCH   3   5
ATOM      5  C   UNL A   1      32.720  27.924  25.474  1.00  0.00     0.060 A 
ATOM      6  C   UNL A   1      33.759  28.625  24.861  1.00  0.00     0.016 A 
ATOM      7  C   UNL A   1      32.701  27.870  26.881  1.00  0.00     0.016 A 
ATOM      8  C   UNL A   1      34.685  29.347  25.617  1.00  0.00     0.010 A 
ATOM      9  C   UNL A   1      33.630  28.584  27.647  1.00  0.00     0.010 A 
ATOM     10  C   UNL A   1      34.620  29.345  27.012  1.00  0.00    -0.014 A 
BRANCH  10  11
ATOM     11  C   UNL A   1      35.672  30.042  27.782  1.00  0.00     0.031 A 
ATOM     12  C   UNL A   1      35.313  31.315  28.477  1.00  0.00     0.074 A 
ATOM     13  C   UNL A   1      36.896  29.504  27.942  1.00  0.00     0.049 A 
ATOM     14  N   UNL A   1      36.014  31.988  29.347  1.00  0.00    -0.248 NA
ATOM     15  C   UNL A   1      33.967  31.856  28.225  1.00  0.00     0.031 C 
ATOM     16  C   UNL A   1      37.306  28.195  27.455  1.00  0.00     0.029 A 
ATOM     17  N   UNL A   1      38.026  29.980  28.554  1.00  0.00    -0.354 N 
ATOM     18  C   UNL A   1      35.159  32.966  29.826  1.00  0.00     0.074 A 
ATOM     19  C   UNL A   1      33.929  32.872  29.072  1.00  0.00     0.031 C 
ATOM     20  C   UNL A   1      38.621  28.022  27.651  1.00  0.00     0.029 A 
ATOM     21  C   UNL A   1      39.128  29.177  28.369  1.00  0.00     0.049 A 
ATOM     22  H   UNL A   1      38.046  30.816  29.075  1.00  0.00     0.167 HD
ATOM     23  C   UNL A   1      35.372  33.820  30.851  1.00  0.00     0.037 A 
ATOM     24  C   UNL A   1      40.401  29.329  28.774  1.00  0.00     0.037 A 
ATOM     25  C   UNL A   1      36.630  33.942  31.536  1.00  0.00     0.049 A 
ATOM     26  C   UNL A   1      40.679  30.426  29.758  1.00  0.00     0.074 A 
ATOM     27  C   UNL A   1      36.986  34.819  32.542  1.00  0.00     0.029 A 
ATOM     28  N   UNL A   1      37.754  33.173  31.256  1.00  0.00    -0.354 N 
ATOM     29  N   UNL A   1      39.844  31.307  30.253  1.00  0.00    -0.248 NA
ATOM     30  C   UNL A   1      42.036  30.498  30.305  1.00  0.00     0.031 C 
ATOM     31  C   UNL A   1      38.341  34.620  32.831  1.00  0.00     0.029 A 
ATOM     32  C   UNL A   1      38.816  33.582  32.044  1.00  0.00     0.049 A 
ATOM     33  H   UNL A   1      37.790  32.445  30.594  1.00  0.00     0.167 HD
ATOM     34  C   UNL A   1      40.556  32.003  31.215  1.00  0.00     0.074 A 
ATOM     35  C   UNL A   1      41.891  31.432  31.233  1.00  0.00     0.031 C 
ATOM     36  C   UNL A   1      40.140  33.008  32.023  1.00  0.00     0.037 A 
BRANCH  23  37
ATOM     37  C   UNL A   1      34.211  34.671  31.259  1.00  0.00     0.057 A 
ATOM     38  C   UNL A   1      33.745  35.711  30.440  1.00  0.00     0.134 A 
ATOM     39  C   UNL A   1      33.578  34.485  32.492  1.00  0.00     0.134 A 
ATOM     40  F   UNL A   1      34.331  35.961  29.258  1.00  0.00    -0.206 F 
ATOM     41  C   UNL A   1      32.706  36.550  30.844  1.00  0.00     0.040 A 
ATOM     42  C   UNL A   1      32.524  35.305  32.898  1.00  0.00     0.040 A 
ATOM     43  F   UNL A   1      33.984  33.518  33.325  1.00  0.00    -0.206 F 
ATOM     44  C   UNL A   1      32.090  36.346  32.077  1.00  0.00     0.006 A 
ENDBRANCH  23  37
BRANCH  24  45
ATOM     45  C   UNL A   1      41.461  28.393  28.318  1.00  0.00     0.057 A 
ATOM     46  C   UNL A   1      42.089  28.526  27.076  1.00  0.00     0.134 A 
ATOM     47  C   UNL A   1      41.855  27.315  29.123  1.00  0.00     0.134 A 
ATOM     48  F   UNL A   1      41.759  29.535  26.258  1.00  0.00    -0.206 F 
ATOM     49  C   UNL A   1      43.038  27.602  26.630  1.00  0.00     0.040 A 
ATOM     50  C   UNL A   1      42.817  26.396  28.701  1.00  0.00     0.040 A 
ATOM     51  F   UNL A   1      41.306  27.139  30.334  1.00  0.00    -0.206 F 
ATOM     52  C   UNL A   1      43.403  26.531  27.444  1.00  0.00     0.006 A 
ENDBRANCH  24  45
BRANCH  36  53
ATOM     53  C   UNL A   1      41.151  33.540  32.994  1.00  0.00     0.057 A 
ATOM     54  C   UNL A   1      41.247  33.046  34.301  1.00  0.00     0.134 A 
ATOM     55  C   UNL A   1      42.040  34.552  32.613  1.00  0.00     0.134 A 
ATOM     56  F   UNL A   1      40.409  32.089  34.731  1.00  0.00    -0.206 F 
ATOM     57  C   UNL A   1      42.168  33.568  35.208  1.00  0.00     0.040 A 
ATOM     58  C   UNL A   1      42.989  35.056  33.500  1.00  0.00     0.040 A 
ATOM     59  F   UNL A   1      42.003  35.062  31.372  1.00  0.00    -0.206 F 
ATOM     60  C   UNL A   1      43.047  34.571  34.805  1.00  0.00     0.006 A 
ENDBRANCH  36  53
ENDBRANCH  10  11
ENDBRANCH   3   5
ENDBRANCH   2   3
ENDBRANCH   1   2
BRANCH   1  61
ATOM     61  C   UNL A   1      33.279  26.025  22.105  1.00  0.00     0.274 C 
BRANCH  61  62
ATOM     62  O   UNL A   1      34.074  25.548  23.197  1.00  0.00    -0.462 OA
BRANCH  62  63
ATOM     63  C   UNL A   1      34.066  24.197  23.382  1.00  0.00     0.310 C 
ATOM     64  O   UNL A   1      34.417  23.408  22.513  1.00  0.00    -0.252 OA
BRANCH  63  65
ATOM     65  C   UNL A   1      33.706  23.823  24.826  1.00  0.00     0.113 C 
ATOM     66  C   UNL A   1      32.204  23.621  25.015  1.00  0.00     0.043 C 
ATOM     67  C   UNL A   1      34.434  22.568  25.349  1.00  0.00     0.067 C 
ATOM     68  C   UNL A   1      31.709  22.292  24.531  1.00  0.00    -0.030 C 
ATOM     69  C   UNL A   1      34.015  21.327  24.533  1.00  0.00     0.038 C 
ATOM     70  C   UNL A   1      32.530  21.262  24.293  1.00  0.00    -0.031 C 
BRANCH  67  71
ATOM     71  C   UNL A   1      35.922  22.779  25.369  1.00  0.00     0.098 A 
ATOM     72  N   UNL A   1      36.502  23.889  25.760  1.00  0.00    -0.241 NA
ATOM     73  S   UNL A   1      36.991  21.475  25.017  1.00  0.00    -0.118 S 
ATOM     74  C   UNL A   1      37.802  23.610  26.129  1.00  0.00     0.082 A 
ATOM     75  C   UNL A   1      38.257  22.331  25.807  1.00  0.00     0.055 A 
ATOM     76  C   UNL A   1      38.658  24.485  26.823  1.00  0.00     0.030 A 
ATOM     77  C   UNL A   1      39.549  21.897  26.141  1.00  0.00     0.021 A 
ATOM     78  C   UNL A   1      39.935  24.054  27.190  1.00  0.00     0.002 A 
ATOM     79  C   UNL A   1      40.374  22.777  26.849  1.00  0.00     0.002 A 
ENDBRANCH  67  71
ENDBRANCH  63  65
ENDBRANCH  62  63
ENDBRANCH  61  62
ENDBRANCH   1  61
TORSDOF 12
ENDMDL
MODEL 2
REMARK VINA RESULT:     -11.1      3.045      8.080
REMARK SMILES O=C(OCCOC(=O)[C@H]1CC=CC[C@H]1c1nc2ccccc2s1)c1ccc(-c2c3nc(c(-c4c(F)cccc4F)c4ccc([nH]4)c(-c4c(F)cccc4F)c4nc(c(-c5c(F)cccc5F)c5ccc2[nH]5)C=C4)C=C3)cc1
REMARK SMILES IDX 4 1 3 2 2 3 1 4 24 5 25 6 77 7 26 8 76 9 27 10 28 11 29 12
REMARK SMILES IDX 70 13 30 14 75 15 69 16 71 17 31 18 74 19 68 20 67 21 32 23
REMARK SMILES IDX 58 24 41 25 57 26 42 27 45 28 56 29 72 30 43 31 44 32 55 34
REMARK SMILES IDX 73 35 46 36 33 37 34 38 39 39 35 40 36 41 38 42 40 43 37 44
REMARK SMILES IDX 59 45 60 46 65 47 61 48 62 49 64 50 66 51 63 52 47 53 48 54
REMARK SMILES IDX 53 55 49 56 50 57 52 58 54 59 51 60 5 61 6 62 7 63 8 64 9 65
REMARK SMILES IDX 10 66 14 67 11 68 13 69 12 70 15 71 16 72 23 73 17 74 22 75
REMARK SMILES IDX 18 76 21 77 19 78 20 79
REMARK H PARENT 71 22 45 33
REMARK Flexibility Score: inf
ROOT
ATOM      1  C   UNL A   1      37.277  22.193  24.456  1.00  0.00     0.275 C 
ENDROOT
BRANCH   1   2
ATOM      2  O   UNL A   1      37.778  22.407  25.790  1.00  0.00    -0.458 OA
BRANCH   2   3
ATOM      3  C   UNL A   1      39.027  22.704  26.222  1.00  0.00     0.338 C 
ATOM      4  O   UNL A   1      39.882  21.819  26.234  1.00  0.00    -0.246 OA
BRANCH   3   5
ATOM      5  C   UNL A   1      39.395  24.019  26.834  1.00  0.00     0.060 A 
ATOM      6  C   UNL A   1      39.166  24.388  28.161  1.00  0.00     0.016 A 
ATOM      7  C   UNL A   1      40.031  24.951  25.991  1.00  0.00     0.016 A 
ATOM      8  C   UNL A   1      39.654  25.595  28.667  1.00  0.00     0.010 A 
ATOM      9  C   UNL A   1      40.517  26.165  26.489  1.00  0.00     0.010 A 
ATOM     10  C   UNL A   1      40.345  26.484  27.842  1.00  0.00    -0.014 A 
BRANCH  10  11
ATOM     11  C   UNL A   1      40.764  27.793  28.387  1.00  0.00     0.031 A 
ATOM     12  C   UNL A   1      42.227  28.061  28.535  1.00  0.00     0.074 A 
ATOM     13  C   UNL A   1      39.867  28.761  28.653  1.00  0.00     0.049 A 
ATOM     14  N   UNL A   1      42.819  29.189  28.813  1.00  0.00    -0.248 NA
ATOM     15  C   UNL A   1      43.141  26.941  28.257  1.00  0.00     0.031 C 
ATOM     16  C   UNL A   1      38.439  28.675  28.390  1.00  0.00     0.029 A 
ATOM     17  N   UNL A   1      40.011  30.008  29.203  1.00  0.00    -0.354 N 
ATOM     18  C   UNL A   1      44.171  28.944  28.638  1.00  0.00     0.074 A 
ATOM     19  C   UNL A   1      44.321  27.537  28.341  1.00  0.00     0.031 C 
ATOM     20  C   UNL A   1      37.811  29.743  28.902  1.00  0.00     0.029 A 
ATOM     21  C   UNL A   1      38.814  30.640  29.447  1.00  0.00     0.049 A 
ATOM     22  H   UNL A   1      40.887  30.412  29.404  1.00  0.00     0.167 HD
ATOM     23  C   UNL A   1      45.182  29.839  28.662  1.00  0.00     0.037 A 
ATOM     24  C   UNL A   1      38.550  31.835  30.006  1.00  0.00     0.037 A 
ATOM     25  C   UNL A   1      45.015  31.219  29.031  1.00  0.00     0.049 A 
ATOM     26  C   UNL A   1      39.713  32.753  30.233  1.00  0.00     0.074 A 
ATOM     27  C   UNL A   1      45.977  32.202  29.159  1.00  0.00     0.029 A 
ATOM     28  N   UNL A   1      43.797  31.800  29.362  1.00  0.00    -0.354 N 
ATOM     29  N   UNL A   1      40.984  32.532  30.001  1.00  0.00    -0.248 NA
ATOM     30  C   UNL A   1      39.407  34.105  30.707  1.00  0.00     0.031 C 
ATOM     31  C   UNL A   1      45.348  33.364  29.623  1.00  0.00     0.029 A 
ATOM     32  C   UNL A   1      43.987  33.121  29.732  1.00  0.00     0.049 A 
ATOM     33  H   UNL A   1      42.927  31.341  29.338  1.00  0.00     0.167 HD
ATOM     34  C   UNL A   1      41.628  33.733  30.245  1.00  0.00     0.074 A 
ATOM     35  C   UNL A   1      40.599  34.679  30.637  1.00  0.00     0.031 C 
ATOM     36  C   UNL A   1      42.945  34.032  30.137  1.00  0.00     0.037 A 
BRANCH  23  37
ATOM     37  C   UNL A   1      46.535  29.323  28.284  1.00  0.00     0.057 A 
ATOM     38  C   UNL A   1      46.974  29.330  26.951  1.00  0.00     0.134 A 
ATOM     39  C   UNL A   1      47.393  28.777  29.244  1.00  0.00     0.134 A 
ATOM     40  F   UNL A   1      46.185  29.813  25.978  1.00  0.00    -0.206 F 
ATOM     41  C   UNL A   1      48.207  28.790  26.585  1.00  0.00     0.040 A 
ATOM     42  C   UNL A   1      48.638  28.253  28.893  1.00  0.00     0.040 A 
ATOM     43  F   UNL A   1      47.027  28.728  30.533  1.00  0.00    -0.206 F 
ATOM     44  C   UNL A   1      49.045  28.252  27.559  1.00  0.00     0.006 A 
ENDBRANCH  23  37
BRANCH  24  45
ATOM     45  C   UNL A   1      37.154  32.243  30.305  1.00  0.00     0.057 A 
ATOM     46  C   UNL A   1      36.375  32.962  29.392  1.00  0.00     0.134 A 
ATOM     47  C   UNL A   1      36.569  31.936  31.541  1.00  0.00     0.134 A 
ATOM     48  F   UNL A   1      36.874  33.288  28.191  1.00  0.00    -0.206 F 
ATOM     49  C   UNL A   1      35.086  33.396  29.709  1.00  0.00     0.040 A 
ATOM     50  C   UNL A   1      35.274  32.344  31.864  1.00  0.00     0.040 A 
ATOM     51  F   UNL A   1      37.254  31.233  32.457  1.00  0.00    -0.206 F 
ATOM     52  C   UNL A   1      34.532  33.089  30.950  1.00  0.00     0.006 A 
ENDBRANCH  24  45
BRANCH  36  53
ATOM     53  C   UNL A   1      43.330  35.448  30.445  1.00  0.00     0.057 A 
ATOM     54  C   UNL A   1      43.371  36.432  29.449  1.00  0.00     0.134 A 
ATOM     55  C   UNL A   1      43.659  35.829  31.751  1.00  0.00     0.134 A 
ATOM     56  F   UNL A   1      43.085  36.124  28.175  1.00  0.00    -0.206 F 
ATOM     57  C   UNL A   1      43.762  37.739  29.737  1.00  0.00     0.040 A 
ATOM     58  C   UNL A   1      44.016  37.140  32.057  1.00  0.00     0.040 A 
ATOM     59  F   UNL A   1      43.632  34.934  32.751  1.00  0.00    -0.206 F 
ATOM     60  C   UNL A   1      44.078  38.098  31.045  1.00  0.00     0.006 A 
ENDBRANCH  36  53
ENDBRANCH  10  11
ENDBRANCH   3   5
ENDBRANCH   2   3
ENDBRANCH   1   2
BRANCH   1  61
ATOM     61  C   UNL A   1      36.422  23.326  23.885  1.00  0.00     0.274 C 
BRANCH  61  62
ATOM     62  O   UNL A   1      35.627  22.909  22.769  1.00  0.00    -0.462 OA
BRANCH  62  63
ATOM     63  C   UNL A   1      34.337  23.355  22.767  1.00  0.00     0.310 C 
ATOM     64  O   UNL A   1      33.630  23.329  21.768  1.00  0.00    -0.252 OA
BRANCH  63  65
ATOM     65  C   UNL A   1      33.870  23.744  24.176  1.00  0.00     0.113 C 
ATOM     66  C   UNL A   1      33.697  25.253  24.332  1.00  0.00     0.043 C 
ATOM     67  C   UNL A   1      32.560  23.058  24.614  1.00  0.00     0.067 C 
ATOM     68  C   UNL A   1      32.420  25.777  23.747  1.00  0.00    -0.030 C 
ATOM     69  C   UNL A   1      31.394  23.498  23.705  1.00  0.00     0.038 C 
ATOM     70  C   UNL A   1      31.388  24.981  23.443  1.00  0.00    -0.031 C 
BRANCH  67  71
ATOM     71  C   UNL A   1      32.729  21.565  24.667  1.00  0.00     0.098 A 
ATOM     72  N   UNL A   1      32.023  20.718  23.955  1.00  0.00    -0.241 NA
ATOM     73  S   UNL A   1      34.011  20.866  25.580  1.00  0.00    -0.118 S 
ATOM     74  C   UNL A   1      32.720  19.532  23.847  1.00  0.00     0.082 A 
ATOM     75  C   UNL A   1      33.847  19.420  24.662  1.00  0.00     0.055 A 
ATOM     76  C   UNL A   1      32.405  18.479  22.969  1.00  0.00     0.030 A 
ATOM     77  C   UNL A   1      34.666  18.282  24.643  1.00  0.00     0.021 A 
ATOM     78  C   UNL A   1      33.232  17.354  22.917  1.00  0.00     0.002 A 
ATOM     79  C   UNL A   1      34.345  17.257  23.747  1.00  0.00     0.002 A 
ENDBRANCH  67  71
ENDBRANCH  63  65
ENDBRANCH  62  63
ENDBRANCH  61  62
ENDBRANCH   1  61
TORSDOF 12
ENDMDL
MODEL 3
REMARK VINA RESULT:     -11.0      3.858      7.798
REMARK SMILES O=C(OCCOC(=O)[C@H]1CC=CC[C@H]1c1nc2ccccc2s1)c1ccc(-c2c3nc(c(-c4c(F)cccc4F)c4ccc([nH]4)c(-c4c(F)cccc4F)c4nc(c(-c5c(F)cccc5F)c5ccc2[nH]5)C=C4)C=C3)cc1
REMARK SMILES IDX 4 1 3 2 2 3 1 4 24 5 25 6 77 7 26 8 76 9 27 10 28 11 29 12
REMARK SMILES IDX 70 13 30 14 75 15 69 16 71 17 31 18 74 19 68 20 67 21 32 23
REMARK SMILES IDX 58 24 41 25 57 26 42 27 45 28 56 29 72 30 43 31 44 32 55 34
REMARK SMILES IDX 73 35 46 36 33 37 34 38 39 39 35 40 36 41 38 42 40 43 37 44
REMARK SMILES IDX 59 45 60 46 65 47 61 48 62 49 64 50 66 51 63 52 47 53 48 54
REMARK SMILES IDX 53 55 49 56 50 57 52 58 54 59 51 60 5 61 6 62 7 63 8 64 9 65
REMARK SMILES IDX 10 66 14 67 11 68 13 69 12 70 15 71 16 72 23 73 17 74 22 75
REMARK SMILES IDX 18 76 21 77 19 78 20 79
REMARK H PARENT 71 22 45 33
REMARK Flexibility Score: inf
ROOT
ATOM      1  C   UNL A   1      32.292  29.639  27.113  1.00  0.00     0.275 C 
ENDROOT
BRANCH   1   2
ATOM      2  O   UNL A   1      33.546  30.294  26.833  1.00  0.00    -0.458 OA
BRANCH   2   3
ATOM      3  C   UNL A   1      34.400  30.944  27.658  1.00  0.00     0.338 C 
ATOM      4  O   UNL A   1      34.143  32.099  27.996  1.00  0.00    -0.246 OA
BRANCH   3   5
ATOM      5  C   UNL A   1      35.729  30.391  28.069  1.00  0.00     0.060 A 
ATOM      6  C   UNL A   1      36.897  30.440  27.308  1.00  0.00     0.016 A 
ATOM      7  C   UNL A   1      35.792  29.777  29.336  1.00  0.00     0.016 A 
ATOM      8  C   UNL A   1      38.116  30.000  27.831  1.00  0.00     0.010 A 
ATOM      9  C   UNL A   1      37.007  29.328  29.864  1.00  0.00     0.010 A 
ATOM     10  C   UNL A   1      38.183  29.456  29.115  1.00  0.00    -0.014 A 
BRANCH  10  11
ATOM     11  C   UNL A   1      39.472  28.914  29.599  1.00  0.00     0.031 A 
ATOM     12  C   UNL A   1      40.160  29.623  30.720  1.00  0.00     0.074 A 
ATOM     13  C   UNL A   1      39.971  27.760  29.118  1.00  0.00     0.049 A 
ATOM     14  N   UNL A   1      41.189  29.228  31.417  1.00  0.00    -0.248 NA
ATOM     15  C   UNL A   1      39.569  30.896  31.166  1.00  0.00     0.031 C 
ATOM     16  C   UNL A   1      39.308  26.899  28.151  1.00  0.00     0.029 A 
ATOM     17  N   UNL A   1      41.148  27.104  29.370  1.00  0.00    -0.354 N 
ATOM     18  C   UNL A   1      41.304  30.145  32.448  1.00  0.00     0.074 A 
ATOM     19  C   UNL A   1      40.314  31.175  32.224  1.00  0.00     0.031 C 
ATOM     20  C   UNL A   1      40.130  25.909  27.775  1.00  0.00     0.029 A 
ATOM     21  C   UNL A   1      41.351  26.014  28.554  1.00  0.00     0.049 A 
ATOM     22  H   UNL A   1      41.785  27.386  30.065  1.00  0.00     0.167 HD
ATOM     23  C   UNL A   1      42.124  30.084  33.520  1.00  0.00     0.037 A 
ATOM     24  C   UNL A   1      42.387  25.161  28.474  1.00  0.00     0.037 A 
ATOM     25  C   UNL A   1      43.148  29.088  33.682  1.00  0.00     0.049 A 
ATOM     26  C   UNL A   1      43.421  25.238  29.556  1.00  0.00     0.074 A 
ATOM     27  C   UNL A   1      44.085  28.967  34.689  1.00  0.00     0.029 A 
ATOM     28  N   UNL A   1      43.384  28.052  32.785  1.00  0.00    -0.354 N 
ATOM     29  N   UNL A   1      43.483  26.072  30.566  1.00  0.00    -0.248 NA
ATOM     30  C   UNL A   1      44.470  24.216  29.546  1.00  0.00     0.031 C 
ATOM     31  C   UNL A   1      44.925  27.892  34.373  1.00  0.00     0.029 A 
ATOM     32  C   UNL A   1      44.478  27.309  33.197  1.00  0.00     0.049 A 
ATOM     33  H   UNL A   1      42.852  27.873  31.976  1.00  0.00     0.167 HD
ATOM     34  C   UNL A   1      44.543  25.641  31.347  1.00  0.00     0.074 A 
ATOM     35  C   UNL A   1      45.088  24.468  30.690  1.00  0.00     0.031 C 
ATOM     36  C   UNL A   1      45.010  26.158  32.510  1.00  0.00     0.037 A 
BRANCH  23  37
ATOM     37  C   UNL A   1      41.929  31.135  34.567  1.00  0.00     0.057 A 
ATOM     38  C   UNL A   1      42.705  32.304  34.582  1.00  0.00     0.134 A 
ATOM     39  C   UNL A   1      40.993  30.966  35.593  1.00  0.00     0.134 A 
ATOM     40  F   UNL A   1      43.641  32.511  33.643  1.00  0.00    -0.206 F 
ATOM     41  C   UNL A   1      42.572  33.257  35.593  1.00  0.00     0.040 A 
ATOM     42  C   UNL A   1      40.837  31.922  36.598  1.00  0.00     0.040 A 
ATOM     43  F   UNL A   1      40.231  29.865  35.643  1.00  0.00    -0.206 F 
ATOM     44  C   UNL A   1      41.633  33.067  36.605  1.00  0.00     0.006 A 
ENDBRANCH  23  37
BRANCH  24  45
ATOM     45  C   UNL A   1      42.448  24.138  27.398  1.00  0.00     0.057 A 
ATOM     46  C   UNL A   1      41.986  22.831  27.585  1.00  0.00     0.134 A 
ATOM     47  C   UNL A   1      43.001  24.449  26.148  1.00  0.00     0.134 A 
ATOM     48  F   UNL A   1      41.446  22.468  28.757  1.00  0.00    -0.206 F 
ATOM     49  C   UNL A   1      42.107  21.860  26.587  1.00  0.00     0.040 A 
ATOM     50  C   UNL A   1      43.109  23.495  25.134  1.00  0.00     0.040 A 
ATOM     51  F   UNL A   1      43.447  25.688  25.895  1.00  0.00    -0.206 F 
ATOM     52  C   UNL A   1      42.673  22.191  25.358  1.00  0.00     0.006 A 
ENDBRANCH  24  45
BRANCH  36  53
ATOM     53  C   UNL A   1      46.166  25.438  33.136  1.00  0.00     0.057 A 
ATOM     54  C   UNL A   1      47.491  25.805  32.871  1.00  0.00     0.134 A 
ATOM     55  C   UNL A   1      45.949  24.372  34.017  1.00  0.00     0.134 A 
ATOM     56  F   UNL A   1      47.764  26.806  32.020  1.00  0.00    -0.206 F 
ATOM     57  C   UNL A   1      48.563  25.111  33.432  1.00  0.00     0.040 A 
ATOM     58  C   UNL A   1      47.011  23.694  34.612  1.00  0.00     0.040 A 
ATOM     59  F   UNL A   1      44.702  23.977  34.317  1.00  0.00    -0.206 F 
ATOM     60  C   UNL A   1      48.323  24.057  34.311  1.00  0.00     0.006 A 
ENDBRANCH  36  53
ENDBRANCH  10  11
ENDBRANCH   3   5
ENDBRANCH   2   3
ENDBRANCH   1   2
BRANCH   1  61
ATOM     61  C   UNL A   1      32.361  28.117  27.246  1.00  0.00     0.274 C 
BRANCH  61  62
ATOM     62  O   UNL A   1      31.065  27.506  27.267  1.00  0.00    -0.462 OA
BRANCH  62  63
ATOM     63  C   UNL A   1      30.926  26.399  26.482  1.00  0.00     0.310 C 
ATOM     64  O   UNL A   1      29.923  25.696  26.501  1.00  0.00    -0.252 OA
BRANCH  63  65
ATOM     65  C   UNL A   1      32.097  26.247  25.502  1.00  0.00     0.113 C 
ATOM     66  C   UNL A   1      33.034  25.106  25.893  1.00  0.00     0.043 C 
ATOM     67  C   UNL A   1      31.666  26.039  24.036  1.00  0.00     0.067 C 
ATOM     68  C   UNL A   1      32.522  23.749  25.516  1.00  0.00    -0.030 C 
ATOM     69  C   UNL A   1      30.889  24.715  23.888  1.00  0.00     0.038 C 
ATOM     70  C   UNL A   1      31.537  23.574  24.626  1.00  0.00    -0.031 C 
BRANCH  67  71
ATOM     71  C   UNL A   1      30.897  27.228  23.530  1.00  0.00     0.098 A 
ATOM     72  N   UNL A   1      29.660  27.175  23.098  1.00  0.00    -0.241 NA
ATOM     73  S   UNL A   1      31.570  28.810  23.640  1.00  0.00    -0.118 S 
ATOM     74  C   UNL A   1      29.100  28.434  23.184  1.00  0.00     0.082 A 
ATOM     75  C   UNL A   1      29.990  29.469  23.474  1.00  0.00     0.055 A 
ATOM     76  C   UNL A   1      27.732  28.728  23.044  1.00  0.00     0.030 A 
ATOM     77  C   UNL A   1      29.562  30.797  23.615  1.00  0.00     0.021 A 
ATOM     78  C   UNL A   1      27.288  30.042  23.214  1.00  0.00     0.002 A 
ATOM     79  C   UNL A   1      28.194  31.062  23.492  1.00  0.00     0.002 A 
ENDBRANCH  67  71
ENDBRANCH  63  65
ENDBRANCH  62  63
ENDBRANCH  61  62
ENDBRANCH   1  61
TORSDOF 12
ENDMDL
