MODEL 1
REMARK VINA RESULT:     -12.6      0.000      0.000
REMARK SMILES CC(=O)Nc1ccc(/C(=C\c2ccc(S(C)(=O)=O)cc2)C(=O)OCCOC(=O)c2ccc(-c3c4nc(c(-c5c(F)cccc5F)c5ccc([nH]5)c(-c5c(F)cccc5F)c5nc(c(-c6c(F)cccc6F)c6ccc3[nH]6)C=C5)C=C4)cc2)cc1
REMARK SMILES IDX 24 1 23 2 21 3 22 4 9 5 10 6 8 7 5 8 6 9 84 10 7 11 83 12
REMARK SMILES IDX 4 13 1 14 2 15 3 16 11 18 12 19 20 20 13 21 19 22 14 23
REMARK SMILES IDX 15 24 16 25 17 26 18 27 25 28 26 29 27 30 28 31 29 32 30 33
REMARK SMILES IDX 82 34 31 35 81 36 32 37 33 38 34 39 75 40 35 41 80 42 74 43
REMARK SMILES IDX 76 44 36 45 79 46 73 47 72 48 37 50 63 51 46 52 62 53 47 54
REMARK SMILES IDX 50 55 61 56 77 57 48 58 49 59 60 61 78 62 51 63 38 64 39 65
REMARK SMILES IDX 44 66 40 67 41 68 43 69 45 70 42 71 64 72 65 73 70 74 66 75
REMARK SMILES IDX 67 76 69 77 71 78 68 79 52 80 53 81 58 82 54 83 55 84 57 85
REMARK SMILES IDX 59 86 56 87
REMARK H PARENT 4 17 76 49 50 60
REMARK Flexibility Score: inf
ROOT
ATOM      1  C   UNL A   1      33.433  27.677  24.390  1.00  0.00     0.275 C 
ENDROOT
BRANCH   1   2
ATOM      2  O   UNL A   1      32.646  26.717  23.650  1.00  0.00    -0.458 OA
BRANCH   2   3
ATOM      3  C   UNL A   1      33.272  25.971  22.695  1.00  0.00     0.338 C 
ATOM      4  O   UNL A   1      33.681  26.394  21.625  1.00  0.00    -0.246 OA
BRANCH   3   5
ATOM      5  C   UNL A   1      33.440  24.541  23.156  1.00  0.00     0.067 C 
ATOM      6  C   UNL A   1      32.314  23.797  23.001  1.00  0.00     0.024 C 
BRANCH   5   7
ATOM      7  C   UNL A   1      34.740  24.075  23.767  1.00  0.00    -0.011 A 
ATOM      8  C   UNL A   1      36.851  22.777  25.195  1.00  0.00     0.041 A 
ATOM      9  C   UNL A   1      36.696  22.583  23.829  1.00  0.00     0.027 A 
ATOM     10  C   UNL A   1      36.094  23.770  25.794  1.00  0.00     0.027 A 
ATOM     11  C   UNL A   1      35.667  23.238  23.131  1.00  0.00     0.011 A 
ATOM     12  C   UNL A   1      35.070  24.418  25.081  1.00  0.00     0.011 A 
BRANCH   8  13
ATOM     13  N   UNL A   1      37.801  22.003  25.872  1.00  0.00    -0.326 N 
ATOM     14  C   UNL A   1      39.364  23.799  26.609  1.00  0.00     0.114 C 
ATOM     15  C   UNL A   1      39.000  22.348  26.432  1.00  0.00     0.221 C 
ATOM     16  O   UNL A   1      39.728  21.456  26.871  1.00  0.00    -0.275 OA
ATOM     17  H   UNL A   1      37.567  21.051  25.960  1.00  0.00     0.169 HD
ENDBRANCH   8  13
ENDBRANCH   5   7
BRANCH   6  18
ATOM     18  C   UNL A   1      32.142  22.385  23.342  1.00  0.00    -0.025 A 
ATOM     19  C   UNL A   1      31.991  21.472  22.290  1.00  0.00     0.009 A 
ATOM     20  C   UNL A   1      32.316  21.928  24.656  1.00  0.00     0.009 A 
ATOM     21  C   UNL A   1      32.153  20.110  22.527  1.00  0.00     0.021 A 
ATOM     22  C   UNL A   1      32.478  20.564  24.897  1.00  0.00     0.021 A 
ATOM     23  C   UNL A   1      32.434  19.669  23.823  1.00  0.00     0.067 A 
BRANCH  23  24
ATOM     24  S   UNL A   1      32.939  17.980  24.055  1.00  0.00     0.175 S 
ATOM     25  C   UNL A   1      34.623  18.111  24.576  1.00  0.00     0.163 C 
ATOM     26  O   UNL A   1      32.156  17.457  25.160  1.00  0.00    -0.224 OA
ATOM     27  O   UNL A   1      32.913  17.331  22.758  1.00  0.00    -0.224 OA
ENDBRANCH  23  24
ENDBRANCH   6  18
ENDBRANCH   3   5
ENDBRANCH   2   3
ENDBRANCH   1   2
BRANCH   1  28
ATOM     28  C   UNL A   1      32.503  28.683  25.072  1.00  0.00     0.275 C 
BRANCH  28  29
ATOM     29  O   UNL A   1      33.277  29.866  25.328  1.00  0.00    -0.458 OA
BRANCH  29  30
ATOM     30  C   UNL A   1      33.109  30.494  26.511  1.00  0.00     0.338 C 
ATOM     31  O   UNL A   1      32.091  31.006  26.952  1.00  0.00    -0.246 OA
BRANCH  30  32
ATOM     32  C   UNL A   1      34.387  30.384  27.244  1.00  0.00     0.060 A 
ATOM     33  C   UNL A   1      34.819  29.114  27.607  1.00  0.00     0.016 A 
ATOM     34  C   UNL A   1      35.132  31.497  27.625  1.00  0.00     0.016 A 
ATOM     35  C   UNL A   1      35.959  28.953  28.386  1.00  0.00     0.010 A 
ATOM     36  C   UNL A   1      36.333  31.320  28.338  1.00  0.00     0.010 A 
ATOM     37  C   UNL A   1      36.755  30.043  28.754  1.00  0.00    -0.014 A 
BRANCH  37  38
ATOM     38  C   UNL A   1      37.961  29.816  29.615  1.00  0.00     0.031 A 
ATOM     39  C   UNL A   1      39.120  28.991  29.106  1.00  0.00     0.074 A 
ATOM     40  C   UNL A   1      38.101  30.434  30.811  1.00  0.00     0.049 A 
ATOM     41  N   UNL A   1      40.192  28.590  29.744  1.00  0.00    -0.248 NA
ATOM     42  C   UNL A   1      39.082  28.584  27.693  1.00  0.00     0.031 C 
ATOM     43  C   UNL A   1      37.133  31.352  31.416  1.00  0.00     0.029 A 
ATOM     44  N   UNL A   1      39.133  30.411  31.722  1.00  0.00    -0.354 N 
ATOM     45  C   UNL A   1      40.939  27.869  28.821  1.00  0.00     0.074 A 
ATOM     46  C   UNL A   1      40.191  27.867  27.583  1.00  0.00     0.031 C 
ATOM     47  C   UNL A   1      37.644  31.854  32.550  1.00  0.00     0.029 A 
ATOM     48  C   UNL A   1      38.913  31.194  32.833  1.00  0.00     0.049 A 
ATOM     49  H   UNL A   1      39.954  29.882  31.591  1.00  0.00     0.167 HD
ATOM     50  C   UNL A   1      42.145  27.271  28.980  1.00  0.00     0.037 A 
ATOM     51  C   UNL A   1      39.602  31.323  33.985  1.00  0.00     0.037 A 
ATOM     52  C   UNL A   1      42.922  27.289  30.190  1.00  0.00     0.049 A 
ATOM     53  C   UNL A   1      40.826  30.485  34.211  1.00  0.00     0.074 A 
ATOM     54  C   UNL A   1      44.147  26.691  30.436  1.00  0.00     0.029 A 
ATOM     55  N   UNL A   1      42.559  27.946  31.351  1.00  0.00    -0.354 N 
ATOM     56  N   UNL A   1      41.465  29.712  33.369  1.00  0.00    -0.248 NA
ATOM     57  C   UNL A   1      41.393  30.490  35.570  1.00  0.00     0.031 C 
ATOM     58  C   UNL A   1      44.502  26.946  31.765  1.00  0.00     0.029 A 
ATOM     59  C   UNL A   1      43.512  27.729  32.334  1.00  0.00     0.049 A 
ATOM     60  H   UNL A   1      41.745  28.488  31.463  1.00  0.00     0.167 HD
ATOM     61  C   UNL A   1      42.498  29.133  34.093  1.00  0.00     0.074 A 
ATOM     62  C   UNL A   1      42.422  29.663  35.438  1.00  0.00     0.031 C 
ATOM     63  C   UNL A   1      43.419  28.232  33.678  1.00  0.00     0.037 A 
BRANCH  50  64
ATOM     64  C   UNL A   1      42.695  26.511  27.811  1.00  0.00     0.057 A 
ATOM     65  C   UNL A   1      43.403  27.147  26.785  1.00  0.00     0.134 A 
ATOM     66  C   UNL A   1      42.557  25.120  27.743  1.00  0.00     0.134 A 
ATOM     67  F   UNL A   1      43.551  28.479  26.786  1.00  0.00    -0.206 F 
ATOM     68  C   UNL A   1      43.951  26.423  25.725  1.00  0.00     0.040 A 
ATOM     69  C   UNL A   1      43.113  24.384  26.697  1.00  0.00     0.040 A 
ATOM     70  F   UNL A   1      41.888  24.455  28.698  1.00  0.00    -0.206 F 
ATOM     71  C   UNL A   1      43.812  25.036  25.683  1.00  0.00     0.006 A 
ENDBRANCH  50  64
BRANCH  51  72
ATOM     72  C   UNL A   1      39.080  32.192  35.073  1.00  0.00     0.057 A 
ATOM     73  C   UNL A   1      39.379  33.557  35.126  1.00  0.00     0.134 A 
ATOM     74  C   UNL A   1      38.285  31.667  36.102  1.00  0.00     0.134 A 
ATOM     75  F   UNL A   1      40.167  34.113  34.195  1.00  0.00    -0.206 F 
ATOM     76  C   UNL A   1      38.903  34.369  36.158  1.00  0.00     0.040 A 
ATOM     77  C   UNL A   1      37.777  32.472  37.121  1.00  0.00     0.040 A 
ATOM     78  F   UNL A   1      37.977  30.361  36.121  1.00  0.00    -0.206 F 
ATOM     79  C   UNL A   1      38.089  33.828  37.153  1.00  0.00     0.006 A 
ENDBRANCH  51  72
BRANCH  63  80
ATOM     80  C   UNL A   1      44.404  27.735  34.691  1.00  0.00     0.057 A 
ATOM     81  C   UNL A   1      44.191  26.534  35.379  1.00  0.00     0.134 A 
ATOM     82  C   UNL A   1      45.589  28.432  34.955  1.00  0.00     0.134 A 
ATOM     83  F   UNL A   1      43.067  25.828  35.182  1.00  0.00    -0.206 F 
ATOM     84  C   UNL A   1      45.119  26.047  36.301  1.00  0.00     0.040 A 
ATOM     85  C   UNL A   1      46.533  27.946  35.861  1.00  0.00     0.040 A 
ATOM     86  F   UNL A   1      45.853  29.587  34.327  1.00  0.00    -0.206 F 
ATOM     87  C   UNL A   1      46.298  26.751  36.538  1.00  0.00     0.006 A 
ENDBRANCH  63  80
ENDBRANCH  37  38
ENDBRANCH  30  32
ENDBRANCH  29  30
ENDBRANCH  28  29
ENDBRANCH   1  28
TORSDOF 15
ENDMDL
MODEL 2
REMARK VINA RESULT:     -12.3      4.025      9.022
REMARK SMILES CC(=O)Nc1ccc(/C(=C\c2ccc(S(C)(=O)=O)cc2)C(=O)OCCOC(=O)c2ccc(-c3c4nc(c(-c5c(F)cccc5F)c5ccc([nH]5)c(-c5c(F)cccc5F)c5nc(c(-c6c(F)cccc6F)c6ccc3[nH]6)C=C5)C=C4)cc2)cc1
REMARK SMILES IDX 24 1 23 2 21 3 22 4 9 5 10 6 8 7 5 8 6 9 84 10 7 11 83 12
REMARK SMILES IDX 4 13 1 14 2 15 3 16 11 18 12 19 20 20 13 21 19 22 14 23
REMARK SMILES IDX 15 24 16 25 17 26 18 27 25 28 26 29 27 30 28 31 29 32 30 33
REMARK SMILES IDX 82 34 31 35 81 36 32 37 33 38 34 39 75 40 35 41 80 42 74 43
REMARK SMILES IDX 76 44 36 45 79 46 73 47 72 48 37 50 63 51 46 52 62 53 47 54
REMARK SMILES IDX 50 55 61 56 77 57 48 58 49 59 60 61 78 62 51 63 38 64 39 65
REMARK SMILES IDX 44 66 40 67 41 68 43 69 45 70 42 71 64 72 65 73 70 74 66 75
REMARK SMILES IDX 67 76 69 77 71 78 68 79 52 80 53 81 58 82 54 83 55 84 57 85
REMARK SMILES IDX 59 86 56 87
REMARK H PARENT 4 17 76 49 50 60
REMARK Flexibility Score: inf
ROOT
ATOM      1  C   UNL A   1      34.616  22.945  26.616  1.00  0.00     0.275 C 
ENDROOT
BRANCH   1   2
ATOM      2  O   UNL A   1      33.453  23.317  25.844  1.00  0.00    -0.458 OA
BRANCH   2   3
ATOM      3  C   UNL A   1      32.352  23.764  26.512  1.00  0.00     0.338 C 
ATOM      4  O   UNL A   1      31.866  23.239  27.502  1.00  0.00    -0.246 OA
BRANCH   3   5
ATOM      5  C   UNL A   1      31.828  25.038  25.891  1.00  0.00     0.067 C 
ATOM      6  C   UNL A   1      30.990  24.814  24.846  1.00  0.00     0.024 C 
BRANCH   5   7
ATOM      7  C   UNL A   1      32.278  26.386  26.400  1.00  0.00    -0.011 A 
ATOM      8  C   UNL A   1      33.007  29.124  26.798  1.00  0.00     0.041 A 
ATOM      9  C   UNL A   1      31.818  28.625  27.314  1.00  0.00     0.027 A 
ATOM     10  C   UNL A   1      33.914  28.216  26.278  1.00  0.00     0.027 A 
ATOM     11  C   UNL A   1      31.475  27.275  27.129  1.00  0.00     0.011 A 
ATOM     12  C   UNL A   1      33.556  26.867  26.102  1.00  0.00     0.011 A 
BRANCH   8  13
ATOM     13  N   UNL A   1      33.244  30.501  26.889  1.00  0.00    -0.326 N 
ATOM     14  C   UNL A   1      35.285  30.487  28.319  1.00  0.00     0.114 C 
ATOM     15  C   UNL A   1      34.156  31.204  27.626  1.00  0.00     0.221 C 
ATOM     16  O   UNL A   1      34.091  32.435  27.633  1.00  0.00    -0.275 OA
ATOM     17  H   UNL A   1      32.655  31.055  26.327  1.00  0.00     0.169 HD
ENDBRANCH   8  13
ENDBRANCH   5   7
BRANCH   6  18
ATOM     18  C   UNL A   1      30.311  25.824  24.034  1.00  0.00    -0.025 A 
ATOM     19  C   UNL A   1      28.946  26.040  24.265  1.00  0.00     0.009 A 
ATOM     20  C   UNL A   1      31.031  26.683  23.192  1.00  0.00     0.009 A 
ATOM     21  C   UNL A   1      28.334  27.189  23.771  1.00  0.00     0.021 A 
ATOM     22  C   UNL A   1      30.420  27.835  22.695  1.00  0.00     0.021 A 
ATOM     23  C   UNL A   1      29.086  28.097  23.021  1.00  0.00     0.067 A 
BRANCH  23  24
ATOM     24  S   UNL A   1      28.383  29.690  22.663  1.00  0.00     0.175 S 
ATOM     25  C   UNL A   1      29.362  30.809  23.620  1.00  0.00     0.163 C 
ATOM     26  O   UNL A   1      28.632  29.951  21.257  1.00  0.00    -0.224 OA
ATOM     27  O   UNL A   1      27.032  29.703  23.190  1.00  0.00    -0.224 OA
ENDBRANCH  23  24
ENDBRANCH   6  18
ENDBRANCH   3   5
ENDBRANCH   2   3
ENDBRANCH   1   2
BRANCH   1  28
ATOM     28  C   UNL A   1      35.278  21.718  25.986  1.00  0.00     0.275 C 
BRANCH  28  29
ATOM     29  O   UNL A   1      36.444  22.181  25.286  1.00  0.00    -0.458 OA
BRANCH  29  30
ATOM     30  C   UNL A   1      37.633  21.614  25.582  1.00  0.00     0.338 C 
ATOM     31  O   UNL A   1      37.986  20.462  25.380  1.00  0.00    -0.246 OA
BRANCH  30  32
ATOM     32  C   UNL A   1      38.495  22.678  26.135  1.00  0.00     0.060 A 
ATOM     33  C   UNL A   1      38.083  23.996  25.973  1.00  0.00     0.016 A 
ATOM     34  C   UNL A   1      39.714  22.412  26.753  1.00  0.00     0.016 A 
ATOM     35  C   UNL A   1      38.899  25.044  26.380  1.00  0.00     0.010 A 
ATOM     36  C   UNL A   1      40.494  23.477  27.243  1.00  0.00     0.010 A 
ATOM     37  C   UNL A   1      40.111  24.817  27.041  1.00  0.00    -0.014 A 
BRANCH  37  38
ATOM     38  C   UNL A   1      40.964  25.984  27.437  1.00  0.00     0.031 A 
ATOM     39  C   UNL A   1      40.427  27.041  28.374  1.00  0.00     0.074 A 
ATOM     40  C   UNL A   1      42.264  26.064  27.071  1.00  0.00     0.049 A 
ATOM     41  N   UNL A   1      40.971  28.177  28.737  1.00  0.00    -0.248 NA
ATOM     42  C   UNL A   1      39.123  26.778  29.002  1.00  0.00     0.031 C 
ATOM     43  C   UNL A   1      42.985  25.081  26.258  1.00  0.00     0.029 A 
ATOM     44  N   UNL A   1      43.227  27.004  27.365  1.00  0.00    -0.354 N 
ATOM     45  C   UNL A   1      40.070  28.770  29.613  1.00  0.00     0.074 A 
ATOM     46  C   UNL A   1      38.933  27.881  29.712  1.00  0.00     0.031 C 
ATOM     47  C   UNL A   1      44.277  25.430  26.179  1.00  0.00     0.029 A 
ATOM     48  C   UNL A   1      44.459  26.730  26.815  1.00  0.00     0.049 A 
ATOM     49  H   UNL A   1      43.051  27.800  27.918  1.00  0.00     0.167 HD
ATOM     50  C   UNL A   1      40.178  29.941  30.286  1.00  0.00     0.037 A 
ATOM     51  C   UNL A   1      45.592  27.459  26.754  1.00  0.00     0.037 A 
ATOM     52  C   UNL A   1      41.313  30.823  30.229  1.00  0.00     0.049 A 
ATOM     53  C   UNL A   1      45.611  28.844  27.332  1.00  0.00     0.074 A 
ATOM     54  C   UNL A   1      41.492  32.039  30.868  1.00  0.00     0.029 A 
ATOM     55  N   UNL A   1      42.464  30.582  29.502  1.00  0.00    -0.354 N 
ATOM     56  N   UNL A   1      44.706  29.445  28.063  1.00  0.00    -0.248 NA
ATOM     57  C   UNL A   1      46.786  29.675  27.026  1.00  0.00     0.031 C 
ATOM     58  C   UNL A   1      42.734  32.557  30.487  1.00  0.00     0.029 A 
ATOM     59  C   UNL A   1      43.340  31.648  29.636  1.00  0.00     0.049 A 
ATOM     60  H   UNL A   1      42.637  29.773  28.967  1.00  0.00     0.167 HD
ATOM     61  C   UNL A   1      45.195  30.724  28.295  1.00  0.00     0.074 A 
ATOM     62  C   UNL A   1      46.489  30.806  27.652  1.00  0.00     0.031 C 
ATOM     63  C   UNL A   1      44.611  31.741  28.973  1.00  0.00     0.037 A 
BRANCH  50  64
ATOM     64  C   UNL A   1      39.014  30.358  31.132  1.00  0.00     0.057 A 
ATOM     65  C   UNL A   1      38.854  29.900  32.444  1.00  0.00     0.134 A 
ATOM     66  C   UNL A   1      38.074  31.271  30.640  1.00  0.00     0.134 A 
ATOM     67  F   UNL A   1      39.712  29.010  32.963  1.00  0.00    -0.206 F 
ATOM     68  C   UNL A   1      37.791  30.332  33.239  1.00  0.00     0.040 A 
ATOM     69  C   UNL A   1      37.016  31.722  31.430  1.00  0.00     0.040 A 
ATOM     70  F   UNL A   1      38.175  31.746  29.389  1.00  0.00    -0.206 F 
ATOM     71  C   UNL A   1      36.872  31.252  32.734  1.00  0.00     0.006 A 
ENDBRANCH  50  64
BRANCH  51  72
ATOM     72  C   UNL A   1      46.770  26.945  26.007  1.00  0.00     0.057 A 
ATOM     73  C   UNL A   1      46.936  27.192  24.641  1.00  0.00     0.134 A 
ATOM     74  C   UNL A   1      47.749  26.168  26.644  1.00  0.00     0.134 A 
ATOM     75  F   UNL A   1      46.016  27.893  23.965  1.00  0.00    -0.206 F 
ATOM     76  C   UNL A   1      48.035  26.693  23.937  1.00  0.00     0.040 A 
ATOM     77  C   UNL A   1      48.867  25.690  25.960  1.00  0.00     0.040 A 
ATOM     78  F   UNL A   1      47.641  25.878  27.949  1.00  0.00    -0.206 F 
ATOM     79  C   UNL A   1      49.010  25.949  24.600  1.00  0.00     0.006 A 
ENDBRANCH  51  72
BRANCH  63  80
ATOM     80  C   UNL A   1      45.350  33.043  29.032  1.00  0.00     0.057 A 
ATOM     81  C   UNL A   1      46.313  33.286  30.019  1.00  0.00     0.134 A 
ATOM     82  C   UNL A   1      45.131  34.046  28.079  1.00  0.00     0.134 A 
ATOM     83  F   UNL A   1      46.555  32.371  30.970  1.00  0.00    -0.206 F 
ATOM     84  C   UNL A   1      47.028  34.483  30.062  1.00  0.00     0.040 A 
ATOM     85  C   UNL A   1      45.854  35.239  28.100  1.00  0.00     0.040 A 
ATOM     86  F   UNL A   1      44.225  33.873  27.106  1.00  0.00    -0.206 F 
ATOM     87  C   UNL A   1      46.804  35.462  29.095  1.00  0.00     0.006 A 
ENDBRANCH  63  80
ENDBRANCH  37  38
ENDBRANCH  30  32
ENDBRANCH  29  30
ENDBRANCH  28  29
ENDBRANCH   1  28
TORSDOF 15
ENDMDL
MODEL 3
REMARK VINA RESULT:     -11.7      2.750      6.630
REMARK SMILES CC(=O)Nc1ccc(/C(=C\c2ccc(S(C)(=O)=O)cc2)C(=O)OCCOC(=O)c2ccc(-c3c4nc(c(-c5c(F)cccc5F)c5ccc([nH]5)c(-c5c(F)cccc5F)c5nc(c(-c6c(F)cccc6F)c6ccc3[nH]6)C=C5)C=C4)cc2)cc1
REMARK SMILES IDX 24 1 23 2 21 3 22 4 9 5 10 6 8 7 5 8 6 9 84 10 7 11 83 12
REMARK SMILES IDX 4 13 1 14 2 15 3 16 11 18 12 19 20 20 13 21 19 22 14 23
REMARK SMILES IDX 15 24 16 25 17 26 18 27 25 28 26 29 27 30 28 31 29 32 30 33
REMARK SMILES IDX 82 34 31 35 81 36 32 37 33 38 34 39 75 40 35 41 80 42 74 43
REMARK SMILES IDX 76 44 36 45 79 46 73 47 72 48 37 50 63 51 46 52 62 53 47 54
REMARK SMILES IDX 50 55 61 56 77 57 48 58 49 59 60 61 78 62 51 63 38 64 39 65
REMARK SMILES IDX 44 66 40 67 41 68 43 69 45 70 42 71 64 72 65 73 70 74 66 75
REMARK SMILES IDX 67 76 69 77 71 78 68 79 52 80 53 81 58 82 54 83 55 84 57 85
REMARK SMILES IDX 59 86 56 87
REMARK H PARENT 4 17 76 49 50 60
REMARK Flexibility Score: inf
ROOT
ATOM      1  C   UNL A   1      32.845  27.873  25.735  1.00  0.00     0.275 C 
ENDROOT
BRANCH   1   2
ATOM      2  O   UNL A   1      33.582  26.664  25.442  1.00  0.00    -0.458 OA
BRANCH   2   3
ATOM      3  C   UNL A   1      33.463  26.124  24.196  1.00  0.00     0.338 C 
ATOM      4  O   UNL A   1      33.259  26.754  23.170  1.00  0.00    -0.246 OA
BRANCH   3   5
ATOM      5  C   UNL A   1      33.664  24.626  24.239  1.00  0.00     0.067 C 
ATOM      6  C   UNL A   1      32.499  23.931  24.186  1.00  0.00     0.024 C 
BRANCH   5   7
ATOM      7  C   UNL A   1      35.048  24.039  24.382  1.00  0.00    -0.011 A 
ATOM      8  C   UNL A   1      37.375  22.466  24.923  1.00  0.00     0.041 A 
ATOM      9  C   UNL A   1      36.861  22.550  23.636  1.00  0.00     0.027 A 
ATOM     10  C   UNL A   1      36.860  23.325  25.880  1.00  0.00     0.027 A 
ATOM     11  C   UNL A   1      35.727  23.339  23.374  1.00  0.00     0.011 A 
ATOM     12  C   UNL A   1      35.727  24.110  25.601  1.00  0.00     0.011 A 
BRANCH   8  13
ATOM     13  N   UNL A   1      38.420  21.565  25.162  1.00  0.00    -0.326 N 
ATOM     14  C   UNL A   1      37.188  19.412  24.918  1.00  0.00     0.114 C 
ATOM     15  C   UNL A   1      38.414  20.203  25.291  1.00  0.00     0.221 C 
ATOM     16  O   UNL A   1      39.455  19.636  25.627  1.00  0.00    -0.275 OA
ATOM     17  H   UNL A   1      39.308  21.982  25.252  1.00  0.00     0.169 HD
ENDBRANCH   8  13
ENDBRANCH   5   7
BRANCH   6  18
ATOM     18  C   UNL A   1      32.343  22.477  24.204  1.00  0.00    -0.025 A 
ATOM     19  C   UNL A   1      32.069  21.834  22.989  1.00  0.00     0.009 A 
ATOM     20  C   UNL A   1      32.648  21.728  25.348  1.00  0.00     0.009 A 
ATOM     21  C   UNL A   1      32.236  20.456  22.883  1.00  0.00     0.021 A 
ATOM     22  C   UNL A   1      32.815  20.346  25.245  1.00  0.00     0.021 A 
ATOM     23  C   UNL A   1      32.645  19.727  24.003  1.00  0.00     0.067 A 
BRANCH  23  24
ATOM     24  S   UNL A   1      33.147  18.036  23.779  1.00  0.00     0.175 S 
ATOM     25  C   UNL A   1      32.241  17.159  25.018  1.00  0.00     0.163 C 
ATOM     26  O   UNL A   1      32.659  17.624  22.476  1.00  0.00    -0.224 OA
ATOM     27  O   UNL A   1      34.558  17.951  24.101  1.00  0.00    -0.224 OA
ENDBRANCH  23  24
ENDBRANCH   6  18
ENDBRANCH   3   5
ENDBRANCH   2   3
ENDBRANCH   1   2
BRANCH   1  28
ATOM     28  C   UNL A   1      33.823  29.034  25.924  1.00  0.00     0.275 C 
BRANCH  28  29
ATOM     29  O   UNL A   1      34.092  29.133  27.332  1.00  0.00    -0.458 OA
BRANCH  29  30
ATOM     30  C   UNL A   1      34.653  30.270  27.797  1.00  0.00     0.338 C 
ATOM     31  O   UNL A   1      34.137  31.372  27.904  1.00  0.00    -0.246 OA
BRANCH  30  32
ATOM     32  C   UNL A   1      36.017  29.927  28.245  1.00  0.00     0.060 A 
ATOM     33  C   UNL A   1      37.061  30.106  27.345  1.00  0.00     0.016 A 
ATOM     34  C   UNL A   1      36.281  29.386  29.502  1.00  0.00     0.016 A 
ATOM     35  C   UNL A   1      38.351  29.705  27.673  1.00  0.00     0.010 A 
ATOM     36  C   UNL A   1      37.605  29.065  29.858  1.00  0.00     0.010 A 
ATOM     37  C   UNL A   1      38.661  29.196  28.938  1.00  0.00    -0.014 A 
BRANCH  37  38
ATOM     38  C   UNL A   1      40.065  28.757  29.230  1.00  0.00     0.031 A 
ATOM     39  C   UNL A   1      40.952  29.582  30.132  1.00  0.00     0.074 A 
ATOM     40  C   UNL A   1      40.535  27.563  28.799  1.00  0.00     0.049 A 
ATOM     41  N   UNL A   1      42.224  29.426  30.408  1.00  0.00    -0.248 NA
ATOM     42  C   UNL A   1      40.326  30.713  30.835  1.00  0.00     0.031 C 
ATOM     43  C   UNL A   1      39.784  26.585  28.007  1.00  0.00     0.029 A 
ATOM     44  N   UNL A   1      41.752  26.949  28.997  1.00  0.00    -0.354 N 
ATOM     45  C   UNL A   1      42.552  30.446  31.292  1.00  0.00     0.074 A 
ATOM     46  C   UNL A   1      41.353  31.231  31.493  1.00  0.00     0.031 C 
ATOM     47  C   UNL A   1      40.524  25.478  27.850  1.00  0.00     0.029 A 
ATOM     48  C   UNL A   1      41.852  25.710  28.405  1.00  0.00     0.049 A 
ATOM     49  H   UNL A   1      42.483  27.359  29.514  1.00  0.00     0.167 HD
ATOM     50  C   UNL A   1      43.738  30.705  31.895  1.00  0.00     0.037 A 
ATOM     51  C   UNL A   1      42.902  24.877  28.252  1.00  0.00     0.037 A 
ATOM     52  C   UNL A   1      44.932  29.920  31.737  1.00  0.00     0.049 A 
ATOM     53  C   UNL A   1      44.254  25.292  28.753  1.00  0.00     0.074 A 
ATOM     54  C   UNL A   1      46.180  30.127  32.302  1.00  0.00     0.029 A 
ATOM     55  N   UNL A   1      45.027  28.773  30.971  1.00  0.00    -0.354 N 
ATOM     56  N   UNL A   1      44.579  26.323  29.492  1.00  0.00    -0.248 NA
ATOM     57  C   UNL A   1      45.397  24.458  28.348  1.00  0.00     0.031 C 
ATOM     58  C   UNL A   1      47.044  29.130  31.835  1.00  0.00     0.029 A 
ATOM     59  C   UNL A   1      46.324  28.286  31.006  1.00  0.00     0.049 A 
ATOM     60  H   UNL A   1      44.283  28.361  30.473  1.00  0.00     0.167 HD
ATOM     61  C   UNL A   1      45.960  26.268  29.632  1.00  0.00     0.074 A 
ATOM     62  C   UNL A   1      46.411  25.088  28.926  1.00  0.00     0.031 C 
ATOM     63  C   UNL A   1      46.777  27.131  30.280  1.00  0.00     0.037 A 
BRANCH  50  64
ATOM     64  C   UNL A   1      43.814  31.918  32.771  1.00  0.00     0.057 A 
ATOM     65  C   UNL A   1      44.126  33.181  32.256  1.00  0.00     0.134 A 
ATOM     66  C   UNL A   1      43.518  31.826  34.136  1.00  0.00     0.134 A 
ATOM     67  F   UNL A   1      44.437  33.329  30.960  1.00  0.00    -0.206 F 
ATOM     68  C   UNL A   1      44.148  34.313  33.072  1.00  0.00     0.040 A 
ATOM     69  C   UNL A   1      43.521  32.952  34.959  1.00  0.00     0.040 A 
ATOM     70  F   UNL A   1      43.210  30.641  34.687  1.00  0.00    -0.206 F 
ATOM     71  C   UNL A   1      43.838  34.200  34.428  1.00  0.00     0.006 A 
ENDBRANCH  50  64
BRANCH  51  72
ATOM     72  C   UNL A   1      42.746  23.616  27.480  1.00  0.00     0.057 A 
ATOM     73  C   UNL A   1      42.939  23.576  26.095  1.00  0.00     0.134 A 
ATOM     74  C   UNL A   1      42.372  22.420  28.111  1.00  0.00     0.134 A 
ATOM     75  F   UNL A   1      43.257  24.693  25.426  1.00  0.00    -0.206 F 
ATOM     76  C   UNL A   1      42.775  22.395  25.368  1.00  0.00     0.040 A 
ATOM     77  C   UNL A   1      42.235  21.227  27.403  1.00  0.00     0.040 A 
ATOM     78  F   UNL A   1      42.152  22.393  29.434  1.00  0.00    -0.206 F 
ATOM     79  C   UNL A   1      42.433  21.213  26.025  1.00  0.00     0.006 A 
ENDBRANCH  51  72
BRANCH  63  80
ATOM     80  C   UNL A   1      48.249  26.854  30.234  1.00  0.00     0.057 A 
ATOM     81  C   UNL A   1      48.848  25.970  31.141  1.00  0.00     0.134 A 
ATOM     82  C   UNL A   1      49.068  27.436  29.260  1.00  0.00     0.134 A 
ATOM     83  F   UNL A   1      48.119  25.392  32.109  1.00  0.00    -0.206 F 
ATOM     84  C   UNL A   1      50.212  25.680  31.084  1.00  0.00     0.040 A 
ATOM     85  C   UNL A   1      50.429  27.140  29.181  1.00  0.00     0.040 A 
ATOM     86  F   UNL A   1      48.554  28.289  28.361  1.00  0.00    -0.206 F 
ATOM     87  C   UNL A   1      51.006  26.262  30.097  1.00  0.00     0.006 A 
ENDBRANCH  63  80
ENDBRANCH  37  38
ENDBRANCH  30  32
ENDBRANCH  29  30
ENDBRANCH  28  29
ENDBRANCH   1  28
TORSDOF 15
ENDMDL
