MODEL 1
REMARK VINA RESULT:     -11.1      0.000      0.000
REMARK SMILES COC(=O)[C@@H](NC(=O)CCC(=O)OCCOC(=O)c1ccc(-c2c3nc(c(-c4c(F)cccc4F)c4ccc([nH]4)c(-c4c(F)cccc4F)c4nc(c(-c5c(F)cccc5F)c5ccc2[nH]5)C=C4)C=C3)cc1)c1cccc2ccccc12
REMARK SMILES IDX 13 1 11 2 12 3 10 4 9 5 7 6 6 7 8 9 5 10 3 11 4 12 2 13 1 14
REMARK SMILES IDX 73 15 74 16 82 17 75 18 77 19 81 20 76 21 78 22 80 23 79 24
REMARK SMILES IDX 14 25 15 26 16 27 17 28 18 29 19 30 20 31 72 32 21 33 71 34
REMARK SMILES IDX 22 35 23 36 24 37 65 38 25 39 70 40 64 41 66 42 26 43 69 44
REMARK SMILES IDX 63 45 62 46 27 48 53 49 36 50 52 51 37 52 40 53 51 54 67 55
REMARK SMILES IDX 38 56 39 57 50 59 68 60 41 61 28 62 29 63 34 64 30 65 31 66
REMARK SMILES IDX 33 67 35 68 32 69 54 70 55 71 60 72 56 73 57 74 59 75 61 76
REMARK SMILES IDX 58 77 42 78 43 79 48 80 44 81 45 82 47 83 49 84 46 85
REMARK H PARENT 6 8 66 47 40 58
REMARK Flexibility Score: inf
ROOT
ATOM      1  O   UNL A   1      39.284  21.194  25.792  1.00  0.00    -0.462 OA
ENDROOT
BRANCH   1   2
ATOM      2  C   UNL A   1      38.313  20.386  25.279  1.00  0.00     0.306 C 
ATOM      3  O   UNL A   1      38.507  19.203  25.009  1.00  0.00    -0.252 OA
BRANCH   2   4
ATOM      4  C   UNL A   1      37.022  21.088  24.855  1.00  0.00     0.132 C 
BRANCH   4   5
ATOM      5  C   UNL A   1      36.943  22.473  24.217  1.00  0.00     0.112 C 
BRANCH   5   6
ATOM      6  C   UNL A   1      36.642  23.679  25.094  1.00  0.00     0.221 C 
ATOM      7  N   UNL A   1      35.537  24.459  25.036  1.00  0.00    -0.339 N 
ATOM      8  H   UNL A   1      35.711  25.375  25.353  1.00  0.00     0.164 HD
ATOM      9  O   UNL A   1      37.493  24.034  25.921  1.00  0.00    -0.275 OA
BRANCH   7  10
ATOM     10  C   UNL A   1      34.122  24.270  24.610  1.00  0.00     0.224 C 
BRANCH  10  11
ATOM     11  C   UNL A   1      33.406  25.634  24.569  1.00  0.00     0.333 C 
ATOM     12  O   UNL A   1      33.955  26.716  24.428  1.00  0.00    -0.249 OA
BRANCH  11  13
ATOM     13  O   UNL A   1      32.062  25.488  24.791  1.00  0.00    -0.467 OA
ATOM     14  C   UNL A   1      31.448  26.209  25.862  1.00  0.00     0.282 C 
ENDBRANCH  11  13
ENDBRANCH  10  11
BRANCH  10  15
ATOM     15  C   UNL A   1      33.471  22.998  25.167  1.00  0.00    -0.007 A 
ATOM     16  C   UNL A   1      33.498  22.757  26.536  1.00  0.00     0.007 A 
ATOM     17  C   UNL A   1      33.087  21.893  24.365  1.00  0.00    -0.013 A 
ATOM     18  C   UNL A   1      33.654  21.481  27.068  1.00  0.00     0.001 A 
ATOM     19  C   UNL A   1      33.186  20.577  24.909  1.00  0.00    -0.018 A 
ATOM     20  C   UNL A   1      32.528  22.016  23.078  1.00  0.00     0.009 A 
ATOM     21  C   UNL A   1      33.582  20.387  26.230  1.00  0.00     0.009 A 
ATOM     22  C   UNL A   1      32.836  19.456  24.150  1.00  0.00     0.009 A 
ATOM     23  C   UNL A   1      32.079  20.890  22.376  1.00  0.00     0.001 A 
ATOM     24  C   UNL A   1      32.258  19.613  22.897  1.00  0.00     0.001 A 
ENDBRANCH  10  15
ENDBRANCH   7  10
ENDBRANCH   5   6
ENDBRANCH   4   5
ENDBRANCH   2   4
ENDBRANCH   1   2
BRANCH   1  25
ATOM     25  C   UNL A   1      40.372  20.482  26.454  1.00  0.00     0.274 C 
BRANCH  25  26
ATOM     26  C   UNL A   1      41.762  21.046  26.143  1.00  0.00     0.275 C 
BRANCH  26  27
ATOM     27  O   UNL A   1      41.573  22.404  25.751  1.00  0.00    -0.458 OA
BRANCH  27  28
ATOM     28  C   UNL A   1      42.653  23.208  25.700  1.00  0.00     0.338 C 
ATOM     29  O   UNL A   1      43.712  23.023  25.117  1.00  0.00    -0.246 OA
BRANCH  28  30
ATOM     30  C   UNL A   1      42.317  24.365  26.540  1.00  0.00     0.060 A 
ATOM     31  C   UNL A   1      41.309  24.232  27.505  1.00  0.00     0.016 A 
ATOM     32  C   UNL A   1      43.028  25.554  26.417  1.00  0.00     0.016 A 
ATOM     33  C   UNL A   1      40.990  25.287  28.340  1.00  0.00     0.010 A 
ATOM     34  C   UNL A   1      42.767  26.587  27.313  1.00  0.00     0.010 A 
ATOM     35  C   UNL A   1      41.754  26.452  28.281  1.00  0.00    -0.014 A 
BRANCH  35  36
ATOM     36  C   UNL A   1      41.564  27.512  29.287  1.00  0.00     0.031 A 
ATOM     37  C   UNL A   1      42.338  27.467  30.563  1.00  0.00     0.074 A 
ATOM     38  C   UNL A   1      40.625  28.450  29.065  1.00  0.00     0.049 A 
ATOM     39  N   UNL A   1      42.132  28.122  31.673  1.00  0.00    -0.248 NA
ATOM     40  C   UNL A   1      43.487  26.549  30.598  1.00  0.00     0.031 C 
ATOM     41  C   UNL A   1      39.845  28.592  27.834  1.00  0.00     0.029 A 
ATOM     42  N   UNL A   1      40.135  29.431  29.886  1.00  0.00    -0.354 N 
ATOM     43  C   UNL A   1      43.107  27.677  32.554  1.00  0.00     0.074 A 
ATOM     44  C   UNL A   1      43.899  26.689  31.852  1.00  0.00     0.031 C 
ATOM     45  C   UNL A   1      38.949  29.575  27.991  1.00  0.00     0.029 A 
ATOM     46  C   UNL A   1      39.046  30.077  29.355  1.00  0.00     0.049 A 
ATOM     47  H   UNL A   1      40.522  29.649  30.764  1.00  0.00     0.167 HD
ATOM     48  C   UNL A   1      43.304  28.060  33.837  1.00  0.00     0.037 A 
ATOM     49  C   UNL A   1      38.173  30.925  29.927  1.00  0.00     0.037 A 
ATOM     50  C   UNL A   1      42.483  29.034  34.512  1.00  0.00     0.049 A 
ATOM     51  C   UNL A   1      38.369  31.288  31.367  1.00  0.00     0.074 A 
ATOM     52  C   UNL A   1      42.583  29.502  35.808  1.00  0.00     0.029 A 
ATOM     53  N   UNL A   1      41.399  29.684  33.934  1.00  0.00    -0.354 N 
ATOM     54  N   UNL A   1      39.277  30.851  32.207  1.00  0.00    -0.248 NA
ATOM     55  C   UNL A   1      37.423  32.250  31.941  1.00  0.00     0.031 C 
ATOM     56  C   UNL A   1      41.539  30.409  36.027  1.00  0.00     0.029 A 
ATOM     57  C   UNL A   1      40.812  30.537  34.853  1.00  0.00     0.049 A 
ATOM     58  H   UNL A   1      41.094  29.556  33.006  1.00  0.00     0.167 HD
ATOM     59  C   UNL A   1      39.021  31.491  33.409  1.00  0.00     0.074 A 
ATOM     60  C   UNL A   1      37.878  32.358  33.181  1.00  0.00     0.031 C 
ATOM     61  C   UNL A   1      39.668  31.376  34.595  1.00  0.00     0.037 A 
BRANCH  48  62
ATOM     62  C   UNL A   1      44.418  27.397  34.591  1.00  0.00     0.057 A 
ATOM     63  C   UNL A   1      45.708  27.942  34.635  1.00  0.00     0.134 A 
ATOM     64  C   UNL A   1      44.198  26.203  35.289  1.00  0.00     0.134 A 
ATOM     65  F   UNL A   1      45.992  29.072  33.970  1.00  0.00    -0.206 F 
ATOM     66  C   UNL A   1      46.743  27.314  35.331  1.00  0.00     0.040 A 
ATOM     67  C   UNL A   1      45.219  25.577  36.006  1.00  0.00     0.040 A 
ATOM     68  F   UNL A   1      42.987  25.625  35.285  1.00  0.00    -0.206 F 
ATOM     69  C   UNL A   1      46.497  26.131  36.025  1.00  0.00     0.006 A 
ENDBRANCH  48  62
BRANCH  49  70
ATOM     70  C   UNL A   1      37.029  31.430  29.133  1.00  0.00     0.057 A 
ATOM     71  C   UNL A   1      35.897  30.641  28.913  1.00  0.00     0.134 A 
ATOM     72  C   UNL A   1      37.006  32.745  28.648  1.00  0.00     0.134 A 
ATOM     73  F   UNL A   1      35.867  29.370  29.341  1.00  0.00    -0.206 F 
ATOM     74  C   UNL A   1      34.777  31.142  28.249  1.00  0.00     0.040 A 
ATOM     75  C   UNL A   1      35.885  33.266  28.001  1.00  0.00     0.040 A 
ATOM     76  F   UNL A   1      38.057  33.556  28.838  1.00  0.00    -0.206 F 
ATOM     77  C   UNL A   1      34.765  32.462  27.801  1.00  0.00     0.006 A 
ENDBRANCH  49  70
BRANCH  61  78
ATOM     78  C   UNL A   1      39.158  32.226  35.717  1.00  0.00     0.057 A 
ATOM     79  C   UNL A   1      39.574  33.552  35.881  1.00  0.00     0.134 A 
ATOM     80  C   UNL A   1      38.235  31.712  36.634  1.00  0.00     0.134 A 
ATOM     81  F   UNL A   1      40.471  34.092  35.043  1.00  0.00    -0.206 F 
ATOM     82  C   UNL A   1      39.104  34.333  36.937  1.00  0.00     0.040 A 
ATOM     83  C   UNL A   1      37.741  32.491  37.681  1.00  0.00     0.040 A 
ATOM     84  F   UNL A   1      37.796  30.449  36.525  1.00  0.00    -0.206 F 
ATOM     85  C   UNL A   1      38.182  33.804  37.837  1.00  0.00     0.006 A 
ENDBRANCH  61  78
ENDBRANCH  35  36
ENDBRANCH  28  30
ENDBRANCH  27  28
ENDBRANCH  26  27
ENDBRANCH  25  26
ENDBRANCH   1  25
TORSDOF 17
ENDMDL
MODEL 2
REMARK VINA RESULT:     -11.0      1.388      3.148
REMARK SMILES COC(=O)[C@@H](NC(=O)CCC(=O)OCCOC(=O)c1ccc(-c2c3nc(c(-c4c(F)cccc4F)c4ccc([nH]4)c(-c4c(F)cccc4F)c4nc(c(-c5c(F)cccc5F)c5ccc2[nH]5)C=C4)C=C3)cc1)c1cccc2ccccc12
REMARK SMILES IDX 13 1 11 2 12 3 10 4 9 5 7 6 6 7 8 9 5 10 3 11 4 12 2 13 1 14
REMARK SMILES IDX 73 15 74 16 82 17 75 18 77 19 81 20 76 21 78 22 80 23 79 24
REMARK SMILES IDX 14 25 15 26 16 27 17 28 18 29 19 30 20 31 72 32 21 33 71 34
REMARK SMILES IDX 22 35 23 36 24 37 65 38 25 39 70 40 64 41 66 42 26 43 69 44
REMARK SMILES IDX 63 45 62 46 27 48 53 49 36 50 52 51 37 52 40 53 51 54 67 55
REMARK SMILES IDX 38 56 39 57 50 59 68 60 41 61 28 62 29 63 34 64 30 65 31 66
REMARK SMILES IDX 33 67 35 68 32 69 54 70 55 71 60 72 56 73 57 74 59 75 61 76
REMARK SMILES IDX 58 77 42 78 43 79 48 80 44 81 45 82 47 83 49 84 46 85
REMARK H PARENT 6 8 66 47 40 58
REMARK Flexibility Score: inf
ROOT
ATOM      1  O   UNL A   1      39.659  21.600  26.755  1.00  0.00    -0.462 OA
ENDROOT
BRANCH   1   2
ATOM      2  C   UNL A   1      38.596  21.837  25.936  1.00  0.00     0.306 C 
ATOM      3  O   UNL A   1      38.131  20.981  25.187  1.00  0.00    -0.252 OA
BRANCH   2   4
ATOM      4  C   UNL A   1      38.145  23.295  25.839  1.00  0.00     0.132 C 
BRANCH   4   5
ATOM      5  C   UNL A   1      36.697  23.775  25.903  1.00  0.00     0.112 C 
BRANCH   5   6
ATOM      6  C   UNL A   1      35.844  23.733  24.644  1.00  0.00     0.221 C 
ATOM      7  N   UNL A   1      34.502  23.898  24.576  1.00  0.00    -0.339 N 
ATOM      8  H   UNL A   1      34.109  23.434  23.802  1.00  0.00     0.164 HD
ATOM      9  O   UNL A   1      36.398  23.480  23.565  1.00  0.00    -0.275 OA
BRANCH   7  10
ATOM     10  C   UNL A   1      33.475  24.610  25.388  1.00  0.00     0.224 C 
BRANCH  10  11
ATOM     11  C   UNL A   1      32.492  23.589  25.992  1.00  0.00     0.333 C 
ATOM     12  O   UNL A   1      31.284  23.744  26.089  1.00  0.00    -0.249 OA
BRANCH  11  13
ATOM     13  O   UNL A   1      33.159  22.498  26.485  1.00  0.00    -0.467 OA
ATOM     14  C   UNL A   1      33.134  22.240  27.891  1.00  0.00     0.282 C 
ENDBRANCH  11  13
ENDBRANCH  10  11
BRANCH  10  15
ATOM     15  C   UNL A   1      33.030  25.950  24.788  1.00  0.00    -0.007 A 
ATOM     16  C   UNL A   1      33.199  26.182  23.428  1.00  0.00     0.007 A 
ATOM     17  C   UNL A   1      32.716  27.095  25.565  1.00  0.00    -0.013 A 
ATOM     18  C   UNL A   1      33.551  27.429  22.921  1.00  0.00     0.001 A 
ATOM     19  C   UNL A   1      33.017  28.388  25.040  1.00  0.00    -0.018 A 
ATOM     20  C   UNL A   1      32.041  27.042  26.800  1.00  0.00     0.009 A 
ATOM     21  C   UNL A   1      33.542  28.525  23.758  1.00  0.00     0.009 A 
ATOM     22  C   UNL A   1      32.742  29.545  25.777  1.00  0.00     0.009 A 
ATOM     23  C   UNL A   1      31.673  28.216  27.471  1.00  0.00     0.001 A 
ATOM     24  C   UNL A   1      32.047  29.461  26.976  1.00  0.00     0.001 A 
ENDBRANCH  10  15
ENDBRANCH   7  10
ENDBRANCH   5   6
ENDBRANCH   4   5
ENDBRANCH   2   4
ENDBRANCH   1   2
BRANCH   1  25
ATOM     25  C   UNL A   1      40.629  20.650  26.223  1.00  0.00     0.274 C 
BRANCH  25  26
ATOM     26  C   UNL A   1      42.043  21.223  26.076  1.00  0.00     0.275 C 
BRANCH  26  27
ATOM     27  O   UNL A   1      41.892  22.574  25.644  1.00  0.00    -0.458 OA
BRANCH  27  28
ATOM     28  C   UNL A   1      42.975  23.374  25.672  1.00  0.00     0.338 C 
ATOM     29  O   UNL A   1      44.063  23.202  25.139  1.00  0.00    -0.246 OA
BRANCH  28  30
ATOM     30  C   UNL A   1      42.600  24.509  26.525  1.00  0.00     0.060 A 
ATOM     31  C   UNL A   1      41.625  24.318  27.515  1.00  0.00     0.016 A 
ATOM     32  C   UNL A   1      43.243  25.735  26.390  1.00  0.00     0.016 A 
ATOM     33  C   UNL A   1      41.272  25.353  28.363  1.00  0.00     0.010 A 
ATOM     34  C   UNL A   1      42.950  26.750  27.298  1.00  0.00     0.010 A 
ATOM     35  C   UNL A   1      41.970  26.557  28.290  1.00  0.00    -0.014 A 
BRANCH  35  36
ATOM     36  C   UNL A   1      41.750  27.602  29.306  1.00  0.00     0.031 A 
ATOM     37  C   UNL A   1      42.518  27.562  30.586  1.00  0.00     0.074 A 
ATOM     38  C   UNL A   1      40.789  28.519  29.089  1.00  0.00     0.049 A 
ATOM     39  N   UNL A   1      42.291  28.201  31.700  1.00  0.00    -0.248 NA
ATOM     40  C   UNL A   1      43.689  26.673  30.617  1.00  0.00     0.031 C 
ATOM     41  C   UNL A   1      40.011  28.653  27.855  1.00  0.00     0.029 A 
ATOM     42  N   UNL A   1      40.271  29.479  29.917  1.00  0.00    -0.354 N 
ATOM     43  C   UNL A   1      43.272  27.771  32.582  1.00  0.00     0.074 A 
ATOM     44  C   UNL A   1      44.091  26.810  31.874  1.00  0.00     0.031 C 
ATOM     45  C   UNL A   1      39.091  29.613  28.017  1.00  0.00     0.029 A 
ATOM     46  C   UNL A   1      39.169  30.103  29.387  1.00  0.00     0.049 A 
ATOM     47  H   UNL A   1      40.648  29.698  30.799  1.00  0.00     0.167 HD
ATOM     48  C   UNL A   1      43.453  28.146  33.870  1.00  0.00     0.037 A 
ATOM     49  C   UNL A   1      38.273  30.924  29.963  1.00  0.00     0.037 A 
ATOM     50  C   UNL A   1      42.605  29.092  34.550  1.00  0.00     0.049 A 
ATOM     51  C   UNL A   1      38.453  31.276  31.408  1.00  0.00     0.074 A 
ATOM     52  C   UNL A   1      42.688  29.550  35.852  1.00  0.00     0.029 A 
ATOM     53  N   UNL A   1      41.509  29.721  33.973  1.00  0.00    -0.354 N 
ATOM     54  N   UNL A   1      39.367  30.854  32.248  1.00  0.00    -0.248 NA
ATOM     55  C   UNL A   1      37.481  32.210  31.986  1.00  0.00     0.031 C 
ATOM     56  C   UNL A   1      41.621  30.429  36.075  1.00  0.00     0.029 A 
ATOM     57  C   UNL A   1      40.897  30.551  34.898  1.00  0.00     0.049 A 
ATOM     58  H   UNL A   1      41.212  29.596  33.043  1.00  0.00     0.167 HD
ATOM     59  C   UNL A   1      39.089  31.475  33.455  1.00  0.00     0.074 A 
ATOM     60  C   UNL A   1      37.927  32.316  33.229  1.00  0.00     0.031 C 
ATOM     61  C   UNL A   1      39.734  31.364  34.643  1.00  0.00     0.037 A 
BRANCH  48  62
ATOM     62  C   UNL A   1      44.580  27.503  34.623  1.00  0.00     0.057 A 
ATOM     63  C   UNL A   1      44.411  26.304  35.327  1.00  0.00     0.134 A 
ATOM     64  C   UNL A   1      45.854  28.086  34.637  1.00  0.00     0.134 A 
ATOM     65  F   UNL A   1      43.212  25.705  35.371  1.00  0.00    -0.206 F 
ATOM     66  C   UNL A   1      45.464  25.717  36.032  1.00  0.00     0.040 A 
ATOM     67  C   UNL A   1      46.919  27.497  35.321  1.00  0.00     0.040 A 
ATOM     68  F   UNL A   1      46.083  29.237  33.987  1.00  0.00    -0.206 F 
ATOM     69  C   UNL A   1      46.724  26.311  36.025  1.00  0.00     0.006 A 
ENDBRANCH  48  62
BRANCH  49  70
ATOM     70  C   UNL A   1      37.120  31.409  29.168  1.00  0.00     0.057 A 
ATOM     71  C   UNL A   1      35.978  30.622  28.997  1.00  0.00     0.134 A 
ATOM     72  C   UNL A   1      37.101  32.704  28.633  1.00  0.00     0.134 A 
ATOM     73  F   UNL A   1      35.944  29.369  29.474  1.00  0.00    -0.206 F 
ATOM     74  C   UNL A   1      34.852  31.108  28.331  1.00  0.00     0.040 A 
ATOM     75  C   UNL A   1      35.974  33.211  27.985  1.00  0.00     0.040 A 
ATOM     76  F   UNL A   1      38.162  33.511  28.775  1.00  0.00    -0.206 F 
ATOM     77  C   UNL A   1      34.844  32.410  27.834  1.00  0.00     0.006 A 
ENDBRANCH  49  70
BRANCH  61  78
ATOM     78  C   UNL A   1      39.198  32.190  35.771  1.00  0.00     0.057 A 
ATOM     79  C   UNL A   1      38.270  31.674  36.682  1.00  0.00     0.134 A 
ATOM     80  C   UNL A   1      39.624  33.511  35.948  1.00  0.00     0.134 A 
ATOM     81  F   UNL A   1      37.812  30.421  36.551  1.00  0.00    -0.206 F 
ATOM     82  C   UNL A   1      37.766  32.455  37.722  1.00  0.00     0.040 A 
ATOM     83  C   UNL A   1      39.144  34.294  36.997  1.00  0.00     0.040 A 
ATOM     84  F   UNL A   1      40.516  34.058  35.108  1.00  0.00    -0.206 F 
ATOM     85  C   UNL A   1      38.207  33.768  37.884  1.00  0.00     0.006 A 
ENDBRANCH  61  78
ENDBRANCH  35  36
ENDBRANCH  28  30
ENDBRANCH  27  28
ENDBRANCH  26  27
ENDBRANCH  25  26
ENDBRANCH   1  25
TORSDOF 17
ENDMDL
MODEL 3
REMARK VINA RESULT:     -10.9      3.952      8.001
REMARK SMILES COC(=O)[C@@H](NC(=O)CCC(=O)OCCOC(=O)c1ccc(-c2c3nc(c(-c4c(F)cccc4F)c4ccc([nH]4)c(-c4c(F)cccc4F)c4nc(c(-c5c(F)cccc5F)c5ccc2[nH]5)C=C4)C=C3)cc1)c1cccc2ccccc12
REMARK SMILES IDX 13 1 11 2 12 3 10 4 9 5 7 6 6 7 8 9 5 10 3 11 4 12 2 13 1 14
REMARK SMILES IDX 73 15 74 16 82 17 75 18 77 19 81 20 76 21 78 22 80 23 79 24
REMARK SMILES IDX 14 25 15 26 16 27 17 28 18 29 19 30 20 31 72 32 21 33 71 34
REMARK SMILES IDX 22 35 23 36 24 37 65 38 25 39 70 40 64 41 66 42 26 43 69 44
REMARK SMILES IDX 63 45 62 46 27 48 53 49 36 50 52 51 37 52 40 53 51 54 67 55
REMARK SMILES IDX 38 56 39 57 50 59 68 60 41 61 28 62 29 63 34 64 30 65 31 66
REMARK SMILES IDX 33 67 35 68 32 69 54 70 55 71 60 72 56 73 57 74 59 75 61 76
REMARK SMILES IDX 58 77 42 78 43 79 48 80 44 81 45 82 47 83 49 84 46 85
REMARK H PARENT 6 8 66 47 40 58
REMARK Flexibility Score: inf
ROOT
ATOM      1  O   UNL A   1      34.390  19.784  24.856  1.00  0.00    -0.462 OA
ENDROOT
BRANCH   1   2
ATOM      2  C   UNL A   1      33.121  20.249  24.677  1.00  0.00     0.306 C 
ATOM      3  O   UNL A   1      32.125  19.580  24.939  1.00  0.00    -0.252 OA
BRANCH   2   4
ATOM      4  C   UNL A   1      33.003  21.576  23.925  1.00  0.00     0.132 C 
BRANCH   4   5
ATOM      5  C   UNL A   1      31.714  22.375  23.749  1.00  0.00     0.112 C 
BRANCH   5   6
ATOM      6  C   UNL A   1      31.257  23.304  24.865  1.00  0.00     0.221 C 
ATOM      7  N   UNL A   1      31.477  24.637  24.941  1.00  0.00    -0.339 N 
ATOM      8  H   UNL A   1      31.491  24.958  25.871  1.00  0.00     0.164 HD
ATOM      9  O   UNL A   1      30.662  22.812  25.834  1.00  0.00    -0.275 OA
BRANCH   7  10
ATOM     10  C   UNL A   1      31.703  25.736  23.961  1.00  0.00     0.224 C 
BRANCH  10  11
ATOM     11  C   UNL A   1      33.159  25.693  23.459  1.00  0.00     0.333 C 
ATOM     12  O   UNL A   1      34.114  25.273  24.096  1.00  0.00    -0.249 OA
BRANCH  11  13
ATOM     13  O   UNL A   1      33.267  26.263  22.218  1.00  0.00    -0.467 OA
ATOM     14  C   UNL A   1      32.732  25.576  21.084  1.00  0.00     0.282 C 
ENDBRANCH  11  13
ENDBRANCH  10  11
BRANCH  10  15
ATOM     15  C   UNL A   1      30.977  27.040  24.314  1.00  0.00    -0.007 A 
ATOM     16  C   UNL A   1      29.926  27.477  23.515  1.00  0.00     0.007 A 
ATOM     17  C   UNL A   1      31.476  27.997  25.235  1.00  0.00    -0.013 A 
ATOM     18  C   UNL A   1      29.706  28.823  23.239  1.00  0.00     0.001 A 
ATOM     19  C   UNL A   1      31.215  29.381  25.002  1.00  0.00    -0.018 A 
ATOM     20  C   UNL A   1      32.151  27.661  26.424  1.00  0.00     0.009 A 
ATOM     21  C   UNL A   1      30.420  29.779  23.930  1.00  0.00     0.009 A 
ATOM     22  C   UNL A   1      31.702  30.362  25.872  1.00  0.00     0.009 A 
ATOM     23  C   UNL A   1      32.534  28.649  27.340  1.00  0.00     0.001 A 
ATOM     24  C   UNL A   1      32.336  29.996  27.052  1.00  0.00     0.001 A 
ENDBRANCH  10  15
ENDBRANCH   7  10
ENDBRANCH   5   6
ENDBRANCH   4   5
ENDBRANCH   2   4
ENDBRANCH   1   2
BRANCH   1  25
ATOM     25  C   UNL A   1      35.340  20.790  25.321  1.00  0.00     0.274 C 
BRANCH  25  26
ATOM     26  C   UNL A   1      36.793  20.493  24.938  1.00  0.00     0.275 C 
BRANCH  26  27
ATOM     27  O   UNL A   1      37.595  21.482  25.583  1.00  0.00    -0.458 OA
BRANCH  27  28
ATOM     28  C   UNL A   1      38.866  21.165  25.893  1.00  0.00     0.338 C 
ATOM     29  O   UNL A   1      39.446  20.099  25.734  1.00  0.00    -0.246 OA
BRANCH  28  30
ATOM     30  C   UNL A   1      39.428  22.371  26.515  1.00  0.00     0.060 A 
ATOM     31  C   UNL A   1      40.435  22.229  27.480  1.00  0.00     0.016 A 
ATOM     32  C   UNL A   1      39.005  23.633  26.112  1.00  0.00     0.016 A 
ATOM     33  C   UNL A   1      41.015  23.342  28.061  1.00  0.00     0.010 A 
ATOM     34  C   UNL A   1      39.648  24.754  26.633  1.00  0.00     0.010 A 
ATOM     35  C   UNL A   1      40.659  24.609  27.601  1.00  0.00    -0.014 A 
BRANCH  35  36
ATOM     36  C   UNL A   1      41.399  25.798  28.061  1.00  0.00     0.031 A 
ATOM     37  C   UNL A   1      40.676  26.883  28.789  1.00  0.00     0.074 A 
ATOM     38  C   UNL A   1      42.699  25.915  27.731  1.00  0.00     0.049 A 
ATOM     39  N   UNL A   1      41.060  28.106  29.033  1.00  0.00    -0.248 NA
ATOM     40  C   UNL A   1      39.336  26.550  29.295  1.00  0.00     0.031 C 
ATOM     41  C   UNL A   1      43.494  24.890  27.050  1.00  0.00     0.029 A 
ATOM     42  N   UNL A   1      43.564  26.966  27.880  1.00  0.00    -0.354 N 
ATOM     43  C   UNL A   1      39.999  28.704  29.696  1.00  0.00     0.074 A 
ATOM     44  C   UNL A   1      38.952  27.710  29.809  1.00  0.00     0.031 C 
ATOM     45  C   UNL A   1      44.720  25.375  26.808  1.00  0.00     0.029 A 
ATOM     46  C   UNL A   1      44.766  26.762  27.248  1.00  0.00     0.049 A 
ATOM     47  H   UNL A   1      43.347  27.782  28.387  1.00  0.00     0.167 HD
ATOM     48  C   UNL A   1      39.916  29.975  30.155  1.00  0.00     0.037 A 
ATOM     49  C   UNL A   1      45.767  27.621  26.985  1.00  0.00     0.037 A 
ATOM     50  C   UNL A   1      40.973  30.944  30.009  1.00  0.00     0.049 A 
ATOM     51  C   UNL A   1      45.630  29.040  27.444  1.00  0.00     0.074 A 
ATOM     52  C   UNL A   1      41.005  32.260  30.430  1.00  0.00     0.029 A 
ATOM     53  N   UNL A   1      42.186  30.694  29.380  1.00  0.00    -0.354 N 
ATOM     54  N   UNL A   1      44.618  29.612  28.052  1.00  0.00    -0.248 NA
ATOM     55  C   UNL A   1      46.762  29.933  27.178  1.00  0.00     0.031 C 
ATOM     56  C   UNL A   1      42.224  32.818  30.026  1.00  0.00     0.029 A 
ATOM     57  C   UNL A   1      42.968  31.837  29.388  1.00  0.00     0.049 A 
ATOM     58  H   UNL A   1      42.451  29.831  28.988  1.00  0.00     0.167 HD
ATOM     59  C   UNL A   1      44.992  30.931  28.252  1.00  0.00     0.074 A 
ATOM     60  C   UNL A   1      46.332  31.068  27.711  1.00  0.00     0.031 C 
ATOM     61  C   UNL A   1      44.294  31.940  28.829  1.00  0.00     0.037 A 
BRANCH  48  62
ATOM     62  C   UNL A   1      38.634  30.386  30.816  1.00  0.00     0.057 A 
ATOM     63  C   UNL A   1      38.411  30.189  32.185  1.00  0.00     0.134 A 
ATOM     64  C   UNL A   1      37.613  30.995  30.077  1.00  0.00     0.134 A 
ATOM     65  F   UNL A   1      39.339  29.591  32.946  1.00  0.00    -0.206 F 
ATOM     66  C   UNL A   1      37.211  30.567  32.791  1.00  0.00     0.040 A 
ATOM     67  C   UNL A   1      36.417  31.397  30.675  1.00  0.00     0.040 A 
ATOM     68  F   UNL A   1      37.760  31.211  28.760  1.00  0.00    -0.206 F 
ATOM     69  C   UNL A   1      36.212  31.179  32.035  1.00  0.00     0.006 A 
ENDBRANCH  48  62
BRANCH  49  70
ATOM     70  C   UNL A   1      46.941  27.148  26.214  1.00  0.00     0.057 A 
ATOM     71  C   UNL A   1      47.028  27.349  24.834  1.00  0.00     0.134 A 
ATOM     72  C   UNL A   1      48.041  26.562  26.855  1.00  0.00     0.134 A 
ATOM     73  F   UNL A   1      46.000  27.893  24.166  1.00  0.00    -0.206 F 
ATOM     74  C   UNL A   1      48.171  26.993  24.117  1.00  0.00     0.040 A 
ATOM     75  C   UNL A   1      49.199  26.222  26.154  1.00  0.00     0.040 A 
ATOM     76  F   UNL A   1      48.023  26.355  28.179  1.00  0.00    -0.206 F 
ATOM     77  C   UNL A   1      49.265  26.439  24.779  1.00  0.00     0.006 A 
ENDBRANCH  49  70
BRANCH  61  78
ATOM     78  C   UNL A   1      44.987  33.264  28.916  1.00  0.00     0.057 A 
ATOM     79  C   UNL A   1      45.819  33.589  29.994  1.00  0.00     0.134 A 
ATOM     80  C   UNL A   1      44.826  34.218  27.905  1.00  0.00     0.134 A 
ATOM     81  F   UNL A   1      45.997  32.721  31.001  1.00  0.00    -0.206 F 
ATOM     82  C   UNL A   1      46.451  34.829  30.073  1.00  0.00     0.040 A 
ATOM     83  C   UNL A   1      45.470  35.454  27.963  1.00  0.00     0.040 A 
ATOM     84  F   UNL A   1      44.044  33.962  26.845  1.00  0.00    -0.206 F 
ATOM     85  C   UNL A   1      46.280  35.764  29.053  1.00  0.00     0.006 A 
ENDBRANCH  61  78
ENDBRANCH  35  36
ENDBRANCH  28  30
ENDBRANCH  27  28
ENDBRANCH  26  27
ENDBRANCH  25  26
ENDBRANCH   1  25
TORSDOF 17
ENDMDL
