MODEL 1
REMARK VINA RESULT:     -11.2      0.000      0.000
REMARK SMILES CCC(CC)(CC(=O)Nc1ccc(NC(C)=O)cc1)C(=O)OCCOC(=O)c1ccc(-c2c3nc(c(-c4c(F)cccc4F)c4ccc([nH]4)c(-c4c(F)cccc4F)c4nc(c(-c5c(F)cccc5F)c5ccc2[nH]5)C=C4)C=C3)cc1
REMARK SMILES IDX 23 1 22 2 20 3 21 4 3 5 2 6 1 7 4 8 5 9 6 10 7 11 8 12 9 13
REMARK SMILES IDX 10 15 11 16 19 17 12 18 18 19 13 20 14 21 15 22 16 24 17 25
REMARK SMILES IDX 24 26 25 27 26 28 27 29 28 30 29 31 81 32 30 33 80 34 31 35
REMARK SMILES IDX 32 36 33 37 74 38 34 39 79 40 73 41 75 42 35 43 78 44 72 45
REMARK SMILES IDX 71 46 36 48 62 49 45 50 61 51 46 52 49 53 60 54 76 55 47 56
REMARK SMILES IDX 48 57 59 59 77 60 50 61 37 62 38 63 43 64 39 65 40 66 42 67
REMARK SMILES IDX 44 68 41 69 63 70 64 71 69 72 65 73 66 74 68 75 70 76 67 77
REMARK SMILES IDX 51 78 52 79 57 80 53 81 54 82 56 83 58 84 55 85
REMARK H PARENT 9 14 14 23 75 47 49 58
REMARK Flexibility Score: inf
ROOT
ATOM      1  C   UNL A   1      31.592  29.336  23.605  1.00  0.00     0.274 C 
ENDROOT
BRANCH   1   2
ATOM      2  O   UNL A   1      31.311  27.970  23.234  1.00  0.00    -0.462 OA
BRANCH   2   3
ATOM      3  C   UNL A   1      32.404  27.174  23.104  1.00  0.00     0.312 C 
ATOM      4  O   UNL A   1      33.338  27.435  22.354  1.00  0.00    -0.252 OA
BRANCH   3   5
ATOM      5  C   UNL A   1      32.298  25.848  23.886  1.00  0.00     0.076 C 
BRANCH   5   6
ATOM      6  C   UNL A   1      33.041  24.714  23.118  1.00  0.00     0.016 C 
ATOM      7  C   UNL A   1      34.344  24.144  23.671  1.00  0.00     0.005 C 
ENDBRANCH   5   6
BRANCH   5   8
ATOM      8  C   UNL A   1      30.766  25.551  23.945  1.00  0.00     0.016 C 
ATOM      9  C   UNL A   1      30.278  24.358  23.126  1.00  0.00     0.005 C 
ENDBRANCH   5   8
BRANCH   5  10
ATOM     10  C   UNL A   1      32.834  25.981  25.351  1.00  0.00     0.119 C 
BRANCH  10  11
ATOM     11  C   UNL A   1      31.891  25.694  26.511  1.00  0.00     0.225 C 
ATOM     12  O   UNL A   1      31.399  26.647  27.130  1.00  0.00    -0.275 OA
ATOM     13  N   UNL A   1      31.526  24.453  26.941  1.00  0.00    -0.326 N 
ATOM     14  H   UNL A   1      30.821  24.486  27.627  1.00  0.00     0.169 HD
BRANCH  13  15
ATOM     15  C   UNL A   1      31.915  23.135  26.636  1.00  0.00     0.041 A 
ATOM     16  C   UNL A   1      33.087  22.667  27.245  1.00  0.00     0.028 A 
ATOM     17  C   UNL A   1      31.294  22.308  25.715  1.00  0.00     0.028 A 
ATOM     18  C   UNL A   1      33.722  21.500  26.792  1.00  0.00     0.028 A 
ATOM     19  C   UNL A   1      31.951  21.179  25.216  1.00  0.00     0.028 A 
ATOM     20  C   UNL A   1      33.189  20.791  25.720  1.00  0.00     0.041 A 
BRANCH  20  21
ATOM     21  N   UNL A   1      33.835  19.730  25.061  1.00  0.00    -0.326 N 
ATOM     22  C   UNL A   1      33.361  18.446  24.877  1.00  0.00     0.221 C 
ATOM     23  H   UNL A   1      34.726  19.923  24.690  1.00  0.00     0.169 HD
ATOM     24  C   UNL A   1      34.400  17.545  24.256  1.00  0.00     0.114 C 
ATOM     25  O   UNL A   1      32.225  18.052  25.114  1.00  0.00    -0.275 OA
ENDBRANCH  20  21
ENDBRANCH  13  15
ENDBRANCH  10  11
ENDBRANCH   5  10
ENDBRANCH   3   5
ENDBRANCH   2   3
ENDBRANCH   1   2
BRANCH   1  26
ATOM     26  C   UNL A   1      31.515  29.524  25.121  1.00  0.00     0.275 C 
BRANCH  26  27
ATOM     27  O   UNL A   1      32.830  29.752  25.651  1.00  0.00    -0.458 OA
BRANCH  27  28
ATOM     28  C   UNL A   1      32.913  30.704  26.613  1.00  0.00     0.338 C 
ATOM     29  O   UNL A   1      32.070  31.544  26.879  1.00  0.00    -0.246 OA
BRANCH  28  30
ATOM     30  C   UNL A   1      34.223  30.611  27.309  1.00  0.00     0.060 A 
ATOM     31  C   UNL A   1      34.973  31.744  27.626  1.00  0.00     0.016 A 
ATOM     32  C   UNL A   1      34.733  29.352  27.626  1.00  0.00     0.016 A 
ATOM     33  C   UNL A   1      36.240  31.625  28.207  1.00  0.00     0.010 A 
ATOM     34  C   UNL A   1      35.954  29.239  28.302  1.00  0.00     0.010 A 
ATOM     35  C   UNL A   1      36.731  30.373  28.599  1.00  0.00    -0.014 A 
BRANCH  35  36
ATOM     36  C   UNL A   1      38.015  30.222  29.349  1.00  0.00     0.031 A 
ATOM     37  C   UNL A   1      39.111  29.339  28.808  1.00  0.00     0.074 A 
ATOM     38  C   UNL A   1      38.182  30.799  30.558  1.00  0.00     0.049 A 
ATOM     39  N   UNL A   1      40.136  28.813  29.429  1.00  0.00    -0.248 NA
ATOM     40  C   UNL A   1      39.027  28.983  27.383  1.00  0.00     0.031 C 
ATOM     41  C   UNL A   1      37.239  31.707  31.212  1.00  0.00     0.029 A 
ATOM     42  N   UNL A   1      39.204  30.674  31.474  1.00  0.00    -0.354 N 
ATOM     43  C   UNL A   1      40.783  28.017  28.491  1.00  0.00     0.074 A 
ATOM     44  C   UNL A   1      40.043  28.141  27.252  1.00  0.00     0.031 C 
ATOM     45  C   UNL A   1      37.722  32.059  32.413  1.00  0.00     0.029 A 
ATOM     46  C   UNL A   1      38.954  31.321  32.662  1.00  0.00     0.049 A 
ATOM     47  H   UNL A   1      40.031  30.171  31.297  1.00  0.00     0.167 HD
ATOM     48  C   UNL A   1      41.881  27.242  28.653  1.00  0.00     0.037 A 
ATOM     49  C   UNL A   1      39.588  31.272  33.850  1.00  0.00     0.037 A 
ATOM     50  C   UNL A   1      42.656  27.169  29.864  1.00  0.00     0.049 A 
ATOM     51  C   UNL A   1      40.776  30.371  34.022  1.00  0.00     0.074 A 
ATOM     52  C   UNL A   1      43.823  26.460  30.098  1.00  0.00     0.029 A 
ATOM     53  N   UNL A   1      42.351  27.836  31.039  1.00  0.00    -0.354 N 
ATOM     54  N   UNL A   1      41.356  29.593  33.142  1.00  0.00    -0.248 NA
ATOM     55  C   UNL A   1      41.379  30.317  35.362  1.00  0.00     0.031 C 
ATOM     56  C   UNL A   1      44.200  26.665  31.430  1.00  0.00     0.029 A 
ATOM     57  C   UNL A   1      43.289  27.530  32.011  1.00  0.00     0.049 A 
ATOM     58  H   UNL A   1      41.582  28.439  31.163  1.00  0.00     0.167 HD
ATOM     59  C   UNL A   1      42.388  28.957  33.819  1.00  0.00     0.074 A 
ATOM     60  C   UNL A   1      42.373  29.459  35.177  1.00  0.00     0.031 C 
ATOM     61  C   UNL A   1      43.262  28.032  33.359  1.00  0.00     0.037 A 
BRANCH  48  62
ATOM     62  C   UNL A   1      42.306  26.369  27.510  1.00  0.00     0.057 A 
ATOM     63  C   UNL A   1      43.202  26.804  26.529  1.00  0.00     0.134 A 
ATOM     64  C   UNL A   1      41.873  25.036  27.447  1.00  0.00     0.134 A 
ATOM     65  F   UNL A   1      43.647  28.069  26.527  1.00  0.00    -0.206 F 
ATOM     66  C   UNL A   1      43.651  25.947  25.521  1.00  0.00     0.040 A 
ATOM     67  C   UNL A   1      42.330  24.165  26.457  1.00  0.00     0.040 A 
ATOM     68  F   UNL A   1      41.019  24.555  28.362  1.00  0.00    -0.206 F 
ATOM     69  C   UNL A   1      43.222  24.621  25.490  1.00  0.00     0.006 A 
ENDBRANCH  48  62
BRANCH  49  70
ATOM     70  C   UNL A   1      39.049  32.031  35.007  1.00  0.00     0.057 A 
ATOM     71  C   UNL A   1      39.277  33.404  35.145  1.00  0.00     0.134 A 
ATOM     72  C   UNL A   1      38.299  31.398  36.007  1.00  0.00     0.134 A 
ATOM     73  F   UNL A   1      40.013  34.061  34.235  1.00  0.00    -0.206 F 
ATOM     74  C   UNL A   1      38.786  34.120  36.239  1.00  0.00     0.040 A 
ATOM     75  C   UNL A   1      37.777  32.106  37.089  1.00  0.00     0.040 A 
ATOM     76  F   UNL A   1      38.048  30.082  35.935  1.00  0.00    -0.206 F 
ATOM     77  C   UNL A   1      38.026  33.471  37.210  1.00  0.00     0.006 A 
ENDBRANCH  49  70
BRANCH  61  78
ATOM     78  C   UNL A   1      44.282  27.512  34.325  1.00  0.00     0.057 A 
ATOM     79  C   UNL A   1      44.065  26.337  35.054  1.00  0.00     0.134 A 
ATOM     80  C   UNL A   1      45.502  28.173  34.504  1.00  0.00     0.134 A 
ATOM     81  F   UNL A   1      42.908  25.668  34.938  1.00  0.00    -0.206 F 
ATOM     82  C   UNL A   1      45.024  25.844  35.941  1.00  0.00     0.040 A 
ATOM     83  C   UNL A   1      46.477  27.680  35.372  1.00  0.00     0.040 A 
ATOM     84  F   UNL A   1      45.772  29.302  33.831  1.00  0.00    -0.206 F 
ATOM     85  C   UNL A   1      46.237  26.512  36.096  1.00  0.00     0.006 A 
ENDBRANCH  61  78
ENDBRANCH  35  36
ENDBRANCH  28  30
ENDBRANCH  27  28
ENDBRANCH  26  27
ENDBRANCH   1  26
TORSDOF 17
ENDMDL
MODEL 2
REMARK VINA RESULT:     -11.1      3.595      7.958
REMARK SMILES CCC(CC)(CC(=O)Nc1ccc(NC(C)=O)cc1)C(=O)OCCOC(=O)c1ccc(-c2c3nc(c(-c4c(F)cccc4F)c4ccc([nH]4)c(-c4c(F)cccc4F)c4nc(c(-c5c(F)cccc5F)c5ccc2[nH]5)C=C4)C=C3)cc1
REMARK SMILES IDX 23 1 22 2 20 3 21 4 3 5 2 6 1 7 4 8 5 9 6 10 7 11 8 12 9 13
REMARK SMILES IDX 10 15 11 16 19 17 12 18 18 19 13 20 14 21 15 22 16 24 17 25
REMARK SMILES IDX 24 26 25 27 26 28 27 29 28 30 29 31 81 32 30 33 80 34 31 35
REMARK SMILES IDX 32 36 33 37 74 38 34 39 79 40 73 41 75 42 35 43 78 44 72 45
REMARK SMILES IDX 71 46 36 48 62 49 45 50 61 51 46 52 49 53 60 54 76 55 47 56
REMARK SMILES IDX 48 57 59 59 77 60 50 61 37 62 38 63 43 64 39 65 40 66 42 67
REMARK SMILES IDX 44 68 41 69 63 70 64 71 69 72 65 73 66 74 68 75 70 76 67 77
REMARK SMILES IDX 51 78 52 79 57 80 53 81 54 82 56 83 58 84 55 85
REMARK H PARENT 9 14 14 23 75 47 49 58
REMARK Flexibility Score: inf
ROOT
ATOM      1  C   UNL A   1      35.522  23.653  23.993  1.00  0.00     0.274 C 
ENDROOT
BRANCH   1   2
ATOM      2  O   UNL A   1      34.087  23.780  24.078  1.00  0.00    -0.462 OA
BRANCH   2   3
ATOM      3  C   UNL A   1      33.544  24.712  23.251  1.00  0.00     0.312 C 
ATOM      4  O   UNL A   1      33.694  24.697  22.035  1.00  0.00    -0.252 OA
BRANCH   3   5
ATOM      5  C   UNL A   1      32.836  25.862  23.997  1.00  0.00     0.076 C 
BRANCH   5   6
ATOM      6  C   UNL A   1      31.302  25.804  23.736  1.00  0.00     0.016 C 
ATOM      7  C   UNL A   1      30.668  24.527  23.190  1.00  0.00     0.005 C 
ENDBRANCH   5   6
BRANCH   5   8
ATOM      8  C   UNL A   1      33.444  27.160  23.378  1.00  0.00     0.016 C 
ATOM      9  C   UNL A   1      33.719  28.307  24.349  1.00  0.00     0.005 C 
ENDBRANCH   5   8
BRANCH   5  10
ATOM     10  C   UNL A   1      33.148  25.852  25.531  1.00  0.00     0.119 C 
BRANCH  10  11
ATOM     11  C   UNL A   1      32.011  25.620  26.515  1.00  0.00     0.225 C 
ATOM     12  O   UNL A   1      31.479  26.599  27.055  1.00  0.00    -0.275 OA
ATOM     13  N   UNL A   1      31.508  24.401  26.864  1.00  0.00    -0.326 N 
ATOM     14  H   UNL A   1      30.702  24.475  27.425  1.00  0.00     0.169 HD
BRANCH  13  15
ATOM     15  C   UNL A   1      31.865  23.064  26.614  1.00  0.00     0.041 A 
ATOM     16  C   UNL A   1      32.949  22.554  27.340  1.00  0.00     0.028 A 
ATOM     17  C   UNL A   1      31.300  22.251  25.644  1.00  0.00     0.028 A 
ATOM     18  C   UNL A   1      33.572  21.353  26.964  1.00  0.00     0.028 A 
ATOM     19  C   UNL A   1      31.951  21.087  25.224  1.00  0.00     0.028 A 
ATOM     20  C   UNL A   1      33.116  20.652  25.851  1.00  0.00     0.041 A 
BRANCH  20  21
ATOM     21  N   UNL A   1      33.774  19.554  25.271  1.00  0.00    -0.326 N 
ATOM     22  C   UNL A   1      33.274  18.280  25.086  1.00  0.00     0.221 C 
ATOM     23  H   UNL A   1      34.695  19.710  24.962  1.00  0.00     0.169 HD
ATOM     24  C   UNL A   1      34.327  17.332  24.568  1.00  0.00     0.114 C 
ATOM     25  O   UNL A   1      32.112  17.927  25.247  1.00  0.00    -0.275 OA
ENDBRANCH  20  21
ENDBRANCH  13  15
ENDBRANCH  10  11
ENDBRANCH   5  10
ENDBRANCH   3   5
ENDBRANCH   2   3
ENDBRANCH   1   2
BRANCH   1  26
ATOM     26  C   UNL A   1      35.962  22.205  24.211  1.00  0.00     0.275 C 
BRANCH  26  27
ATOM     27  O   UNL A   1      36.519  22.058  25.526  1.00  0.00    -0.458 OA
BRANCH  27  28
ATOM     28  C   UNL A   1      37.800  21.617  25.570  1.00  0.00     0.338 C 
ATOM     29  O   UNL A   1      38.209  20.531  25.197  1.00  0.00    -0.246 OA
BRANCH  28  30
ATOM     30  C   UNL A   1      38.674  22.652  26.181  1.00  0.00     0.060 A 
ATOM     31  C   UNL A   1      39.859  22.323  26.840  1.00  0.00     0.016 A 
ATOM     32  C   UNL A   1      38.282  23.989  26.123  1.00  0.00     0.016 A 
ATOM     33  C   UNL A   1      40.621  23.308  27.479  1.00  0.00     0.010 A 
ATOM     34  C   UNL A   1      39.099  24.985  26.672  1.00  0.00     0.010 A 
ATOM     35  C   UNL A   1      40.280  24.661  27.364  1.00  0.00    -0.014 A 
BRANCH  35  36
ATOM     36  C   UNL A   1      41.146  25.749  27.912  1.00  0.00     0.031 A 
ATOM     37  C   UNL A   1      40.549  26.837  28.767  1.00  0.00     0.074 A 
ATOM     38  C   UNL A   1      42.453  25.825  27.581  1.00  0.00     0.049 A 
ATOM     39  N   UNL A   1      41.028  28.020  29.060  1.00  0.00    -0.248 NA
ATOM     40  C   UNL A   1      39.227  26.565  29.351  1.00  0.00     0.031 C 
ATOM     41  C   UNL A   1      43.196  24.842  26.791  1.00  0.00     0.029 A 
ATOM     42  N   UNL A   1      43.386  26.805  27.843  1.00  0.00    -0.354 N 
ATOM     43  C   UNL A   1      40.043  28.656  29.807  1.00  0.00     0.074 A 
ATOM     44  C   UNL A   1      38.945  27.721  29.937  1.00  0.00     0.031 C 
ATOM     45  C   UNL A   1      44.461  25.261  26.637  1.00  0.00     0.029 A 
ATOM     46  C   UNL A   1      44.594  26.590  27.222  1.00  0.00     0.049 A 
ATOM     47  H   UNL A   1      43.205  27.583  28.418  1.00  0.00     0.167 HD
ATOM     48  C   UNL A   1      40.049  29.907  30.322  1.00  0.00     0.037 A 
ATOM     49  C   UNL A   1      45.665  27.391  27.062  1.00  0.00     0.037 A 
ATOM     50  C   UNL A   1      41.166  30.813  30.252  1.00  0.00     0.049 A 
ATOM     51  C   UNL A   1      45.633  28.791  27.601  1.00  0.00     0.074 A 
ATOM     52  C   UNL A   1      41.284  32.078  30.803  1.00  0.00     0.029 A 
ATOM     53  N   UNL A   1      42.359  30.547  29.602  1.00  0.00    -0.354 N 
ATOM     54  N   UNL A   1      44.684  29.397  28.271  1.00  0.00    -0.248 NA
ATOM     55  C   UNL A   1      46.809  29.633  27.333  1.00  0.00     0.031 C 
ATOM     56  C   UNL A   1      42.535  32.595  30.449  1.00  0.00     0.029 A 
ATOM     57  C   UNL A   1      43.206  31.637  29.709  1.00  0.00     0.049 A 
ATOM     58  H   UNL A   1      42.572  29.708  29.133  1.00  0.00     0.167 HD
ATOM     59  C   UNL A   1      45.145  30.685  28.503  1.00  0.00     0.074 A 
ATOM     60  C   UNL A   1      46.471  30.769  27.926  1.00  0.00     0.031 C 
ATOM     61  C   UNL A   1      44.521  31.711  29.129  1.00  0.00     0.037 A 
BRANCH  48  62
ATOM     62  C   UNL A   1      38.798  30.407  30.982  1.00  0.00     0.057 A 
ATOM     63  C   UNL A   1      37.784  31.055  30.269  1.00  0.00     0.134 A 
ATOM     64  C   UNL A   1      38.571  30.149  32.342  1.00  0.00     0.134 A 
ATOM     65  F   UNL A   1      37.942  31.338  28.968  1.00  0.00    -0.206 F 
ATOM     66  C   UNL A   1      36.589  31.435  30.885  1.00  0.00     0.040 A 
ATOM     67  C   UNL A   1      37.373  30.506  32.964  1.00  0.00     0.040 A 
ATOM     68  F   UNL A   1      39.500  29.525  33.080  1.00  0.00    -0.206 F 
ATOM     69  C   UNL A   1      36.378  31.151  32.234  1.00  0.00     0.006 A 
ENDBRANCH  48  62
BRANCH  49  70
ATOM     70  C   UNL A   1      46.829  26.919  26.269  1.00  0.00     0.057 A 
ATOM     71  C   UNL A   1      46.908  27.141  24.891  1.00  0.00     0.134 A 
ATOM     72  C   UNL A   1      47.888  26.227  26.874  1.00  0.00     0.134 A 
ATOM     73  F   UNL A   1      45.912  27.771  24.250  1.00  0.00    -0.206 F 
ATOM     74  C   UNL A   1      47.993  26.686  24.139  1.00  0.00     0.040 A 
ATOM     75  C   UNL A   1      48.991  25.793  26.140  1.00  0.00     0.040 A 
ATOM     76  F   UNL A   1      47.871  25.980  28.191  1.00  0.00    -0.206 F 
ATOM     77  C   UNL A   1      49.043  26.018  24.766  1.00  0.00     0.006 A 
ENDBRANCH  49  70
BRANCH  61  78
ATOM     78  C   UNL A   1      45.267  33.005  29.234  1.00  0.00     0.057 A 
ATOM     79  C   UNL A   1      46.159  33.250  30.285  1.00  0.00     0.134 A 
ATOM     80  C   UNL A   1      45.117  34.001  28.262  1.00  0.00     0.134 A 
ATOM     81  F   UNL A   1      46.333  32.341  31.256  1.00  0.00    -0.206 F 
ATOM     82  C   UNL A   1      46.868  34.449  30.372  1.00  0.00     0.040 A 
ATOM     83  C   UNL A   1      45.835  35.195  28.327  1.00  0.00     0.040 A 
ATOM     84  F   UNL A   1      44.280  33.824  27.229  1.00  0.00    -0.206 F 
ATOM     85  C   UNL A   1      46.712  35.423  29.388  1.00  0.00     0.006 A 
ENDBRANCH  61  78
ENDBRANCH  35  36
ENDBRANCH  28  30
ENDBRANCH  27  28
ENDBRANCH  26  27
ENDBRANCH   1  26
TORSDOF 17
ENDMDL
MODEL 3
REMARK VINA RESULT:     -11.1      3.933      8.977
REMARK SMILES CCC(CC)(CC(=O)Nc1ccc(NC(C)=O)cc1)C(=O)OCCOC(=O)c1ccc(-c2c3nc(c(-c4c(F)cccc4F)c4ccc([nH]4)c(-c4c(F)cccc4F)c4nc(c(-c5c(F)cccc5F)c5ccc2[nH]5)C=C4)C=C3)cc1
REMARK SMILES IDX 23 1 22 2 20 3 21 4 3 5 2 6 1 7 4 8 5 9 6 10 7 11 8 12 9 13
REMARK SMILES IDX 10 15 11 16 19 17 12 18 18 19 13 20 14 21 15 22 16 24 17 25
REMARK SMILES IDX 24 26 25 27 26 28 27 29 28 30 29 31 81 32 30 33 80 34 31 35
REMARK SMILES IDX 32 36 33 37 74 38 34 39 79 40 73 41 75 42 35 43 78 44 72 45
REMARK SMILES IDX 71 46 36 48 62 49 45 50 61 51 46 52 49 53 60 54 76 55 47 56
REMARK SMILES IDX 48 57 59 59 77 60 50 61 37 62 38 63 43 64 39 65 40 66 42 67
REMARK SMILES IDX 44 68 41 69 63 70 64 71 69 72 65 73 66 74 68 75 70 76 67 77
REMARK SMILES IDX 51 78 52 79 57 80 53 81 54 82 56 83 58 84 55 85
REMARK H PARENT 9 14 14 23 75 47 49 58
REMARK Flexibility Score: inf
ROOT
ATOM      1  C   UNL A   1      34.906  20.442  24.996  1.00  0.00     0.274 C 
ENDROOT
BRANCH   1   2
ATOM      2  O   UNL A   1      33.699  21.164  24.672  1.00  0.00    -0.462 OA
BRANCH   2   3
ATOM      3  C   UNL A   1      33.433  22.226  25.476  1.00  0.00     0.312 C 
ATOM      4  O   UNL A   1      33.624  22.214  26.687  1.00  0.00    -0.252 OA
BRANCH   3   5
ATOM      5  C   UNL A   1      32.746  23.397  24.744  1.00  0.00     0.076 C 
BRANCH   5   6
ATOM      6  C   UNL A   1      31.303  22.990  24.320  1.00  0.00     0.016 C 
ATOM      7  C   UNL A   1      30.617  23.709  23.162  1.00  0.00     0.005 C 
ENDBRANCH   5   6
BRANCH   5   8
ATOM      8  C   UNL A   1      33.634  23.644  23.483  1.00  0.00     0.016 C 
ATOM      9  C   UNL A   1      34.362  24.985  23.422  1.00  0.00     0.005 C 
ENDBRANCH   5   8
BRANCH   5  10
ATOM     10  C   UNL A   1      32.733  24.706  25.604  1.00  0.00     0.119 C 
BRANCH  10  11
ATOM     11  C   UNL A   1      31.479  25.062  26.389  1.00  0.00     0.225 C 
ATOM     12  O   UNL A   1      31.149  24.346  27.344  1.00  0.00    -0.275 OA
ATOM     13  N   UNL A   1      30.666  26.127  26.134  1.00  0.00    -0.326 N 
ATOM     14  H   UNL A   1      29.976  26.245  26.826  1.00  0.00     0.169 HD
BRANCH  13  15
ATOM     15  C   UNL A   1      30.579  27.097  25.119  1.00  0.00     0.041 A 
ATOM     16  C   UNL A   1      31.315  28.274  25.307  1.00  0.00     0.028 A 
ATOM     17  C   UNL A   1      29.753  27.023  24.009  1.00  0.00     0.028 A 
ATOM     18  C   UNL A   1      31.073  29.413  24.521  1.00  0.00     0.028 A 
ATOM     19  C   UNL A   1      29.462  28.169  23.262  1.00  0.00     0.028 A 
ATOM     20  C   UNL A   1      30.086  29.383  23.540  1.00  0.00     0.041 A 
BRANCH  20  21
ATOM     21  N   UNL A   1      29.626  30.507  22.833  1.00  0.00    -0.326 N 
ATOM     22  C   UNL A   1      28.372  31.080  22.896  1.00  0.00     0.221 C 
ATOM     23  H   UNL A   1      30.270  30.933  22.223  1.00  0.00     0.169 HD
ATOM     24  C   UNL A   1      28.204  32.182  21.878  1.00  0.00     0.114 C 
ATOM     25  O   UNL A   1      27.489  30.807  23.701  1.00  0.00    -0.275 OA
ENDBRANCH  20  21
ENDBRANCH  13  15
ENDBRANCH  10  11
ENDBRANCH   5  10
ENDBRANCH   3   5
ENDBRANCH   2   3
ENDBRANCH   1   2
BRANCH   1  26
ATOM     26  C   UNL A   1      36.149  21.230  24.581  1.00  0.00     0.275 C 
BRANCH  26  27
ATOM     27  O   UNL A   1      36.887  21.625  25.748  1.00  0.00    -0.458 OA
BRANCH  27  28
ATOM     28  C   UNL A   1      38.202  21.295  25.744  1.00  0.00     0.338 C 
ATOM     29  O   UNL A   1      38.687  20.242  25.366  1.00  0.00    -0.246 OA
BRANCH  28  30
ATOM     30  C   UNL A   1      39.008  22.408  26.310  1.00  0.00     0.060 A 
ATOM     31  C   UNL A   1      40.129  22.178  27.108  1.00  0.00     0.016 A 
ATOM     32  C   UNL A   1      38.612  23.723  26.063  1.00  0.00     0.016 A 
ATOM     33  C   UNL A   1      40.821  23.242  27.696  1.00  0.00     0.010 A 
ATOM     34  C   UNL A   1      39.367  24.789  26.566  1.00  0.00     0.010 A 
ATOM     35  C   UNL A   1      40.482  24.567  27.396  1.00  0.00    -0.014 A 
BRANCH  35  36
ATOM     36  C   UNL A   1      41.285  25.726  27.892  1.00  0.00     0.031 A 
ATOM     37  C   UNL A   1      40.628  26.816  28.699  1.00  0.00     0.074 A 
ATOM     38  C   UNL A   1      42.585  25.861  27.554  1.00  0.00     0.049 A 
ATOM     39  N   UNL A   1      41.039  28.036  28.938  1.00  0.00    -0.248 NA
ATOM     40  C   UNL A   1      39.324  26.496  29.299  1.00  0.00     0.031 C 
ATOM     41  C   UNL A   1      43.383  24.887  26.806  1.00  0.00     0.029 A 
ATOM     42  N   UNL A   1      43.461  26.903  27.769  1.00  0.00    -0.354 N 
ATOM     43  C   UNL A   1      40.020  28.647  29.659  1.00  0.00     0.074 A 
ATOM     44  C   UNL A   1      38.977  27.659  29.834  1.00  0.00     0.031 C 
ATOM     45  C   UNL A   1      44.622  25.370  26.630  1.00  0.00     0.029 A 
ATOM     46  C   UNL A   1      44.679  26.729  27.154  1.00  0.00     0.049 A 
ATOM     47  H   UNL A   1      43.237  27.695  28.309  1.00  0.00     0.167 HD
ATOM     48  C   UNL A   1      39.956  29.919  30.118  1.00  0.00     0.037 A 
ATOM     49  C   UNL A   1      45.703  27.581  26.955  1.00  0.00     0.037 A 
ATOM     50  C   UNL A   1      41.019  30.883  30.004  1.00  0.00     0.049 A 
ATOM     51  C   UNL A   1      45.593  29.001  27.431  1.00  0.00     0.074 A 
ATOM     52  C   UNL A   1      41.066  32.176  30.498  1.00  0.00     0.029 A 
ATOM     53  N   UNL A   1      42.225  30.656  29.362  1.00  0.00    -0.354 N 
ATOM     54  N   UNL A   1      44.611  29.580  28.077  1.00  0.00    -0.248 NA
ATOM     55  C   UNL A   1      46.719  29.894  27.122  1.00  0.00     0.031 C 
ATOM     56  C   UNL A   1      42.285  32.746  30.116  1.00  0.00     0.029 A 
ATOM     57  C   UNL A   1      43.010  31.796  29.418  1.00  0.00     0.049 A 
ATOM     58  H   UNL A   1      42.485  29.810  28.931  1.00  0.00     0.167 HD
ATOM     59  C   UNL A   1      44.998  30.902  28.249  1.00  0.00     0.074 A 
ATOM     60  C   UNL A   1      46.316  31.035  27.665  1.00  0.00     0.031 C 
ATOM     61  C   UNL A   1      44.317  31.917  28.831  1.00  0.00     0.037 A 
BRANCH  48  62
ATOM     62  C   UNL A   1      38.678  30.376  30.759  1.00  0.00     0.057 A 
ATOM     63  C   UNL A   1      37.644  30.968  30.026  1.00  0.00     0.134 A 
ATOM     64  C   UNL A   1      38.451  30.132  32.121  1.00  0.00     0.134 A 
ATOM     65  F   UNL A   1      37.802  31.235  28.722  1.00  0.00    -0.206 F 
ATOM     66  C   UNL A   1      36.429  31.307  30.626  1.00  0.00     0.040 A 
ATOM     67  C   UNL A   1      37.234  30.448  32.727  1.00  0.00     0.040 A 
ATOM     68  F   UNL A   1      39.399  29.560  32.877  1.00  0.00    -0.206 F 
ATOM     69  C   UNL A   1      36.219  31.038  31.978  1.00  0.00     0.006 A 
ENDBRANCH  48  62
BRANCH  49  70
ATOM     70  C   UNL A   1      46.891  27.141  26.181  1.00  0.00     0.057 A 
ATOM     71  C   UNL A   1      46.948  27.285  24.791  1.00  0.00     0.134 A 
ATOM     72  C   UNL A   1      47.997  26.558  26.815  1.00  0.00     0.134 A 
ATOM     73  F   UNL A   1      45.908  27.809  24.123  1.00  0.00    -0.206 F 
ATOM     74  C   UNL A   1      48.057  26.859  24.056  1.00  0.00     0.040 A 
ATOM     75  C   UNL A   1      49.123  26.155  26.097  1.00  0.00     0.040 A 
ATOM     76  F   UNL A   1      48.004  26.389  28.145  1.00  0.00    -0.206 F 
ATOM     77  C   UNL A   1      49.152  26.300  24.712  1.00  0.00     0.006 A 
ENDBRANCH  49  70
BRANCH  61  78
ATOM     78  C   UNL A   1      44.989  33.255  28.876  1.00  0.00     0.057 A 
ATOM     79  C   UNL A   1      44.764  34.219  27.886  1.00  0.00     0.134 A 
ATOM     80  C   UNL A   1      45.842  33.594  29.933  1.00  0.00     0.134 A 
ATOM     81  F   UNL A   1      43.970  33.948  26.840  1.00  0.00    -0.206 F 
ATOM     82  C   UNL A   1      45.377  35.472  27.940  1.00  0.00     0.040 A 
ATOM     83  C   UNL A   1      46.443  34.851  30.009  1.00  0.00     0.040 A 
ATOM     84  F   UNL A   1      46.094  32.715  30.915  1.00  0.00    -0.206 F 
ATOM     85  C   UNL A   1      46.214  35.794  29.007  1.00  0.00     0.006 A 
ENDBRANCH  61  78
ENDBRANCH  35  36
ENDBRANCH  28  30
ENDBRANCH  27  28
ENDBRANCH  26  27
ENDBRANCH   1  26
TORSDOF 17
ENDMDL
