MODEL 1
REMARK VINA RESULT:     -12.8      0.000      0.000
REMARK SMILES CCn1c(CC2CC[NH+](Cc3cn[nH]c3C(=O)OCCOC(=O)c3ccc(-c4c5nc(c(-c6c(F)cccc6F)c6ccc([nH]6)c(-c6c(F)cccc6F)c6nc(c(-c7c(F)cccc7F)c7ccc4[nH]7)C=C6)C=C5)cc3)CC2)nn(C)c1=O
REMARK SMILES IDX 18 1 16 2 17 3 15 4 11 5 12 6 13 7 14 8 10 10 9 11 6 12 7 13
REMARK SMILES IDX 79 14 8 15 78 16 5 18 4 19 3 20 83 21 80 22 81 23 84 24
REMARK SMILES IDX 82 25 2 26 1 27 19 28 20 29 21 30 22 31 23 32 24 33 25 34
REMARK SMILES IDX 77 35 26 36 76 37 27 38 28 39 29 40 70 41 30 42 75 43 69 44
REMARK SMILES IDX 71 45 31 46 74 47 68 48 67 49 32 51 58 52 41 53 57 54 42 55
REMARK SMILES IDX 45 56 56 57 72 58 43 59 44 60 55 62 73 63 46 64 33 65 34 66
REMARK SMILES IDX 39 67 35 68 36 69 38 70 40 71 37 72 59 73 60 74 65 75 61 76
REMARK SMILES IDX 62 77 64 78 66 79 63 80 47 81 48 82 53 83 49 84 50 85 52 86
REMARK SMILES IDX 54 87 51 88
REMARK H PARENT 14 9 9 17 71 50 45 61
REMARK Flexibility Score: inf
ROOT
ATOM      1  O   UNL A   1      32.232  30.089  27.129  1.00  0.00    -0.457 OA
ENDROOT
BRANCH   1   2
ATOM      2  C   UNL A   1      31.778  28.812  27.019  1.00  0.00     0.356 C 
ATOM      3  O   UNL A   1      31.758  27.980  27.915  1.00  0.00    -0.244 OA
BRANCH   2   4
ATOM      4  C   UNL A   1      31.398  28.546  25.659  1.00  0.00     0.152 A 
ATOM      5  C   UNL A   1      30.641  27.105  24.912  1.00  0.00     0.059 A 
ATOM      6  C   UNL A   1      30.095  27.654  23.094  1.00  0.00     0.145 A 
ATOM      7  N   UNL A   1      30.665  29.268  22.776  1.00  0.00    -0.183 NA
ATOM      8  N   UNL A   1      31.405  29.902  24.371  1.00  0.00    -0.271 N 
ATOM      9  H   UNL A   1      31.748  30.813  24.512  1.00  0.00     0.190 HD
BRANCH   5  10
ATOM     10  C   UNL A   1      30.436  25.758  25.568  1.00  0.00     0.303 C 
BRANCH  10  11
ATOM     11  N   UNL A   1      31.612  25.236  26.296  1.00  0.00    -0.331 N 
ATOM     12  C   UNL A   1      33.715  23.131  26.291  1.00  0.00     0.008 C 
ATOM     13  C   UNL A   1      32.535  23.061  27.261  1.00  0.00     0.065 C 
ATOM     14  C   UNL A   1      34.053  24.606  26.060  1.00  0.00     0.065 C 
ATOM     15  C   UNL A   1      31.337  23.922  26.875  1.00  0.00     0.262 C 
ATOM     16  C   UNL A   1      32.864  25.435  25.562  1.00  0.00     0.262 C 
ATOM     17  H   UNL A   1      31.787  25.805  27.125  1.00  0.00     0.348 HD
BRANCH  12  18
ATOM     18  C   UNL A   1      33.579  22.271  25.013  1.00  0.00     0.081 C 
BRANCH  18  19
ATOM     19  C   UNL A   1      34.357  20.973  24.997  1.00  0.00     0.133 A 
ATOM     20  N   UNL A   1      35.683  20.894  25.062  1.00  0.00    -0.279 N 
ATOM     21  C   UNL A   1      36.097  19.567  24.913  1.00  0.00     0.345 A 
ATOM     22  N   UNL A   1      33.746  19.856  24.857  1.00  0.00    -0.155 NA
ATOM     23  N   UNL A   1      34.832  18.691  24.625  1.00  0.00    -0.216 N 
ATOM     24  O   UNL A   1      37.255  19.158  25.001  1.00  0.00    -0.246 OA
ATOM     25  C   UNL A   1      34.348  16.647  24.071  1.00  0.00     0.179 C 
BRANCH  20  26
ATOM     26  C   UNL A   1      36.537  22.068  25.157  1.00  0.00     0.125 C 
ATOM     27  C   UNL A   1      36.925  22.705  23.863  1.00  0.00     0.028 C 
ENDBRANCH  20  26
ENDBRANCH  18  19
ENDBRANCH  12  18
ENDBRANCH  10  11
ENDBRANCH   5  10
ENDBRANCH   2   4
ENDBRANCH   1   2
BRANCH   1  28
ATOM     28  C   UNL A   1      33.656  30.271  27.178  1.00  0.00     0.275 C 
BRANCH  28  29
ATOM     29  C   UNL A   1      34.036  31.495  27.993  1.00  0.00     0.275 C 
BRANCH  29  30
ATOM     30  O   UNL A   1      35.443  31.721  27.958  1.00  0.00    -0.458 OA
BRANCH  30  31
ATOM     31  C   UNL A   1      36.087  31.207  29.027  1.00  0.00     0.338 C 
ATOM     32  O   UNL A   1      35.960  31.520  30.199  1.00  0.00    -0.246 OA
BRANCH  31  33
ATOM     33  C   UNL A   1      37.263  30.511  28.532  1.00  0.00     0.060 A 
ATOM     34  C   UNL A   1      37.151  29.239  28.009  1.00  0.00     0.016 A 
ATOM     35  C   UNL A   1      38.485  30.997  28.992  1.00  0.00     0.016 A 
ATOM     36  C   UNL A   1      38.142  28.342  28.377  1.00  0.00     0.010 A 
ATOM     37  C   UNL A   1      39.561  30.153  29.045  1.00  0.00     0.010 A 
ATOM     38  C   UNL A   1      39.323  28.794  29.009  1.00  0.00    -0.014 A 
BRANCH  38  39
ATOM     39  C   UNL A   1      40.468  27.887  29.180  1.00  0.00     0.031 A 
ATOM     40  C   UNL A   1      40.806  27.960  30.635  1.00  0.00     0.074 A 
ATOM     41  C   UNL A   1      40.997  27.070  28.214  1.00  0.00     0.049 A 
ATOM     42  N   UNL A   1      41.876  28.479  31.137  1.00  0.00    -0.248 NA
ATOM     43  C   UNL A   1      39.720  27.838  31.648  1.00  0.00     0.031 C 
ATOM     44  C   UNL A   1      40.597  26.938  26.798  1.00  0.00     0.029 A 
ATOM     45  N   UNL A   1      41.980  26.088  28.298  1.00  0.00    -0.354 N 
ATOM     46  C   UNL A   1      41.731  28.349  32.518  1.00  0.00     0.074 A 
ATOM     47  C   UNL A   1      40.328  28.238  32.766  1.00  0.00     0.031 C 
ATOM     48  C   UNL A   1      41.073  25.781  26.268  1.00  0.00     0.029 A 
ATOM     49  C   UNL A   1      41.934  25.131  27.234  1.00  0.00     0.049 A 
ATOM     50  H   UNL A   1      42.647  26.055  29.022  1.00  0.00     0.167 HD
ATOM     51  C   UNL A   1      42.785  27.839  33.209  1.00  0.00     0.037 A 
ATOM     52  C   UNL A   1      42.595  23.926  27.164  1.00  0.00     0.037 A 
ATOM     53  C   UNL A   1      43.995  28.081  32.453  1.00  0.00     0.049 A 
ATOM     54  C   UNL A   1      43.699  24.016  28.140  1.00  0.00     0.074 A 
ATOM     55  C   UNL A   1      44.727  29.190  32.081  1.00  0.00     0.029 A 
ATOM     56  N   UNL A   1      44.179  27.139  31.477  1.00  0.00    -0.354 N 
ATOM     57  N   UNL A   1      44.705  24.829  27.992  1.00  0.00    -0.248 NA
ATOM     58  C   UNL A   1      43.375  23.617  29.498  1.00  0.00     0.031 C 
ATOM     59  C   UNL A   1      45.277  28.895  30.795  1.00  0.00     0.029 A 
ATOM     60  C   UNL A   1      45.000  27.569  30.481  1.00  0.00     0.049 A 
ATOM     61  H   UNL A   1      43.762  26.248  31.493  1.00  0.00     0.167 HD
ATOM     62  C   UNL A   1      44.808  25.434  29.232  1.00  0.00     0.074 A 
ATOM     63  C   UNL A   1      44.030  24.583  30.145  1.00  0.00     0.031 C 
ATOM     64  C   UNL A   1      45.226  26.732  29.332  1.00  0.00     0.037 A 
BRANCH  51  65
ATOM     65  C   UNL A   1      42.648  26.607  34.096  1.00  0.00     0.057 A 
ATOM     66  C   UNL A   1      42.005  26.746  35.336  1.00  0.00     0.134 A 
ATOM     67  C   UNL A   1      43.359  25.394  33.939  1.00  0.00     0.134 A 
ATOM     68  F   UNL A   1      41.330  27.865  35.636  1.00  0.00    -0.206 F 
ATOM     69  C   UNL A   1      42.094  25.775  36.347  1.00  0.00     0.040 A 
ATOM     70  C   UNL A   1      43.417  24.400  34.920  1.00  0.00     0.040 A 
ATOM     71  F   UNL A   1      44.125  25.125  32.878  1.00  0.00    -0.206 F 
ATOM     72  C   UNL A   1      42.800  24.596  36.140  1.00  0.00     0.006 A 
ENDBRANCH  51  65
BRANCH  52  73
ATOM     73  C   UNL A   1      42.169  22.573  26.665  1.00  0.00     0.057 A 
ATOM     74  C   UNL A   1      43.019  21.710  25.930  1.00  0.00     0.134 A 
ATOM     75  C   UNL A   1      41.036  21.956  27.213  1.00  0.00     0.134 A 
ATOM     76  F   UNL A   1      44.167  22.162  25.402  1.00  0.00    -0.206 F 
ATOM     77  C   UNL A   1      42.759  20.331  25.774  1.00  0.00     0.040 A 
ATOM     78  C   UNL A   1      40.773  20.582  27.076  1.00  0.00     0.040 A 
ATOM     79  F   UNL A   1      40.199  22.651  27.993  1.00  0.00    -0.206 F 
ATOM     80  C   UNL A   1      41.638  19.760  26.364  1.00  0.00     0.006 A 
ENDBRANCH  52  73
BRANCH  64  81
ATOM     81  C   UNL A   1      45.942  27.343  28.169  1.00  0.00     0.057 A 
ATOM     82  C   UNL A   1      45.357  28.090  27.135  1.00  0.00     0.134 A 
ATOM     83  C   UNL A   1      47.337  27.252  28.182  1.00  0.00     0.134 A 
ATOM     84  F   UNL A   1      44.033  28.302  27.094  1.00  0.00    -0.206 F 
ATOM     85  C   UNL A   1      46.141  28.688  26.138  1.00  0.00     0.040 A 
ATOM     86  C   UNL A   1      48.128  27.868  27.217  1.00  0.00     0.040 A 
ATOM     87  F   UNL A   1      47.958  26.599  29.177  1.00  0.00    -0.206 F 
ATOM     88  C   UNL A   1      47.531  28.577  26.181  1.00  0.00     0.006 A 
ENDBRANCH  64  81
ENDBRANCH  38  39
ENDBRANCH  31  33
ENDBRANCH  30  31
ENDBRANCH  29  30
ENDBRANCH  28  29
ENDBRANCH   1  28
TORSDOF 16
ENDMDL
MODEL 2
REMARK VINA RESULT:     -12.7      1.816      2.450
REMARK SMILES CCn1c(CC2CC[NH+](Cc3cn[nH]c3C(=O)OCCOC(=O)c3ccc(-c4c5nc(c(-c6c(F)cccc6F)c6ccc([nH]6)c(-c6c(F)cccc6F)c6nc(c(-c7c(F)cccc7F)c7ccc4[nH]7)C=C6)C=C5)cc3)CC2)nn(C)c1=O
REMARK SMILES IDX 18 1 16 2 17 3 15 4 11 5 12 6 13 7 14 8 10 10 9 11 6 12 7 13
REMARK SMILES IDX 79 14 8 15 78 16 5 18 4 19 3 20 83 21 80 22 81 23 84 24
REMARK SMILES IDX 82 25 2 26 1 27 19 28 20 29 21 30 22 31 23 32 24 33 25 34
REMARK SMILES IDX 77 35 26 36 76 37 27 38 28 39 29 40 70 41 30 42 75 43 69 44
REMARK SMILES IDX 71 45 31 46 74 47 68 48 67 49 32 51 58 52 41 53 57 54 42 55
REMARK SMILES IDX 45 56 56 57 72 58 43 59 44 60 55 62 73 63 46 64 33 65 34 66
REMARK SMILES IDX 39 67 35 68 36 69 38 70 40 71 37 72 59 73 60 74 65 75 61 76
REMARK SMILES IDX 62 77 64 78 66 79 63 80 47 81 48 82 53 83 49 84 50 85 52 86
REMARK SMILES IDX 54 87 51 88
REMARK H PARENT 14 9 9 17 71 50 45 61
REMARK Flexibility Score: inf
ROOT
ATOM      1  O   UNL A   1      33.232  29.377  26.446  1.00  0.00    -0.457 OA
ENDROOT
BRANCH   1   2
ATOM      2  C   UNL A   1      32.131  28.583  26.516  1.00  0.00     0.356 C 
ATOM      3  O   UNL A   1      31.868  27.802  27.418  1.00  0.00    -0.244 OA
BRANCH   2   4
ATOM      4  C   UNL A   1      31.349  28.730  25.319  1.00  0.00     0.152 A 
ATOM      5  C   UNL A   1      30.382  27.539  24.394  1.00  0.00     0.059 A 
ATOM      6  C   UNL A   1      29.312  28.585  23.104  1.00  0.00     0.145 A 
ATOM      7  N   UNL A   1      29.775  30.261  23.185  1.00  0.00    -0.183 NA
ATOM      8  N   UNL A   1      30.976  30.419  24.609  1.00  0.00    -0.271 N 
ATOM      9  H   UNL A   1      31.356  31.266  24.936  1.00  0.00     0.190 HD
BRANCH   5  10
ATOM     10  C   UNL A   1      30.373  26.040  24.598  1.00  0.00     0.303 C 
BRANCH  10  11
ATOM     11  N   UNL A   1      31.168  25.273  23.615  1.00  0.00    -0.331 N 
ATOM     12  C   UNL A   1      33.191  23.114  23.304  1.00  0.00     0.008 C 
ATOM     13  C   UNL A   1      33.575  24.583  23.125  1.00  0.00     0.065 C 
ATOM     14  C   UNL A   1      31.748  22.939  22.826  1.00  0.00     0.065 C 
ATOM     15  C   UNL A   1      32.592  25.580  23.729  1.00  0.00     0.262 C 
ATOM     16  C   UNL A   1      30.754  23.871  23.526  1.00  0.00     0.262 C 
ATOM     17  H   UNL A   1      30.953  25.593  22.670  1.00  0.00     0.348 HD
BRANCH  12  18
ATOM     18  C   UNL A   1      33.511  22.506  24.690  1.00  0.00     0.081 C 
BRANCH  18  19
ATOM     19  C   UNL A   1      34.841  21.796  24.815  1.00  0.00     0.133 A 
ATOM     20  N   UNL A   1      34.996  20.476  24.740  1.00  0.00    -0.279 N 
ATOM     21  C   UNL A   1      36.324  20.128  25.005  1.00  0.00     0.345 A 
ATOM     22  N   UNL A   1      35.908  22.460  25.064  1.00  0.00    -0.155 NA
ATOM     23  N   UNL A   1      37.102  21.431  25.388  1.00  0.00    -0.216 N 
ATOM     24  O   UNL A   1      36.800  18.994  24.940  1.00  0.00    -0.246 OA
ATOM     25  C   UNL A   1      39.059  22.010  26.132  1.00  0.00     0.179 C 
BRANCH  20  26
ATOM     26  C   UNL A   1      33.882  19.565  24.528  1.00  0.00     0.125 C 
ATOM     27  C   UNL A   1      33.193  19.070  25.757  1.00  0.00     0.028 C 
ENDBRANCH  20  26
ENDBRANCH  18  19
ENDBRANCH  12  18
ENDBRANCH  10  11
ENDBRANCH   5  10
ENDBRANCH   2   4
ENDBRANCH   1   2
BRANCH   1  28
ATOM     28  C   UNL A   1      34.355  29.003  27.260  1.00  0.00     0.275 C 
BRANCH  28  29
ATOM     29  C   UNL A   1      35.272  30.185  27.524  1.00  0.00     0.275 C 
BRANCH  29  30
ATOM     30  O   UNL A   1      36.021  29.997  28.723  1.00  0.00    -0.458 OA
BRANCH  30  31
ATOM     31  C   UNL A   1      37.279  30.483  28.641  1.00  0.00     0.338 C 
ATOM     32  O   UNL A   1      37.632  31.650  28.645  1.00  0.00    -0.246 OA
BRANCH  31  33
ATOM     33  C   UNL A   1      38.122  29.417  28.127  1.00  0.00     0.060 A 
ATOM     34  C   UNL A   1      38.011  28.136  28.630  1.00  0.00     0.016 A 
ATOM     35  C   UNL A   1      39.272  29.832  27.458  1.00  0.00     0.016 A 
ATOM     36  C   UNL A   1      39.203  27.466  28.851  1.00  0.00     0.010 A 
ATOM     37  C   UNL A   1      40.355  28.997  27.414  1.00  0.00     0.010 A 
ATOM     38  C   UNL A   1      40.418  27.965  28.328  1.00  0.00    -0.014 A 
BRANCH  38  39
ATOM     39  C   UNL A   1      41.634  27.139  28.354  1.00  0.00     0.031 A 
ATOM     40  C   UNL A   1      42.284  27.449  29.666  1.00  0.00     0.074 A 
ATOM     41  C   UNL A   1      41.990  26.202  27.418  1.00  0.00     0.049 A 
ATOM     42  N   UNL A   1      43.399  28.079  29.825  1.00  0.00    -0.248 NA
ATOM     43  C   UNL A   1      41.465  27.444  30.910  1.00  0.00     0.031 C 
ATOM     44  C   UNL A   1      41.294  25.838  26.168  1.00  0.00     0.029 A 
ATOM     45  N   UNL A   1      43.035  25.283  27.409  1.00  0.00    -0.354 N 
ATOM     46  C   UNL A   1      43.578  28.159  31.206  1.00  0.00     0.074 A 
ATOM     47  C   UNL A   1      42.278  28.036  31.787  1.00  0.00     0.031 C 
ATOM     48  C   UNL A   1      41.719  24.631  25.711  1.00  0.00     0.029 A 
ATOM     49  C   UNL A   1      42.820  24.171  26.532  1.00  0.00     0.049 A 
ATOM     50  H   UNL A   1      43.848  25.386  27.956  1.00  0.00     0.167 HD
ATOM     51  C   UNL A   1      44.794  27.802  31.698  1.00  0.00     0.037 A 
ATOM     52  C   UNL A   1      43.533  22.995  26.483  1.00  0.00     0.037 A 
ATOM     53  C   UNL A   1      45.783  27.968  30.655  1.00  0.00     0.049 A 
ATOM     54  C   UNL A   1      44.819  23.276  27.153  1.00  0.00     0.074 A 
ATOM     55  C   UNL A   1      46.331  29.033  29.969  1.00  0.00     0.029 A 
ATOM     56  N   UNL A   1      45.810  26.894  29.807  1.00  0.00    -0.354 N 
ATOM     57  N   UNL A   1      45.705  24.093  26.661  1.00  0.00    -0.248 NA
ATOM     58  C   UNL A   1      44.837  23.080  28.591  1.00  0.00     0.031 C 
ATOM     59  C   UNL A   1      46.598  28.563  28.646  1.00  0.00     0.029 A 
ATOM     60  C   UNL A   1      46.353  27.194  28.597  1.00  0.00     0.049 A 
ATOM     61  H   UNL A   1      45.472  26.001  30.046  1.00  0.00     0.167 HD
ATOM     62  C   UNL A   1      46.040  24.887  27.743  1.00  0.00     0.074 A 
ATOM     63  C   UNL A   1      45.549  24.159  28.923  1.00  0.00     0.031 C 
ATOM     64  C   UNL A   1      46.375  26.199  27.558  1.00  0.00     0.037 A 
BRANCH  51  65
ATOM     65  C   UNL A   1      44.948  26.717  32.759  1.00  0.00     0.057 A 
ATOM     66  C   UNL A   1      45.766  26.981  33.869  1.00  0.00     0.134 A 
ATOM     67  C   UNL A   1      44.591  25.356  32.605  1.00  0.00     0.134 A 
ATOM     68  F   UNL A   1      46.214  28.222  34.110  1.00  0.00    -0.206 F 
ATOM     69  C   UNL A   1      46.219  25.969  34.731  1.00  0.00     0.040 A 
ATOM     70  C   UNL A   1      44.999  24.348  33.483  1.00  0.00     0.040 A 
ATOM     71  F   UNL A   1      43.914  24.890  31.553  1.00  0.00    -0.206 F 
ATOM     72  C   UNL A   1      45.834  24.648  34.541  1.00  0.00     0.006 A 
ENDBRANCH  51  65
BRANCH  52  73
ATOM     73  C   UNL A   1      43.105  21.567  26.294  1.00  0.00     0.057 A 
ATOM     74  C   UNL A   1      43.771  20.659  25.433  1.00  0.00     0.134 A 
ATOM     75  C   UNL A   1      42.251  20.969  27.232  1.00  0.00     0.134 A 
ATOM     76  F   UNL A   1      44.660  21.098  24.529  1.00  0.00    -0.206 F 
ATOM     77  C   UNL A   1      43.605  19.260  25.520  1.00  0.00     0.040 A 
ATOM     78  C   UNL A   1      42.087  19.577  27.336  1.00  0.00     0.040 A 
ATOM     79  F   UNL A   1      41.626  21.715  28.150  1.00  0.00    -0.206 F 
ATOM     80  C   UNL A   1      42.771  18.714  26.488  1.00  0.00     0.006 A 
ENDBRANCH  52  73
BRANCH  64  81
ATOM     81  C   UNL A   1      46.767  26.649  26.185  1.00  0.00     0.057 A 
ATOM     82  C   UNL A   1      45.937  27.297  25.257  1.00  0.00     0.134 A 
ATOM     83  C   UNL A   1      48.115  26.507  25.847  1.00  0.00     0.134 A 
ATOM     84  F   UNL A   1      44.650  27.552  25.536  1.00  0.00    -0.206 F 
ATOM     85  C   UNL A   1      46.437  27.749  24.028  1.00  0.00     0.040 A 
ATOM     86  C   UNL A   1      48.631  26.981  24.645  1.00  0.00     0.040 A 
ATOM     87  F   UNL A   1      48.971  25.947  26.717  1.00  0.00    -0.206 F 
ATOM     88  C   UNL A   1      47.789  27.592  23.722  1.00  0.00     0.006 A 
ENDBRANCH  64  81
ENDBRANCH  38  39
ENDBRANCH  31  33
ENDBRANCH  30  31
ENDBRANCH  29  30
ENDBRANCH  28  29
ENDBRANCH   1  28
TORSDOF 16
ENDMDL
MODEL 3
REMARK VINA RESULT:     -12.6      3.120      7.051
REMARK SMILES CCn1c(CC2CC[NH+](Cc3cn[nH]c3C(=O)OCCOC(=O)c3ccc(-c4c5nc(c(-c6c(F)cccc6F)c6ccc([nH]6)c(-c6c(F)cccc6F)c6nc(c(-c7c(F)cccc7F)c7ccc4[nH]7)C=C6)C=C5)cc3)CC2)nn(C)c1=O
REMARK SMILES IDX 18 1 16 2 17 3 15 4 11 5 12 6 13 7 14 8 10 10 9 11 6 12 7 13
REMARK SMILES IDX 79 14 8 15 78 16 5 18 4 19 3 20 83 21 80 22 81 23 84 24
REMARK SMILES IDX 82 25 2 26 1 27 19 28 20 29 21 30 22 31 23 32 24 33 25 34
REMARK SMILES IDX 77 35 26 36 76 37 27 38 28 39 29 40 70 41 30 42 75 43 69 44
REMARK SMILES IDX 71 45 31 46 74 47 68 48 67 49 32 51 58 52 41 53 57 54 42 55
REMARK SMILES IDX 45 56 56 57 72 58 43 59 44 60 55 62 73 63 46 64 33 65 34 66
REMARK SMILES IDX 39 67 35 68 36 69 38 70 40 71 37 72 59 73 60 74 65 75 61 76
REMARK SMILES IDX 62 77 64 78 66 79 63 80 47 81 48 82 53 83 49 84 50 85 52 86
REMARK SMILES IDX 54 87 51 88
REMARK H PARENT 14 9 9 17 71 50 45 61
REMARK Flexibility Score: inf
ROOT
ATOM      1  O   UNL A   1      33.102  30.618  26.224  1.00  0.00    -0.457 OA
ENDROOT
BRANCH   1   2
ATOM      2  C   UNL A   1      32.103  29.700  26.293  1.00  0.00     0.356 C 
ATOM      3  O   UNL A   1      31.753  29.095  27.297  1.00  0.00    -0.244 OA
BRANCH   2   4
ATOM      4  C   UNL A   1      31.561  29.471  24.982  1.00  0.00     0.152 A 
ATOM      5  C   UNL A   1      31.702  28.065  23.881  1.00  0.00     0.059 A 
ATOM      6  C   UNL A   1      30.378  28.358  22.445  1.00  0.00     0.145 A 
ATOM      7  N   UNL A   1      29.648  29.927  22.636  1.00  0.00    -0.183 NA
ATOM      8  N   UNL A   1      30.284  30.624  24.249  1.00  0.00    -0.271 N 
ATOM      9  H   UNL A   1      29.991  31.473  24.653  1.00  0.00     0.190 HD
BRANCH   5  10
ATOM     10  C   UNL A   1      32.630  26.883  24.052  1.00  0.00     0.303 C 
BRANCH  10  11
ATOM     11  N   UNL A   1      32.297  25.989  25.182  1.00  0.00    -0.331 N 
ATOM     12  C   UNL A   1      31.715  23.171  25.940  1.00  0.00     0.008 C 
ATOM     13  C   UNL A   1      30.597  24.212  25.863  1.00  0.00     0.065 C 
ATOM     14  C   UNL A   1      32.993  23.880  26.397  1.00  0.00     0.065 C 
ATOM     15  C   UNL A   1      30.940  25.461  25.059  1.00  0.00     0.262 C 
ATOM     16  C   UNL A   1      33.386  25.065  25.510  1.00  0.00     0.262 C 
ATOM     17  H   UNL A   1      32.242  26.529  26.046  1.00  0.00     0.348 HD
BRANCH  12  18
ATOM     18  C   UNL A   1      31.866  22.262  24.697  1.00  0.00     0.081 C 
BRANCH  18  19
ATOM     19  C   UNL A   1      32.658  20.989  24.895  1.00  0.00     0.133 A 
ATOM     20  N   UNL A   1      33.951  20.858  24.607  1.00  0.00    -0.279 N 
ATOM     21  C   UNL A   1      34.358  19.534  24.798  1.00  0.00     0.345 A 
ATOM     22  N   UNL A   1      32.079  19.925  25.312  1.00  0.00    -0.155 NA
ATOM     23  N   UNL A   1      33.100  18.688  25.185  1.00  0.00    -0.216 N 
ATOM     24  O   UNL A   1      35.509  19.110  24.687  1.00  0.00    -0.246 OA
ATOM     25  C   UNL A   1      32.560  16.608  25.501  1.00  0.00     0.179 C 
BRANCH  20  26
ATOM     26  C   UNL A   1      34.748  21.946  24.063  1.00  0.00     0.125 C 
ATOM     27  C   UNL A   1      36.051  22.212  24.744  1.00  0.00     0.028 C 
ENDBRANCH  20  26
ENDBRANCH  18  19
ENDBRANCH  12  18
ENDBRANCH  10  11
ENDBRANCH   5  10
ENDBRANCH   2   4
ENDBRANCH   1   2
BRANCH   1  28
ATOM     28  C   UNL A   1      33.542  31.193  27.466  1.00  0.00     0.275 C 
BRANCH  28  29
ATOM     29  C   UNL A   1      33.202  32.671  27.548  1.00  0.00     0.275 C 
BRANCH  29  30
ATOM     30  O   UNL A   1      32.969  33.072  28.897  1.00  0.00    -0.458 OA
BRANCH  30  31
ATOM     31  C   UNL A   1      33.337  34.348  29.140  1.00  0.00     0.338 C 
ATOM     32  O   UNL A   1      32.780  35.370  28.778  1.00  0.00    -0.246 OA
BRANCH  31  33
ATOM     33  C   UNL A   1      34.732  34.325  29.547  1.00  0.00     0.060 A 
ATOM     34  C   UNL A   1      35.726  34.655  28.648  1.00  0.00     0.016 A 
ATOM     35  C   UNL A   1      35.011  33.576  30.688  1.00  0.00     0.016 A 
ATOM     36  C   UNL A   1      36.857  33.854  28.674  1.00  0.00     0.010 A 
ATOM     37  C   UNL A   1      36.264  33.051  30.851  1.00  0.00     0.010 A 
ATOM     38  C   UNL A   1      37.077  32.952  29.740  1.00  0.00    -0.014 A 
BRANCH  38  39
ATOM     39  C   UNL A   1      38.378  32.285  29.892  1.00  0.00     0.031 A 
ATOM     40  C   UNL A   1      38.164  30.896  29.378  1.00  0.00     0.074 A 
ATOM     41  C   UNL A   1      39.544  32.881  30.300  1.00  0.00     0.049 A 
ATOM     42  N   UNL A   1      38.173  29.818  30.088  1.00  0.00    -0.248 NA
ATOM     43  C   UNL A   1      37.477  30.696  28.072  1.00  0.00     0.031 C 
ATOM     44  C   UNL A   1      39.767  34.278  30.721  1.00  0.00     0.029 A 
ATOM     45  N   UNL A   1      40.844  32.384  30.353  1.00  0.00    -0.354 N 
ATOM     46  C   UNL A   1      37.895  28.788  29.190  1.00  0.00     0.074 A 
ATOM     47  C   UNL A   1      37.207  29.389  28.091  1.00  0.00     0.031 C 
ATOM     48  C   UNL A   1      41.088  34.593  30.675  1.00  0.00     0.029 A 
ATOM     49  C   UNL A   1      41.852  33.402  30.363  1.00  0.00     0.049 A 
ATOM     50  H   UNL A   1      41.052  31.422  30.381  1.00  0.00     0.167 HD
ATOM     51  C   UNL A   1      38.704  27.696  29.225  1.00  0.00     0.037 A 
ATOM     52  C   UNL A   1      43.204  33.241  30.166  1.00  0.00     0.037 A 
ATOM     53  C   UNL A   1      39.298  27.602  30.541  1.00  0.00     0.049 A 
ATOM     54  C   UNL A   1      43.479  31.811  30.412  1.00  0.00     0.074 A 
ATOM     55  C   UNL A   1      38.843  27.352  31.820  1.00  0.00     0.029 A 
ATOM     56  N   UNL A   1      40.392  28.416  30.662  1.00  0.00    -0.354 N 
ATOM     57  N   UNL A   1      43.359  31.262  31.586  1.00  0.00    -0.248 NA
ATOM     58  C   UNL A   1      43.335  30.935  29.262  1.00  0.00     0.031 C 
ATOM     59  C   UNL A   1      39.660  28.131  32.696  1.00  0.00     0.029 A 
ATOM     60  C   UNL A   1      40.684  28.713  31.956  1.00  0.00     0.049 A 
ATOM     61  H   UNL A   1      40.910  28.752  29.895  1.00  0.00     0.167 HD
ATOM     62  C   UNL A   1      42.632  30.115  31.326  1.00  0.00     0.074 A 
ATOM     63  C   UNL A   1      42.728  29.916  29.872  1.00  0.00     0.031 C 
ATOM     64  C   UNL A   1      41.752  29.632  32.254  1.00  0.00     0.037 A 
BRANCH  51  65
ATOM     65  C   UNL A   1      39.451  27.206  27.990  1.00  0.00     0.057 A 
ATOM     66  C   UNL A   1      39.549  25.823  27.773  1.00  0.00     0.134 A 
ATOM     67  C   UNL A   1      40.316  27.987  27.186  1.00  0.00     0.134 A 
ATOM     68  F   UNL A   1      38.816  24.964  28.498  1.00  0.00    -0.206 F 
ATOM     69  C   UNL A   1      40.456  25.262  26.861  1.00  0.00     0.040 A 
ATOM     70  C   UNL A   1      41.191  27.443  26.242  1.00  0.00     0.040 A 
ATOM     71  F   UNL A   1      40.451  29.308  27.323  1.00  0.00    -0.206 F 
ATOM     72  C   UNL A   1      41.280  26.073  26.089  1.00  0.00     0.006 A 
ENDBRANCH  51  65
BRANCH  52  73
ATOM     73  C   UNL A   1      44.215  34.061  29.415  1.00  0.00     0.057 A 
ATOM     74  C   UNL A   1      44.094  34.381  28.040  1.00  0.00     0.134 A 
ATOM     75  C   UNL A   1      45.135  34.847  30.123  1.00  0.00     0.134 A 
ATOM     76  F   UNL A   1      43.206  33.744  27.262  1.00  0.00    -0.206 F 
ATOM     77  C   UNL A   1      44.828  35.422  27.430  1.00  0.00     0.040 A 
ATOM     78  C   UNL A   1      45.862  35.893  29.529  1.00  0.00     0.040 A 
ATOM     79  F   UNL A   1      45.281  34.691  31.444  1.00  0.00    -0.206 F 
ATOM     80  C   UNL A   1      45.705  36.194  28.182  1.00  0.00     0.006 A 
ENDBRANCH  52  73
BRANCH  64  81
ATOM     81  C   UNL A   1      41.878  30.101  33.670  1.00  0.00     0.057 A 
ATOM     82  C   UNL A   1      41.213  31.195  34.243  1.00  0.00     0.134 A 
ATOM     83  C   UNL A   1      42.646  29.302  34.522  1.00  0.00     0.134 A 
ATOM     84  F   UNL A   1      40.386  31.963  33.517  1.00  0.00    -0.206 F 
ATOM     85  C   UNL A   1      41.344  31.491  35.607  1.00  0.00     0.040 A 
ATOM     86  C   UNL A   1      42.759  29.566  35.883  1.00  0.00     0.040 A 
ATOM     87  F   UNL A   1      43.261  28.208  34.044  1.00  0.00    -0.206 F 
ATOM     88  C   UNL A   1      42.119  30.673  36.429  1.00  0.00     0.006 A 
ENDBRANCH  64  81
ENDBRANCH  38  39
ENDBRANCH  31  33
ENDBRANCH  30  31
ENDBRANCH  29  30
ENDBRANCH  28  29
ENDBRANCH   1  28
TORSDOF 16
ENDMDL
