MODEL 1
REMARK VINA RESULT:     -11.3      0.000      0.000
REMARK SMILES O=C(OCCOC(=O)c1cn(C2CN(C(=O)Nc3ccsc3)C2)nn1)c1ccc(-c2c3nc(c(-c4c(F)cccc4F)c4ccc([nH]4)c(-c4c(F)cccc4F)c4nc(c(-c5c(F)cccc5F)c5ccc2[nH]5)C=C4)C=C3)cc1
REMARK SMILES IDX 4 1 3 2 2 3 1 4 26 5 27 6 79 7 28 8 78 9 29 10 30 11 31 12
REMARK SMILES IDX 72 13 32 14 77 15 71 16 73 17 33 18 76 19 70 20 69 21 34 23
REMARK SMILES IDX 60 24 43 25 59 26 44 27 47 28 58 29 74 30 45 31 46 32 57 34
REMARK SMILES IDX 75 35 48 36 35 37 36 38 41 39 37 40 38 41 40 42 42 43 39 44
REMARK SMILES IDX 61 45 62 46 67 47 63 48 64 49 66 50 68 51 65 52 49 53 50 54
REMARK SMILES IDX 55 55 51 56 52 57 54 58 56 59 53 60 5 61 6 62 7 63 8 64 9 65
REMARK SMILES IDX 10 66 25 67 11 68 24 69 12 70 13 71 23 72 14 73 15 74 16 75
REMARK SMILES IDX 17 76 18 78 19 79 22 80 20 81 21 82
REMARK H PARENT 73 22 47 33 17 77
REMARK Flexibility Score: inf
ROOT
ATOM      1  C   UNL A   1      34.765  34.277  28.194  1.00  0.00     0.275 C 
ENDROOT
BRANCH   1   2
ATOM      2  O   UNL A   1      35.408  33.148  27.561  1.00  0.00    -0.458 OA
BRANCH   2   3
ATOM      3  C   UNL A   1      35.050  31.889  27.902  1.00  0.00     0.338 C 
ATOM      4  O   UNL A   1      33.927  31.435  27.783  1.00  0.00    -0.246 OA
BRANCH   3   5
ATOM      5  C   UNL A   1      36.239  31.078  28.262  1.00  0.00     0.060 A 
ATOM      6  C   UNL A   1      37.403  31.681  28.748  1.00  0.00     0.016 A 
ATOM      7  C   UNL A   1      36.182  29.684  28.116  1.00  0.00     0.016 A 
ATOM      8  C   UNL A   1      38.519  30.906  29.020  1.00  0.00     0.010 A 
ATOM      9  C   UNL A   1      37.307  28.905  28.387  1.00  0.00     0.010 A 
ATOM     10  C   UNL A   1      38.483  29.521  28.815  1.00  0.00    -0.014 A 
BRANCH  10  11
ATOM     11  C   UNL A   1      39.692  28.774  29.154  1.00  0.00     0.031 A 
ATOM     12  C   UNL A   1      40.028  28.722  30.604  1.00  0.00     0.074 A 
ATOM     13  C   UNL A   1      40.468  28.116  28.271  1.00  0.00     0.049 A 
ATOM     14  N   UNL A   1      41.038  29.263  31.206  1.00  0.00    -0.248 NA
ATOM     15  C   UNL A   1      39.087  28.043  31.503  1.00  0.00     0.031 C 
ATOM     16  C   UNL A   1      40.187  27.790  26.874  1.00  0.00     0.029 A 
ATOM     17  N   UNL A   1      41.681  27.527  28.492  1.00  0.00    -0.354 N 
ATOM     18  C   UNL A   1      40.963  28.856  32.536  1.00  0.00     0.074 A 
ATOM     19  C   UNL A   1      39.687  28.200  32.685  1.00  0.00     0.031 C 
ATOM     20  C   UNL A   1      41.103  26.895  26.435  1.00  0.00     0.029 A 
ATOM     21  C   UNL A   1      42.110  26.697  27.467  1.00  0.00     0.049 A 
ATOM     22  H   UNL A   1      42.207  27.679  29.310  1.00  0.00     0.167 HD
ATOM     23  C   UNL A   1      42.037  28.933  33.371  1.00  0.00     0.037 A 
ATOM     24  C   UNL A   1      43.189  25.878  27.483  1.00  0.00     0.037 A 
ATOM     25  C   UNL A   1      43.042  29.830  32.863  1.00  0.00     0.049 A 
ATOM     26  C   UNL A   1      44.114  26.351  28.539  1.00  0.00     0.074 A 
ATOM     27  C   UNL A   1      43.073  31.168  32.515  1.00  0.00     0.029 A 
ATOM     28  N   UNL A   1      44.189  29.293  32.333  1.00  0.00    -0.354 N 
ATOM     29  N   UNL A   1      44.829  27.437  28.458  1.00  0.00    -0.248 NA
ATOM     30  C   UNL A   1      43.960  25.806  29.879  1.00  0.00     0.031 C 
ATOM     31  C   UNL A   1      43.938  31.234  31.384  1.00  0.00     0.029 A 
ATOM     32  C   UNL A   1      44.415  29.944  31.150  1.00  0.00     0.049 A 
ATOM     33  H   UNL A   1      44.740  28.578  32.728  1.00  0.00     0.167 HD
ATOM     34  C   UNL A   1      44.829  27.951  29.744  1.00  0.00     0.074 A 
ATOM     35  C   UNL A   1      44.381  26.852  30.594  1.00  0.00     0.031 C 
ATOM     36  C   UNL A   1      44.922  29.294  29.966  1.00  0.00     0.037 A 
BRANCH  23  37
ATOM     37  C   UNL A   1      42.338  27.949  34.476  1.00  0.00     0.057 A 
ATOM     38  C   UNL A   1      42.803  26.660  34.148  1.00  0.00     0.134 A 
ATOM     39  C   UNL A   1      41.903  28.106  35.807  1.00  0.00     0.134 A 
ATOM     40  F   UNL A   1      43.237  26.378  32.910  1.00  0.00    -0.206 F 
ATOM     41  C   UNL A   1      42.751  25.589  35.050  1.00  0.00     0.040 A 
ATOM     42  C   UNL A   1      41.896  27.056  36.729  1.00  0.00     0.040 A 
ATOM     43  F   UNL A   1      41.370  29.250  36.254  1.00  0.00    -0.206 F 
ATOM     44  C   UNL A   1      42.286  25.783  36.344  1.00  0.00     0.006 A 
ENDBRANCH  23  37
BRANCH  24  45
ATOM     45  C   UNL A   1      43.383  24.573  26.815  1.00  0.00     0.057 A 
ATOM     46  C   UNL A   1      42.743  23.414  27.278  1.00  0.00     0.134 A 
ATOM     47  C   UNL A   1      43.967  24.489  25.540  1.00  0.00     0.134 A 
ATOM     48  F   UNL A   1      42.121  23.406  28.467  1.00  0.00    -0.206 F 
ATOM     49  C   UNL A   1      42.661  22.249  26.504  1.00  0.00     0.040 A 
ATOM     50  C   UNL A   1      43.899  23.331  24.761  1.00  0.00     0.040 A 
ATOM     51  F   UNL A   1      44.542  25.559  24.971  1.00  0.00    -0.206 F 
ATOM     52  C   UNL A   1      43.230  22.209  25.235  1.00  0.00     0.006 A 
ENDBRANCH  24  45
BRANCH  36  53
ATOM     53  C   UNL A   1      45.324  30.177  28.819  1.00  0.00     0.057 A 
ATOM     54  C   UNL A   1      44.435  30.668  27.851  1.00  0.00     0.134 A 
ATOM     55  C   UNL A   1      46.640  30.651  28.767  1.00  0.00     0.134 A 
ATOM     56  F   UNL A   1      43.131  30.361  27.882  1.00  0.00    -0.206 F 
ATOM     57  C   UNL A   1      44.855  31.540  26.842  1.00  0.00     0.040 A 
ATOM     58  C   UNL A   1      47.063  31.554  27.788  1.00  0.00     0.040 A 
ATOM     59  F   UNL A   1      47.534  30.274  29.696  1.00  0.00    -0.206 F 
ATOM     60  C   UNL A   1      46.172  31.989  26.811  1.00  0.00     0.006 A 
ENDBRANCH  36  53
ENDBRANCH  10  11
ENDBRANCH   3   5
ENDBRANCH   2   3
ENDBRANCH   1   2
BRANCH   1  61
ATOM     61  C   UNL A   1      33.241  34.278  28.274  1.00  0.00     0.275 C 
BRANCH  61  62
ATOM     62  O   UNL A   1      32.862  34.567  29.626  1.00  0.00    -0.457 OA
BRANCH  62  63
ATOM     63  C   UNL A   1      33.008  35.861  30.027  1.00  0.00     0.360 C 
ATOM     64  O   UNL A   1      32.660  36.849  29.392  1.00  0.00    -0.244 OA
BRANCH  63  65
ATOM     65  C   UNL A   1      33.637  35.910  31.324  1.00  0.00     0.190 A 
ATOM     66  C   UNL A   1      34.280  34.882  31.983  1.00  0.00     0.147 A 
ATOM     67  N   UNL A   1      33.633  37.025  32.121  1.00  0.00    -0.123 NA
ATOM     68  N   UNL A   1      34.713  35.465  33.138  1.00  0.00    -0.245 N 
ATOM     69  N   UNL A   1      34.253  36.724  33.251  1.00  0.00    -0.066 NA
BRANCH  68  70
ATOM     70  C   UNL A   1      35.742  35.009  34.011  1.00  0.00     0.148 C 
ATOM     71  C   UNL A   1      35.581  33.678  34.751  1.00  0.00     0.150 C 
ATOM     72  C   UNL A   1      36.813  34.279  33.166  1.00  0.00     0.150 C 
ATOM     73  N   UNL A   1      36.955  33.408  34.309  1.00  0.00    -0.320 N 
ATOM     74  C   UNL A   1      37.736  32.351  34.644  1.00  0.00     0.322 C 
ATOM     75  O   UNL A   1      37.403  31.593  35.559  1.00  0.00    -0.248 OA
ATOM     76  N   UNL A   1      38.819  32.017  33.895  1.00  0.00    -0.307 N 
ATOM     77  H   UNL A   1      39.120  31.087  34.014  1.00  0.00     0.171 HD
BRANCH  76  78
ATOM     78  C   UNL A   1      39.576  32.746  32.995  1.00  0.00     0.053 A 
ATOM     79  C   UNL A   1      39.608  32.635  31.575  1.00  0.00     0.038 A 
ATOM     80  C   UNL A   1      40.377  33.787  33.419  1.00  0.00     0.091 A 
ATOM     81  C   UNL A   1      40.572  33.436  31.001  1.00  0.00     0.067 A 
ATOM     82  S   UNL A   1      41.329  34.442  32.155  1.00  0.00    -0.150 S 
ENDBRANCH  76  78
ENDBRANCH  68  70
ENDBRANCH  63  65
ENDBRANCH  62  63
ENDBRANCH  61  62
ENDBRANCH   1  61
TORSDOF 13
ENDMDL
MODEL 2
REMARK VINA RESULT:     -10.9      1.416      1.784
REMARK SMILES O=C(OCCOC(=O)c1cn(C2CN(C(=O)Nc3ccsc3)C2)nn1)c1ccc(-c2c3nc(c(-c4c(F)cccc4F)c4ccc([nH]4)c(-c4c(F)cccc4F)c4nc(c(-c5c(F)cccc5F)c5ccc2[nH]5)C=C4)C=C3)cc1
REMARK SMILES IDX 4 1 3 2 2 3 1 4 26 5 27 6 79 7 28 8 78 9 29 10 30 11 31 12
REMARK SMILES IDX 72 13 32 14 77 15 71 16 73 17 33 18 76 19 70 20 69 21 34 23
REMARK SMILES IDX 60 24 43 25 59 26 44 27 47 28 58 29 74 30 45 31 46 32 57 34
REMARK SMILES IDX 75 35 48 36 35 37 36 38 41 39 37 40 38 41 40 42 42 43 39 44
REMARK SMILES IDX 61 45 62 46 67 47 63 48 64 49 66 50 68 51 65 52 49 53 50 54
REMARK SMILES IDX 55 55 51 56 52 57 54 58 56 59 53 60 5 61 6 62 7 63 8 64 9 65
REMARK SMILES IDX 10 66 25 67 11 68 24 69 12 70 13 71 23 72 14 73 15 74 16 75
REMARK SMILES IDX 17 76 18 78 19 79 22 80 20 81 21 82
REMARK H PARENT 73 22 47 33 17 77
REMARK Flexibility Score: inf
ROOT
ATOM      1  C   UNL A   1      34.021  34.187  28.001  1.00  0.00     0.275 C 
ENDROOT
BRANCH   1   2
ATOM      2  O   UNL A   1      35.109  33.239  28.069  1.00  0.00    -0.458 OA
BRANCH   2   3
ATOM      3  C   UNL A   1      34.852  31.912  28.027  1.00  0.00     0.338 C 
ATOM      4  O   UNL A   1      33.811  31.424  27.625  1.00  0.00    -0.246 OA
BRANCH   3   5
ATOM      5  C   UNL A   1      36.065  31.124  28.357  1.00  0.00     0.060 A 
ATOM      6  C   UNL A   1      37.212  31.745  28.861  1.00  0.00     0.016 A 
ATOM      7  C   UNL A   1      36.049  29.735  28.163  1.00  0.00     0.016 A 
ATOM      8  C   UNL A   1      38.352  30.994  29.104  1.00  0.00     0.010 A 
ATOM      9  C   UNL A   1      37.196  28.981  28.405  1.00  0.00     0.010 A 
ATOM     10  C   UNL A   1      38.356  29.617  28.851  1.00  0.00    -0.014 A 
BRANCH  10  11
ATOM     11  C   UNL A   1      39.587  28.895  29.162  1.00  0.00     0.031 A 
ATOM     12  C   UNL A   1      39.934  28.811  30.608  1.00  0.00     0.074 A 
ATOM     13  C   UNL A   1      40.376  28.284  28.256  1.00  0.00     0.049 A 
ATOM     14  N   UNL A   1      40.932  29.363  31.219  1.00  0.00    -0.248 NA
ATOM     15  C   UNL A   1      39.018  28.080  31.492  1.00  0.00     0.031 C 
ATOM     16  C   UNL A   1      40.095  27.990  26.852  1.00  0.00     0.029 A 
ATOM     17  N   UNL A   1      41.606  27.723  28.453  1.00  0.00    -0.354 N 
ATOM     18  C   UNL A   1      40.877  28.916  32.538  1.00  0.00     0.074 A 
ATOM     19  C   UNL A   1      39.621  28.221  32.675  1.00  0.00     0.031 C 
ATOM     20  C   UNL A   1      41.033  27.134  26.382  1.00  0.00     0.029 A 
ATOM     21  C   UNL A   1      42.051  26.936  27.402  1.00  0.00     0.049 A 
ATOM     22  H   UNL A   1      42.133  27.867  29.272  1.00  0.00     0.167 HD
ATOM     23  C   UNL A   1      41.954  28.999  33.369  1.00  0.00     0.037 A 
ATOM     24  C   UNL A   1      43.153  26.147  27.389  1.00  0.00     0.037 A 
ATOM     25  C   UNL A   1      42.930  29.938  32.881  1.00  0.00     0.049 A 
ATOM     26  C   UNL A   1      44.071  26.616  28.453  1.00  0.00     0.074 A 
ATOM     27  C   UNL A   1      42.921  31.285  32.572  1.00  0.00     0.029 A 
ATOM     28  N   UNL A   1      44.088  29.449  32.330  1.00  0.00    -0.354 N 
ATOM     29  N   UNL A   1      44.755  27.723  28.399  1.00  0.00    -0.248 NA
ATOM     30  C   UNL A   1      43.941  26.028  29.778  1.00  0.00     0.031 C 
ATOM     31  C   UNL A   1      43.777  31.409  31.438  1.00  0.00     0.029 A 
ATOM     32  C   UNL A   1      44.288  30.140  31.164  1.00  0.00     0.049 A 
ATOM     33  H   UNL A   1      44.662  28.739  32.700  1.00  0.00     0.167 HD
ATOM     34  C   UNL A   1      44.749  28.200  29.699  1.00  0.00     0.074 A 
ATOM     35  C   UNL A   1      44.337  27.065  30.520  1.00  0.00     0.031 C 
ATOM     36  C   UNL A   1      44.806  29.539  29.960  1.00  0.00     0.037 A 
BRANCH  23  37
ATOM     37  C   UNL A   1      42.289  27.993  34.444  1.00  0.00     0.057 A 
ATOM     38  C   UNL A   1      42.717  26.702  34.075  1.00  0.00     0.134 A 
ATOM     39  C   UNL A   1      41.918  28.135  35.795  1.00  0.00     0.134 A 
ATOM     40  F   UNL A   1      43.089  26.433  32.813  1.00  0.00    -0.206 F 
ATOM     41  C   UNL A   1      42.690  25.618  34.961  1.00  0.00     0.040 A 
ATOM     42  C   UNL A   1      41.937  27.070  36.701  1.00  0.00     0.040 A 
ATOM     43  F   UNL A   1      41.425  29.280  36.284  1.00  0.00    -0.206 F 
ATOM     44  C   UNL A   1      42.288  25.799  36.278  1.00  0.00     0.006 A 
ENDBRANCH  23  37
BRANCH  24  45
ATOM     45  C   UNL A   1      43.379  24.867  26.683  1.00  0.00     0.057 A 
ATOM     46  C   UNL A   1      42.673  23.707  27.032  1.00  0.00     0.134 A 
ATOM     47  C   UNL A   1      44.077  24.824  25.464  1.00  0.00     0.134 A 
ATOM     48  F   UNL A   1      41.944  23.663  28.157  1.00  0.00    -0.206 F 
ATOM     49  C   UNL A   1      42.638  22.579  26.201  1.00  0.00     0.040 A 
ATOM     50  C   UNL A   1      44.056  23.703  24.630  1.00  0.00     0.040 A 
ATOM     51  F   UNL A   1      44.725  25.902  24.999  1.00  0.00    -0.206 F 
ATOM     52  C   UNL A   1      43.321  22.580  24.989  1.00  0.00     0.006 A 
ENDBRANCH  24  45
BRANCH  36  53
ATOM     53  C   UNL A   1      45.176  30.464  28.836  1.00  0.00     0.057 A 
ATOM     54  C   UNL A   1      44.275  30.926  27.864  1.00  0.00     0.134 A 
ATOM     55  C   UNL A   1      46.465  31.010  28.813  1.00  0.00     0.134 A 
ATOM     56  F   UNL A   1      42.989  30.550  27.870  1.00  0.00    -0.206 F 
ATOM     57  C   UNL A   1      44.661  31.840  26.879  1.00  0.00     0.040 A 
ATOM     58  C   UNL A   1      46.852  31.953  27.858  1.00  0.00     0.040 A 
ATOM     59  F   UNL A   1      47.364  30.663  29.747  1.00  0.00    -0.206 F 
ATOM     60  C   UNL A   1      45.952  32.360  26.877  1.00  0.00     0.006 A 
ENDBRANCH  36  53
ENDBRANCH  10  11
ENDBRANCH   3   5
ENDBRANCH   2   3
ENDBRANCH   1   2
BRANCH   1  61
ATOM     61  C   UNL A   1      33.986  35.310  29.033  1.00  0.00     0.275 C 
BRANCH  61  62
ATOM     62  O   UNL A   1      32.975  35.000  30.001  1.00  0.00    -0.457 OA
BRANCH  62  63
ATOM     63  C   UNL A   1      32.907  35.823  31.084  1.00  0.00     0.360 C 
ATOM     64  O   UNL A   1      32.211  36.827  31.176  1.00  0.00    -0.244 OA
BRANCH  63  65
ATOM     65  C   UNL A   1      33.779  35.344  32.127  1.00  0.00     0.190 A 
ATOM     66  C   UNL A   1      34.003  34.032  32.496  1.00  0.00     0.147 A 
ATOM     67  N   UNL A   1      34.493  36.173  32.952  1.00  0.00    -0.123 NA
ATOM     68  N   UNL A   1      34.925  34.134  33.496  1.00  0.00    -0.245 N 
ATOM     69  N   UNL A   1      35.153  35.420  33.819  1.00  0.00    -0.066 NA
BRANCH  68  70
ATOM     70  C   UNL A   1      35.797  33.119  33.984  1.00  0.00     0.148 C 
ATOM     71  C   UNL A   1      37.010  32.690  33.152  1.00  0.00     0.150 C 
ATOM     72  C   UNL A   1      36.826  33.774  34.936  1.00  0.00     0.150 C 
ATOM     73  N   UNL A   1      37.757  32.804  34.411  1.00  0.00    -0.320 N 
ATOM     74  C   UNL A   1      39.052  32.470  34.632  1.00  0.00     0.322 C 
ATOM     75  O   UNL A   1      39.683  31.818  33.794  1.00  0.00    -0.248 OA
ATOM     76  N   UNL A   1      39.728  32.962  35.704  1.00  0.00    -0.307 N 
ATOM     77  H   UNL A   1      40.707  32.934  35.610  1.00  0.00     0.171 HD
BRANCH  76  78
ATOM     78  C   UNL A   1      39.289  33.495  36.903  1.00  0.00     0.053 A 
ATOM     79  C   UNL A   1      39.305  34.857  37.322  1.00  0.00     0.038 A 
ATOM     80  C   UNL A   1      38.671  32.703  37.849  1.00  0.00     0.091 A 
ATOM     81  C   UNL A   1      38.903  35.015  38.631  1.00  0.00     0.067 A 
ATOM     82  S   UNL A   1      38.350  33.546  39.305  1.00  0.00    -0.150 S 
ENDBRANCH  76  78
ENDBRANCH  68  70
ENDBRANCH  63  65
ENDBRANCH  62  63
ENDBRANCH  61  62
ENDBRANCH   1  61
TORSDOF 13
ENDMDL
MODEL 3
REMARK VINA RESULT:     -10.9      1.383      2.424
REMARK SMILES O=C(OCCOC(=O)c1cn(C2CN(C(=O)Nc3ccsc3)C2)nn1)c1ccc(-c2c3nc(c(-c4c(F)cccc4F)c4ccc([nH]4)c(-c4c(F)cccc4F)c4nc(c(-c5c(F)cccc5F)c5ccc2[nH]5)C=C4)C=C3)cc1
REMARK SMILES IDX 4 1 3 2 2 3 1 4 26 5 27 6 79 7 28 8 78 9 29 10 30 11 31 12
REMARK SMILES IDX 72 13 32 14 77 15 71 16 73 17 33 18 76 19 70 20 69 21 34 23
REMARK SMILES IDX 60 24 43 25 59 26 44 27 47 28 58 29 74 30 45 31 46 32 57 34
REMARK SMILES IDX 75 35 48 36 35 37 36 38 41 39 37 40 38 41 40 42 42 43 39 44
REMARK SMILES IDX 61 45 62 46 67 47 63 48 64 49 66 50 68 51 65 52 49 53 50 54
REMARK SMILES IDX 55 55 51 56 52 57 54 58 56 59 53 60 5 61 6 62 7 63 8 64 9 65
REMARK SMILES IDX 10 66 25 67 11 68 24 69 12 70 13 71 23 72 14 73 15 74 16 75
REMARK SMILES IDX 17 76 18 78 19 79 22 80 20 81 21 82
REMARK H PARENT 73 22 47 33 17 77
REMARK Flexibility Score: inf
ROOT
ATOM      1  C   UNL A   1      34.533  34.595  28.397  1.00  0.00     0.275 C 
ENDROOT
BRANCH   1   2
ATOM      2  O   UNL A   1      34.773  33.352  29.093  1.00  0.00    -0.458 OA
BRANCH   2   3
ATOM      3  C   UNL A   1      34.723  32.180  28.419  1.00  0.00     0.338 C 
ATOM      4  O   UNL A   1      33.841  31.871  27.639  1.00  0.00    -0.246 OA
BRANCH   3   5
ATOM      5  C   UNL A   1      35.973  31.405  28.609  1.00  0.00     0.060 A 
ATOM      6  C   UNL A   1      36.029  30.040  28.306  1.00  0.00     0.016 A 
ATOM      7  C   UNL A   1      37.114  32.060  29.095  1.00  0.00     0.016 A 
ATOM      8  C   UNL A   1      37.192  29.327  28.550  1.00  0.00     0.010 A 
ATOM      9  C   UNL A   1      38.283  31.341  29.342  1.00  0.00     0.010 A 
ATOM     10  C   UNL A   1      38.312  29.968  29.093  1.00  0.00    -0.014 A 
BRANCH  10  11
ATOM     11  C   UNL A   1      39.506  29.150  29.291  1.00  0.00     0.031 A 
ATOM     12  C   UNL A   1      39.854  28.856  30.709  1.00  0.00     0.074 A 
ATOM     13  C   UNL A   1      40.258  28.627  28.303  1.00  0.00     0.049 A 
ATOM     14  N   UNL A   1      40.882  29.270  31.377  1.00  0.00    -0.248 NA
ATOM     15  C   UNL A   1      38.905  28.061  31.498  1.00  0.00     0.031 C 
ATOM     16  C   UNL A   1      39.955  28.538  26.876  1.00  0.00     0.029 A 
ATOM     17  N   UNL A   1      41.458  27.983  28.409  1.00  0.00    -0.354 N 
ATOM     18  C   UNL A   1      40.810  28.654  32.625  1.00  0.00     0.074 A 
ATOM     19  C   UNL A   1      39.521  28.011  32.682  1.00  0.00     0.031 C 
ATOM     20  C   UNL A   1      40.845  27.706  26.285  1.00  0.00     0.029 A 
ATOM     21  C   UNL A   1      41.857  27.322  27.258  1.00  0.00     0.049 A 
ATOM     22  H   UNL A   1      41.995  27.989  29.234  1.00  0.00     0.167 HD
ATOM     23  C   UNL A   1      41.894  28.571  33.447  1.00  0.00     0.037 A 
ATOM     24  C   UNL A   1      42.917  26.487  27.127  1.00  0.00     0.037 A 
ATOM     25  C   UNL A   1      42.915  29.516  33.078  1.00  0.00     0.049 A 
ATOM     26  C   UNL A   1      43.863  26.762  28.233  1.00  0.00     0.074 A 
ATOM     27  C   UNL A   1      42.975  30.891  32.951  1.00  0.00     0.029 A 
ATOM     28  N   UNL A   1      44.043  29.047  32.453  1.00  0.00    -0.354 N 
ATOM     29  N   UNL A   1      44.602  27.830  28.320  1.00  0.00    -0.248 NA
ATOM     30  C   UNL A   1      43.708  26.010  29.469  1.00  0.00     0.031 C 
ATOM     31  C   UNL A   1      43.830  31.121  31.834  1.00  0.00     0.029 A 
ATOM     32  C   UNL A   1      44.274  29.876  31.387  1.00  0.00     0.049 A 
ATOM     33  H   UNL A   1      44.582  28.265  32.719  1.00  0.00     0.167 HD
ATOM     34  C   UNL A   1      44.627  28.129  29.672  1.00  0.00     0.074 A 
ATOM     35  C   UNL A   1      44.160  26.917  30.338  1.00  0.00     0.031 C 
ATOM     36  C   UNL A   1      44.754  29.416  30.108  1.00  0.00     0.037 A 
BRANCH  23  37
ATOM     37  C   UNL A   1      42.182  27.414  34.374  1.00  0.00     0.057 A 
ATOM     38  C   UNL A   1      41.906  27.544  35.750  1.00  0.00     0.134 A 
ATOM     39  C   UNL A   1      42.991  26.314  34.029  1.00  0.00     0.134 A 
ATOM     40  F   UNL A   1      41.153  28.556  36.210  1.00  0.00    -0.206 F 
ATOM     41  C   UNL A   1      42.469  26.699  36.714  1.00  0.00     0.040 A 
ATOM     42  C   UNL A   1      43.517  25.434  34.980  1.00  0.00     0.040 A 
ATOM     43  F   UNL A   1      43.399  26.094  32.773  1.00  0.00    -0.206 F 
ATOM     44  C   UNL A   1      43.287  25.644  36.330  1.00  0.00     0.006 A 
ENDBRANCH  23  37
BRANCH  24  45
ATOM     45  C   UNL A   1      43.072  25.303  26.254  1.00  0.00     0.057 A 
ATOM     46  C   UNL A   1      44.123  25.211  25.330  1.00  0.00     0.134 A 
ATOM     47  C   UNL A   1      42.366  24.115  26.509  1.00  0.00     0.134 A 
ATOM     48  F   UNL A   1      44.880  26.281  25.048  1.00  0.00    -0.206 F 
ATOM     49  C   UNL A   1      44.472  24.000  24.718  1.00  0.00     0.040 A 
ATOM     50  C   UNL A   1      42.700  22.902  25.901  1.00  0.00     0.040 A 
ATOM     51  F   UNL A   1      41.391  24.073  27.428  1.00  0.00    -0.206 F 
ATOM     52  C   UNL A   1      43.767  22.837  25.013  1.00  0.00     0.006 A 
ENDBRANCH  24  45
BRANCH  36  53
ATOM     53  C   UNL A   1      45.166  30.464  29.113  1.00  0.00     0.057 A 
ATOM     54  C   UNL A   1      46.497  30.803  28.828  1.00  0.00     0.134 A 
ATOM     55  C   UNL A   1      44.179  31.061  28.321  1.00  0.00     0.134 A 
ATOM     56  F   UNL A   1      47.519  30.204  29.455  1.00  0.00    -0.206 F 
ATOM     57  C   UNL A   1      46.823  31.741  27.844  1.00  0.00     0.040 A 
ATOM     58  C   UNL A   1      44.493  31.970  27.307  1.00  0.00     0.040 A 
ATOM     59  F   UNL A   1      42.886  30.740  28.493  1.00  0.00    -0.206 F 
ATOM     60  C   UNL A   1      45.819  32.324  27.076  1.00  0.00     0.006 A 
ENDBRANCH  36  53
ENDBRANCH  10  11
ENDBRANCH   3   5
ENDBRANCH   2   3
ENDBRANCH   1   2
BRANCH   1  61
ATOM     61  C   UNL A   1      33.305  35.410  28.792  1.00  0.00     0.275 C 
BRANCH  61  62
ATOM     62  O   UNL A   1      32.895  34.999  30.102  1.00  0.00    -0.457 OA
BRANCH  62  63
ATOM     63  C   UNL A   1      33.029  35.925  31.092  1.00  0.00     0.360 C 
ATOM     64  O   UNL A   1      32.529  37.043  31.098  1.00  0.00    -0.244 OA
BRANCH  63  65
ATOM     65  C   UNL A   1      33.855  35.401  32.152  1.00  0.00     0.190 A 
ATOM     66  C   UNL A   1      34.065  34.075  32.473  1.00  0.00     0.147 A 
ATOM     67  N   UNL A   1      34.529  36.194  33.044  1.00  0.00    -0.123 NA
ATOM     68  N   UNL A   1      34.941  34.134  33.517  1.00  0.00    -0.245 N 
ATOM     69  N   UNL A   1      35.151  35.405  33.906  1.00  0.00    -0.066 NA
BRANCH  68  70
ATOM     70  C   UNL A   1      35.793  33.099  34.000  1.00  0.00     0.148 C 
ATOM     71  C   UNL A   1      36.917  32.559  33.109  1.00  0.00     0.150 C 
ATOM     72  C   UNL A   1      36.922  33.746  34.837  1.00  0.00     0.150 C 
ATOM     73  N   UNL A   1      37.761  32.699  34.304  1.00  0.00    -0.320 N 
ATOM     74  C   UNL A   1      39.049  32.305  34.451  1.00  0.00     0.322 C 
ATOM     75  O   UNL A   1      39.582  31.576  33.610  1.00  0.00    -0.248 OA
ATOM     76  N   UNL A   1      39.827  32.815  35.442  1.00  0.00    -0.307 N 
ATOM     77  H   UNL A   1      40.794  32.727  35.281  1.00  0.00     0.171 HD
BRANCH  76  78
ATOM     78  C   UNL A   1      39.506  33.435  36.637  1.00  0.00     0.053 A 
ATOM     79  C   UNL A   1      38.828  32.884  37.762  1.00  0.00     0.038 A 
ATOM     80  C   UNL A   1      39.915  34.726  36.900  1.00  0.00     0.091 A 
ATOM     81  C   UNL A   1      38.565  33.824  38.737  1.00  0.00     0.067 A 
ATOM     82  S   UNL A   1      39.277  35.333  38.370  1.00  0.00    -0.150 S 
ENDBRANCH  76  78
ENDBRANCH  68  70
ENDBRANCH  63  65
ENDBRANCH  62  63
ENDBRANCH  61  62
ENDBRANCH   1  61
TORSDOF 13
ENDMDL
