MODEL 1
REMARK VINA RESULT:     -13.4      0.000      0.000
REMARK SMILES O=C(OCCOC(=O)[C@H](NC(=O)[C@H]1CC[C@@H](CNC(=O)[C@@H]2Cc3ccccc3C[NH2+]2)CC1)c1ccccc1)c1ccc(-c2c3nc(c(-c4c(F)cccc4F)c4ccc([nH]4)c(-c4c(F)cccc4F)c4nc(c(-c5c(F)cccc5F)c5ccc2[nH]5)C=C4)C=C3)cc1
REMARK SMILES IDX 6 1 5 2 4 3 3 4 2 5 1 6 39 7 40 8 92 9 41 10 91 11 42 12
REMARK SMILES IDX 43 13 44 14 85 15 45 16 90 17 84 18 86 19 46 20 89 21 83 22
REMARK SMILES IDX 82 23 47 25 73 26 56 27 72 28 57 29 60 30 71 31 87 32 58 33
REMARK SMILES IDX 59 34 70 36 88 37 61 38 48 39 49 40 54 41 50 42 51 43 53 44
REMARK SMILES IDX 55 45 52 46 74 47 75 48 80 49 76 50 77 51 79 52 81 53 78 54
REMARK SMILES IDX 62 55 63 56 68 57 64 58 65 59 67 60 69 61 66 62 7 63 8 64
REMARK SMILES IDX 9 65 33 66 34 67 38 68 35 69 37 70 36 71 10 72 11 73 12 75
REMARK SMILES IDX 13 76 32 77 14 78 31 79 15 80 16 81 17 82 18 83 19 84 20 86
REMARK SMILES IDX 21 87 22 88 30 89 23 90 29 91 24 94 28 95 25 96 27 97 26 98
REMARK H PARENT 86 24 60 35 10 74 18 85 30 92 30 93
REMARK Flexibility Score: inf
ROOT
ATOM      1  O   UNL A   1      35.263  22.050  23.934  1.00  0.00    -0.460 OA
ENDROOT
BRANCH   1   2
ATOM      2  C   UNL A   1      35.914  23.333  23.909  1.00  0.00     0.274 C 
BRANCH   2   3
ATOM      3  C   UNL A   1      36.462  23.752  25.274  1.00  0.00     0.275 C 
BRANCH   3   4
ATOM      4  O   UNL A   1      37.271  22.749  25.904  1.00  0.00    -0.458 OA
BRANCH   4   5
ATOM      5  C   UNL A   1      38.581  22.754  26.231  1.00  0.00     0.338 C 
ATOM      6  O   UNL A   1      39.166  21.671  26.232  1.00  0.00    -0.246 OA
BRANCH   5   7
ATOM      7  C   UNL A   1      39.387  23.971  26.621  1.00  0.00     0.060 A 
ATOM      8  C   UNL A   1      40.177  24.788  25.806  1.00  0.00     0.016 A 
ATOM      9  C   UNL A   1      39.306  24.342  27.971  1.00  0.00     0.016 A 
ATOM     10  C   UNL A   1      40.796  25.963  26.299  1.00  0.00     0.010 A 
ATOM     11  C   UNL A   1      39.914  25.514  28.456  1.00  0.00     0.010 A 
ATOM     12  C   UNL A   1      40.629  26.386  27.621  1.00  0.00    -0.014 A 
BRANCH  12  13
ATOM     13  C   UNL A   1      41.101  27.724  28.138  1.00  0.00     0.031 A 
ATOM     14  C   UNL A   1      42.511  27.988  28.481  1.00  0.00     0.074 A 
ATOM     15  C   UNL A   1      40.293  28.775  28.405  1.00  0.00     0.049 A 
ATOM     16  N   UNL A   1      42.997  29.135  28.875  1.00  0.00    -0.248 NA
ATOM     17  C   UNL A   1      43.493  26.919  28.300  1.00  0.00     0.031 C 
ATOM     18  C   UNL A   1      38.920  28.787  28.032  1.00  0.00     0.029 A 
ATOM     19  N   UNL A   1      40.445  29.980  29.119  1.00  0.00    -0.354 N 
ATOM     20  C   UNL A   1      44.351  28.983  28.808  1.00  0.00     0.074 A 
ATOM     21  C   UNL A   1      44.609  27.570  28.592  1.00  0.00     0.031 C 
ATOM     22  C   UNL A   1      38.369  29.830  28.648  1.00  0.00     0.029 A 
ATOM     23  C   UNL A   1      39.250  30.611  29.438  1.00  0.00     0.049 A 
ATOM     24  H   UNL A   1      41.324  30.343  29.372  1.00  0.00     0.167 HD
ATOM     25  C   UNL A   1      45.266  29.972  28.738  1.00  0.00     0.037 A 
ATOM     26  C   UNL A   1      38.820  31.691  30.159  1.00  0.00     0.037 A 
ATOM     27  C   UNL A   1      45.027  31.372  28.955  1.00  0.00     0.049 A 
ATOM     28  C   UNL A   1      39.891  32.690  30.373  1.00  0.00     0.074 A 
ATOM     29  C   UNL A   1      45.953  32.401  28.943  1.00  0.00     0.029 A 
ATOM     30  N   UNL A   1      43.801  31.954  29.251  1.00  0.00    -0.354 N 
ATOM     31  N   UNL A   1      41.144  32.571  30.044  1.00  0.00    -0.248 NA
ATOM     32  C   UNL A   1      39.487  34.024  30.832  1.00  0.00     0.031 C 
ATOM     33  C   UNL A   1      45.305  33.590  29.299  1.00  0.00     0.029 A 
ATOM     34  C   UNL A   1      43.967  33.314  29.498  1.00  0.00     0.049 A 
ATOM     35  H   UNL A   1      42.942  31.475  29.281  1.00  0.00     0.167 HD
ATOM     36  C   UNL A   1      41.652  33.841  30.132  1.00  0.00     0.074 A 
ATOM     37  C   UNL A   1      40.568  34.718  30.524  1.00  0.00     0.031 C 
ATOM     38  C   UNL A   1      42.921  34.221  29.890  1.00  0.00     0.037 A 
BRANCH  25  39
ATOM     39  C   UNL A   1      46.611  29.493  28.334  1.00  0.00     0.057 A 
ATOM     40  C   UNL A   1      46.916  29.291  26.978  1.00  0.00     0.134 A 
ATOM     41  C   UNL A   1      47.533  29.087  29.296  1.00  0.00     0.134 A 
ATOM     42  F   UNL A   1      46.030  29.615  26.023  1.00  0.00    -0.206 F 
ATOM     43  C   UNL A   1      48.090  28.652  26.596  1.00  0.00     0.040 A 
ATOM     44  C   UNL A   1      48.720  28.468  28.923  1.00  0.00     0.040 A 
ATOM     45  F   UNL A   1      47.261  29.230  30.601  1.00  0.00    -0.206 F 
ATOM     46  C   UNL A   1      48.994  28.237  27.572  1.00  0.00     0.006 A 
ENDBRANCH  25  39
BRANCH  26  47
ATOM     47  C   UNL A   1      37.399  32.156  30.499  1.00  0.00     0.057 A 
ATOM     48  C   UNL A   1      36.753  31.820  31.707  1.00  0.00     0.134 A 
ATOM     49  C   UNL A   1      36.541  32.734  29.550  1.00  0.00     0.134 A 
ATOM     50  F   UNL A   1      37.405  31.101  32.634  1.00  0.00    -0.206 F 
ATOM     51  C   UNL A   1      35.417  32.153  32.003  1.00  0.00     0.040 A 
ATOM     52  C   UNL A   1      35.207  33.098  29.830  1.00  0.00     0.040 A 
ATOM     53  F   UNL A   1      36.944  32.911  28.288  1.00  0.00    -0.206 F 
ATOM     54  C   UNL A   1      34.644  32.823  31.069  1.00  0.00     0.006 A 
ENDBRANCH  26  47
BRANCH  38  55
ATOM     55  C   UNL A   1      43.194  35.675  30.064  1.00  0.00     0.057 A 
ATOM     56  C   UNL A   1      43.025  36.584  29.009  1.00  0.00     0.134 A 
ATOM     57  C   UNL A   1      43.702  36.162  31.271  1.00  0.00     0.134 A 
ATOM     58  F   UNL A   1      42.590  36.162  27.810  1.00  0.00    -0.206 F 
ATOM     59  C   UNL A   1      43.388  37.921  29.136  1.00  0.00     0.040 A 
ATOM     60  C   UNL A   1      44.025  37.509  31.424  1.00  0.00     0.040 A 
ATOM     61  F   UNL A   1      43.914  35.338  32.307  1.00  0.00    -0.206 F 
ATOM     62  C   UNL A   1      43.879  38.389  30.352  1.00  0.00     0.006 A 
ENDBRANCH  38  55
ENDBRANCH  12  13
ENDBRANCH   5   7
ENDBRANCH   4   5
ENDBRANCH   3   4
ENDBRANCH   2   3
ENDBRANCH   1   2
BRANCH   1  63
ATOM     63  C   UNL A   1      33.942  22.030  23.540  1.00  0.00     0.333 C 
ATOM     64  O   UNL A   1      33.497  22.603  22.567  1.00  0.00    -0.249 OA
BRANCH  63  65
ATOM     65  C   UNL A   1      33.094  21.213  24.555  1.00  0.00     0.223 C 
BRANCH  65  66
ATOM     66  C   UNL A   1      33.113  19.746  24.153  1.00  0.00    -0.014 A 
ATOM     67  C   UNL A   1      34.093  18.890  24.695  1.00  0.00     0.006 A 
ATOM     68  C   UNL A   1      32.284  19.234  23.144  1.00  0.00     0.006 A 
ATOM     69  C   UNL A   1      34.298  17.614  24.168  1.00  0.00     0.000 A 
ATOM     70  C   UNL A   1      32.552  17.996  22.554  1.00  0.00     0.000 A 
ATOM     71  C   UNL A   1      33.569  17.193  23.057  1.00  0.00     0.000 A 
ENDBRANCH  65  66
BRANCH  65  72
ATOM     72  N   UNL A   1      33.572  21.479  25.923  1.00  0.00    -0.339 N 
ATOM     73  C   UNL A   1      33.387  22.429  26.870  1.00  0.00     0.224 C 
ATOM     74  H   UNL A   1      34.193  20.780  26.230  1.00  0.00     0.164 HD
ATOM     75  O   UNL A   1      33.997  22.226  27.930  1.00  0.00    -0.275 OA
BRANCH  73  76
ATOM     76  C   UNL A   1      32.468  23.672  26.801  1.00  0.00     0.078 C 
ATOM     77  C   UNL A   1      32.870  24.786  25.857  1.00  0.00     0.014 C 
ATOM     78  C   UNL A   1      30.959  23.366  26.870  1.00  0.00     0.014 C 
ATOM     79  C   UNL A   1      31.730  25.729  25.517  1.00  0.00     0.006 C 
ATOM     80  C   UNL A   1      29.980  24.106  25.921  1.00  0.00     0.006 C 
ATOM     81  C   UNL A   1      30.581  24.998  24.801  1.00  0.00     0.008 C 
BRANCH  81  82
ATOM     82  C   UNL A   1      31.006  24.248  23.458  1.00  0.00     0.119 C 
BRANCH  82  83
ATOM     83  N   UNL A   1      31.732  24.953  22.309  1.00  0.00    -0.351 N 
ATOM     84  C   UNL A   1      32.589  26.004  21.980  1.00  0.00     0.278 C 
ATOM     85  H   UNL A   1      31.504  24.481  21.476  1.00  0.00     0.163 HD
ATOM     86  O   UNL A   1      33.145  25.776  20.880  1.00  0.00    -0.268 OA
BRANCH  84  87
ATOM     87  C   UNL A   1      32.991  27.529  22.632  1.00  0.00     0.277 C 
ATOM     88  C   UNL A   1      33.906  27.781  23.848  1.00  0.00     0.111 C 
ATOM     89  N   UNL A   1      31.963  28.592  22.490  1.00  0.00    -0.332 N 
ATOM     90  C   UNL A   1      33.426  28.762  24.919  1.00  0.00    -0.033 A 
ATOM     91  C   UNL A   1      31.305  29.224  23.630  1.00  0.00     0.298 C 
ATOM     92  H   UNL A   1      31.217  28.186  21.924  1.00  0.00     0.347 HD
ATOM     93  H   UNL A   1      32.520  29.364  22.123  1.00  0.00     0.347 HD
ATOM     94  C   UNL A   1      34.253  29.072  26.011  1.00  0.00     0.004 A 
ATOM     95  C   UNL A   1      32.158  29.355  24.861  1.00  0.00     0.010 A 
ATOM     96  C   UNL A   1      33.787  29.854  27.076  1.00  0.00     0.000 A 
ATOM     97  C   UNL A   1      31.667  30.076  25.972  1.00  0.00     0.010 A 
ATOM     98  C   UNL A   1      32.476  30.317  27.080  1.00  0.00     0.001 A 
ENDBRANCH  84  87
ENDBRANCH  82  83
ENDBRANCH  81  82
ENDBRANCH  73  76
ENDBRANCH  65  72
ENDBRANCH  63  65
ENDBRANCH   1  63
TORSDOF 17
ENDMDL
MODEL 2
REMARK VINA RESULT:     -13.3      2.088      3.128
REMARK SMILES O=C(OCCOC(=O)[C@H](NC(=O)[C@H]1CC[C@@H](CNC(=O)[C@@H]2Cc3ccccc3C[NH2+]2)CC1)c1ccccc1)c1ccc(-c2c3nc(c(-c4c(F)cccc4F)c4ccc([nH]4)c(-c4c(F)cccc4F)c4nc(c(-c5c(F)cccc5F)c5ccc2[nH]5)C=C4)C=C3)cc1
REMARK SMILES IDX 6 1 5 2 4 3 3 4 2 5 1 6 39 7 40 8 92 9 41 10 91 11 42 12
REMARK SMILES IDX 43 13 44 14 85 15 45 16 90 17 84 18 86 19 46 20 89 21 83 22
REMARK SMILES IDX 82 23 47 25 73 26 56 27 72 28 57 29 60 30 71 31 87 32 58 33
REMARK SMILES IDX 59 34 70 36 88 37 61 38 48 39 49 40 54 41 50 42 51 43 53 44
REMARK SMILES IDX 55 45 52 46 74 47 75 48 80 49 76 50 77 51 79 52 81 53 78 54
REMARK SMILES IDX 62 55 63 56 68 57 64 58 65 59 67 60 69 61 66 62 7 63 8 64
REMARK SMILES IDX 9 65 33 66 34 67 38 68 35 69 37 70 36 71 10 72 11 73 12 75
REMARK SMILES IDX 13 76 32 77 14 78 31 79 15 80 16 81 17 82 18 83 19 84 20 86
REMARK SMILES IDX 21 87 22 88 30 89 23 90 29 91 24 94 28 95 25 96 27 97 26 98
REMARK H PARENT 86 24 60 35 10 74 18 85 30 92 30 93
REMARK Flexibility Score: inf
ROOT
ATOM      1  O   UNL A   1      37.244  21.809  25.719  1.00  0.00    -0.460 OA
ENDROOT
BRANCH   1   2
ATOM      2  C   UNL A   1      38.611  21.449  25.449  1.00  0.00     0.274 C 
BRANCH   2   3
ATOM      3  C   UNL A   1      38.791  19.958  25.156  1.00  0.00     0.275 C 
BRANCH   3   4
ATOM      4  O   UNL A   1      39.808  19.333  25.951  1.00  0.00    -0.458 OA
BRANCH   4   5
ATOM      5  C   UNL A   1      41.145  19.521  25.972  1.00  0.00     0.338 C 
ATOM      6  O   UNL A   1      41.855  18.554  25.696  1.00  0.00    -0.246 OA
BRANCH   5   7
ATOM      7  C   UNL A   1      41.850  20.810  26.328  1.00  0.00     0.060 A 
ATOM      8  C   UNL A   1      42.589  21.655  25.496  1.00  0.00     0.016 A 
ATOM      9  C   UNL A   1      41.716  21.222  27.662  1.00  0.00     0.016 A 
ATOM     10  C   UNL A   1      43.108  22.891  25.955  1.00  0.00     0.010 A 
ATOM     11  C   UNL A   1      42.223  22.454  28.112  1.00  0.00     0.010 A 
ATOM     12  C   UNL A   1      42.885  23.348  27.257  1.00  0.00    -0.014 A 
BRANCH  12  13
ATOM     13  C   UNL A   1      43.244  24.736  27.731  1.00  0.00     0.031 A 
ATOM     14  C   UNL A   1      44.601  25.090  28.189  1.00  0.00     0.074 A 
ATOM     15  C   UNL A   1      42.368  25.759  27.853  1.00  0.00     0.049 A 
ATOM     16  N   UNL A   1      44.994  26.281  28.553  1.00  0.00    -0.248 NA
ATOM     17  C   UNL A   1      45.643  24.063  28.169  1.00  0.00     0.031 C 
ATOM     18  C   UNL A   1      41.039  25.679  27.352  1.00  0.00     0.029 A 
ATOM     19  N   UNL A   1      42.396  27.009  28.501  1.00  0.00    -0.354 N 
ATOM     20  C   UNL A   1      46.354  26.194  28.624  1.00  0.00     0.074 A 
ATOM     21  C   UNL A   1      46.695  24.785  28.524  1.00  0.00     0.031 C 
ATOM     22  C   UNL A   1      40.385  26.727  27.845  1.00  0.00     0.029 A 
ATOM     23  C   UNL A   1      41.148  27.597  28.664  1.00  0.00     0.049 A 
ATOM     24  H   UNL A   1      43.229  27.430  28.813  1.00  0.00     0.167 HD
ATOM     25  C   UNL A   1      47.227  27.222  28.580  1.00  0.00     0.037 A 
ATOM     26  C   UNL A   1      40.603  28.694  29.272  1.00  0.00     0.037 A 
ATOM     27  C   UNL A   1      46.905  28.619  28.684  1.00  0.00     0.049 A 
ATOM     28  C   UNL A   1      41.602  29.756  29.523  1.00  0.00     0.074 A 
ATOM     29  C   UNL A   1      47.781  29.690  28.695  1.00  0.00     0.029 A 
ATOM     30  N   UNL A   1      45.632  29.154  28.825  1.00  0.00    -0.354 N 
ATOM     31  N   UNL A   1      42.885  29.681  29.322  1.00  0.00    -0.248 NA
ATOM     32  C   UNL A   1      41.096  31.093  29.856  1.00  0.00     0.031 C 
ATOM     33  C   UNL A   1      47.050  30.863  28.912  1.00  0.00     0.029 A 
ATOM     34  C   UNL A   1      45.712  30.533  29.001  1.00  0.00     0.049 A 
ATOM     35  H   UNL A   1      44.796  28.635  28.804  1.00  0.00     0.167 HD
ATOM     36  C   UNL A   1      43.325  30.978  29.378  1.00  0.00     0.074 A 
ATOM     37  C   UNL A   1      42.170  31.821  29.609  1.00  0.00     0.031 C 
ATOM     38  C   UNL A   1      44.593  31.407  29.234  1.00  0.00     0.037 A 
BRANCH  25  39
ATOM     39  C   UNL A   1      48.625  26.789  28.336  1.00  0.00     0.057 A 
ATOM     40  C   UNL A   1      49.087  26.581  27.026  1.00  0.00     0.134 A 
ATOM     41  C   UNL A   1      49.447  26.429  29.401  1.00  0.00     0.134 A 
ATOM     42  F   UNL A   1      48.302  26.860  25.972  1.00  0.00    -0.206 F 
ATOM     43  C   UNL A   1      50.318  25.982  26.788  1.00  0.00     0.040 A 
ATOM     44  C   UNL A   1      50.690  25.850  29.173  1.00  0.00     0.040 A 
ATOM     45  F   UNL A   1      49.026  26.578  30.665  1.00  0.00    -0.206 F 
ATOM     46  C   UNL A   1      51.121  25.613  27.865  1.00  0.00     0.006 A 
ENDBRANCH  25  39
BRANCH  26  47
ATOM     47  C   UNL A   1      39.135  29.105  29.446  1.00  0.00     0.057 A 
ATOM     48  C   UNL A   1      38.393  28.815  30.609  1.00  0.00     0.134 A 
ATOM     49  C   UNL A   1      38.347  29.576  28.384  1.00  0.00     0.134 A 
ATOM     50  F   UNL A   1      38.984  28.193  31.640  1.00  0.00    -0.206 F 
ATOM     51  C   UNL A   1      37.021  29.097  30.756  1.00  0.00     0.040 A 
ATOM     52  C   UNL A   1      36.978  29.887  28.512  1.00  0.00     0.040 A 
ATOM     53  F   UNL A   1      38.862  29.691  27.156  1.00  0.00    -0.206 F 
ATOM     54  C   UNL A   1      36.312  29.665  29.710  1.00  0.00     0.006 A 
ENDBRANCH  26  47
BRANCH  38  55
ATOM     55  C   UNL A   1      44.783  32.881  29.341  1.00  0.00     0.057 A 
ATOM     56  C   UNL A   1      45.046  33.498  30.573  1.00  0.00     0.134 A 
ATOM     57  C   UNL A   1      44.626  33.700  28.220  1.00  0.00     0.134 A 
ATOM     58  F   UNL A   1      45.153  32.764  31.694  1.00  0.00    -0.206 F 
ATOM     59  C   UNL A   1      45.109  34.883  30.694  1.00  0.00     0.040 A 
ATOM     60  C   UNL A   1      44.735  35.086  28.321  1.00  0.00     0.040 A 
ATOM     61  F   UNL A   1      44.344  33.173  27.020  1.00  0.00    -0.206 F 
ATOM     62  C   UNL A   1      44.965  35.680  29.561  1.00  0.00     0.006 A 
ENDBRANCH  38  55
ENDBRANCH  12  13
ENDBRANCH   5   7
ENDBRANCH   4   5
ENDBRANCH   3   4
ENDBRANCH   2   3
ENDBRANCH   1   2
BRANCH   1  63
ATOM     63  C   UNL A   1      36.444  22.026  24.618  1.00  0.00     0.333 C 
ATOM     64  O   UNL A   1      36.848  22.288  23.503  1.00  0.00    -0.249 OA
BRANCH  63  65
ATOM     65  C   UNL A   1      34.946  21.943  25.022  1.00  0.00     0.223 C 
BRANCH  65  66
ATOM     66  C   UNL A   1      34.369  20.623  24.531  1.00  0.00    -0.014 A 
ATOM     67  C   UNL A   1      33.048  20.581  24.043  1.00  0.00     0.006 A 
ATOM     68  C   UNL A   1      35.050  19.406  24.681  1.00  0.00     0.006 A 
ATOM     69  C   UNL A   1      32.406  19.362  23.822  1.00  0.00     0.000 A 
ATOM     70  C   UNL A   1      34.378  18.187  24.552  1.00  0.00     0.000 A 
ATOM     71  C   UNL A   1      33.051  18.167  24.136  1.00  0.00     0.000 A 
ENDBRANCH  65  66
BRANCH  65  72
ATOM     72  N   UNL A   1      34.814  22.166  26.472  1.00  0.00    -0.339 N 
ATOM     73  C   UNL A   1      33.951  22.796  27.303  1.00  0.00     0.224 C 
ATOM     74  H   UNL A   1      35.551  21.745  26.970  1.00  0.00     0.164 HD
ATOM     75  O   UNL A   1      34.230  22.700  28.508  1.00  0.00    -0.275 OA
BRANCH  73  76
ATOM     76  C   UNL A   1      32.650  23.547  26.930  1.00  0.00     0.078 C 
ATOM     77  C   UNL A   1      32.781  24.782  26.063  1.00  0.00     0.014 C 
ATOM     78  C   UNL A   1      31.444  22.638  26.623  1.00  0.00     0.014 C 
ATOM     79  C   UNL A   1      31.483  25.185  25.387  1.00  0.00     0.006 C 
ATOM     80  C   UNL A   1      30.528  22.960  25.413  1.00  0.00     0.006 C 
ATOM     81  C   UNL A   1      30.970  24.086  24.439  1.00  0.00     0.008 C 
BRANCH  81  82
ATOM     82  C   UNL A   1      32.000  23.662  23.296  1.00  0.00     0.119 C 
BRANCH  82  83
ATOM     83  N   UNL A   1      32.336  24.566  22.107  1.00  0.00    -0.351 N 
ATOM     84  C   UNL A   1      32.947  25.760  21.723  1.00  0.00     0.278 C 
ATOM     85  H   UNL A   1      31.981  24.137  21.295  1.00  0.00     0.163 HD
ATOM     86  O   UNL A   1      33.252  25.714  20.508  1.00  0.00    -0.268 OA
BRANCH  84  87
ATOM     87  C   UNL A   1      33.290  27.267  22.445  1.00  0.00     0.277 C 
ATOM     88  C   UNL A   1      34.001  27.481  23.798  1.00  0.00     0.111 C 
ATOM     89  N   UNL A   1      32.340  28.367  22.144  1.00  0.00    -0.332 N 
ATOM     90  C   UNL A   1      33.386  28.477  24.783  1.00  0.00    -0.033 A 
ATOM     91  C   UNL A   1      31.525  29.020  23.166  1.00  0.00     0.298 C 
ATOM     92  H   UNL A   1      31.683  27.991  21.460  1.00  0.00     0.347 HD
ATOM     93  H   UNL A   1      32.977  29.119  21.881  1.00  0.00     0.347 HD
ATOM     94  C   UNL A   1      34.031  28.754  26.000  1.00  0.00     0.004 A 
ATOM     95  C   UNL A   1      32.167  29.117  24.522  1.00  0.00     0.010 A 
ATOM     96  C   UNL A   1      33.424  29.549  26.980  1.00  0.00     0.000 A 
ATOM     97  C   UNL A   1      31.525  29.853  25.543  1.00  0.00     0.010 A 
ATOM     98  C   UNL A   1      32.148  30.061  26.772  1.00  0.00     0.001 A 
ENDBRANCH  84  87
ENDBRANCH  82  83
ENDBRANCH  81  82
ENDBRANCH  73  76
ENDBRANCH  65  72
ENDBRANCH  63  65
ENDBRANCH   1  63
TORSDOF 17
ENDMDL
MODEL 3
REMARK VINA RESULT:     -13.1      3.479      8.808
REMARK SMILES O=C(OCCOC(=O)[C@H](NC(=O)[C@H]1CC[C@@H](CNC(=O)[C@@H]2Cc3ccccc3C[NH2+]2)CC1)c1ccccc1)c1ccc(-c2c3nc(c(-c4c(F)cccc4F)c4ccc([nH]4)c(-c4c(F)cccc4F)c4nc(c(-c5c(F)cccc5F)c5ccc2[nH]5)C=C4)C=C3)cc1
REMARK SMILES IDX 6 1 5 2 4 3 3 4 2 5 1 6 39 7 40 8 92 9 41 10 91 11 42 12
REMARK SMILES IDX 43 13 44 14 85 15 45 16 90 17 84 18 86 19 46 20 89 21 83 22
REMARK SMILES IDX 82 23 47 25 73 26 56 27 72 28 57 29 60 30 71 31 87 32 58 33
REMARK SMILES IDX 59 34 70 36 88 37 61 38 48 39 49 40 54 41 50 42 51 43 53 44
REMARK SMILES IDX 55 45 52 46 74 47 75 48 80 49 76 50 77 51 79 52 81 53 78 54
REMARK SMILES IDX 62 55 63 56 68 57 64 58 65 59 67 60 69 61 66 62 7 63 8 64
REMARK SMILES IDX 9 65 33 66 34 67 38 68 35 69 37 70 36 71 10 72 11 73 12 75
REMARK SMILES IDX 13 76 32 77 14 78 31 79 15 80 16 81 17 82 18 83 19 84 20 86
REMARK SMILES IDX 21 87 22 88 30 89 23 90 29 91 24 94 28 95 25 96 27 97 26 98
REMARK H PARENT 86 24 60 35 10 74 18 85 30 92 30 93
REMARK Flexibility Score: inf
ROOT
ATOM      1  O   UNL A   1      34.332  32.969  29.419  1.00  0.00    -0.460 OA
ENDROOT
BRANCH   1   2
ATOM      2  C   UNL A   1      34.408  34.117  30.283  1.00  0.00     0.274 C 
BRANCH   2   3
ATOM      3  C   UNL A   1      34.780  33.760  31.723  1.00  0.00     0.275 C 
BRANCH   3   4
ATOM      4  O   UNL A   1      36.194  33.656  31.943  1.00  0.00    -0.458 OA
BRANCH   4   5
ATOM      5  C   UNL A   1      36.940  32.620  32.381  1.00  0.00     0.338 C 
ATOM      6  O   UNL A   1      36.470  31.926  33.283  1.00  0.00    -0.246 OA
BRANCH   5   7
ATOM      7  C   UNL A   1      38.317  32.249  31.877  1.00  0.00     0.060 A 
ATOM      8  C   UNL A   1      39.386  31.702  32.593  1.00  0.00     0.016 A 
ATOM      9  C   UNL A   1      38.534  32.456  30.507  1.00  0.00     0.016 A 
ATOM     10  C   UNL A   1      40.589  31.310  31.957  1.00  0.00     0.010 A 
ATOM     11  C   UNL A   1      39.726  32.057  29.877  1.00  0.00     0.010 A 
ATOM     12  C   UNL A   1      40.764  31.421  30.574  1.00  0.00    -0.014 A 
BRANCH  12  13
ATOM     13  C   UNL A   1      41.942  30.839  29.830  1.00  0.00     0.031 A 
ATOM     14  C   UNL A   1      42.978  31.681  29.203  1.00  0.00     0.074 A 
ATOM     15  C   UNL A   1      42.131  29.520  29.599  1.00  0.00     0.049 A 
ATOM     16  N   UNL A   1      44.051  31.244  28.599  1.00  0.00    -0.248 NA
ATOM     17  C   UNL A   1      42.871  33.135  29.320  1.00  0.00     0.031 C 
ATOM     18  C   UNL A   1      41.326  28.522  30.216  1.00  0.00     0.029 A 
ATOM     19  N   UNL A   1      42.961  28.779  28.737  1.00  0.00    -0.354 N 
ATOM     20  C   UNL A   1      44.833  32.350  28.430  1.00  0.00     0.074 A 
ATOM     21  C   UNL A   1      44.011  33.504  28.754  1.00  0.00     0.031 C 
ATOM     22  C   UNL A   1      41.603  27.376  29.598  1.00  0.00     0.029 A 
ATOM     23  C   UNL A   1      42.581  27.453  28.575  1.00  0.00     0.049 A 
ATOM     24  H   UNL A   1      43.745  29.168  28.285  1.00  0.00     0.167 HD
ATOM     25  C   UNL A   1      46.164  32.365  28.215  1.00  0.00     0.037 A 
ATOM     26  C   UNL A   1      42.942  26.366  27.827  1.00  0.00     0.037 A 
ATOM     27  C   UNL A   1      46.988  31.234  27.888  1.00  0.00     0.049 A 
ATOM     28  C   UNL A   1      44.323  26.472  27.306  1.00  0.00     0.074 A 
ATOM     29  C   UNL A   1      48.344  31.226  27.611  1.00  0.00     0.029 A 
ATOM     30  N   UNL A   1      46.557  29.920  27.761  1.00  0.00    -0.354 N 
ATOM     31  N   UNL A   1      45.118  27.496  27.409  1.00  0.00    -0.248 NA
ATOM     32  C   UNL A   1      44.941  25.248  26.781  1.00  0.00     0.031 C 
ATOM     33  C   UNL A   1      48.719  29.928  27.248  1.00  0.00     0.029 A 
ATOM     34  C   UNL A   1      47.608  29.114  27.333  1.00  0.00     0.049 A 
ATOM     35  H   UNL A   1      45.642  29.606  27.945  1.00  0.00     0.167 HD
ATOM     36  C   UNL A   1      46.358  27.012  27.083  1.00  0.00     0.074 A 
ATOM     37  C   UNL A   1      46.215  25.599  26.802  1.00  0.00     0.031 C 
ATOM     38  C   UNL A   1      47.510  27.708  27.042  1.00  0.00     0.037 A 
BRANCH  25  39
ATOM     39  C   UNL A   1      46.771  33.704  28.416  1.00  0.00     0.057 A 
ATOM     40  C   UNL A   1      46.930  34.583  27.332  1.00  0.00     0.134 A 
ATOM     41  C   UNL A   1      47.334  34.045  29.643  1.00  0.00     0.134 A 
ATOM     42  F   UNL A   1      46.453  34.264  26.119  1.00  0.00    -0.206 F 
ATOM     43  C   UNL A   1      47.676  35.748  27.460  1.00  0.00     0.040 A 
ATOM     44  C   UNL A   1      48.063  35.220  29.787  1.00  0.00     0.040 A 
ATOM     45  F   UNL A   1      47.234  33.215  30.691  1.00  0.00    -0.206 F 
ATOM     46  C   UNL A   1      48.247  36.067  28.690  1.00  0.00     0.006 A 
ENDBRANCH  25  39
BRANCH  26  47
ATOM     47  C   UNL A   1      42.289  24.983  27.705  1.00  0.00     0.057 A 
ATOM     48  C   UNL A   1      41.205  24.724  26.841  1.00  0.00     0.134 A 
ATOM     49  C   UNL A   1      42.544  23.940  28.609  1.00  0.00     0.134 A 
ATOM     50  F   UNL A   1      40.736  25.699  26.048  1.00  0.00    -0.206 F 
ATOM     51  C   UNL A   1      40.527  23.490  26.780  1.00  0.00     0.040 A 
ATOM     52  C   UNL A   1      41.895  22.689  28.554  1.00  0.00     0.040 A 
ATOM     53  F   UNL A   1      43.391  24.116  29.628  1.00  0.00    -0.206 F 
ATOM     54  C   UNL A   1      40.892  22.454  27.623  1.00  0.00     0.006 A 
ENDBRANCH  26  47
BRANCH  38  55
ATOM     55  C   UNL A   1      48.715  26.921  26.655  1.00  0.00     0.057 A 
ATOM     56  C   UNL A   1      49.467  26.217  27.607  1.00  0.00     0.134 A 
ATOM     57  C   UNL A   1      49.174  26.928  25.335  1.00  0.00     0.134 A 
ATOM     58  F   UNL A   1      49.103  26.220  28.901  1.00  0.00    -0.206 F 
ATOM     59  C   UNL A   1      50.655  25.577  27.267  1.00  0.00     0.040 A 
ATOM     60  C   UNL A   1      50.337  26.251  24.975  1.00  0.00     0.040 A 
ATOM     61  F   UNL A   1      48.515  27.607  24.385  1.00  0.00    -0.206 F 
ATOM     62  C   UNL A   1      51.086  25.584  25.943  1.00  0.00     0.006 A 
ENDBRANCH  38  55
ENDBRANCH  12  13
ENDBRANCH   5   7
ENDBRANCH   4   5
ENDBRANCH   3   4
ENDBRANCH   2   3
ENDBRANCH   1   2
BRANCH   1  63
ATOM     63  C   UNL A   1      35.373  32.805  28.531  1.00  0.00     0.333 C 
ATOM     64  O   UNL A   1      36.279  33.598  28.367  1.00  0.00    -0.249 OA
BRANCH  63  65
ATOM     65  C   UNL A   1      35.192  31.486  27.731  1.00  0.00     0.223 C 
BRANCH  65  66
ATOM     66  C   UNL A   1      36.056  30.401  28.356  1.00  0.00    -0.014 A 
ATOM     67  C   UNL A   1      35.904  30.093  29.723  1.00  0.00     0.006 A 
ATOM     68  C   UNL A   1      37.111  29.791  27.661  1.00  0.00     0.006 A 
ATOM     69  C   UNL A   1      36.837  29.292  30.383  1.00  0.00     0.000 A 
ATOM     70  C   UNL A   1      38.096  29.070  28.342  1.00  0.00     0.000 A 
ATOM     71  C   UNL A   1      37.966  28.833  29.706  1.00  0.00     0.000 A 
ENDBRANCH  65  66
BRANCH  65  72
ATOM     72  N   UNL A   1      33.759  31.154  27.648  1.00  0.00    -0.339 N 
ATOM     73  C   UNL A   1      32.985  30.264  26.983  1.00  0.00     0.224 C 
ATOM     74  H   UNL A   1      33.219  31.736  28.230  1.00  0.00     0.164 HD
ATOM     75  O   UNL A   1      31.776  30.329  27.250  1.00  0.00    -0.275 OA
BRANCH  73  76
ATOM     76  C   UNL A   1      33.440  29.157  26.001  1.00  0.00     0.078 C 
ATOM     77  C   UNL A   1      33.488  27.736  26.525  1.00  0.00     0.014 C 
ATOM     78  C   UNL A   1      32.925  29.321  24.558  1.00  0.00     0.014 C 
ATOM     79  C   UNL A   1      33.501  26.689  25.426  1.00  0.00     0.006 C 
ATOM     80  C   UNL A   1      32.394  28.084  23.786  1.00  0.00     0.006 C 
ATOM     81  C   UNL A   1      32.226  26.752  24.566  1.00  0.00     0.008 C 
BRANCH  81  82
ATOM     82  C   UNL A   1      30.865  26.582  25.381  1.00  0.00     0.119 C 
BRANCH  82  83
ATOM     83  N   UNL A   1      30.427  25.249  25.994  1.00  0.00    -0.351 N 
ATOM     84  C   UNL A   1      30.876  24.030  26.505  1.00  0.00     0.278 C 
ATOM     85  H   UNL A   1      29.444  25.252  26.048  1.00  0.00     0.163 HD
ATOM     86  O   UNL A   1      30.002  23.530  27.251  1.00  0.00    -0.268 OA
BRANCH  84  87
ATOM     87  C   UNL A   1      32.239  23.025  26.301  1.00  0.00     0.277 C 
ATOM     88  C   UNL A   1      33.680  23.354  26.741  1.00  0.00     0.111 C 
ATOM     89  N   UNL A   1      32.219  22.128  25.117  1.00  0.00    -0.332 N 
ATOM     90  C   UNL A   1      34.813  23.101  25.744  1.00  0.00    -0.033 A 
ATOM     91  C   UNL A   1      33.185  22.225  24.026  1.00  0.00     0.298 C 
ATOM     92  H   UNL A   1      31.300  22.249  24.689  1.00  0.00     0.347 HD
ATOM     93  H   UNL A   1      32.474  21.234  25.535  1.00  0.00     0.347 HD
ATOM     94  C   UNL A   1      36.147  23.325  26.123  1.00  0.00     0.004 A 
ATOM     95  C   UNL A   1      34.561  22.670  24.435  1.00  0.00     0.010 A 
ATOM     96  C   UNL A   1      37.191  23.239  25.192  1.00  0.00     0.000 A 
ATOM     97  C   UNL A   1      35.605  22.662  23.483  1.00  0.00     0.010 A 
ATOM     98  C   UNL A   1      36.915  22.954  23.859  1.00  0.00     0.001 A 
ENDBRANCH  84  87
ENDBRANCH  82  83
ENDBRANCH  81  82
ENDBRANCH  73  76
ENDBRANCH  65  72
ENDBRANCH  63  65
ENDBRANCH   1  63
TORSDOF 17
ENDMDL
