MODEL 1
REMARK VINA RESULT:     -12.1      0.000      0.000
REMARK SMILES CC(C)(Cn1ccc2ccc([N+](=O)[O-])cc21)C(=O)OCCOC(=O)c1ccc(-c2c3nc(c(-c4c(F)cccc4F)c4ccc([nH]4)c(-c4c(F)cccc4F)c4nc(c(-c5c(F)cccc5F)c5ccc2[nH]5)C=C4)C=C3)cc1
REMARK SMILES IDX 20 1 19 2 17 3 18 4 2 5 1 6 3 7 4 8 5 9 6 10 16 11 7 12 8 13
REMARK SMILES IDX 15 14 9 15 11 16 10 17 12 18 13 19 14 20 21 21 22 22 23 23
REMARK SMILES IDX 24 24 25 25 26 26 78 27 27 28 77 29 28 30 29 31 30 32 71 33
REMARK SMILES IDX 31 34 76 35 70 36 72 37 32 38 75 39 69 40 68 41 33 43 59 44
REMARK SMILES IDX 42 45 58 46 43 47 46 48 57 49 73 50 44 51 45 52 56 54 74 55
REMARK SMILES IDX 47 56 34 57 35 58 40 59 36 60 37 61 39 62 41 63 38 64 60 65
REMARK SMILES IDX 61 66 66 67 62 68 63 69 65 70 67 71 64 72 48 73 49 74 54 75
REMARK SMILES IDX 50 76 51 77 53 78 55 79 52 80
REMARK H PARENT 72 42 46 53
REMARK Flexibility Score: inf
ROOT
ATOM      1  C   UNL A   1      40.574  21.630  26.188  1.00  0.00     0.274 C 
ENDROOT
BRANCH   1   2
ATOM      2  O   UNL A   1      39.185  21.290  26.444  1.00  0.00    -0.462 OA
BRANCH   2   3
ATOM      3  C   UNL A   1      38.277  22.103  25.845  1.00  0.00     0.313 C 
ATOM      4  O   UNL A   1      38.272  23.309  26.021  1.00  0.00    -0.252 OA
BRANCH   3   5
ATOM      5  C   UNL A   1      37.170  21.373  25.095  1.00  0.00     0.080 C 
ATOM      6  C   UNL A   1      37.643  19.967  24.663  1.00  0.00     0.025 C 
ATOM      7  C   UNL A   1      37.004  22.154  23.768  1.00  0.00     0.025 C 
BRANCH   5   8
ATOM      8  C   UNL A   1      35.841  21.349  25.911  1.00  0.00     0.140 C 
BRANCH   8   9
ATOM      9  N   UNL A   1      34.570  21.264  25.181  1.00  0.00    -0.346 N 
ATOM     10  C   UNL A   1      33.786  22.378  24.954  1.00  0.00     0.087 A 
ATOM     11  C   UNL A   1      33.906  20.142  24.690  1.00  0.00     0.055 A 
ATOM     12  C   UNL A   1      32.744  22.018  24.137  1.00  0.00     0.028 A 
ATOM     13  C   UNL A   1      32.845  20.625  23.905  1.00  0.00     0.000 A 
ATOM     14  C   UNL A   1      34.169  18.750  24.763  1.00  0.00     0.112 A 
ATOM     15  C   UNL A   1      32.109  19.745  23.083  1.00  0.00     0.017 A 
ATOM     16  C   UNL A   1      33.470  17.916  23.852  1.00  0.00     0.271 A 
ATOM     17  C   UNL A   1      32.460  18.398  23.021  1.00  0.00     0.086 A 
BRANCH  16  18
ATOM     18  N   UNL A   1      33.881  16.524  23.644  1.00  0.00     0.062 N 
ATOM     19  O   UNL A   1      34.363  16.202  22.551  1.00  0.00    -0.258 OA
ATOM     20  O   UNL A   1      33.681  15.731  24.576  1.00  0.00    -0.258 OA
ENDBRANCH  16  18
ENDBRANCH   8   9
ENDBRANCH   5   8
ENDBRANCH   3   5
ENDBRANCH   2   3
ENDBRANCH   1   2
BRANCH   1  21
ATOM     21  C   UNL A   1      41.506  20.412  26.114  1.00  0.00     0.275 C 
BRANCH  21  22
ATOM     22  O   UNL A   1      42.896  20.701  26.367  1.00  0.00    -0.458 OA
BRANCH  22  23
ATOM     23  C   UNL A   1      43.718  20.424  25.329  1.00  0.00     0.338 C 
ATOM     24  O   UNL A   1      43.585  19.459  24.599  1.00  0.00    -0.246 OA
BRANCH  23  25
ATOM     25  C   UNL A   1      44.606  21.529  24.905  1.00  0.00     0.060 A 
ATOM     26  C   UNL A   1      45.563  21.921  25.832  1.00  0.00     0.016 A 
ATOM     27  C   UNL A   1      43.884  22.485  24.182  1.00  0.00     0.016 A 
ATOM     28  C   UNL A   1      45.374  23.144  26.445  1.00  0.00     0.010 A 
ATOM     29  C   UNL A   1      43.689  23.697  24.803  1.00  0.00     0.010 A 
ATOM     30  C   UNL A   1      44.315  23.952  26.027  1.00  0.00    -0.014 A 
BRANCH  30  31
ATOM     31  C   UNL A   1      44.005  25.180  26.739  1.00  0.00     0.031 A 
ATOM     32  C   UNL A   1      45.077  26.163  26.515  1.00  0.00     0.074 A 
ATOM     33  C   UNL A   1      42.936  25.508  27.495  1.00  0.00     0.049 A 
ATOM     34  N   UNL A   1      46.153  26.240  27.221  1.00  0.00    -0.248 NA
ATOM     35  C   UNL A   1      45.107  26.926  25.261  1.00  0.00     0.031 C 
ATOM     36  C   UNL A   1      41.655  24.843  27.717  1.00  0.00     0.029 A 
ATOM     37  N   UNL A   1      42.809  26.634  28.260  1.00  0.00    -0.354 N 
ATOM     38  C   UNL A   1      46.904  27.228  26.618  1.00  0.00     0.074 A 
ATOM     39  C   UNL A   1      46.356  27.393  25.298  1.00  0.00     0.031 C 
ATOM     40  C   UNL A   1      40.801  25.676  28.362  1.00  0.00     0.029 A 
ATOM     41  C   UNL A   1      41.545  26.844  28.792  1.00  0.00     0.049 A 
ATOM     42  H   UNL A   1      43.559  27.251  28.420  1.00  0.00     0.167 HD
ATOM     43  C   UNL A   1      47.696  28.035  27.369  1.00  0.00     0.037 A 
ATOM     44  C   UNL A   1      41.158  27.875  29.582  1.00  0.00     0.037 A 
ATOM     45  C   UNL A   1      47.896  27.481  28.692  1.00  0.00     0.049 A 
ATOM     46  C   UNL A   1      42.381  28.411  30.228  1.00  0.00     0.074 A 
ATOM     47  C   UNL A   1      48.384  26.282  29.183  1.00  0.00     0.029 A 
ATOM     48  N   UNL A   1      47.185  28.035  29.731  1.00  0.00    -0.354 N 
ATOM     49  N   UNL A   1      43.055  27.762  31.137  1.00  0.00    -0.248 NA
ATOM     50  C   UNL A   1      43.117  29.456  29.535  1.00  0.00     0.031 C 
ATOM     51  C   UNL A   1      47.549  25.963  30.297  1.00  0.00     0.029 A 
ATOM     52  C   UNL A   1      46.639  27.008  30.461  1.00  0.00     0.049 A 
ATOM     53  H   UNL A   1      47.085  28.996  29.919  1.00  0.00     0.167 HD
ATOM     54  C   UNL A   1      44.386  27.997  30.823  1.00  0.00     0.074 A 
ATOM     55  C   UNL A   1      44.361  29.121  29.889  1.00  0.00     0.031 C 
ATOM     56  C   UNL A   1      45.356  27.084  31.124  1.00  0.00     0.037 A 
BRANCH  43  57
ATOM     57  C   UNL A   1      47.919  29.491  27.053  1.00  0.00     0.057 A 
ATOM     58  C   UNL A   1      46.908  30.474  26.970  1.00  0.00     0.134 A 
ATOM     59  C   UNL A   1      49.230  29.991  27.116  1.00  0.00     0.134 A 
ATOM     60  F   UNL A   1      45.603  30.188  26.968  1.00  0.00    -0.206 F 
ATOM     61  C   UNL A   1      47.177  31.843  26.988  1.00  0.00     0.040 A 
ATOM     62  C   UNL A   1      49.504  31.360  27.190  1.00  0.00     0.040 A 
ATOM     63  F   UNL A   1      50.280  29.161  27.194  1.00  0.00    -0.206 F 
ATOM     64  C   UNL A   1      48.475  32.291  27.138  1.00  0.00     0.006 A 
ENDBRANCH  43  57
BRANCH  44  65
ATOM     65  C   UNL A   1      39.853  28.567  29.652  1.00  0.00     0.057 A 
ATOM     66  C   UNL A   1      39.019  28.418  30.773  1.00  0.00     0.134 A 
ATOM     67  C   UNL A   1      39.265  29.142  28.516  1.00  0.00     0.134 A 
ATOM     68  F   UNL A   1      39.463  27.822  31.889  1.00  0.00    -0.206 F 
ATOM     69  C   UNL A   1      37.670  28.792  30.757  1.00  0.00     0.040 A 
ATOM     70  C   UNL A   1      37.914  29.520  28.487  1.00  0.00     0.040 A 
ATOM     71  F   UNL A   1      39.969  29.291  27.385  1.00  0.00    -0.206 F 
ATOM     72  C   UNL A   1      37.109  29.332  29.606  1.00  0.00     0.006 A 
ENDBRANCH  44  65
BRANCH  56  73
ATOM     73  C   UNL A   1      44.986  25.940  32.033  1.00  0.00     0.057 A 
ATOM     74  C   UNL A   1      44.559  24.736  31.461  1.00  0.00     0.134 A 
ATOM     75  C   UNL A   1      44.911  26.034  33.431  1.00  0.00     0.134 A 
ATOM     76  F   UNL A   1      44.551  24.586  30.127  1.00  0.00    -0.206 F 
ATOM     77  C   UNL A   1      44.091  23.672  32.239  1.00  0.00     0.040 A 
ATOM     78  C   UNL A   1      44.474  24.966  34.223  1.00  0.00     0.040 A 
ATOM     79  F   UNL A   1      45.206  27.174  34.067  1.00  0.00    -0.206 F 
ATOM     80  C   UNL A   1      44.057  23.781  33.626  1.00  0.00     0.006 A 
ENDBRANCH  56  73
ENDBRANCH  30  31
ENDBRANCH  23  25
ENDBRANCH  22  23
ENDBRANCH  21  22
ENDBRANCH   1  21
TORSDOF 14
ENDMDL
MODEL 2
REMARK VINA RESULT:     -11.6      6.485     10.785
REMARK SMILES CC(C)(Cn1ccc2ccc([N+](=O)[O-])cc21)C(=O)OCCOC(=O)c1ccc(-c2c3nc(c(-c4c(F)cccc4F)c4ccc([nH]4)c(-c4c(F)cccc4F)c4nc(c(-c5c(F)cccc5F)c5ccc2[nH]5)C=C4)C=C3)cc1
REMARK SMILES IDX 20 1 19 2 17 3 18 4 2 5 1 6 3 7 4 8 5 9 6 10 16 11 7 12 8 13
REMARK SMILES IDX 15 14 9 15 11 16 10 17 12 18 13 19 14 20 21 21 22 22 23 23
REMARK SMILES IDX 24 24 25 25 26 26 78 27 27 28 77 29 28 30 29 31 30 32 71 33
REMARK SMILES IDX 31 34 76 35 70 36 72 37 32 38 75 39 69 40 68 41 33 43 59 44
REMARK SMILES IDX 42 45 58 46 43 47 46 48 57 49 73 50 44 51 45 52 56 54 74 55
REMARK SMILES IDX 47 56 34 57 35 58 40 59 36 60 37 61 39 62 41 63 38 64 60 65
REMARK SMILES IDX 61 66 66 67 62 68 63 69 65 70 67 71 64 72 48 73 49 74 54 75
REMARK SMILES IDX 50 76 51 77 53 78 55 79 52 80
REMARK H PARENT 72 42 46 53
REMARK Flexibility Score: inf
ROOT
ATOM      1  C   UNL A   1      34.215  32.804  28.004  1.00  0.00     0.274 C 
ENDROOT
BRANCH   1   2
ATOM      2  O   UNL A   1      33.733  31.442  28.160  1.00  0.00    -0.462 OA
BRANCH   2   3
ATOM      3  C   UNL A   1      32.833  31.042  27.225  1.00  0.00     0.313 C 
ATOM      4  O   UNL A   1      31.908  31.752  26.872  1.00  0.00    -0.252 OA
BRANCH   3   5
ATOM      5  C   UNL A   1      32.967  29.586  26.798  1.00  0.00     0.080 C 
ATOM      6  C   UNL A   1      31.837  28.734  27.415  1.00  0.00     0.025 C 
ATOM      7  C   UNL A   1      34.258  29.083  27.490  1.00  0.00     0.025 C 
BRANCH   5   8
ATOM      8  C   UNL A   1      33.063  29.449  25.247  1.00  0.00     0.140 C 
BRANCH   8   9
ATOM      9  N   UNL A   1      32.044  28.658  24.548  1.00  0.00    -0.346 N 
ATOM     10  C   UNL A   1      32.199  27.303  24.326  1.00  0.00     0.087 A 
ATOM     11  C   UNL A   1      30.862  29.078  23.940  1.00  0.00     0.055 A 
ATOM     12  C   UNL A   1      31.038  26.815  23.782  1.00  0.00     0.028 A 
ATOM     13  C   UNL A   1      30.159  27.910  23.597  1.00  0.00     0.000 A 
ATOM     14  C   UNL A   1      30.277  30.353  23.735  1.00  0.00     0.112 A 
ATOM     15  C   UNL A   1      28.818  27.987  23.164  1.00  0.00     0.017 A 
ATOM     16  C   UNL A   1      28.901  30.380  23.389  1.00  0.00     0.271 A 
ATOM     17  C   UNL A   1      28.177  29.222  23.111  1.00  0.00     0.086 A 
BRANCH  16  18
ATOM     18  N   UNL A   1      28.139  31.632  23.445  1.00  0.00     0.062 N 
ATOM     19  O   UNL A   1      26.906  31.574  23.543  1.00  0.00    -0.258 OA
ATOM     20  O   UNL A   1      28.780  32.689  23.350  1.00  0.00    -0.258 OA
ENDBRANCH  16  18
ENDBRANCH   8   9
ENDBRANCH   5   8
ENDBRANCH   3   5
ENDBRANCH   2   3
ENDBRANCH   1   2
BRANCH   1  21
ATOM     21  C   UNL A   1      33.460  33.830  28.861  1.00  0.00     0.275 C 
BRANCH  21  22
ATOM     22  O   UNL A   1      34.290  34.586  29.766  1.00  0.00    -0.458 OA
BRANCH  22  23
ATOM     23  C   UNL A   1      33.677  34.932  30.921  1.00  0.00     0.338 C 
ATOM     24  O   UNL A   1      32.528  35.329  30.986  1.00  0.00    -0.246 OA
BRANCH  23  25
ATOM     25  C   UNL A   1      34.357  34.495  32.160  1.00  0.00     0.060 A 
ATOM     26  C   UNL A   1      35.605  35.059  32.392  1.00  0.00     0.016 A 
ATOM     27  C   UNL A   1      34.144  33.130  32.379  1.00  0.00     0.016 A 
ATOM     28  C   UNL A   1      36.701  34.232  32.244  1.00  0.00     0.010 A 
ATOM     29  C   UNL A   1      35.236  32.310  32.219  1.00  0.00     0.010 A 
ATOM     30  C   UNL A   1      36.493  32.875  31.985  1.00  0.00    -0.014 A 
BRANCH  30  31
ATOM     31  C   UNL A   1      37.619  32.006  31.689  1.00  0.00     0.031 A 
ATOM     32  C   UNL A   1      38.395  31.771  32.917  1.00  0.00     0.074 A 
ATOM     33  C   UNL A   1      37.992  31.419  30.532  1.00  0.00     0.049 A 
ATOM     34  N   UNL A   1      39.337  32.542  33.340  1.00  0.00    -0.248 NA
ATOM     35  C   UNL A   1      37.920  30.785  33.895  1.00  0.00     0.031 C 
ATOM     36  C   UNL A   1      37.324  31.294  29.239  1.00  0.00     0.029 A 
ATOM     37  N   UNL A   1      39.161  30.745  30.314  1.00  0.00    -0.354 N 
ATOM     38  C   UNL A   1      39.725  32.000  34.548  1.00  0.00     0.074 A 
ATOM     39  C   UNL A   1      38.655  31.130  34.954  1.00  0.00     0.031 C 
ATOM     40  C   UNL A   1      37.981  30.403  28.457  1.00  0.00     0.029 A 
ATOM     41  C   UNL A   1      39.233  30.065  29.107  1.00  0.00     0.049 A 
ATOM     42  H   UNL A   1      39.898  30.742  30.967  1.00  0.00     0.167 HD
ATOM     43  C   UNL A   1      41.022  32.072  34.942  1.00  0.00     0.037 A 
ATOM     44  C   UNL A   1      40.274  29.329  28.650  1.00  0.00     0.037 A 
ATOM     45  C   UNL A   1      41.750  33.049  34.159  1.00  0.00     0.049 A 
ATOM     46  C   UNL A   1      41.489  29.812  29.354  1.00  0.00     0.074 A 
ATOM     47  C   UNL A   1      41.591  34.399  33.893  1.00  0.00     0.029 A 
ATOM     48  N   UNL A   1      42.587  32.582  33.172  1.00  0.00    -0.354 N 
ATOM     49  N   UNL A   1      42.022  30.984  29.143  1.00  0.00    -0.248 NA
ATOM     50  C   UNL A   1      41.837  29.187  30.619  1.00  0.00     0.031 C 
ATOM     51  C   UNL A   1      41.937  34.555  32.516  1.00  0.00     0.029 A 
ATOM     52  C   UNL A   1      42.342  33.310  32.034  1.00  0.00     0.049 A 
ATOM     53  H   UNL A   1      43.245  31.856  33.265  1.00  0.00     0.167 HD
ATOM     54  C   UNL A   1      42.391  31.433  30.403  1.00  0.00     0.074 A 
ATOM     55  C   UNL A   1      42.341  30.248  31.256  1.00  0.00     0.031 C 
ATOM     56  C   UNL A   1      42.427  32.767  30.696  1.00  0.00     0.037 A 
BRANCH  43  57
ATOM     57  C   UNL A   1      41.707  30.977  35.718  1.00  0.00     0.057 A 
ATOM     58  C   UNL A   1      41.856  29.640  35.288  1.00  0.00     0.134 A 
ATOM     59  C   UNL A   1      42.503  31.339  36.817  1.00  0.00     0.134 A 
ATOM     60  F   UNL A   1      41.230  29.138  34.220  1.00  0.00    -0.206 F 
ATOM     61  C   UNL A   1      42.752  28.748  35.877  1.00  0.00     0.040 A 
ATOM     62  C   UNL A   1      43.444  30.470  37.377  1.00  0.00     0.040 A 
ATOM     63  F   UNL A   1      42.453  32.580  37.323  1.00  0.00    -0.206 F 
ATOM     64  C   UNL A   1      43.579  29.173  36.899  1.00  0.00     0.006 A 
ENDBRANCH  43  57
BRANCH  44  65
ATOM     65  C   UNL A   1      40.269  28.105  27.822  1.00  0.00     0.057 A 
ATOM     66  C   UNL A   1      39.804  26.886  28.342  1.00  0.00     0.134 A 
ATOM     67  C   UNL A   1      40.985  28.030  26.618  1.00  0.00     0.134 A 
ATOM     68  F   UNL A   1      39.164  26.837  29.520  1.00  0.00    -0.206 F 
ATOM     69  C   UNL A   1      40.060  25.659  27.718  1.00  0.00     0.040 A 
ATOM     70  C   UNL A   1      41.250  26.807  25.984  1.00  0.00     0.040 A 
ATOM     71  F   UNL A   1      41.502  29.135  26.062  1.00  0.00    -0.206 F 
ATOM     72  C   UNL A   1      40.799  25.615  26.542  1.00  0.00     0.006 A 
ENDBRANCH  44  65
BRANCH  56  73
ATOM     73  C   UNL A   1      42.308  33.740  29.553  1.00  0.00     0.057 A 
ATOM     74  C   UNL A   1      43.467  34.121  28.868  1.00  0.00     0.134 A 
ATOM     75  C   UNL A   1      41.122  34.404  29.200  1.00  0.00     0.134 A 
ATOM     76  F   UNL A   1      44.651  33.571  29.183  1.00  0.00    -0.206 F 
ATOM     77  C   UNL A   1      43.451  35.105  27.874  1.00  0.00     0.040 A 
ATOM     78  C   UNL A   1      41.086  35.367  28.184  1.00  0.00     0.040 A 
ATOM     79  F   UNL A   1      39.979  34.179  29.858  1.00  0.00    -0.206 F 
ATOM     80  C   UNL A   1      42.256  35.724  27.522  1.00  0.00     0.006 A 
ENDBRANCH  56  73
ENDBRANCH  30  31
ENDBRANCH  23  25
ENDBRANCH  22  23
ENDBRANCH  21  22
ENDBRANCH   1  21
TORSDOF 14
ENDMDL
MODEL 3
REMARK VINA RESULT:     -11.2      1.558      2.980
REMARK SMILES CC(C)(Cn1ccc2ccc([N+](=O)[O-])cc21)C(=O)OCCOC(=O)c1ccc(-c2c3nc(c(-c4c(F)cccc4F)c4ccc([nH]4)c(-c4c(F)cccc4F)c4nc(c(-c5c(F)cccc5F)c5ccc2[nH]5)C=C4)C=C3)cc1
REMARK SMILES IDX 20 1 19 2 17 3 18 4 2 5 1 6 3 7 4 8 5 9 6 10 16 11 7 12 8 13
REMARK SMILES IDX 15 14 9 15 11 16 10 17 12 18 13 19 14 20 21 21 22 22 23 23
REMARK SMILES IDX 24 24 25 25 26 26 78 27 27 28 77 29 28 30 29 31 30 32 71 33
REMARK SMILES IDX 31 34 76 35 70 36 72 37 32 38 75 39 69 40 68 41 33 43 59 44
REMARK SMILES IDX 42 45 58 46 43 47 46 48 57 49 73 50 44 51 45 52 56 54 74 55
REMARK SMILES IDX 47 56 34 57 35 58 40 59 36 60 37 61 39 62 41 63 38 64 60 65
REMARK SMILES IDX 61 66 66 67 62 68 63 69 65 70 67 71 64 72 48 73 49 74 54 75
REMARK SMILES IDX 50 76 51 77 53 78 55 79 52 80
REMARK H PARENT 72 42 46 53
REMARK Flexibility Score: inf
ROOT
ATOM      1  C   UNL A   1      40.248  20.478  26.724  1.00  0.00     0.274 C 
ENDROOT
BRANCH   1   2
ATOM      2  O   UNL A   1      39.659  21.416  25.784  1.00  0.00    -0.462 OA
BRANCH   2   3
ATOM      3  C   UNL A   1      38.410  21.093  25.359  1.00  0.00     0.313 C 
ATOM      4  O   UNL A   1      38.158  20.015  24.849  1.00  0.00    -0.252 OA
BRANCH   3   5
ATOM      5  C   UNL A   1      37.408  22.240  25.405  1.00  0.00     0.080 C 
ATOM      6  C   UNL A   1      37.102  22.750  23.979  1.00  0.00     0.025 C 
ATOM      7  C   UNL A   1      38.167  23.407  26.083  1.00  0.00     0.025 C 
BRANCH   5   8
ATOM      8  C   UNL A   1      36.127  21.853  26.207  1.00  0.00     0.140 C 
BRANCH   8   9
ATOM      9  N   UNL A   1      34.850  21.766  25.489  1.00  0.00    -0.346 N 
ATOM     10  C   UNL A   1      34.491  20.638  24.776  1.00  0.00     0.087 A 
ATOM     11  C   UNL A   1      33.865  22.737  25.316  1.00  0.00     0.055 A 
ATOM     12  C   UNL A   1      33.201  20.794  24.335  1.00  0.00     0.028 A 
ATOM     13  C   UNL A   1      32.768  22.084  24.727  1.00  0.00     0.000 A 
ATOM     14  C   UNL A   1      33.769  24.099  25.697  1.00  0.00     0.112 A 
ATOM     15  C   UNL A   1      31.521  22.738  24.624  1.00  0.00     0.017 A 
ATOM     16  C   UNL A   1      32.478  24.687  25.662  1.00  0.00     0.271 A 
ATOM     17  C   UNL A   1      31.368  24.023  25.140  1.00  0.00     0.086 A 
BRANCH  16  18
ATOM     18  N   UNL A   1      32.224  25.979  26.307  1.00  0.00     0.062 N 
ATOM     19  O   UNL A   1      33.055  26.885  26.172  1.00  0.00    -0.258 OA
ATOM     20  O   UNL A   1      31.196  26.075  26.993  1.00  0.00    -0.258 OA
ENDBRANCH  16  18
ENDBRANCH   8   9
ENDBRANCH   5   8
ENDBRANCH   3   5
ENDBRANCH   2   3
ENDBRANCH   1   2
BRANCH   1  21
ATOM     21  C   UNL A   1      41.764  20.302  26.556  1.00  0.00     0.275 C 
BRANCH  21  22
ATOM     22  O   UNL A   1      42.321  20.953  25.396  1.00  0.00    -0.458 OA
BRANCH  22  23
ATOM     23  C   UNL A   1      43.582  20.568  25.096  1.00  0.00     0.338 C 
ATOM     24  O   UNL A   1      43.874  19.454  24.701  1.00  0.00    -0.246 OA
BRANCH  23  25
ATOM     25  C   UNL A   1      44.566  21.663  24.950  1.00  0.00     0.060 A 
ATOM     26  C   UNL A   1      45.281  21.985  26.097  1.00  0.00     0.016 A 
ATOM     27  C   UNL A   1      44.057  22.671  24.125  1.00  0.00     0.016 A 
ATOM     28  C   UNL A   1      44.974  23.185  26.707  1.00  0.00     0.010 A 
ATOM     29  C   UNL A   1      43.743  23.860  24.739  1.00  0.00     0.010 A 
ATOM     30  C   UNL A   1      44.061  24.043  26.089  1.00  0.00    -0.014 A 
BRANCH  30  31
ATOM     31  C   UNL A   1      43.614  25.248  26.767  1.00  0.00     0.031 A 
ATOM     32  C   UNL A   1      44.567  26.339  26.512  1.00  0.00     0.074 A 
ATOM     33  C   UNL A   1      42.513  25.473  27.515  1.00  0.00     0.049 A 
ATOM     34  N   UNL A   1      45.627  26.558  27.213  1.00  0.00    -0.248 NA
ATOM     35  C   UNL A   1      44.512  27.064  25.237  1.00  0.00     0.031 C 
ATOM     36  C   UNL A   1      41.315  24.674  27.758  1.00  0.00     0.029 A 
ATOM     37  N   UNL A   1      42.258  26.599  28.247  1.00  0.00    -0.354 N 
ATOM     38  C   UNL A   1      46.261  27.607  26.581  1.00  0.00     0.074 A 
ATOM     39  C   UNL A   1      45.700  27.671  25.258  1.00  0.00     0.031 C 
ATOM     40  C   UNL A   1      40.372  25.423  28.381  1.00  0.00     0.029 A 
ATOM     41  C   UNL A   1      40.978  26.680  28.776  1.00  0.00     0.049 A 
ATOM     42  H   UNL A   1      42.934  27.301  28.389  1.00  0.00     0.167 HD
ATOM     43  C   UNL A   1      46.956  28.520  27.307  1.00  0.00     0.037 A 
ATOM     44  C   UNL A   1      40.475  27.682  29.537  1.00  0.00     0.037 A 
ATOM     45  C   UNL A   1      47.216  28.030  28.645  1.00  0.00     0.049 A 
ATOM     46  C   UNL A   1      41.629  28.371  30.165  1.00  0.00     0.074 A 
ATOM     47  C   UNL A   1      47.836  26.908  29.169  1.00  0.00     0.029 A 
ATOM     48  N   UNL A   1      46.445  28.529  29.670  1.00  0.00    -0.354 N 
ATOM     49  N   UNL A   1      42.372  27.829  31.091  1.00  0.00    -0.248 NA
ATOM     50  C   UNL A   1      42.242  29.473  29.441  1.00  0.00     0.031 C 
ATOM     51  C   UNL A   1      47.041  26.529  30.293  1.00  0.00     0.029 A 
ATOM     52  C   UNL A   1      46.018  27.468  30.429  1.00  0.00     0.049 A 
ATOM     53  H   UNL A   1      46.237  29.477  29.831  1.00  0.00     0.167 HD
ATOM     54  C   UNL A   1      43.667  28.204  30.767  1.00  0.00     0.074 A 
ATOM     55  C   UNL A   1      43.516  29.291  29.802  1.00  0.00     0.031 C 
ATOM     56  C   UNL A   1      44.735  27.416  31.093  1.00  0.00     0.037 A 
BRANCH  43  57
ATOM     57  C   UNL A   1      47.013  29.982  26.950  1.00  0.00     0.057 A 
ATOM     58  C   UNL A   1      45.896  30.839  26.832  1.00  0.00     0.134 A 
ATOM     59  C   UNL A   1      48.256  30.632  27.005  1.00  0.00     0.134 A 
ATOM     60  F   UNL A   1      44.633  30.404  26.831  1.00  0.00    -0.206 F 
ATOM     61  C   UNL A   1      46.005  32.230  26.811  1.00  0.00     0.040 A 
ATOM     62  C   UNL A   1      48.371  32.025  27.040  1.00  0.00     0.040 A 
ATOM     63  F   UNL A   1      49.394  29.930  27.114  1.00  0.00    -0.206 F 
ATOM     64  C   UNL A   1      47.242  32.828  26.955  1.00  0.00     0.006 A 
ENDBRANCH  43  57
BRANCH  44  65
ATOM     65  C   UNL A   1      39.101  28.223  29.590  1.00  0.00     0.057 A 
ATOM     66  C   UNL A   1      38.583  28.982  28.527  1.00  0.00     0.134 A 
ATOM     67  C   UNL A   1      38.375  28.266  30.790  1.00  0.00     0.134 A 
ATOM     68  F   UNL A   1      39.234  29.063  27.357  1.00  0.00    -0.206 F 
ATOM     69  C   UNL A   1      37.428  29.761  28.656  1.00  0.00     0.040 A 
ATOM     70  C   UNL A   1      37.216  29.043  30.932  1.00  0.00     0.040 A 
ATOM     71  F   UNL A   1      38.808  27.605  31.873  1.00  0.00    -0.206 F 
ATOM     72  C   UNL A   1      36.747  29.806  29.867  1.00  0.00     0.006 A 
ENDBRANCH  44  65
BRANCH  56  73
ATOM     73  C   UNL A   1      44.495  26.264  32.034  1.00  0.00     0.057 A 
ATOM     74  C   UNL A   1      44.611  26.483  33.411  1.00  0.00     0.134 A 
ATOM     75  C   UNL A   1      44.289  24.938  31.623  1.00  0.00     0.134 A 
ATOM     76  F   UNL A   1      44.861  27.716  33.881  1.00  0.00    -0.206 F 
ATOM     77  C   UNL A   1      44.517  25.440  34.338  1.00  0.00     0.040 A 
ATOM     78  C   UNL A   1      44.161  23.889  32.541  1.00  0.00     0.040 A 
ATOM     79  F   UNL A   1      44.258  24.610  30.326  1.00  0.00    -0.206 F 
ATOM     80  C   UNL A   1      44.280  24.139  33.904  1.00  0.00     0.006 A 
ENDBRANCH  56  73
ENDBRANCH  30  31
ENDBRANCH  23  25
ENDBRANCH  22  23
ENDBRANCH  21  22
ENDBRANCH   1  21
TORSDOF 14
ENDMDL
