MODEL 1
REMARK VINA RESULT:     -13.6      0.000      0.000
REMARK SMILES O=C(OCCOC(=O)c1ccc(N2C(=O)[C@@H]3N=NC(c4ccccc4)=C3[C@H]2c2cccc(Br)c2)cc1)c1ccc(-c2c3nc(c(-c4c(F)cccc4F)c4ccc([nH]4)c(-c4c(F)cccc4F)c4nc(c(-c5c(F)cccc5F)c5ccc2[nH]5)C=C4)C=C3)cc1
REMARK SMILES IDX 4 1 3 2 2 3 1 4 37 5 38 6 90 7 39 8 89 9 40 10 41 11 42 12
REMARK SMILES IDX 83 13 43 14 88 15 82 16 84 17 44 18 87 19 81 20 80 21 45 23
REMARK SMILES IDX 71 24 54 25 70 26 55 27 58 28 69 29 85 30 56 31 57 32 68 34
REMARK SMILES IDX 86 35 59 36 46 37 47 38 52 39 48 40 49 41 51 42 53 43 50 44
REMARK SMILES IDX 72 45 73 46 78 47 74 48 75 49 77 50 79 51 76 52 60 53 61 54
REMARK SMILES IDX 66 55 62 56 63 57 65 58 67 59 64 60 5 61 6 62 7 63 8 64 9 65
REMARK SMILES IDX 10 66 36 67 11 68 35 69 12 70 13 71 14 72 27 73 16 74 15 75
REMARK SMILES IDX 26 76 17 77 19 78 18 79 28 80 29 81 34 82 30 83 32 84 31 85
REMARK SMILES IDX 33 86 20 87 21 88 25 89 22 90 24 91 23 92
REMARK H PARENT 84 22 58 33
REMARK Flexibility Score: inf
ROOT
ATOM      1  C   UNL A   1      43.036  19.524  25.404  1.00  0.00     0.275 C 
ENDROOT
BRANCH   1   2
ATOM      2  O   UNL A   1      44.320  20.178  25.421  1.00  0.00    -0.458 OA
BRANCH   2   3
ATOM      3  C   UNL A   1      44.523  21.259  24.640  1.00  0.00     0.338 C 
ATOM      4  O   UNL A   1      44.538  21.224  23.419  1.00  0.00    -0.246 OA
BRANCH   3   5
ATOM      5  C   UNL A   1      44.398  22.536  25.379  1.00  0.00     0.060 A 
ATOM      6  C   UNL A   1      45.039  22.793  26.596  1.00  0.00     0.016 A 
ATOM      7  C   UNL A   1      43.595  23.519  24.792  1.00  0.00     0.016 A 
ATOM      8  C   UNL A   1      44.776  23.966  27.285  1.00  0.00     0.010 A 
ATOM      9  C   UNL A   1      43.372  24.712  25.455  1.00  0.00     0.010 A 
ATOM     10  C   UNL A   1      43.903  24.903  26.733  1.00  0.00    -0.014 A 
BRANCH  10  11
ATOM     11  C   UNL A   1      43.670  26.159  27.446  1.00  0.00     0.031 A 
ATOM     12  C   UNL A   1      44.668  27.245  27.166  1.00  0.00     0.074 A 
ATOM     13  C   UNL A   1      42.516  26.369  28.114  1.00  0.00     0.049 A 
ATOM     14  N   UNL A   1      45.287  28.044  27.973  1.00  0.00    -0.248 NA
ATOM     15  C   UNL A   1      45.086  27.405  25.770  1.00  0.00     0.031 C 
ATOM     16  C   UNL A   1      41.363  25.470  28.241  1.00  0.00     0.029 A 
ATOM     17  N   UNL A   1      42.081  27.491  28.746  1.00  0.00    -0.354 N 
ATOM     18  C   UNL A   1      46.027  28.922  27.168  1.00  0.00     0.074 A 
ATOM     19  C   UNL A   1      45.934  28.431  25.831  1.00  0.00     0.031 C 
ATOM     20  C   UNL A   1      40.294  26.162  28.693  1.00  0.00     0.029 A 
ATOM     21  C   UNL A   1      40.718  27.509  29.027  1.00  0.00     0.049 A 
ATOM     22  H   UNL A   1      42.681  28.233  28.985  1.00  0.00     0.167 HD
ATOM     23  C   UNL A   1      46.534  30.094  27.636  1.00  0.00     0.037 A 
ATOM     24  C   UNL A   1      39.993  28.571  29.463  1.00  0.00     0.037 A 
ATOM     25  C   UNL A   1      46.701  30.035  29.058  1.00  0.00     0.049 A 
ATOM     26  C   UNL A   1      40.956  29.574  29.981  1.00  0.00     0.074 A 
ATOM     27  C   UNL A   1      47.464  29.240  29.888  1.00  0.00     0.029 A 
ATOM     28  N   UNL A   1      45.712  30.572  29.841  1.00  0.00    -0.354 N 
ATOM     29  N   UNL A   1      41.681  29.394  31.049  1.00  0.00    -0.248 NA
ATOM     30  C   UNL A   1      41.456  30.564  29.038  1.00  0.00     0.031 C 
ATOM     31  C   UNL A   1      46.586  28.914  30.961  1.00  0.00     0.029 A 
ATOM     32  C   UNL A   1      45.395  29.619  30.774  1.00  0.00     0.049 A 
ATOM     33  H   UNL A   1      45.310  31.466  29.751  1.00  0.00     0.167 HD
ATOM     34  C   UNL A   1      42.926  29.905  30.717  1.00  0.00     0.074 A 
ATOM     35  C   UNL A   1      42.711  30.668  29.486  1.00  0.00     0.031 C 
ATOM     36  C   UNL A   1      44.065  29.429  31.299  1.00  0.00     0.037 A 
BRANCH  23  37
ATOM     37  C   UNL A   1      46.526  31.400  26.879  1.00  0.00     0.057 A 
ATOM     38  C   UNL A   1      47.709  32.161  26.813  1.00  0.00     0.134 A 
ATOM     39  C   UNL A   1      45.349  32.090  26.530  1.00  0.00     0.134 A 
ATOM     40  F   UNL A   1      48.898  31.611  27.106  1.00  0.00    -0.206 F 
ATOM     41  C   UNL A   1      47.706  33.534  26.535  1.00  0.00     0.040 A 
ATOM     42  C   UNL A   1      45.338  33.453  26.216  1.00  0.00     0.040 A 
ATOM     43  F   UNL A   1      44.145  31.508  26.567  1.00  0.00    -0.206 F 
ATOM     44  C   UNL A   1      46.513  34.190  26.257  1.00  0.00     0.006 A 
ENDBRANCH  23  37
BRANCH  24  45
ATOM     45  C   UNL A   1      38.577  28.918  29.194  1.00  0.00     0.057 A 
ATOM     46  C   UNL A   1      37.631  28.968  30.229  1.00  0.00     0.134 A 
ATOM     47  C   UNL A   1      38.181  29.486  27.972  1.00  0.00     0.134 A 
ATOM     48  F   UNL A   1      37.929  28.487  31.445  1.00  0.00    -0.206 F 
ATOM     49  C   UNL A   1      36.376  29.571  30.067  1.00  0.00     0.040 A 
ATOM     50  C   UNL A   1      36.929  30.089  27.795  1.00  0.00     0.040 A 
ATOM     51  F   UNL A   1      39.028  29.556  26.934  1.00  0.00    -0.206 F 
ATOM     52  C   UNL A   1      36.027  30.147  28.850  1.00  0.00     0.006 A 
ENDBRANCH  24  45
BRANCH  36  53
ATOM     53  C   UNL A   1      43.934  28.456  32.442  1.00  0.00     0.057 A 
ATOM     54  C   UNL A   1      43.902  27.059  32.297  1.00  0.00     0.134 A 
ATOM     55  C   UNL A   1      44.039  28.947  33.746  1.00  0.00     0.134 A 
ATOM     56  F   UNL A   1      43.907  26.481  31.092  1.00  0.00    -0.206 F 
ATOM     57  C   UNL A   1      43.936  26.199  33.399  1.00  0.00     0.040 A 
ATOM     58  C   UNL A   1      44.113  28.099  34.852  1.00  0.00     0.040 A 
ATOM     59  F   UNL A   1      44.137  30.269  33.963  1.00  0.00    -0.206 F 
ATOM     60  C   UNL A   1      44.052  26.719  34.683  1.00  0.00     0.006 A 
ENDBRANCH  36  53
ENDBRANCH  10  11
ENDBRANCH   3   5
ENDBRANCH   2   3
ENDBRANCH   1   2
BRANCH   1  61
ATOM     61  C   UNL A   1      41.967  20.083  26.349  1.00  0.00     0.275 C 
BRANCH  61  62
ATOM     62  O   UNL A   1      41.149  21.086  25.707  1.00  0.00    -0.458 OA
BRANCH  62  63
ATOM     63  C   UNL A   1      40.660  22.057  26.523  1.00  0.00     0.338 C 
ATOM     64  O   UNL A   1      41.267  22.672  27.388  1.00  0.00    -0.246 OA
BRANCH  63  65
ATOM     65  C   UNL A   1      39.234  22.292  26.235  1.00  0.00     0.060 A 
ATOM     66  C   UNL A   1      38.469  21.295  25.630  1.00  0.00     0.018 A 
ATOM     67  C   UNL A   1      38.664  23.540  26.492  1.00  0.00     0.018 A 
ATOM     68  C   UNL A   1      37.121  21.539  25.323  1.00  0.00     0.027 A 
ATOM     69  C   UNL A   1      37.322  23.787  26.149  1.00  0.00     0.027 A 
ATOM     70  C   UNL A   1      36.533  22.795  25.557  1.00  0.00     0.045 A 
BRANCH  70  71
ATOM     71  N   UNL A   1      35.142  23.013  25.303  1.00  0.00    -0.299 N 
ATOM     72  C   UNL A   1      34.180  22.667  26.291  1.00  0.00     0.259 C 
ATOM     73  C   UNL A   1      34.537  22.838  23.967  1.00  0.00     0.152 C 
ATOM     74  C   UNL A   1      32.828  22.651  25.651  1.00  0.00     0.248 C 
ATOM     75  O   UNL A   1      34.407  22.329  27.437  1.00  0.00    -0.271 OA
ATOM     76  C   UNL A   1      33.360  22.025  24.414  1.00  0.00     0.021 C 
ATOM     77  N   UNL A   1      31.902  21.652  26.183  1.00  0.00    -0.170 NA
ATOM     78  C   UNL A   1      32.788  20.818  24.378  1.00  0.00     0.097 C 
ATOM     79  N   UNL A   1      31.833  20.691  25.373  1.00  0.00    -0.154 NA
BRANCH  73  80
ATOM     80  C   UNL A   1      34.031  24.154  23.316  1.00  0.00    -0.020 A 
ATOM     81  C   UNL A   1      33.388  24.150  22.050  1.00  0.00     0.006 A 
ATOM     82  C   UNL A   1      34.177  25.406  23.932  1.00  0.00     0.022 A 
ATOM     83  C   UNL A   1      32.829  25.299  21.484  1.00  0.00     0.002 A 
ATOM     84  C   UNL A   1      33.640  26.565  23.346  1.00  0.00     0.018 A 
ATOM     85  C   UNL A   1      32.949  26.513  22.138  1.00  0.00     0.016 A 
ATOM     86  Br  UNL A   1      33.854  28.240  24.202  1.00  0.00    -0.051 Br
ENDBRANCH  73  80
BRANCH  78  87
ATOM     87  C   UNL A   1      33.234  19.551  23.799  1.00  0.00     0.002 A 
ATOM     88  C   UNL A   1      32.355  18.803  23.010  1.00  0.00     0.010 A 
ATOM     89  C   UNL A   1      34.328  18.914  24.408  1.00  0.00     0.010 A 
ATOM     90  C   UNL A   1      32.522  17.420  22.901  1.00  0.00     0.001 A 
ATOM     91  C   UNL A   1      34.487  17.532  24.304  1.00  0.00     0.001 A 
ATOM     92  C   UNL A   1      33.569  16.783  23.571  1.00  0.00     0.000 A 
ENDBRANCH  78  87
ENDBRANCH  70  71
ENDBRANCH  63  65
ENDBRANCH  62  63
ENDBRANCH  61  62
ENDBRANCH   1  61
TORSDOF 14
ENDMDL
MODEL 2
REMARK VINA RESULT:     -13.0      4.209      9.263
REMARK SMILES O=C(OCCOC(=O)c1ccc(N2C(=O)[C@@H]3N=NC(c4ccccc4)=C3[C@H]2c2cccc(Br)c2)cc1)c1ccc(-c2c3nc(c(-c4c(F)cccc4F)c4ccc([nH]4)c(-c4c(F)cccc4F)c4nc(c(-c5c(F)cccc5F)c5ccc2[nH]5)C=C4)C=C3)cc1
REMARK SMILES IDX 4 1 3 2 2 3 1 4 37 5 38 6 90 7 39 8 89 9 40 10 41 11 42 12
REMARK SMILES IDX 83 13 43 14 88 15 82 16 84 17 44 18 87 19 81 20 80 21 45 23
REMARK SMILES IDX 71 24 54 25 70 26 55 27 58 28 69 29 85 30 56 31 57 32 68 34
REMARK SMILES IDX 86 35 59 36 46 37 47 38 52 39 48 40 49 41 51 42 53 43 50 44
REMARK SMILES IDX 72 45 73 46 78 47 74 48 75 49 77 50 79 51 76 52 60 53 61 54
REMARK SMILES IDX 66 55 62 56 63 57 65 58 67 59 64 60 5 61 6 62 7 63 8 64 9 65
REMARK SMILES IDX 10 66 36 67 11 68 35 69 12 70 13 71 14 72 27 73 16 74 15 75
REMARK SMILES IDX 26 76 17 77 19 78 18 79 28 80 29 81 34 82 30 83 32 84 31 85
REMARK SMILES IDX 33 86 20 87 21 88 25 89 22 90 24 91 23 92
REMARK H PARENT 84 22 58 33
REMARK Flexibility Score: inf
ROOT
ATOM      1  C   UNL A   1      33.682  35.211  30.097  1.00  0.00     0.275 C 
ENDROOT
BRANCH   1   2
ATOM      2  O   UNL A   1      33.389  34.553  31.345  1.00  0.00    -0.458 OA
BRANCH   2   3
ATOM      3  C   UNL A   1      34.298  34.588  32.341  1.00  0.00     0.338 C 
ATOM      4  O   UNL A   1      34.075  35.050  33.449  1.00  0.00    -0.246 OA
BRANCH   3   5
ATOM      5  C   UNL A   1      35.472  33.724  32.081  1.00  0.00     0.060 A 
ATOM      6  C   UNL A   1      35.420  32.326  32.078  1.00  0.00     0.016 A 
ATOM      7  C   UNL A   1      36.680  34.379  31.819  1.00  0.00     0.016 A 
ATOM      8  C   UNL A   1      36.585  31.588  31.946  1.00  0.00     0.010 A 
ATOM      9  C   UNL A   1      37.836  33.642  31.635  1.00  0.00     0.010 A 
ATOM     10  C   UNL A   1      37.800  32.252  31.773  1.00  0.00    -0.014 A 
BRANCH  10  11
ATOM     11  C   UNL A   1      39.017  31.462  31.586  1.00  0.00     0.031 A 
ATOM     12  C   UNL A   1      39.803  31.198  32.837  1.00  0.00     0.074 A 
ATOM     13  C   UNL A   1      39.263  30.842  30.412  1.00  0.00     0.049 A 
ATOM     14  N   UNL A   1      41.073  31.286  33.064  1.00  0.00    -0.248 NA
ATOM     15  C   UNL A   1      39.031  30.854  34.034  1.00  0.00     0.031 C 
ATOM     16  C   UNL A   1      38.433  30.824  29.202  1.00  0.00     0.029 A 
ATOM     17  N   UNL A   1      40.275  29.995  30.084  1.00  0.00    -0.354 N 
ATOM     18  C   UNL A   1      41.272  30.832  34.375  1.00  0.00     0.074 A 
ATOM     19  C   UNL A   1      39.978  30.660  34.952  1.00  0.00     0.031 C 
ATOM     20  C   UNL A   1      38.850  29.836  28.378  1.00  0.00     0.029 A 
ATOM     21  C   UNL A   1      40.059  29.250  28.929  1.00  0.00     0.049 A 
ATOM     22  H   UNL A   1      41.096  29.916  30.620  1.00  0.00     0.167 HD
ATOM     23  C   UNL A   1      42.495  30.467  34.846  1.00  0.00     0.037 A 
ATOM     24  C   UNL A   1      40.801  28.203  28.487  1.00  0.00     0.037 A 
ATOM     25  C   UNL A   1      43.533  31.105  34.093  1.00  0.00     0.049 A 
ATOM     26  C   UNL A   1      42.099  28.254  29.205  1.00  0.00     0.074 A 
ATOM     27  C   UNL A   1      43.878  32.424  33.886  1.00  0.00     0.029 A 
ATOM     28  N   UNL A   1      44.117  30.392  33.077  1.00  0.00    -0.354 N 
ATOM     29  N   UNL A   1      42.983  29.195  29.030  1.00  0.00    -0.248 NA
ATOM     30  C   UNL A   1      42.192  27.526  30.461  1.00  0.00     0.031 C 
ATOM     31  C   UNL A   1      44.170  32.495  32.495  1.00  0.00     0.029 A 
ATOM     32  C   UNL A   1      44.097  31.202  31.972  1.00  0.00     0.049 A 
ATOM     33  H   UNL A   1      44.479  29.478  33.132  1.00  0.00     0.167 HD
ATOM     34  C   UNL A   1      43.454  29.474  30.304  1.00  0.00     0.074 A 
ATOM     35  C   UNL A   1      42.975  28.371  31.139  1.00  0.00     0.031 C 
ATOM     36  C   UNL A   1      43.937  30.710  30.625  1.00  0.00     0.037 A 
BRANCH  23  37
ATOM     37  C   UNL A   1      42.758  29.268  35.726  1.00  0.00     0.057 A 
ATOM     38  C   UNL A   1      43.718  29.367  36.750  1.00  0.00     0.134 A 
ATOM     39  C   UNL A   1      42.376  27.956  35.385  1.00  0.00     0.134 A 
ATOM     40  F   UNL A   1      44.151  30.565  37.175  1.00  0.00    -0.206 F 
ATOM     41  C   UNL A   1      44.338  28.243  37.312  1.00  0.00     0.040 A 
ATOM     42  C   UNL A   1      42.963  26.826  35.965  1.00  0.00     0.040 A 
ATOM     43  F   UNL A   1      41.492  27.700  34.416  1.00  0.00    -0.206 F 
ATOM     44  C   UNL A   1      43.976  26.966  36.902  1.00  0.00     0.006 A 
ENDBRANCH  23  37
BRANCH  24  45
ATOM     45  C   UNL A   1      40.376  27.000  27.733  1.00  0.00     0.057 A 
ATOM     46  C   UNL A   1      40.957  26.673  26.498  1.00  0.00     0.134 A 
ATOM     47  C   UNL A   1      39.602  25.993  28.333  1.00  0.00     0.134 A 
ATOM     48  F   UNL A   1      41.745  27.553  25.863  1.00  0.00    -0.206 F 
ATOM     49  C   UNL A   1      40.801  25.410  25.909  1.00  0.00     0.040 A 
ATOM     50  C   UNL A   1      39.435  24.728  27.754  1.00  0.00     0.040 A 
ATOM     51  F   UNL A   1      39.057  26.170  29.546  1.00  0.00    -0.206 F 
ATOM     52  C   UNL A   1      40.048  24.428  26.545  1.00  0.00     0.006 A 
ENDBRANCH  24  45
BRANCH  36  53
ATOM     53  C   UNL A   1      44.113  31.720  29.522  1.00  0.00     0.057 A 
ATOM     54  C   UNL A   1      43.169  32.703  29.185  1.00  0.00     0.134 A 
ATOM     55  C   UNL A   1      45.366  31.821  28.911  1.00  0.00     0.134 A 
ATOM     56  F   UNL A   1      41.977  32.762  29.787  1.00  0.00    -0.206 F 
ATOM     57  C   UNL A   1      43.448  33.713  28.259  1.00  0.00     0.040 A 
ATOM     58  C   UNL A   1      45.671  32.846  28.014  1.00  0.00     0.040 A 
ATOM     59  F   UNL A   1      46.344  30.956  29.227  1.00  0.00    -0.206 F 
ATOM     60  C   UNL A   1      44.708  33.793  27.677  1.00  0.00     0.006 A 
ENDBRANCH  36  53
ENDBRANCH  10  11
ENDBRANCH   3   5
ENDBRANCH   2   3
ENDBRANCH   1   2
BRANCH   1  61
ATOM     61  C   UNL A   1      33.479  34.388  28.821  1.00  0.00     0.275 C 
BRANCH  61  62
ATOM     62  O   UNL A   1      33.657  32.973  29.056  1.00  0.00    -0.458 OA
BRANCH  62  63
ATOM     63  C   UNL A   1      34.766  32.419  28.501  1.00  0.00     0.338 C 
ATOM     64  O   UNL A   1      35.924  32.791  28.632  1.00  0.00    -0.246 OA
BRANCH  63  65
ATOM     65  C   UNL A   1      34.395  31.258  27.672  1.00  0.00     0.060 A 
ATOM     66  C   UNL A   1      33.133  31.194  27.084  1.00  0.00     0.018 A 
ATOM     67  C   UNL A   1      35.274  30.182  27.541  1.00  0.00     0.018 A 
ATOM     68  C   UNL A   1      32.771  30.068  26.327  1.00  0.00     0.027 A 
ATOM     69  C   UNL A   1      34.890  29.042  26.810  1.00  0.00     0.027 A 
ATOM     70  C   UNL A   1      33.635  28.966  26.197  1.00  0.00     0.045 A 
BRANCH  70  71
ATOM     71  N   UNL A   1      33.285  27.853  25.370  1.00  0.00    -0.299 N 
ATOM     72  C   UNL A   1      33.554  27.896  23.974  1.00  0.00     0.259 C 
ATOM     73  C   UNL A   1      32.072  27.039  25.596  1.00  0.00     0.152 C 
ATOM     74  C   UNL A   1      32.780  26.803  23.308  1.00  0.00     0.248 C 
ATOM     75  O   UNL A   1      34.207  28.738  23.388  1.00  0.00    -0.271 OA
ATOM     76  C   UNL A   1      31.597  27.035  24.175  1.00  0.00     0.021 C 
ATOM     77  N   UNL A   1      32.300  27.114  21.963  1.00  0.00    -0.170 NA
ATOM     78  C   UNL A   1      30.650  27.469  23.338  1.00  0.00     0.097 C 
ATOM     79  N   UNL A   1      31.070  27.375  22.021  1.00  0.00    -0.154 NA
BRANCH  73  80
ATOM     80  C   UNL A   1      32.356  25.579  26.044  1.00  0.00    -0.020 A 
ATOM     81  C   UNL A   1      31.308  24.726  26.480  1.00  0.00     0.006 A 
ATOM     82  C   UNL A   1      33.645  25.026  26.043  1.00  0.00     0.022 A 
ATOM     83  C   UNL A   1      31.511  23.379  26.790  1.00  0.00     0.002 A 
ATOM     84  C   UNL A   1      33.851  23.678  26.384  1.00  0.00     0.018 A 
ATOM     85  C   UNL A   1      32.789  22.849  26.735  1.00  0.00     0.016 A 
ATOM     86  Br  UNL A   1      35.603  22.961  26.373  1.00  0.00    -0.051 Br
ENDBRANCH  73  80
BRANCH  78  87
ATOM     87  C   UNL A   1      29.500  28.349  23.547  1.00  0.00     0.002 A 
ATOM     88  C   UNL A   1      28.205  27.830  23.449  1.00  0.00     0.010 A 
ATOM     89  C   UNL A   1      29.706  29.729  23.381  1.00  0.00     0.010 A 
ATOM     90  C   UNL A   1      27.143  28.672  23.108  1.00  0.00     0.001 A 
ATOM     91  C   UNL A   1      28.644  30.563  23.032  1.00  0.00     0.001 A 
ATOM     92  C   UNL A   1      27.368  30.029  22.871  1.00  0.00     0.000 A 
ENDBRANCH  78  87
ENDBRANCH  70  71
ENDBRANCH  63  65
ENDBRANCH  62  63
ENDBRANCH  61  62
ENDBRANCH   1  61
TORSDOF 14
ENDMDL
MODEL 3
REMARK VINA RESULT:     -12.8      4.132      8.833
REMARK SMILES O=C(OCCOC(=O)c1ccc(N2C(=O)[C@@H]3N=NC(c4ccccc4)=C3[C@H]2c2cccc(Br)c2)cc1)c1ccc(-c2c3nc(c(-c4c(F)cccc4F)c4ccc([nH]4)c(-c4c(F)cccc4F)c4nc(c(-c5c(F)cccc5F)c5ccc2[nH]5)C=C4)C=C3)cc1
REMARK SMILES IDX 4 1 3 2 2 3 1 4 37 5 38 6 90 7 39 8 89 9 40 10 41 11 42 12
REMARK SMILES IDX 83 13 43 14 88 15 82 16 84 17 44 18 87 19 81 20 80 21 45 23
REMARK SMILES IDX 71 24 54 25 70 26 55 27 58 28 69 29 85 30 56 31 57 32 68 34
REMARK SMILES IDX 86 35 59 36 46 37 47 38 52 39 48 40 49 41 51 42 53 43 50 44
REMARK SMILES IDX 72 45 73 46 78 47 74 48 75 49 77 50 79 51 76 52 60 53 61 54
REMARK SMILES IDX 66 55 62 56 63 57 65 58 67 59 64 60 5 61 6 62 7 63 8 64 9 65
REMARK SMILES IDX 10 66 36 67 11 68 35 69 12 70 13 71 14 72 27 73 16 74 15 75
REMARK SMILES IDX 26 76 17 77 19 78 18 79 28 80 29 81 34 82 30 83 32 84 31 85
REMARK SMILES IDX 33 86 20 87 21 88 25 89 22 90 24 91 23 92
REMARK H PARENT 84 22 58 33
REMARK Flexibility Score: inf
ROOT
ATOM      1  C   UNL A   1      35.879  33.308  30.933  1.00  0.00     0.275 C 
ENDROOT
BRANCH   1   2
ATOM      2  O   UNL A   1      36.835  32.245  30.752  1.00  0.00    -0.458 OA
BRANCH   2   3
ATOM      3  C   UNL A   1      37.744  32.332  29.760  1.00  0.00     0.338 C 
ATOM      4  O   UNL A   1      37.962  33.352  29.124  1.00  0.00    -0.246 OA
BRANCH   3   5
ATOM      5  C   UNL A   1      38.679  31.184  29.731  1.00  0.00     0.060 A 
ATOM      6  C   UNL A   1      38.268  29.854  29.589  1.00  0.00     0.016 A 
ATOM      7  C   UNL A   1      40.040  31.487  29.844  1.00  0.00     0.016 A 
ATOM      8  C   UNL A   1      39.193  28.827  29.693  1.00  0.00     0.010 A 
ATOM      9  C   UNL A   1      40.970  30.465  29.895  1.00  0.00     0.010 A 
ATOM     10  C   UNL A   1      40.539  29.136  29.894  1.00  0.00    -0.014 A 
BRANCH  10  11
ATOM     11  C   UNL A   1      41.513  28.046  29.953  1.00  0.00     0.031 A 
ATOM     12  C   UNL A   1      42.107  27.796  31.309  1.00  0.00     0.074 A 
ATOM     13  C   UNL A   1      41.671  27.205  28.910  1.00  0.00     0.049 A 
ATOM     14  N   UNL A   1      43.335  27.597  31.663  1.00  0.00    -0.248 NA
ATOM     15  C   UNL A   1      41.185  27.853  32.448  1.00  0.00     0.031 C 
ATOM     16  C   UNL A   1      40.957  27.203  27.627  1.00  0.00     0.029 A 
ATOM     17  N   UNL A   1      42.443  26.090  28.813  1.00  0.00    -0.354 N 
ATOM     18  C   UNL A   1      43.309  27.322  33.038  1.00  0.00     0.074 A 
ATOM     19  C   UNL A   1      41.977  27.576  33.483  1.00  0.00     0.031 C 
ATOM     20  C   UNL A   1      41.156  26.025  26.996  1.00  0.00     0.029 A 
ATOM     21  C   UNL A   1      42.121  25.249  27.753  1.00  0.00     0.049 A 
ATOM     22  H   UNL A   1      43.172  25.893  29.444  1.00  0.00     0.167 HD
ATOM     23  C   UNL A   1      44.353  26.741  33.688  1.00  0.00     0.037 A 
ATOM     24  C   UNL A   1      42.590  23.992  27.542  1.00  0.00     0.037 A 
ATOM     25  C   UNL A   1      45.576  26.969  32.977  1.00  0.00     0.049 A 
ATOM     26  C   UNL A   1      43.798  23.829  28.388  1.00  0.00     0.074 A 
ATOM     27  C   UNL A   1      46.273  28.109  32.634  1.00  0.00     0.029 A 
ATOM     28  N   UNL A   1      46.022  25.979  32.139  1.00  0.00    -0.354 N 
ATOM     29  N   UNL A   1      44.911  24.477  28.188  1.00  0.00    -0.248 NA
ATOM     30  C   UNL A   1      43.602  23.311  29.734  1.00  0.00     0.031 C 
ATOM     31  C   UNL A   1      46.674  27.881  31.287  1.00  0.00     0.029 A 
ATOM     32  C   UNL A   1      46.299  26.582  30.939  1.00  0.00     0.049 A 
ATOM     33  H   UNL A   1      46.123  25.025  32.356  1.00  0.00     0.167 HD
ATOM     34  C   UNL A   1      45.344  24.828  29.457  1.00  0.00     0.074 A 
ATOM     35  C   UNL A   1      44.530  24.029  30.374  1.00  0.00     0.031 C 
ATOM     36  C   UNL A   1      46.113  25.937  29.661  1.00  0.00     0.037 A 
BRANCH  23  37
ATOM     37  C   UNL A   1      44.223  25.671  34.745  1.00  0.00     0.057 A 
ATOM     38  C   UNL A   1      44.755  25.906  36.027  1.00  0.00     0.134 A 
ATOM     39  C   UNL A   1      43.925  24.325  34.456  1.00  0.00     0.134 A 
ATOM     40  F   UNL A   1      45.065  27.149  36.427  1.00  0.00    -0.206 F 
ATOM     41  C   UNL A   1      45.076  24.866  36.910  1.00  0.00     0.040 A 
ATOM     42  C   UNL A   1      44.208  23.282  35.344  1.00  0.00     0.040 A 
ATOM     43  F   UNL A   1      43.437  23.942  33.271  1.00  0.00    -0.206 F 
ATOM     44  C   UNL A   1      44.823  23.546  36.560  1.00  0.00     0.006 A 
ENDBRANCH  23  37
BRANCH  24  45
ATOM     45  C   UNL A   1      41.917  22.830  26.915  1.00  0.00     0.057 A 
ATOM     46  C   UNL A   1      42.648  21.857  26.215  1.00  0.00     0.134 A 
ATOM     47  C   UNL A   1      40.589  22.493  27.227  1.00  0.00     0.134 A 
ATOM     48  F   UNL A   1      43.935  22.068  25.904  1.00  0.00    -0.206 F 
ATOM     49  C   UNL A   1      42.100  20.614  25.871  1.00  0.00     0.040 A 
ATOM     50  C   UNL A   1      40.028  21.256  26.887  1.00  0.00     0.040 A 
ATOM     51  F   UNL A   1      39.819  23.318  27.953  1.00  0.00    -0.206 F 
ATOM     52  C   UNL A   1      40.789  20.304  26.220  1.00  0.00     0.006 A 
ENDBRANCH  24  45
BRANCH  36  53
ATOM     53  C   UNL A   1      46.632  26.682  28.459  1.00  0.00     0.057 A 
ATOM     54  C   UNL A   1      45.968  27.753  27.839  1.00  0.00     0.134 A 
ATOM     55  C   UNL A   1      47.940  26.428  28.037  1.00  0.00     0.134 A 
ATOM     56  F   UNL A   1      44.755  28.147  28.238  1.00  0.00    -0.206 F 
ATOM     57  C   UNL A   1      46.565  28.508  26.826  1.00  0.00     0.040 A 
ATOM     58  C   UNL A   1      48.562  27.198  27.053  1.00  0.00     0.040 A 
ATOM     59  F   UNL A   1      48.663  25.460  28.623  1.00  0.00    -0.206 F 
ATOM     60  C   UNL A   1      47.872  28.238  26.436  1.00  0.00     0.006 A 
ENDBRANCH  36  53
ENDBRANCH  10  11
ENDBRANCH   3   5
ENDBRANCH   2   3
ENDBRANCH   1   2
BRANCH   1  61
ATOM     61  C   UNL A   1      34.477  33.078  30.361  1.00  0.00     0.275 C 
BRANCH  61  62
ATOM     62  O   UNL A   1      34.428  31.918  29.499  1.00  0.00    -0.458 OA
BRANCH  62  63
ATOM     63  C   UNL A   1      34.503  32.172  28.167  1.00  0.00     0.338 C 
ATOM     64  O   UNL A   1      34.881  33.203  27.629  1.00  0.00    -0.246 OA
BRANCH  63  65
ATOM     65  C   UNL A   1      34.044  31.000  27.399  1.00  0.00     0.060 A 
ATOM     66  C   UNL A   1      32.797  31.016  26.776  1.00  0.00     0.018 A 
ATOM     67  C   UNL A   1      34.820  29.840  27.363  1.00  0.00     0.018 A 
ATOM     68  C   UNL A   1      32.349  29.882  26.079  1.00  0.00     0.027 A 
ATOM     69  C   UNL A   1      34.348  28.696  26.692  1.00  0.00     0.027 A 
ATOM     70  C   UNL A   1      33.107  28.699  26.045  1.00  0.00     0.045 A 
BRANCH  70  71
ATOM     71  N   UNL A   1      32.674  27.572  25.278  1.00  0.00    -0.299 N 
ATOM     72  C   UNL A   1      33.188  27.369  23.968  1.00  0.00     0.259 C 
ATOM     73  C   UNL A   1      31.293  27.049  25.334  1.00  0.00     0.152 C 
ATOM     74  C   UNL A   1      32.324  26.366  23.270  1.00  0.00     0.248 C 
ATOM     75  O   UNL A   1      34.101  27.978  23.445  1.00  0.00    -0.271 OA
ATOM     76  C   UNL A   1      31.086  26.943  23.854  1.00  0.00     0.021 C 
ATOM     77  N   UNL A   1      32.168  26.576  21.831  1.00  0.00    -0.170 NA
ATOM     78  C   UNL A   1      30.419  27.434  22.806  1.00  0.00     0.097 C 
ATOM     79  N   UNL A   1      31.034  27.078  21.615  1.00  0.00    -0.154 NA
BRANCH  73  80
ATOM     80  C   UNL A   1      31.168  25.638  25.971  1.00  0.00    -0.020 A 
ATOM     81  C   UNL A   1      29.900  25.034  26.178  1.00  0.00     0.006 A 
ATOM     82  C   UNL A   1      32.284  24.890  26.372  1.00  0.00     0.022 A 
ATOM     83  C   UNL A   1      29.755  23.727  26.650  1.00  0.00     0.002 A 
ATOM     84  C   UNL A   1      32.134  23.585  26.875  1.00  0.00     0.018 A 
ATOM     85  C   UNL A   1      30.879  22.995  26.995  1.00  0.00     0.016 A 
ATOM     86  Br  UNL A   1      33.660  22.600  27.407  1.00  0.00    -0.051 Br
ENDBRANCH  73  80
BRANCH  78  87
ATOM     87  C   UNL A   1      29.471  28.541  22.691  1.00  0.00     0.002 A 
ATOM     88  C   UNL A   1      29.890  29.844  22.976  1.00  0.00     0.010 A 
ATOM     89  C   UNL A   1      28.103  28.226  22.755  1.00  0.00     0.010 A 
ATOM     90  C   UNL A   1      28.959  30.798  23.398  1.00  0.00     0.001 A 
ATOM     91  C   UNL A   1      27.179  29.178  23.185  1.00  0.00     0.001 A 
ATOM     92  C   UNL A   1      27.612  30.456  23.530  1.00  0.00     0.000 A 
ENDBRANCH  78  87
ENDBRANCH  70  71
ENDBRANCH  63  65
ENDBRANCH  62  63
ENDBRANCH  61  62
ENDBRANCH   1  61
TORSDOF 14
ENDMDL
