MODEL 1
REMARK VINA RESULT:      -9.4      0.000      0.000
REMARK SMILES O=C(/C=C/c1cccs1)NCC(=O)OCCOC(=O)c1ccc(-c2c3nc(c(-c4c(F)cccc4F)c4ccc([nH]4)c(-c4c(F)cccc4F)c4nc(c(-c5c(F)cccc5F)c5ccc2[nH]5)C=C4)C=C3)cc1
REMARK SMILES IDX 15 1 14 2 12 3 13 4 11 5 10 6 1 7 2 8 3 10 4 11 5 12 6 13
REMARK SMILES IDX 9 14 7 15 8 16 16 17 17 18 18 19 19 20 20 21 21 22 73 23
REMARK SMILES IDX 22 24 72 25 23 26 24 27 25 28 66 29 26 30 71 31 65 32 67 33
REMARK SMILES IDX 27 34 70 35 64 36 63 37 28 39 54 40 37 41 53 42 38 43 41 44
REMARK SMILES IDX 52 45 68 46 39 47 40 48 51 50 69 51 42 52 29 53 30 54 35 55
REMARK SMILES IDX 31 56 32 57 34 58 36 59 33 60 55 61 56 62 61 63 57 64 58 65
REMARK SMILES IDX 60 66 62 67 59 68 43 69 44 70 49 71 45 72 46 73 48 74 50 75
REMARK SMILES IDX 47 76
REMARK H PARENT 10 9 67 38 41 49
REMARK Flexibility Score: inf
ROOT
ATOM      1  C   UNL A   1      32.861  36.534  31.159  1.00  0.00     0.274 C 
ENDROOT
BRANCH   1   2
ATOM      2  O   UNL A   1      33.548  35.622  32.032  1.00  0.00    -0.461 OA
BRANCH   2   3
ATOM      3  C   UNL A   1      34.278  36.169  33.043  1.00  0.00     0.325 C 
ATOM      4  O   UNL A   1      34.621  37.344  33.105  1.00  0.00    -0.250 OA
BRANCH   3   5
ATOM      5  C   UNL A   1      34.650  35.140  34.102  1.00  0.00     0.239 C 
BRANCH   5   6
ATOM      6  N   UNL A   1      35.203  33.896  33.586  1.00  0.00    -0.342 N 
ATOM      7  O   UNL A   1      37.087  34.004  34.864  1.00  0.00    -0.270 OA
ATOM      8  C   UNL A   1      36.386  33.408  34.052  1.00  0.00     0.244 C 
ATOM      9  H   UNL A   1      34.714  33.400  32.889  1.00  0.00     0.164 HD
BRANCH   8  10
ATOM     10  C   UNL A   1      36.837  32.082  33.569  1.00  0.00     0.072 C 
ATOM     11  C   UNL A   1      37.981  31.437  33.849  1.00  0.00     0.024 C 
BRANCH  11  12
ATOM     12  C   UNL A   1      38.256  30.175  33.237  1.00  0.00     0.027 A 
ATOM     13  C   UNL A   1      37.420  29.328  32.523  1.00  0.00     0.020 A 
ATOM     14  S   UNL A   1      39.841  29.505  33.327  1.00  0.00    -0.144 S 
ATOM     15  C   UNL A   1      38.060  28.129  32.097  1.00  0.00     0.012 A 
ATOM     16  C   UNL A   1      39.379  28.091  32.485  1.00  0.00     0.065 A 
ENDBRANCH  11  12
ENDBRANCH   8  10
ENDBRANCH   5   6
ENDBRANCH   3   5
ENDBRANCH   2   3
ENDBRANCH   1   2
BRANCH   1  17
ATOM     17  C   UNL A   1      32.941  36.027  29.717  1.00  0.00     0.275 C 
BRANCH  17  18
ATOM     18  O   UNL A   1      32.505  34.658  29.608  1.00  0.00    -0.458 OA
BRANCH  18  19
ATOM     19  C   UNL A   1      32.927  33.986  28.510  1.00  0.00     0.338 C 
ATOM     20  O   UNL A   1      32.377  33.905  27.424  1.00  0.00    -0.246 OA
BRANCH  19  21
ATOM     21  C   UNL A   1      34.269  33.442  28.772  1.00  0.00     0.060 A 
ATOM     22  C   UNL A   1      34.450  32.636  29.901  1.00  0.00     0.016 A 
ATOM     23  C   UNL A   1      35.350  33.765  27.949  1.00  0.00     0.016 A 
ATOM     24  C   UNL A   1      35.719  32.161  30.222  1.00  0.00     0.010 A 
ATOM     25  C   UNL A   1      36.620  33.284  28.271  1.00  0.00     0.010 A 
ATOM     26  C   UNL A   1      36.815  32.489  29.415  1.00  0.00    -0.014 A 
BRANCH  26  27
ATOM     27  C   UNL A   1      38.180  32.046  29.783  1.00  0.00     0.031 A 
ATOM     28  C   UNL A   1      38.688  30.724  29.287  1.00  0.00     0.074 A 
ATOM     29  C   UNL A   1      38.948  32.817  30.573  1.00  0.00     0.049 A 
ATOM     30  N   UNL A   1      39.781  30.084  29.612  1.00  0.00    -0.248 NA
ATOM     31  C   UNL A   1      37.852  30.030  28.297  1.00  0.00     0.031 C 
ATOM     32  C   UNL A   1      38.581  34.142  31.075  1.00  0.00     0.029 A 
ATOM     33  N   UNL A   1      40.190  32.587  31.106  1.00  0.00    -0.354 N 
ATOM     34  C   UNL A   1      39.754  28.900  28.886  1.00  0.00     0.074 A 
ATOM     35  C   UNL A   1      38.531  28.906  28.112  1.00  0.00     0.031 C 
ATOM     36  C   UNL A   1      39.573  34.601  31.855  1.00  0.00     0.029 A 
ATOM     37  C   UNL A   1      40.616  33.584  31.948  1.00  0.00     0.049 A 
ATOM     38  H   UNL A   1      40.725  31.785  30.904  1.00  0.00     0.167 HD
ATOM     39  C   UNL A   1      40.668  27.901  28.871  1.00  0.00     0.037 A 
ATOM     40  C   UNL A   1      41.706  33.650  32.737  1.00  0.00     0.037 A 
ATOM     41  C   UNL A   1      41.888  27.910  29.634  1.00  0.00     0.049 A 
ATOM     42  C   UNL A   1      42.672  32.497  32.756  1.00  0.00     0.074 A 
ATOM     43  C   UNL A   1      42.886  26.951  29.676  1.00  0.00     0.029 A 
ATOM     44  N   UNL A   1      42.276  28.932  30.487  1.00  0.00    -0.354 N 
ATOM     45  N   UNL A   1      42.634  31.378  32.075  1.00  0.00    -0.248 NA
ATOM     46  C   UNL A   1      43.826  32.611  33.660  1.00  0.00     0.031 C 
ATOM     47  C   UNL A   1      43.860  27.376  30.585  1.00  0.00     0.029 A 
ATOM     48  C   UNL A   1      43.489  28.617  31.077  1.00  0.00     0.049 A 
ATOM     49  H   UNL A   1      41.765  29.757  30.650  1.00  0.00     0.167 HD
ATOM     50  C   UNL A   1      43.769  30.669  32.445  1.00  0.00     0.074 A 
ATOM     51  C   UNL A   1      44.477  31.484  33.409  1.00  0.00     0.031 C 
ATOM     52  C   UNL A   1      44.188  29.451  32.021  1.00  0.00     0.037 A 
BRANCH  39  53
ATOM     53  C   UNL A   1      40.367  26.701  28.025  1.00  0.00     0.057 A 
ATOM     54  C   UNL A   1      40.943  26.522  26.761  1.00  0.00     0.134 A 
ATOM     55  C   UNL A   1      39.518  25.693  28.498  1.00  0.00     0.134 A 
ATOM     56  F   UNL A   1      41.754  27.458  26.244  1.00  0.00    -0.206 F 
ATOM     57  C   UNL A   1      40.670  25.391  25.990  1.00  0.00     0.040 A 
ATOM     58  C   UNL A   1      39.255  24.547  27.746  1.00  0.00     0.040 A 
ATOM     59  F   UNL A   1      38.938  25.801  29.703  1.00  0.00    -0.206 F 
ATOM     60  C   UNL A   1      39.828  24.397  26.485  1.00  0.00     0.006 A 
ENDBRANCH  39  53
BRANCH  40  61
ATOM     61  C   UNL A   1      41.923  34.838  33.599  1.00  0.00     0.057 A 
ATOM     62  C   UNL A   1      41.337  34.930  34.866  1.00  0.00     0.134 A 
ATOM     63  C   UNL A   1      42.723  35.907  33.177  1.00  0.00     0.134 A 
ATOM     64  F   UNL A   1      40.543  33.947  35.315  1.00  0.00    -0.206 F 
ATOM     65  C   UNL A   1      41.530  36.046  35.681  1.00  0.00     0.040 A 
ATOM     66  C   UNL A   1      42.944  37.019  33.991  1.00  0.00     0.040 A 
ATOM     67  F   UNL A   1      43.313  35.879  31.973  1.00  0.00    -0.206 F 
ATOM     68  C   UNL A   1      42.342  37.094  35.245  1.00  0.00     0.006 A 
ENDBRANCH  40  61
BRANCH  52  69
ATOM     69  C   UNL A   1      45.491  28.944  32.558  1.00  0.00     0.057 A 
ATOM     70  C   UNL A   1      46.709  29.233  31.934  1.00  0.00     0.134 A 
ATOM     71  C   UNL A   1      45.529  28.213  33.753  1.00  0.00     0.134 A 
ATOM     72  F   UNL A   1      46.737  29.918  30.782  1.00  0.00    -0.206 F 
ATOM     73  C   UNL A   1      47.922  28.807  32.477  1.00  0.00     0.040 A 
ATOM     74  C   UNL A   1      46.736  27.799  34.316  1.00  0.00     0.040 A 
ATOM     75  F   UNL A   1      44.394  27.910  34.402  1.00  0.00    -0.206 F 
ATOM     76  C   UNL A   1      47.938  28.096  33.677  1.00  0.00     0.006 A 
ENDBRANCH  52  69
ENDBRANCH  26  27
ENDBRANCH  19  21
ENDBRANCH  18  19
ENDBRANCH  17  18
ENDBRANCH   1  17
TORSDOF 14
ENDMDL
MODEL 2
REMARK VINA RESULT:      -9.0      5.975     10.970
REMARK SMILES O=C(/C=C/c1cccs1)NCC(=O)OCCOC(=O)c1ccc(-c2c3nc(c(-c4c(F)cccc4F)c4ccc([nH]4)c(-c4c(F)cccc4F)c4nc(c(-c5c(F)cccc5F)c5ccc2[nH]5)C=C4)C=C3)cc1
REMARK SMILES IDX 15 1 14 2 12 3 13 4 11 5 10 6 1 7 2 8 3 10 4 11 5 12 6 13
REMARK SMILES IDX 9 14 7 15 8 16 16 17 17 18 18 19 19 20 20 21 21 22 73 23
REMARK SMILES IDX 22 24 72 25 23 26 24 27 25 28 66 29 26 30 71 31 65 32 67 33
REMARK SMILES IDX 27 34 70 35 64 36 63 37 28 39 54 40 37 41 53 42 38 43 41 44
REMARK SMILES IDX 52 45 68 46 39 47 40 48 51 50 69 51 42 52 29 53 30 54 35 55
REMARK SMILES IDX 31 56 32 57 34 58 36 59 33 60 55 61 56 62 61 63 57 64 58 65
REMARK SMILES IDX 60 66 62 67 59 68 43 69 44 70 49 71 45 72 46 73 48 74 50 75
REMARK SMILES IDX 47 76
REMARK H PARENT 10 9 67 38 41 49
REMARK Flexibility Score: inf
ROOT
ATOM      1  C   UNL A   1      44.596  18.780  25.358  1.00  0.00     0.274 C 
ENDROOT
BRANCH   1   2
ATOM      2  O   UNL A   1      44.804  20.185  25.575  1.00  0.00    -0.461 OA
BRANCH   2   3
ATOM      3  C   UNL A   1      45.111  20.938  24.483  1.00  0.00     0.325 C 
ATOM      4  O   UNL A   1      44.680  20.743  23.352  1.00  0.00    -0.250 OA
BRANCH   3   5
ATOM      5  C   UNL A   1      46.083  22.062  24.817  1.00  0.00     0.239 C 
BRANCH   5   6
ATOM      6  N   UNL A   1      45.464  23.289  25.298  1.00  0.00    -0.342 N 
ATOM      7  O   UNL A   1      46.941  24.655  24.224  1.00  0.00    -0.270 OA
ATOM      8  C   UNL A   1      45.939  24.508  24.919  1.00  0.00     0.244 C 
ATOM      9  H   UNL A   1      44.692  23.237  25.906  1.00  0.00     0.164 HD
BRANCH   8  10
ATOM     10  C   UNL A   1      45.197  25.716  25.350  1.00  0.00     0.072 C 
ATOM     11  C   UNL A   1      43.901  26.009  25.165  1.00  0.00     0.024 C 
BRANCH  11  12
ATOM     12  C   UNL A   1      43.382  27.262  25.617  1.00  0.00     0.027 A 
ATOM     13  C   UNL A   1      42.113  27.806  25.474  1.00  0.00     0.020 A 
ATOM     14  S   UNL A   1      44.394  28.342  26.498  1.00  0.00    -0.144 S 
ATOM     15  C   UNL A   1      41.990  29.108  26.038  1.00  0.00     0.012 A 
ATOM     16  C   UNL A   1      43.167  29.527  26.614  1.00  0.00     0.065 A 
ENDBRANCH  11  12
ENDBRANCH   8  10
ENDBRANCH   5   6
ENDBRANCH   3   5
ENDBRANCH   2   3
ENDBRANCH   1   2
BRANCH   1  17
ATOM     17  C   UNL A   1      43.106  18.506  25.141  1.00  0.00     0.275 C 
BRANCH  17  18
ATOM     18  O   UNL A   1      42.327  18.830  26.309  1.00  0.00    -0.458 OA
BRANCH  18  19
ATOM     19  C   UNL A   1      41.248  19.621  26.104  1.00  0.00     0.338 C 
ATOM     20  O   UNL A   1      40.179  19.314  25.600  1.00  0.00    -0.246 OA
BRANCH  19  21
ATOM     21  C   UNL A   1      41.498  20.937  26.714  1.00  0.00     0.060 A 
ATOM     22  C   UNL A   1      41.880  21.993  25.880  1.00  0.00     0.016 A 
ATOM     23  C   UNL A   1      41.413  21.117  28.096  1.00  0.00     0.016 A 
ATOM     24  C   UNL A   1      42.194  23.235  26.429  1.00  0.00     0.010 A 
ATOM     25  C   UNL A   1      41.724  22.363  28.643  1.00  0.00     0.010 A 
ATOM     26  C   UNL A   1      42.128  23.425  27.814  1.00  0.00    -0.014 A 
BRANCH  26  27
ATOM     27  C   UNL A   1      42.525  24.720  28.415  1.00  0.00     0.031 A 
ATOM     28  C   UNL A   1      41.497  25.799  28.594  1.00  0.00     0.074 A 
ATOM     29  C   UNL A   1      43.803  24.932  28.776  1.00  0.00     0.049 A 
ATOM     30  N   UNL A   1      41.661  27.046  28.954  1.00  0.00    -0.248 NA
ATOM     31  C   UNL A   1      40.099  25.424  28.331  1.00  0.00     0.031 C 
ATOM     32  C   UNL A   1      44.878  23.943  28.695  1.00  0.00     0.029 A 
ATOM     33  N   UNL A   1      44.415  26.056  29.267  1.00  0.00    -0.354 N 
ATOM     34  C   UNL A   1      40.393  27.612  28.937  1.00  0.00     0.074 A 
ATOM     35  C   UNL A   1      39.471  26.576  28.521  1.00  0.00     0.031 C 
ATOM     36  C   UNL A   1      46.022  24.510  29.110  1.00  0.00     0.029 A 
ATOM     37  C   UNL A   1      45.770  25.911  29.434  1.00  0.00     0.049 A 
ATOM     38  H   UNL A   1      43.930  26.887  29.480  1.00  0.00     0.167 HD
ATOM     39  C   UNL A   1      40.035  28.883  29.239  1.00  0.00     0.037 A 
ATOM     40  C   UNL A   1      46.707  26.817  29.772  1.00  0.00     0.037 A 
ATOM     41  C   UNL A   1      40.956  29.902  29.665  1.00  0.00     0.049 A 
ATOM     42  C   UNL A   1      46.295  28.240  30.036  1.00  0.00     0.074 A 
ATOM     43  C   UNL A   1      40.689  31.217  30.009  1.00  0.00     0.029 A 
ATOM     44  N   UNL A   1      42.323  29.720  29.807  1.00  0.00    -0.354 N 
ATOM     45  N   UNL A   1      45.096  28.769  30.007  1.00  0.00    -0.248 NA
ATOM     46  C   UNL A   1      47.364  29.192  30.368  1.00  0.00     0.031 C 
ATOM     47  C   UNL A   1      41.901  31.841  30.321  1.00  0.00     0.029 A 
ATOM     48  C   UNL A   1      42.916  30.903  30.213  1.00  0.00     0.049 A 
ATOM     49  H   UNL A   1      42.800  28.876  29.643  1.00  0.00     0.167 HD
ATOM     50  C   UNL A   1      45.262  30.106  30.345  1.00  0.00     0.074 A 
ATOM     51  C   UNL A   1      46.677  30.307  30.576  1.00  0.00     0.031 C 
ATOM     52  C   UNL A   1      44.325  31.079  30.456  1.00  0.00     0.037 A 
BRANCH  39  53
ATOM     53  C   UNL A   1      38.588  29.247  29.091  1.00  0.00     0.057 A 
ATOM     54  C   UNL A   1      38.039  29.615  27.857  1.00  0.00     0.134 A 
ATOM     55  C   UNL A   1      37.726  29.195  30.194  1.00  0.00     0.134 A 
ATOM     56  F   UNL A   1      38.814  29.699  26.765  1.00  0.00    -0.206 F 
ATOM     57  C   UNL A   1      36.686  29.934  27.728  1.00  0.00     0.040 A 
ATOM     58  C   UNL A   1      36.367  29.490  30.073  1.00  0.00     0.040 A 
ATOM     59  F   UNL A   1      38.189  28.845  31.403  1.00  0.00    -0.206 F 
ATOM     60  C   UNL A   1      35.845  29.866  28.838  1.00  0.00     0.006 A 
ENDBRANCH  39  53
BRANCH  40  61
ATOM     61  C   UNL A   1      48.133  26.414  29.846  1.00  0.00     0.057 A 
ATOM     62  C   UNL A   1      48.983  26.551  28.743  1.00  0.00     0.134 A 
ATOM     63  C   UNL A   1      48.679  25.884  31.021  1.00  0.00     0.134 A 
ATOM     64  F   UNL A   1      48.510  27.031  27.584  1.00  0.00    -0.206 F 
ATOM     65  C   UNL A   1      50.323  26.167  28.802  1.00  0.00     0.040 A 
ATOM     66  C   UNL A   1      50.024  25.518  31.102  1.00  0.00     0.040 A 
ATOM     67  F   UNL A   1      47.917  25.728  32.113  1.00  0.00    -0.206 F 
ATOM     68  C   UNL A   1      50.849  25.654  29.988  1.00  0.00     0.006 A 
ENDBRANCH  40  61
BRANCH  52  69
ATOM     69  C   UNL A   1      44.788  32.437  30.888  1.00  0.00     0.057 A 
ATOM     70  C   UNL A   1      45.149  33.422  29.962  1.00  0.00     0.134 A 
ATOM     71  C   UNL A   1      44.806  32.781  32.246  1.00  0.00     0.134 A 
ATOM     72  F   UNL A   1      45.164  33.149  28.649  1.00  0.00    -0.206 F 
ATOM     73  C   UNL A   1      45.519  34.703  30.374  1.00  0.00     0.040 A 
ATOM     74  C   UNL A   1      45.155  34.064  32.667  1.00  0.00     0.040 A 
ATOM     75  F   UNL A   1      44.463  31.881  33.180  1.00  0.00    -0.206 F 
ATOM     76  C   UNL A   1      45.514  35.030  31.729  1.00  0.00     0.006 A 
ENDBRANCH  52  69
ENDBRANCH  26  27
ENDBRANCH  19  21
ENDBRANCH  18  19
ENDBRANCH  17  18
ENDBRANCH   1  17
TORSDOF 14
ENDMDL
MODEL 3
REMARK VINA RESULT:      -8.7      3.889      8.133
REMARK SMILES O=C(/C=C/c1cccs1)NCC(=O)OCCOC(=O)c1ccc(-c2c3nc(c(-c4c(F)cccc4F)c4ccc([nH]4)c(-c4c(F)cccc4F)c4nc(c(-c5c(F)cccc5F)c5ccc2[nH]5)C=C4)C=C3)cc1
REMARK SMILES IDX 15 1 14 2 12 3 13 4 11 5 10 6 1 7 2 8 3 10 4 11 5 12 6 13
REMARK SMILES IDX 9 14 7 15 8 16 16 17 17 18 18 19 19 20 20 21 21 22 73 23
REMARK SMILES IDX 22 24 72 25 23 26 24 27 25 28 66 29 26 30 71 31 65 32 67 33
REMARK SMILES IDX 27 34 70 35 64 36 63 37 28 39 54 40 37 41 53 42 38 43 41 44
REMARK SMILES IDX 52 45 68 46 39 47 40 48 51 50 69 51 42 52 29 53 30 54 35 55
REMARK SMILES IDX 31 56 32 57 34 58 36 59 33 60 55 61 56 62 61 63 57 64 58 65
REMARK SMILES IDX 60 66 62 67 59 68 43 69 44 70 49 71 45 72 46 73 48 74 50 75
REMARK SMILES IDX 47 76
REMARK H PARENT 10 9 67 38 41 49
REMARK Flexibility Score: inf
ROOT
ATOM      1  C   UNL A   1      35.094  35.037  33.629  1.00  0.00     0.274 C 
ENDROOT
BRANCH   1   2
ATOM      2  O   UNL A   1      34.732  35.832  32.488  1.00  0.00    -0.461 OA
BRANCH   2   3
ATOM      3  C   UNL A   1      33.454  35.712  32.034  1.00  0.00     0.325 C 
ATOM      4  O   UNL A   1      32.472  35.516  32.743  1.00  0.00    -0.250 OA
BRANCH   3   5
ATOM      5  C   UNL A   1      33.372  35.827  30.518  1.00  0.00     0.239 C 
BRANCH   5   6
ATOM      6  N   UNL A   1      33.173  34.569  29.813  1.00  0.00    -0.342 N 
ATOM      7  O   UNL A   1      34.407  35.194  28.001  1.00  0.00    -0.270 OA
ATOM      8  C   UNL A   1      33.754  34.345  28.602  1.00  0.00     0.244 C 
ATOM      9  H   UNL A   1      32.611  33.870  30.219  1.00  0.00     0.164 HD
BRANCH   8  10
ATOM     10  C   UNL A   1      33.607  33.004  27.990  1.00  0.00     0.072 C 
ATOM     11  C   UNL A   1      34.314  31.891  28.240  1.00  0.00     0.024 C 
BRANCH  11  12
ATOM     12  C   UNL A   1      34.050  30.697  27.500  1.00  0.00     0.027 A 
ATOM     13  C   UNL A   1      34.866  29.603  27.248  1.00  0.00     0.020 A 
ATOM     14  S   UNL A   1      32.506  30.464  26.771  1.00  0.00    -0.144 S 
ATOM     15  C   UNL A   1      34.249  28.613  26.431  1.00  0.00     0.012 A 
ATOM     16  C   UNL A   1      32.965  28.967  26.087  1.00  0.00     0.065 A 
ENDBRANCH  11  12
ENDBRANCH   8  10
ENDBRANCH   5   6
ENDBRANCH   3   5
ENDBRANCH   2   3
ENDBRANCH   1   2
BRANCH   1  17
ATOM     17  C   UNL A   1      36.274  34.130  33.272  1.00  0.00     0.275 C 
BRANCH  17  18
ATOM     18  O   UNL A   1      35.899  32.739  33.274  1.00  0.00    -0.458 OA
BRANCH  18  19
ATOM     19  C   UNL A   1      35.539  32.219  32.076  1.00  0.00     0.338 C 
ATOM     20  O   UNL A   1      34.466  32.326  31.505  1.00  0.00    -0.246 OA
BRANCH  19  21
ATOM     21  C   UNL A   1      36.715  31.581  31.462  1.00  0.00     0.060 A 
ATOM     22  C   UNL A   1      37.579  30.852  32.286  1.00  0.00     0.016 A 
ATOM     23  C   UNL A   1      36.995  31.743  30.104  1.00  0.00     0.016 A 
ATOM     24  C   UNL A   1      38.740  30.293  31.755  1.00  0.00     0.010 A 
ATOM     25  C   UNL A   1      38.156  31.179  29.574  1.00  0.00     0.010 A 
ATOM     26  C   UNL A   1      39.041  30.460  30.398  1.00  0.00    -0.014 A 
BRANCH  26  27
ATOM     27  C   UNL A   1      40.305  29.929  29.837  1.00  0.00     0.031 A 
ATOM     28  C   UNL A   1      41.481  30.844  29.661  1.00  0.00     0.074 A 
ATOM     29  C   UNL A   1      40.387  28.638  29.468  1.00  0.00     0.049 A 
ATOM     30  N   UNL A   1      42.618  30.623  29.055  1.00  0.00    -0.248 NA
ATOM     31  C   UNL A   1      41.357  32.189  30.245  1.00  0.00     0.031 C 
ATOM     32  C   UNL A   1      39.329  27.642  29.636  1.00  0.00     0.029 A 
ATOM     33  N   UNL A   1      41.405  27.949  28.860  1.00  0.00    -0.354 N 
ATOM     34  C   UNL A   1      43.337  31.807  29.160  1.00  0.00     0.074 A 
ATOM     35  C   UNL A   1      42.503  32.746  29.880  1.00  0.00     0.031 C 
ATOM     36  C   UNL A   1      39.748  26.472  29.129  1.00  0.00     0.029 A 
ATOM     37  C   UNL A   1      41.079  26.649  28.556  1.00  0.00     0.049 A 
ATOM     38  H   UNL A   1      42.284  28.346  28.661  1.00  0.00     0.167 HD
ATOM     39  C   UNL A   1      44.579  32.080  28.696  1.00  0.00     0.037 A 
ATOM     40  C   UNL A   1      41.763  25.722  27.860  1.00  0.00     0.037 A 
ATOM     41  C   UNL A   1      45.406  31.136  27.993  1.00  0.00     0.049 A 
ATOM     42  C   UNL A   1      43.112  26.071  27.294  1.00  0.00     0.074 A 
ATOM     43  C   UNL A   1      46.686  31.313  27.494  1.00  0.00     0.029 A 
ATOM     44  N   UNL A   1      45.034  29.834  27.692  1.00  0.00    -0.354 N 
ATOM     45  N   UNL A   1      43.780  27.195  27.389  1.00  0.00    -0.248 NA
ATOM     46  C   UNL A   1      43.796  25.029  26.516  1.00  0.00     0.031 C 
ATOM     47  C   UNL A   1      47.073  30.130  26.857  1.00  0.00     0.029 A 
ATOM     48  C   UNL A   1      46.051  29.204  26.996  1.00  0.00     0.049 A 
ATOM     49  H   UNL A   1      44.175  29.421  27.936  1.00  0.00     0.167 HD
ATOM     50  C   UNL A   1      44.972  26.987  26.710  1.00  0.00     0.074 A 
ATOM     51  C   UNL A   1      44.938  25.629  26.208  1.00  0.00     0.031 C 
ATOM     52  C   UNL A   1      46.005  27.844  26.521  1.00  0.00     0.037 A 
BRANCH  39  53
ATOM     53  C   UNL A   1      45.107  33.468  28.907  1.00  0.00     0.057 A 
ATOM     54  C   UNL A   1      45.890  33.801  30.019  1.00  0.00     0.134 A 
ATOM     55  C   UNL A   1      44.857  34.474  27.965  1.00  0.00     0.134 A 
ATOM     56  F   UNL A   1      46.153  32.887  30.965  1.00  0.00    -0.206 F 
ATOM     57  C   UNL A   1      46.391  35.092  30.195  1.00  0.00     0.040 A 
ATOM     58  C   UNL A   1      45.371  35.762  28.119  1.00  0.00     0.040 A 
ATOM     59  F   UNL A   1      44.117  34.218  26.876  1.00  0.00    -0.206 F 
ATOM     60  C   UNL A   1      46.137  36.075  29.240  1.00  0.00     0.006 A 
ENDBRANCH  39  53
BRANCH  40  61
ATOM     61  C   UNL A   1      41.166  24.382  27.631  1.00  0.00     0.057 A 
ATOM     62  C   UNL A   1      41.618  23.259  28.333  1.00  0.00     0.134 A 
ATOM     63  C   UNL A   1      40.131  24.194  26.707  1.00  0.00     0.134 A 
ATOM     64  F   UNL A   1      42.622  23.374  29.214  1.00  0.00    -0.206 F 
ATOM     65  C   UNL A   1      41.068  21.995  28.119  1.00  0.00     0.040 A 
ATOM     66  C   UNL A   1      39.555  22.939  26.501  1.00  0.00     0.040 A 
ATOM     67  F   UNL A   1      39.654  25.231  26.004  1.00  0.00    -0.206 F 
ATOM     68  C   UNL A   1      40.028  21.834  27.204  1.00  0.00     0.006 A 
ENDBRANCH  40  61
BRANCH  52  69
ATOM     69  C   UNL A   1      47.202  27.331  25.781  1.00  0.00     0.057 A 
ATOM     70  C   UNL A   1      47.364  27.535  24.406  1.00  0.00     0.134 A 
ATOM     71  C   UNL A   1      48.237  26.682  26.467  1.00  0.00     0.134 A 
ATOM     72  F   UNL A   1      46.403  28.139  23.691  1.00  0.00    -0.206 F 
ATOM     73  C   UNL A   1      48.512  27.107  23.738  1.00  0.00     0.040 A 
ATOM     74  C   UNL A   1      49.397  26.268  25.814  1.00  0.00     0.040 A 
ATOM     75  F   UNL A   1      48.143  26.463  27.788  1.00  0.00    -0.206 F 
ATOM     76  C   UNL A   1      49.537  26.479  24.444  1.00  0.00     0.006 A 
ENDBRANCH  52  69
ENDBRANCH  26  27
ENDBRANCH  19  21
ENDBRANCH  18  19
ENDBRANCH  17  18
ENDBRANCH   1  17
TORSDOF 14
ENDMDL
