MODEL 1
REMARK VINA RESULT:      -9.2      0.000      0.000
REMARK SMILES C[C@@]([NH2+]CCCO)(C(=O)OCCOC(=O)c1ccc(-c2c3nc(c(-c4c(F)cccc4F)c4ccc([nH]4)c(-c4c(F)cccc4F)c4nc(c(-c5c(F)cccc5F)c5ccc2[nH]5)C=C4)C=C3)cc1)C(F)(F)F
REMARK SMILES IDX 10 1 8 2 9 3 2 4 1 5 3 6 4 9 5 10 6 11 7 12 70 14 71 15
REMARK SMILES IDX 72 16 73 17 11 18 12 19 13 20 14 21 15 22 16 23 17 24 69 25
REMARK SMILES IDX 18 26 68 27 19 28 20 29 21 30 62 31 22 32 67 33 61 34 63 35
REMARK SMILES IDX 23 36 66 37 60 38 59 39 24 41 50 42 33 43 49 44 34 45 37 46
REMARK SMILES IDX 48 47 64 48 35 49 36 50 47 52 65 53 38 54 25 55 26 56 31 57
REMARK SMILES IDX 27 58 28 59 30 60 32 61 29 62 51 63 52 64 57 65 53 66 54 67
REMARK SMILES IDX 56 68 58 69 55 70 39 71 40 72 45 73 41 74 42 75 44 76 46 77
REMARK SMILES IDX 43 78
REMARK H PARENT 3 7 3 8 7 13 63 40 37 51
REMARK Flexibility Score: inf
ROOT
ATOM      1  O   UNL A   1      33.236  34.480  30.127  1.00  0.00    -0.457 OA
ENDROOT
BRANCH   1   2
ATOM      2  C   UNL A   1      33.408  35.664  30.781  1.00  0.00     0.377 C 
ATOM      3  O   UNL A   1      33.061  36.742  30.312  1.00  0.00    -0.244 OA
BRANCH   2   4
ATOM      4  C   UNL A   1      34.123  35.512  32.132  1.00  0.00     0.287 C 
ATOM      5  C   UNL A   1      33.657  34.240  32.876  1.00  0.00     0.103 C 
BRANCH   4   6
ATOM      6  N   UNL A   1      35.619  35.327  31.989  1.00  0.00    -0.325 N 
ATOM      7  H   UNL A   1      36.043  36.250  32.079  1.00  0.00     0.347 HD
ATOM      8  H   UNL A   1      35.722  34.863  31.086  1.00  0.00     0.347 HD
BRANCH   6   9
ATOM      9  C   UNL A   1      36.319  34.440  32.920  1.00  0.00     0.264 C 
BRANCH   9  10
ATOM     10  C   UNL A   1      37.649  33.807  32.490  1.00  0.00     0.089 C 
BRANCH  10  11
ATOM     11  C   UNL A   1      38.422  34.578  31.428  1.00  0.00     0.162 C 
BRANCH  11  12
ATOM     12  O   UNL A   1      37.725  34.578  30.191  1.00  0.00    -0.396 OA
ATOM     13  H   UNL A   1      36.787  34.386  30.347  1.00  0.00     0.210 HD
ENDBRANCH  11  12
ENDBRANCH  10  11
ENDBRANCH   9  10
ENDBRANCH   6   9
ENDBRANCH   4   6
BRANCH   4  14
ATOM     14  C   UNL A   1      33.669  36.709  32.995  1.00  0.00     0.455 C 
ATOM     15  F   UNL A   1      32.327  36.869  32.978  1.00  0.00    -0.164 F 
ATOM     16  F   UNL A   1      34.028  36.511  34.292  1.00  0.00    -0.164 F 
ATOM     17  F   UNL A   1      34.222  37.883  32.631  1.00  0.00    -0.164 F 
ENDBRANCH   4  14
ENDBRANCH   2   4
ENDBRANCH   1   2
BRANCH   1  18
ATOM     18  C   UNL A   1      33.986  34.304  28.905  1.00  0.00     0.274 C 
BRANCH  18  19
ATOM     19  C   UNL A   1      34.421  32.853  28.724  1.00  0.00     0.275 C 
BRANCH  19  20
ATOM     20  O   UNL A   1      35.733  32.673  29.285  1.00  0.00    -0.458 OA
BRANCH  20  21
ATOM     21  C   UNL A   1      35.848  31.695  30.210  1.00  0.00     0.338 C 
ATOM     22  O   UNL A   1      35.169  31.536  31.209  1.00  0.00    -0.246 OA
BRANCH  21  23
ATOM     23  C   UNL A   1      36.942  30.783  29.837  1.00  0.00     0.060 A 
ATOM     24  C   UNL A   1      37.649  30.111  30.831  1.00  0.00     0.016 A 
ATOM     25  C   UNL A   1      37.372  30.727  28.513  1.00  0.00     0.016 A 
ATOM     26  C   UNL A   1      38.856  29.486  30.532  1.00  0.00     0.010 A 
ATOM     27  C   UNL A   1      38.539  30.023  28.197  1.00  0.00     0.010 A 
ATOM     28  C   UNL A   1      39.326  29.451  29.213  1.00  0.00    -0.014 A 
BRANCH  28  29
ATOM     29  C   UNL A   1      40.696  28.945  28.924  1.00  0.00     0.031 A 
ATOM     30  C   UNL A   1      41.880  29.855  29.132  1.00  0.00     0.074 A 
ATOM     31  C   UNL A   1      40.902  27.671  28.544  1.00  0.00     0.049 A 
ATOM     32  N   UNL A   1      43.133  29.673  28.803  1.00  0.00    -0.248 NA
ATOM     33  C   UNL A   1      41.614  31.147  29.786  1.00  0.00     0.031 C 
ATOM     34  C   UNL A   1      39.863  26.655  28.372  1.00  0.00     0.029 A 
ATOM     35  N   UNL A   1      42.068  27.004  28.261  1.00  0.00    -0.354 N 
ATOM     36  C   UNL A   1      43.786  30.853  29.138  1.00  0.00     0.074 A 
ATOM     37  C   UNL A   1      42.797  31.739  29.711  1.00  0.00     0.031 C 
ATOM     38  C   UNL A   1      40.442  25.482  28.066  1.00  0.00     0.029 A 
ATOM     39  C   UNL A   1      41.885  25.678  27.953  1.00  0.00     0.049 A 
ATOM     40  H   UNL A   1      42.953  27.436  28.277  1.00  0.00     0.167 HD
ATOM     41  C   UNL A   1      45.093  31.173  28.978  1.00  0.00     0.037 A 
ATOM     42  C   UNL A   1      42.776  24.733  27.600  1.00  0.00     0.037 A 
ATOM     43  C   UNL A   1      46.096  30.266  28.489  1.00  0.00     0.049 A 
ATOM     44  C   UNL A   1      44.227  25.098  27.466  1.00  0.00     0.074 A 
ATOM     45  C   UNL A   1      47.442  30.501  28.268  1.00  0.00     0.029 A 
ATOM     46  N   UNL A   1      45.865  28.935  28.183  1.00  0.00    -0.354 N 
ATOM     47  N   UNL A   1      44.813  26.250  27.680  1.00  0.00    -0.248 NA
ATOM     48  C   UNL A   1      45.138  24.033  27.019  1.00  0.00     0.031 C 
ATOM     49  C   UNL A   1      48.027  29.308  27.825  1.00  0.00     0.029 A 
ATOM     50  C   UNL A   1      47.047  28.330  27.790  1.00  0.00     0.049 A 
ATOM     51  H   UNL A   1      44.992  28.485  28.237  1.00  0.00     0.167 HD
ATOM     52  C   UNL A   1      46.156  26.051  27.395  1.00  0.00     0.074 A 
ATOM     53  C   UNL A   1      46.305  24.661  27.018  1.00  0.00     0.031 C 
ATOM     54  C   UNL A   1      47.175  26.944  27.430  1.00  0.00     0.037 A 
BRANCH  41  55
ATOM     55  C   UNL A   1      45.498  32.577  29.299  1.00  0.00     0.057 A 
ATOM     56  C   UNL A   1      45.434  33.607  28.353  1.00  0.00     0.134 A 
ATOM     57  C   UNL A   1      45.952  32.903  30.584  1.00  0.00     0.134 A 
ATOM     58  F   UNL A   1      45.028  33.354  27.101  1.00  0.00    -0.206 F 
ATOM     59  C   UNL A   1      45.825  34.910  28.670  1.00  0.00     0.040 A 
ATOM     60  C   UNL A   1      46.327  34.205  30.918  1.00  0.00     0.040 A 
ATOM     61  F   UNL A   1      46.036  31.961  31.535  1.00  0.00    -0.206 F 
ATOM     62  C   UNL A   1      46.267  35.212  29.958  1.00  0.00     0.006 A 
ENDBRANCH  41  55
BRANCH  42  63
ATOM     63  C   UNL A   1      42.319  23.347  27.334  1.00  0.00     0.057 A 
ATOM     64  C   UNL A   1      42.099  22.902  26.026  1.00  0.00     0.134 A 
ATOM     65  C   UNL A   1      42.089  22.441  28.375  1.00  0.00     0.134 A 
ATOM     66  F   UNL A   1      42.279  23.735  24.990  1.00  0.00    -0.206 F 
ATOM     67  C   UNL A   1      41.658  21.605  25.761  1.00  0.00     0.040 A 
ATOM     68  C   UNL A   1      41.669  21.135  28.123  1.00  0.00     0.040 A 
ATOM     69  F   UNL A   1      42.281  22.810  29.650  1.00  0.00    -0.206 F 
ATOM     70  C   UNL A   1      41.448  20.715  26.813  1.00  0.00     0.006 A 
ENDBRANCH  42  63
BRANCH  54  71
ATOM     71  C   UNL A   1      48.536  26.435  27.072  1.00  0.00     0.057 A 
ATOM     72  C   UNL A   1      49.366  25.836  28.026  1.00  0.00     0.134 A 
ATOM     73  C   UNL A   1      49.009  26.522  25.757  1.00  0.00     0.134 A 
ATOM     74  F   UNL A   1      48.972  25.736  29.304  1.00  0.00    -0.206 F 
ATOM     75  C   UNL A   1      50.631  25.354  27.688  1.00  0.00     0.040 A 
ATOM     76  C   UNL A   1      50.267  26.031  25.405  1.00  0.00     0.040 A 
ATOM     77  F   UNL A   1      48.257  27.083  24.799  1.00  0.00    -0.206 F 
ATOM     78  C   UNL A   1      51.083  25.448  26.372  1.00  0.00     0.006 A 
ENDBRANCH  54  71
ENDBRANCH  28  29
ENDBRANCH  21  23
ENDBRANCH  20  21
ENDBRANCH  19  20
ENDBRANCH  18  19
ENDBRANCH   1  18
TORSDOF 17
ENDMDL
MODEL 2
REMARK VINA RESULT:      -9.2      3.814      7.508
REMARK SMILES C[C@@]([NH2+]CCCO)(C(=O)OCCOC(=O)c1ccc(-c2c3nc(c(-c4c(F)cccc4F)c4ccc([nH]4)c(-c4c(F)cccc4F)c4nc(c(-c5c(F)cccc5F)c5ccc2[nH]5)C=C4)C=C3)cc1)C(F)(F)F
REMARK SMILES IDX 10 1 8 2 9 3 2 4 1 5 3 6 4 9 5 10 6 11 7 12 70 14 71 15
REMARK SMILES IDX 72 16 73 17 11 18 12 19 13 20 14 21 15 22 16 23 17 24 69 25
REMARK SMILES IDX 18 26 68 27 19 28 20 29 21 30 62 31 22 32 67 33 61 34 63 35
REMARK SMILES IDX 23 36 66 37 60 38 59 39 24 41 50 42 33 43 49 44 34 45 37 46
REMARK SMILES IDX 48 47 64 48 35 49 36 50 47 52 65 53 38 54 25 55 26 56 31 57
REMARK SMILES IDX 27 58 28 59 30 60 32 61 29 62 51 63 52 64 57 65 53 66 54 67
REMARK SMILES IDX 56 68 58 69 55 70 39 71 40 72 45 73 41 74 42 75 44 76 46 77
REMARK SMILES IDX 43 78
REMARK H PARENT 3 7 3 8 7 13 63 40 37 51
REMARK Flexibility Score: inf
ROOT
ATOM      1  O   UNL A   1      33.732  34.178  30.289  1.00  0.00    -0.457 OA
ENDROOT
BRANCH   1   2
ATOM      2  C   UNL A   1      34.978  34.231  30.839  1.00  0.00     0.377 C 
ATOM      3  O   UNL A   1      36.005  34.229  30.168  1.00  0.00    -0.244 OA
BRANCH   2   4
ATOM      4  C   UNL A   1      34.963  34.242  32.375  1.00  0.00     0.287 C 
ATOM      5  C   UNL A   1      36.319  34.714  32.948  1.00  0.00     0.103 C 
BRANCH   4   6
ATOM      6  N   UNL A   1      33.960  35.221  32.947  1.00  0.00    -0.325 N 
ATOM      7  H   UNL A   1      33.598  34.808  33.807  1.00  0.00     0.347 HD
ATOM      8  H   UNL A   1      33.292  35.356  32.188  1.00  0.00     0.347 HD
BRANCH   6   9
ATOM      9  C   UNL A   1      34.398  36.578  33.275  1.00  0.00     0.264 C 
BRANCH   9  10
ATOM     10  C   UNL A   1      33.694  37.770  32.613  1.00  0.00     0.089 C 
BRANCH  10  11
ATOM     11  C   UNL A   1      33.316  37.571  31.151  1.00  0.00     0.162 C 
BRANCH  11  12
ATOM     12  O   UNL A   1      32.150  36.770  31.030  1.00  0.00    -0.396 OA
ATOM     13  H   UNL A   1      32.400  35.875  30.752  1.00  0.00     0.210 HD
ENDBRANCH  11  12
ENDBRANCH  10  11
ENDBRANCH   9  10
ENDBRANCH   6   9
ENDBRANCH   4   6
BRANCH   4  14
ATOM     14  C   UNL A   1      34.798  32.770  32.813  1.00  0.00     0.455 C 
ATOM     15  F   UNL A   1      35.735  32.398  33.712  1.00  0.00    -0.164 F 
ATOM     16  F   UNL A   1      33.587  32.594  33.405  1.00  0.00    -0.164 F 
ATOM     17  F   UNL A   1      34.843  31.891  31.792  1.00  0.00    -0.164 F 
ENDBRANCH   4  14
ENDBRANCH   2   4
ENDBRANCH   1   2
BRANCH   1  18
ATOM     18  C   UNL A   1      33.583  34.760  28.975  1.00  0.00     0.274 C 
BRANCH  18  19
ATOM     19  C   UNL A   1      32.929  33.780  28.005  1.00  0.00     0.275 C 
BRANCH  19  20
ATOM     20  O   UNL A   1      33.946  32.989  27.367  1.00  0.00    -0.458 OA
BRANCH  20  21
ATOM     21  C   UNL A   1      33.870  31.655  27.576  1.00  0.00     0.338 C 
ATOM     22  O   UNL A   1      32.878  30.952  27.518  1.00  0.00    -0.246 OA
BRANCH  21  23
ATOM     23  C   UNL A   1      35.208  31.123  27.881  1.00  0.00     0.060 A 
ATOM     24  C   UNL A   1      35.346  29.801  28.298  1.00  0.00     0.016 A 
ATOM     25  C   UNL A   1      36.303  31.984  27.913  1.00  0.00     0.016 A 
ATOM     26  C   UNL A   1      36.539  29.366  28.867  1.00  0.00     0.010 A 
ATOM     27  C   UNL A   1      37.529  31.522  28.403  1.00  0.00     0.010 A 
ATOM     28  C   UNL A   1      37.640  30.228  28.944  1.00  0.00    -0.014 A 
BRANCH  28  29
ATOM     29  C   UNL A   1      38.849  29.824  29.713  1.00  0.00     0.031 A 
ATOM     30  C   UNL A   1      39.837  28.870  29.091  1.00  0.00     0.074 A 
ATOM     31  C   UNL A   1      39.111  30.347  30.925  1.00  0.00     0.049 A 
ATOM     32  N   UNL A   1      40.869  28.274  29.633  1.00  0.00    -0.248 NA
ATOM     33  C   UNL A   1      39.627  28.531  27.674  1.00  0.00     0.031 C 
ATOM     34  C   UNL A   1      38.287  31.335  31.622  1.00  0.00     0.029 A 
ATOM     35  N   UNL A   1      40.168  30.138  31.775  1.00  0.00    -0.354 N 
ATOM     36  C   UNL A   1      41.381  27.436  28.650  1.00  0.00     0.074 A 
ATOM     37  C   UNL A   1      40.559  27.611  27.472  1.00  0.00     0.031 C 
ATOM     38  C   UNL A   1      38.895  31.685  32.767  1.00  0.00     0.029 A 
ATOM     39  C   UNL A   1      40.116  30.898  32.918  1.00  0.00     0.049 A 
ATOM     40  H   UNL A   1      40.895  29.501  31.585  1.00  0.00     0.167 HD
ATOM     41  C   UNL A   1      42.438  26.593  28.722  1.00  0.00     0.037 A 
ATOM     42  C   UNL A   1      40.946  30.942  33.976  1.00  0.00     0.037 A 
ATOM     43  C   UNL A   1      43.309  26.479  29.861  1.00  0.00     0.049 A 
ATOM     44  C   UNL A   1      42.137  30.025  34.021  1.00  0.00     0.074 A 
ATOM     45  C   UNL A   1      44.393  25.637  30.042  1.00  0.00     0.029 A 
ATOM     46  N   UNL A   1      43.216  27.264  30.999  1.00  0.00    -0.354 N 
ATOM     47  N   UNL A   1      42.544  29.157  33.128  1.00  0.00    -0.248 NA
ATOM     48  C   UNL A   1      42.969  30.081  35.232  1.00  0.00     0.031 C 
ATOM     49  C   UNL A   1      44.956  25.912  31.294  1.00  0.00     0.029 A 
ATOM     50  C   UNL A   1      44.232  26.938  31.880  1.00  0.00     0.049 A 
ATOM     51  H   UNL A   1      42.530  27.951  31.158  1.00  0.00     0.167 HD
ATOM     52  C   UNL A   1      43.678  28.564  33.667  1.00  0.00     0.074 A 
ATOM     53  C   UNL A   1      43.909  29.189  34.952  1.00  0.00     0.031 C 
ATOM     54  C   UNL A   1      44.451  27.579  33.149  1.00  0.00     0.037 A 
BRANCH  41  55
ATOM     55  C   UNL A   1      42.681  25.698  27.547  1.00  0.00     0.057 A 
ATOM     56  C   UNL A   1      43.541  26.055  26.503  1.00  0.00     0.134 A 
ATOM     57  C   UNL A   1      42.049  24.450  27.470  1.00  0.00     0.134 A 
ATOM     58  F   UNL A   1      44.159  27.245  26.509  1.00  0.00    -0.206 F 
ATOM     59  C   UNL A   1      43.749  25.209  25.411  1.00  0.00     0.040 A 
ATOM     60  C   UNL A   1      42.263  23.588  26.394  1.00  0.00     0.040 A 
ATOM     61  F   UNL A   1      41.213  24.050  28.440  1.00  0.00    -0.206 F 
ATOM     62  C   UNL A   1      43.112  23.969  25.358  1.00  0.00     0.006 A 
ENDBRANCH  41  55
BRANCH  42  63
ATOM     63  C   UNL A   1      40.676  31.879  35.093  1.00  0.00     0.057 A 
ATOM     64  C   UNL A   1      41.339  33.108  35.176  1.00  0.00     0.134 A 
ATOM     65  C   UNL A   1      39.755  31.570  36.100  1.00  0.00     0.134 A 
ATOM     66  F   UNL A   1      42.251  33.448  34.252  1.00  0.00    -0.206 F 
ATOM     67  C   UNL A   1      41.103  33.995  36.227  1.00  0.00     0.040 A 
ATOM     68  C   UNL A   1      39.494  32.456  37.145  1.00  0.00     0.040 A 
ATOM     69  F   UNL A   1      39.089  30.406  36.075  1.00  0.00    -0.206 F 
ATOM     70  C   UNL A   1      40.173  33.672  37.212  1.00  0.00     0.006 A 
ENDBRANCH  42  63
BRANCH  54  71
ATOM     71  C   UNL A   1      45.626  27.139  33.964  1.00  0.00     0.057 A 
ATOM     72  C   UNL A   1      45.524  26.090  34.885  1.00  0.00     0.134 A 
ATOM     73  C   UNL A   1      46.875  27.753  33.809  1.00  0.00     0.134 A 
ATOM     74  F   UNL A   1      44.350  25.473  35.085  1.00  0.00    -0.206 F 
ATOM     75  C   UNL A   1      46.623  25.675  35.637  1.00  0.00     0.040 A 
ATOM     76  C   UNL A   1      47.984  27.337  34.546  1.00  0.00     0.040 A 
ATOM     77  F   UNL A   1      47.034  28.761  32.939  1.00  0.00    -0.206 F 
ATOM     78  C   UNL A   1      47.859  26.298  35.466  1.00  0.00     0.006 A 
ENDBRANCH  54  71
ENDBRANCH  28  29
ENDBRANCH  21  23
ENDBRANCH  20  21
ENDBRANCH  19  20
ENDBRANCH  18  19
ENDBRANCH   1  18
TORSDOF 17
ENDMDL
MODEL 3
REMARK VINA RESULT:      -9.1      3.531      4.581
REMARK SMILES C[C@@]([NH2+]CCCO)(C(=O)OCCOC(=O)c1ccc(-c2c3nc(c(-c4c(F)cccc4F)c4ccc([nH]4)c(-c4c(F)cccc4F)c4nc(c(-c5c(F)cccc5F)c5ccc2[nH]5)C=C4)C=C3)cc1)C(F)(F)F
REMARK SMILES IDX 10 1 8 2 9 3 2 4 1 5 3 6 4 9 5 10 6 11 7 12 70 14 71 15
REMARK SMILES IDX 72 16 73 17 11 18 12 19 13 20 14 21 15 22 16 23 17 24 69 25
REMARK SMILES IDX 18 26 68 27 19 28 20 29 21 30 62 31 22 32 67 33 61 34 63 35
REMARK SMILES IDX 23 36 66 37 60 38 59 39 24 41 50 42 33 43 49 44 34 45 37 46
REMARK SMILES IDX 48 47 64 48 35 49 36 50 47 52 65 53 38 54 25 55 26 56 31 57
REMARK SMILES IDX 27 58 28 59 30 60 32 61 29 62 51 63 52 64 57 65 53 66 54 67
REMARK SMILES IDX 56 68 58 69 55 70 39 71 40 72 45 73 41 74 42 75 44 76 46 77
REMARK SMILES IDX 43 78
REMARK H PARENT 3 7 3 8 7 13 63 40 37 51
REMARK Flexibility Score: inf
ROOT
ATOM      1  O   UNL A   1      35.110  34.116  29.747  1.00  0.00    -0.457 OA
ENDROOT
BRANCH   1   2
ATOM      2  C   UNL A   1      34.997  33.560  30.987  1.00  0.00     0.377 C 
ATOM      3  O   UNL A   1      34.099  32.782  31.290  1.00  0.00    -0.244 OA
BRANCH   2   4
ATOM      4  C   UNL A   1      36.074  34.045  31.969  1.00  0.00     0.287 C 
ATOM      5  C   UNL A   1      37.434  34.243  31.263  1.00  0.00     0.103 C 
BRANCH   4   6
ATOM      6  N   UNL A   1      35.764  35.406  32.557  1.00  0.00    -0.325 N 
ATOM      7  H   UNL A   1      35.635  36.046  31.774  1.00  0.00     0.347 HD
ATOM      8  H   UNL A   1      36.555  35.591  33.174  1.00  0.00     0.347 HD
BRANCH   6   9
ATOM      9  C   UNL A   1      34.597  35.555  33.428  1.00  0.00     0.264 C 
BRANCH   9  10
ATOM     10  C   UNL A   1      33.312  36.168  32.857  1.00  0.00     0.089 C 
BRANCH  10  11
ATOM     11  C   UNL A   1      33.520  37.248  31.804  1.00  0.00     0.162 C 
BRANCH  11  12
ATOM     12  O   UNL A   1      34.369  38.277  32.291  1.00  0.00    -0.396 OA
ATOM     13  H   UNL A   1      35.136  37.882  32.733  1.00  0.00     0.210 HD
ENDBRANCH  11  12
ENDBRANCH  10  11
ENDBRANCH   9  10
ENDBRANCH   6   9
ENDBRANCH   4   6
BRANCH   4  14
ATOM     14  C   UNL A   1      36.276  32.900  32.985  1.00  0.00     0.455 C 
ATOM     15  F   UNL A   1      35.190  32.716  33.767  1.00  0.00    -0.164 F 
ATOM     16  F   UNL A   1      36.495  31.729  32.329  1.00  0.00    -0.164 F 
ATOM     17  F   UNL A   1      37.338  33.074  33.797  1.00  0.00    -0.164 F 
ENDBRANCH   4  14
ENDBRANCH   2   4
ENDBRANCH   1   2
BRANCH   1  18
ATOM     18  C   UNL A   1      33.876  34.355  29.034  1.00  0.00     0.274 C 
BRANCH  18  19
ATOM     19  C   UNL A   1      33.614  33.268  27.996  1.00  0.00     0.275 C 
BRANCH  19  20
ATOM     20  O   UNL A   1      34.859  32.650  27.627  1.00  0.00    -0.458 OA
BRANCH  20  21
ATOM     21  C   UNL A   1      34.905  31.304  27.748  1.00  0.00     0.338 C 
ATOM     22  O   UNL A   1      34.146  30.490  27.253  1.00  0.00    -0.246 OA
BRANCH  21  23
ATOM     23  C   UNL A   1      36.057  30.919  28.580  1.00  0.00     0.060 A 
ATOM     24  C   UNL A   1      37.230  31.668  28.523  1.00  0.00     0.016 A 
ATOM     25  C   UNL A   1      36.028  29.719  29.287  1.00  0.00     0.016 A 
ATOM     26  C   UNL A   1      38.410  31.165  29.062  1.00  0.00     0.010 A 
ATOM     27  C   UNL A   1      37.193  29.254  29.906  1.00  0.00     0.010 A 
ATOM     28  C   UNL A   1      38.410  29.942  29.744  1.00  0.00    -0.014 A 
BRANCH  28  29
ATOM     29  C   UNL A   1      39.697  29.320  30.159  1.00  0.00     0.031 A 
ATOM     30  C   UNL A   1      40.345  29.751  31.451  1.00  0.00     0.074 A 
ATOM     31  C   UNL A   1      40.259  28.333  29.437  1.00  0.00     0.049 A 
ATOM     32  N   UNL A   1      41.528  29.454  31.925  1.00  0.00    -0.248 NA
ATOM     33  C   UNL A   1      39.561  30.646  32.317  1.00  0.00     0.031 C 
ATOM     34  C   UNL A   1      39.712  27.762  28.206  1.00  0.00     0.029 A 
ATOM     35  N   UNL A   1      41.408  27.615  29.654  1.00  0.00    -0.354 N 
ATOM     36  C   UNL A   1      41.658  30.184  33.100  1.00  0.00     0.074 A 
ATOM     37  C   UNL A   1      40.429  30.925  33.278  1.00  0.00     0.031 C 
ATOM     38  C   UNL A   1      40.496  26.747  27.806  1.00  0.00     0.029 A 
ATOM     39  C   UNL A   1      41.635  26.640  28.713  1.00  0.00     0.049 A 
ATOM     40  H   UNL A   1      42.014  27.782  30.412  1.00  0.00     0.167 HD
ATOM     41  C   UNL A   1      42.709  30.235  33.952  1.00  0.00     0.037 A 
ATOM     42  C   UNL A   1      42.656  25.772  28.584  1.00  0.00     0.037 A 
ATOM     43  C   UNL A   1      43.897  29.436  33.825  1.00  0.00     0.049 A 
ATOM     44  C   UNL A   1      43.795  25.819  29.564  1.00  0.00     0.074 A 
ATOM     45  C   UNL A   1      45.029  29.433  34.623  1.00  0.00     0.029 A 
ATOM     46  N   UNL A   1      44.088  28.466  32.854  1.00  0.00    -0.354 N 
ATOM     47  N   UNL A   1      43.955  26.594  30.608  1.00  0.00    -0.248 NA
ATOM     48  C   UNL A   1      44.906  24.885  29.330  1.00  0.00     0.031 C 
ATOM     49  C   UNL A   1      45.908  28.459  34.132  1.00  0.00     0.029 A 
ATOM     50  C   UNL A   1      45.312  27.847  33.041  1.00  0.00     0.049 A 
ATOM     51  H   UNL A   1      43.450  28.250  32.137  1.00  0.00     0.167 HD
ATOM     52  C   UNL A   1      45.180  26.242  31.156  1.00  0.00     0.074 A 
ATOM     53  C   UNL A   1      45.712  25.167  30.345  1.00  0.00     0.031 C 
ATOM     54  C   UNL A   1      45.816  26.772  32.230  1.00  0.00     0.037 A 
BRANCH  41  55
ATOM     55  C   UNL A   1      42.632  31.223  35.075  1.00  0.00     0.057 A 
ATOM     56  C   UNL A   1      42.211  30.860  36.359  1.00  0.00     0.134 A 
ATOM     57  C   UNL A   1      42.998  32.558  34.864  1.00  0.00     0.134 A 
ATOM     58  F   UNL A   1      41.828  29.602  36.618  1.00  0.00    -0.206 F 
ATOM     59  C   UNL A   1      42.138  31.799  37.392  1.00  0.00     0.040 A 
ATOM     60  C   UNL A   1      42.948  33.501  35.892  1.00  0.00     0.040 A 
ATOM     61  F   UNL A   1      43.411  32.968  33.655  1.00  0.00    -0.206 F 
ATOM     62  C   UNL A   1      42.512  33.122  37.160  1.00  0.00     0.006 A 
ENDBRANCH  41  55
BRANCH  42  63
ATOM     63  C   UNL A   1      42.657  24.789  27.474  1.00  0.00     0.057 A 
ATOM     64  C   UNL A   1      43.190  25.119  26.223  1.00  0.00     0.134 A 
ATOM     65  C   UNL A   1      42.125  23.505  27.634  1.00  0.00     0.134 A 
ATOM     66  F   UNL A   1      43.691  26.344  26.003  1.00  0.00    -0.206 F 
ATOM     67  C   UNL A   1      43.187  24.208  25.166  1.00  0.00     0.040 A 
ATOM     68  C   UNL A   1      42.135  22.577  26.593  1.00  0.00     0.040 A 
ATOM     69  F   UNL A   1      41.600  23.131  28.810  1.00  0.00    -0.206 F 
ATOM     70  C   UNL A   1      42.664  22.930  25.352  1.00  0.00     0.006 A 
ENDBRANCH  42  63
BRANCH  54  71
ATOM     71  C   UNL A   1      47.141  26.179  32.594  1.00  0.00     0.057 A 
ATOM     72  C   UNL A   1      47.243  25.127  33.512  1.00  0.00     0.134 A 
ATOM     73  C   UNL A   1      48.321  26.648  32.004  1.00  0.00     0.134 A 
ATOM     74  F   UNL A   1      46.148  24.646  34.118  1.00  0.00    -0.206 F 
ATOM     75  C   UNL A   1      48.478  24.570  33.844  1.00  0.00     0.040 A 
ATOM     76  C   UNL A   1      49.560  26.089  32.318  1.00  0.00     0.040 A 
ATOM     77  F   UNL A   1      48.285  27.652  31.116  1.00  0.00    -0.206 F 
ATOM     78  C   UNL A   1      49.642  25.050  33.243  1.00  0.00     0.006 A 
ENDBRANCH  54  71
ENDBRANCH  28  29
ENDBRANCH  21  23
ENDBRANCH  20  21
ENDBRANCH  19  20
ENDBRANCH  18  19
ENDBRANCH   1  18
TORSDOF 17
ENDMDL
