MODEL 1
REMARK VINA RESULT:     -10.2      0.000      0.000
REMARK SMILES CCCN(CC(=O)OCCOC(=O)c1ccc(-c2c3nc(c(-c4c(F)cccc4F)c4ccc([nH]4)c(-c4c(F)cccc4F)c4nc(c(-c5c(F)cccc5F)c5ccc2[nH]5)C=C4)C=C3)cc1)C(=O)Cc1ccc(F)c(F)c1
REMARK SMILES IDX 9 1 8 2 6 3 7 4 5 5 4 6 3 7 2 8 1 9 68 10 69 11 70 12 71 13
REMARK SMILES IDX 72 14 78 15 73 16 76 17 74 18 77 19 75 20 10 21 11 22 12 23
REMARK SMILES IDX 13 24 14 25 15 26 67 27 16 28 66 29 17 30 18 31 19 32 60 33
REMARK SMILES IDX 20 34 65 35 59 36 61 37 21 38 64 39 58 40 57 41 22 43 48 44
REMARK SMILES IDX 31 45 47 46 32 47 35 48 46 49 62 50 33 51 34 52 45 54 63 55
REMARK SMILES IDX 36 56 23 57 24 58 29 59 25 60 26 61 28 62 30 63 27 64 49 65
REMARK SMILES IDX 50 66 55 67 51 68 52 69 54 70 56 71 53 72 37 73 38 74 43 75
REMARK SMILES IDX 39 76 40 77 42 78 44 79 41 80
REMARK H PARENT 61 42 35 53
REMARK Flexibility Score: inf
ROOT
ATOM      1  C   UNL A   1      31.603  29.436  25.105  1.00  0.00     0.274 C 
ENDROOT
BRANCH   1   2
ATOM      2  O   UNL A   1      30.906  29.333  23.847  1.00  0.00    -0.461 OA
BRANCH   2   3
ATOM      3  C   UNL A   1      31.190  28.236  23.098  1.00  0.00     0.325 C 
ATOM      4  O   UNL A   1      30.590  27.907  22.079  1.00  0.00    -0.250 OA
BRANCH   3   5
ATOM      5  C   UNL A   1      32.424  27.474  23.588  1.00  0.00     0.242 C 
BRANCH   5   6
ATOM      6  N   UNL A   1      32.414  26.012  23.433  1.00  0.00    -0.331 N 
BRANCH   6   7
ATOM      7  C   UNL A   1      31.770  25.245  24.502  1.00  0.00     0.120 C 
BRANCH   7   8
ATOM      8  C   UNL A   1      32.394  25.525  25.878  1.00  0.00     0.018 C 
ATOM      9  C   UNL A   1      33.111  24.328  26.490  1.00  0.00     0.006 C 
ENDBRANCH   7   8
ENDBRANCH   6   7
BRANCH   6  10
ATOM     10  C   UNL A   1      33.010  25.311  22.390  1.00  0.00     0.227 C 
ATOM     11  O   UNL A   1      33.653  25.891  21.511  1.00  0.00    -0.275 OA
BRANCH  10  12
ATOM     12  C   UNL A   1      32.890  23.795  22.339  1.00  0.00     0.135 C 
BRANCH  12  13
ATOM     13  C   UNL A   1      33.911  22.986  23.121  1.00  0.00    -0.036 A 
ATOM     14  C   UNL A   1      35.273  23.313  23.205  1.00  0.00     0.007 A 
ATOM     15  C   UNL A   1      33.464  21.847  23.805  1.00  0.00     0.046 A 
ATOM     16  C   UNL A   1      36.140  22.578  24.022  1.00  0.00     0.043 A 
ATOM     17  C   UNL A   1      34.330  21.118  24.618  1.00  0.00     0.159 A 
ATOM     18  C   UNL A   1      35.658  21.491  24.737  1.00  0.00     0.158 A 
ATOM     19  F   UNL A   1      33.859  20.073  25.308  1.00  0.00    -0.204 F 
ATOM     20  F   UNL A   1      36.484  20.813  25.544  1.00  0.00    -0.204 F 
ENDBRANCH  12  13
ENDBRANCH  10  12
ENDBRANCH   6  10
ENDBRANCH   5   6
ENDBRANCH   3   5
ENDBRANCH   2   3
ENDBRANCH   1   2
BRANCH   1  21
ATOM     21  C   UNL A   1      31.407  30.828  25.701  1.00  0.00     0.275 C 
BRANCH  21  22
ATOM     22  O   UNL A   1      31.986  30.875  27.020  1.00  0.00    -0.458 OA
BRANCH  22  23
ATOM     23  C   UNL A   1      32.810  31.921  27.259  1.00  0.00     0.338 C 
ATOM     24  O   UNL A   1      32.555  33.106  27.142  1.00  0.00    -0.246 OA
BRANCH  23  25
ATOM     25  C   UNL A   1      34.127  31.447  27.732  1.00  0.00     0.060 A 
ATOM     26  C   UNL A   1      34.354  30.095  27.990  1.00  0.00     0.016 A 
ATOM     27  C   UNL A   1      35.100  32.394  28.064  1.00  0.00     0.016 A 
ATOM     28  C   UNL A   1      35.513  29.709  28.667  1.00  0.00     0.010 A 
ATOM     29  C   UNL A   1      36.297  31.991  28.667  1.00  0.00     0.010 A 
ATOM     30  C   UNL A   1      36.498  30.650  29.026  1.00  0.00    -0.014 A 
BRANCH  30  31
ATOM     31  C   UNL A   1      37.695  30.232  29.815  1.00  0.00     0.031 A 
ATOM     32  C   UNL A   1      38.768  29.354  29.208  1.00  0.00     0.074 A 
ATOM     33  C   UNL A   1      37.871  30.693  31.069  1.00  0.00     0.049 A 
ATOM     34  N   UNL A   1      39.855  28.872  29.762  1.00  0.00    -0.248 NA
ATOM     35  C   UNL A   1      38.608  28.976  27.795  1.00  0.00     0.031 C 
ATOM     36  C   UNL A   1      36.952  31.583  31.781  1.00  0.00     0.029 A 
ATOM     37  N   UNL A   1      38.899  30.497  31.961  1.00  0.00    -0.354 N 
ATOM     38  C   UNL A   1      40.506  28.148  28.770  1.00  0.00     0.074 A 
ATOM     39  C   UNL A   1      39.680  28.225  27.585  1.00  0.00     0.031 C 
ATOM     40  C   UNL A   1      37.484  31.903  32.970  1.00  0.00     0.029 A 
ATOM     41  C   UNL A   1      38.738  31.176  33.144  1.00  0.00     0.049 A 
ATOM     42  H   UNL A   1      39.676  29.924  31.769  1.00  0.00     0.167 HD
ATOM     43  C   UNL A   1      41.685  27.485  28.829  1.00  0.00     0.037 A 
ATOM     44  C   UNL A   1      39.489  31.192  34.261  1.00  0.00     0.037 A 
ATOM     45  C   UNL A   1      42.528  27.401  29.993  1.00  0.00     0.049 A 
ATOM     46  C   UNL A   1      40.722  30.346  34.346  1.00  0.00     0.074 A 
ATOM     47  C   UNL A   1      43.737  26.740  30.136  1.00  0.00     0.029 A 
ATOM     48  N   UNL A   1      42.251  27.997  31.210  1.00  0.00    -0.354 N 
ATOM     49  N   UNL A   1      41.285  29.613  33.419  1.00  0.00    -0.248 NA
ATOM     50  C   UNL A   1      41.405  30.301  35.647  1.00  0.00     0.031 C 
ATOM     51  C   UNL A   1      44.172  26.903  31.456  1.00  0.00     0.029 A 
ATOM     52  C   UNL A   1      43.249  27.692  32.123  1.00  0.00     0.049 A 
ATOM     53  H   UNL A   1      41.464  28.556  31.401  1.00  0.00     0.167 HD
ATOM     54  C   UNL A   1      42.377  29.009  34.025  1.00  0.00     0.074 A 
ATOM     55  C   UNL A   1      42.417  29.482  35.392  1.00  0.00     0.031 C 
ATOM     56  C   UNL A   1      43.264  28.134  33.492  1.00  0.00     0.037 A 
BRANCH  43  57
ATOM     57  C   UNL A   1      42.134  26.763  27.594  1.00  0.00     0.057 A 
ATOM     58  C   UNL A   1      42.943  27.382  26.634  1.00  0.00     0.134 A 
ATOM     59  C   UNL A   1      41.801  25.418  27.395  1.00  0.00     0.134 A 
ATOM     60  F   UNL A   1      43.287  28.673  26.762  1.00  0.00    -0.206 F 
ATOM     61  C   UNL A   1      43.401  26.687  25.513  1.00  0.00     0.040 A 
ATOM     62  C   UNL A   1      42.264  24.709  26.286  1.00  0.00     0.040 A 
ATOM     63  F   UNL A   1      41.031  24.769  28.281  1.00  0.00    -0.206 F 
ATOM     64  C   UNL A   1      43.067  25.344  25.341  1.00  0.00     0.006 A 
ENDBRANCH  43  57
BRANCH  44  65
ATOM     65  C   UNL A   1      39.049  32.010  35.417  1.00  0.00     0.057 A 
ATOM     66  C   UNL A   1      39.392  33.360  35.521  1.00  0.00     0.134 A 
ATOM     67  C   UNL A   1      38.246  31.464  36.427  1.00  0.00     0.134 A 
ATOM     68  F   UNL A   1      40.182  33.930  34.599  1.00  0.00    -0.206 F 
ATOM     69  C   UNL A   1      38.945  34.145  36.585  1.00  0.00     0.040 A 
ATOM     70  C   UNL A   1      37.771  32.240  37.482  1.00  0.00     0.040 A 
ATOM     71  F   UNL A   1      37.887  30.172  36.382  1.00  0.00    -0.206 F 
ATOM     72  C   UNL A   1      38.122  33.588  37.563  1.00  0.00     0.006 A 
ENDBRANCH  44  65
BRANCH  56  73
ATOM     73  C   UNL A   1      44.332  27.607  34.399  1.00  0.00     0.057 A 
ATOM     74  C   UNL A   1      45.532  28.303  34.589  1.00  0.00     0.134 A 
ATOM     75  C   UNL A   1      44.158  26.410  35.104  1.00  0.00     0.134 A 
ATOM     76  F   UNL A   1      45.764  29.450  33.931  1.00  0.00    -0.206 F 
ATOM     77  C   UNL A   1      46.530  27.818  35.435  1.00  0.00     0.040 A 
ATOM     78  C   UNL A   1      45.141  25.923  35.966  1.00  0.00     0.040 A 
ATOM     79  F   UNL A   1      43.029  25.698  34.969  1.00  0.00    -0.206 F 
ATOM     80  C   UNL A   1      46.333  26.627  36.131  1.00  0.00     0.006 A 
ENDBRANCH  56  73
ENDBRANCH  30  31
ENDBRANCH  23  25
ENDBRANCH  22  23
ENDBRANCH  21  22
ENDBRANCH   1  21
TORSDOF 17
ENDMDL
MODEL 2
REMARK VINA RESULT:     -10.1      3.337      7.701
REMARK SMILES CCCN(CC(=O)OCCOC(=O)c1ccc(-c2c3nc(c(-c4c(F)cccc4F)c4ccc([nH]4)c(-c4c(F)cccc4F)c4nc(c(-c5c(F)cccc5F)c5ccc2[nH]5)C=C4)C=C3)cc1)C(=O)Cc1ccc(F)c(F)c1
REMARK SMILES IDX 9 1 8 2 6 3 7 4 5 5 4 6 3 7 2 8 1 9 68 10 69 11 70 12 71 13
REMARK SMILES IDX 72 14 78 15 73 16 76 17 74 18 77 19 75 20 10 21 11 22 12 23
REMARK SMILES IDX 13 24 14 25 15 26 67 27 16 28 66 29 17 30 18 31 19 32 60 33
REMARK SMILES IDX 20 34 65 35 59 36 61 37 21 38 64 39 58 40 57 41 22 43 48 44
REMARK SMILES IDX 31 45 47 46 32 47 35 48 46 49 62 50 33 51 34 52 45 54 63 55
REMARK SMILES IDX 36 56 23 57 24 58 29 59 25 60 26 61 28 62 30 63 27 64 49 65
REMARK SMILES IDX 50 66 55 67 51 68 52 69 54 70 56 71 53 72 37 73 38 74 43 75
REMARK SMILES IDX 39 76 40 77 42 78 44 79 41 80
REMARK H PARENT 61 42 35 53
REMARK Flexibility Score: inf
ROOT
ATOM      1  C   UNL A   1      39.218  21.398  25.998  1.00  0.00     0.274 C 
ENDROOT
BRANCH   1   2
ATOM      2  O   UNL A   1      38.086  22.207  25.622  1.00  0.00    -0.461 OA
BRANCH   2   3
ATOM      3  C   UNL A   1      36.903  21.549  25.488  1.00  0.00     0.325 C 
ATOM      4  O   UNL A   1      36.772  20.438  24.988  1.00  0.00    -0.250 OA
BRANCH   3   5
ATOM      5  C   UNL A   1      35.726  22.291  26.126  1.00  0.00     0.242 C 
BRANCH   5   6
ATOM      6  N   UNL A   1      34.507  22.434  25.316  1.00  0.00    -0.331 N 
BRANCH   6   7
ATOM      7  C   UNL A   1      34.697  22.765  23.901  1.00  0.00     0.120 C 
BRANCH   7   8
ATOM      8  C   UNL A   1      34.051  24.108  23.524  1.00  0.00     0.018 C 
ATOM      9  C   UNL A   1      33.249  24.069  22.228  1.00  0.00     0.006 C 
ENDBRANCH   7   8
ENDBRANCH   6   7
BRANCH   6  10
ATOM     10  C   UNL A   1      33.206  22.336  25.797  1.00  0.00     0.227 C 
ATOM     11  O   UNL A   1      32.865  22.892  26.845  1.00  0.00    -0.275 OA
BRANCH  10  12
ATOM     12  C   UNL A   1      32.172  21.546  25.010  1.00  0.00     0.135 C 
BRANCH  12  13
ATOM     13  C   UNL A   1      32.516  20.111  24.647  1.00  0.00    -0.036 A 
ATOM     14  C   UNL A   1      32.903  19.137  25.579  1.00  0.00     0.007 A 
ATOM     15  C   UNL A   1      32.435  19.736  23.299  1.00  0.00     0.046 A 
ATOM     16  C   UNL A   1      33.112  17.809  25.189  1.00  0.00     0.043 A 
ATOM     17  C   UNL A   1      32.642  18.413  22.913  1.00  0.00     0.159 A 
ATOM     18  C   UNL A   1      32.965  17.451  23.856  1.00  0.00     0.158 A 
ATOM     19  F   UNL A   1      32.496  18.073  21.627  1.00  0.00    -0.204 F 
ATOM     20  F   UNL A   1      33.132  16.174  23.493  1.00  0.00    -0.204 F 
ENDBRANCH  12  13
ENDBRANCH  10  12
ENDBRANCH   6  10
ENDBRANCH   5   6
ENDBRANCH   3   5
ENDBRANCH   2   3
ENDBRANCH   1   2
BRANCH   1  21
ATOM     21  C   UNL A   1      40.315  22.277  26.596  1.00  0.00     0.275 C 
BRANCH  21  22
ATOM     22  O   UNL A   1      39.936  23.663  26.488  1.00  0.00    -0.458 OA
BRANCH  22  23
ATOM     23  C   UNL A   1      40.957  24.550  26.503  1.00  0.00     0.338 C 
ATOM     24  O   UNL A   1      42.008  24.479  25.891  1.00  0.00    -0.246 OA
BRANCH  23  25
ATOM     25  C   UNL A   1      40.634  25.699  27.374  1.00  0.00     0.060 A 
ATOM     26  C   UNL A   1      41.428  26.845  27.375  1.00  0.00     0.016 A 
ATOM     27  C   UNL A   1      39.607  25.560  28.312  1.00  0.00     0.016 A 
ATOM     28  C   UNL A   1      41.252  27.804  28.376  1.00  0.00     0.010 A 
ATOM     29  C   UNL A   1      39.381  26.564  29.261  1.00  0.00     0.010 A 
ATOM     30  C   UNL A   1      40.234  27.675  29.340  1.00  0.00    -0.014 A 
BRANCH  30  31
ATOM     31  C   UNL A   1      40.106  28.669  30.448  1.00  0.00     0.031 A 
ATOM     32  C   UNL A   1      39.099  29.797  30.378  1.00  0.00     0.074 A 
ATOM     33  C   UNL A   1      40.846  28.532  31.566  1.00  0.00     0.049 A 
ATOM     34  N   UNL A   1      38.879  30.765  31.235  1.00  0.00    -0.248 NA
ATOM     35  C   UNL A   1      38.218  29.839  29.200  1.00  0.00     0.031 C 
ATOM     36  C   UNL A   1      41.829  27.475  31.807  1.00  0.00     0.029 A 
ATOM     37  N   UNL A   1      40.869  29.275  32.722  1.00  0.00    -0.354 N 
ATOM     38  C   UNL A   1      37.837  31.519  30.707  1.00  0.00     0.074 A 
ATOM     39  C   UNL A   1      37.485  30.917  29.440  1.00  0.00     0.031 C 
ATOM     40  C   UNL A   1      42.311  27.600  33.052  1.00  0.00     0.029 A 
ATOM     41  C   UNL A   1      41.741  28.794  33.668  1.00  0.00     0.049 A 
ATOM     42  H   UNL A   1      40.313  30.077  32.859  1.00  0.00     0.167 HD
ATOM     43  C   UNL A   1      37.220  32.606  31.226  1.00  0.00     0.037 A 
ATOM     44  C   UNL A   1      42.077  29.270  34.881  1.00  0.00     0.037 A 
ATOM     45  C   UNL A   1      37.547  33.217  32.488  1.00  0.00     0.049 A 
ATOM     46  C   UNL A   1      41.473  30.549  35.377  1.00  0.00     0.074 A 
ATOM     47  C   UNL A   1      36.972  34.329  33.083  1.00  0.00     0.029 A 
ATOM     48  N   UNL A   1      38.533  32.768  33.349  1.00  0.00    -0.354 N 
ATOM     49  N   UNL A   1      40.538  31.285  34.832  1.00  0.00    -0.248 NA
ATOM     50  C   UNL A   1      42.000  31.082  36.642  1.00  0.00     0.031 C 
ATOM     51  C   UNL A   1      37.641  34.577  34.287  1.00  0.00     0.029 A 
ATOM     52  C   UNL A   1      38.608  33.601  34.455  1.00  0.00     0.049 A 
ATOM     53  H   UNL A   1      39.097  31.976  33.199  1.00  0.00     0.167 HD
ATOM     54  C   UNL A   1      40.373  32.373  35.677  1.00  0.00     0.074 A 
ATOM     55  C   UNL A   1      41.284  32.189  36.787  1.00  0.00     0.031 C 
ATOM     56  C   UNL A   1      39.542  33.434  35.537  1.00  0.00     0.037 A 
BRANCH  43  57
ATOM     57  C   UNL A   1      36.129  33.235  30.414  1.00  0.00     0.057 A 
ATOM     58  C   UNL A   1      34.780  33.092  30.758  1.00  0.00     0.134 A 
ATOM     59  C   UNL A   1      36.437  34.039  29.309  1.00  0.00     0.134 A 
ATOM     60  F   UNL A   1      34.420  32.325  31.798  1.00  0.00    -0.206 F 
ATOM     61  C   UNL A   1      33.772  33.725  30.026  1.00  0.00     0.040 A 
ATOM     62  C   UNL A   1      35.441  34.688  28.579  1.00  0.00     0.040 A 
ATOM     63  F   UNL A   1      37.712  34.216  28.932  1.00  0.00    -0.206 F 
ATOM     64  C   UNL A   1      34.103  34.531  28.938  1.00  0.00     0.006 A 
ENDBRANCH  43  57
BRANCH  44  65
ATOM     65  C   UNL A   1      43.088  28.546  35.689  1.00  0.00     0.057 A 
ATOM     66  C   UNL A   1      44.442  28.884  35.626  1.00  0.00     0.134 A 
ATOM     67  C   UNL A   1      42.715  27.520  36.566  1.00  0.00     0.134 A 
ATOM     68  F   UNL A   1      44.862  29.840  34.783  1.00  0.00    -0.206 F 
ATOM     69  C   UNL A   1      45.391  28.234  36.415  1.00  0.00     0.040 A 
ATOM     70  C   UNL A   1      43.647  26.878  37.378  1.00  0.00     0.040 A 
ATOM     71  F   UNL A   1      41.429  27.149  36.666  1.00  0.00    -0.206 F 
ATOM     72  C   UNL A   1      44.993  27.236  37.304  1.00  0.00     0.006 A 
ENDBRANCH  44  65
BRANCH  56  73
ATOM     73  C   UNL A   1      39.603  34.493  36.594  1.00  0.00     0.057 A 
ATOM     74  C   UNL A   1      38.856  34.387  37.773  1.00  0.00     0.134 A 
ATOM     75  C   UNL A   1      40.426  35.616  36.446  1.00  0.00     0.134 A 
ATOM     76  F   UNL A   1      38.037  33.341  37.967  1.00  0.00    -0.206 F 
ATOM     77  C   UNL A   1      38.911  35.369  38.762  1.00  0.00     0.040 A 
ATOM     78  C   UNL A   1      40.504  36.597  37.436  1.00  0.00     0.040 A 
ATOM     79  F   UNL A   1      41.172  35.774  35.342  1.00  0.00    -0.206 F 
ATOM     80  C   UNL A   1      39.741  36.476  38.597  1.00  0.00     0.006 A 
ENDBRANCH  56  73
ENDBRANCH  30  31
ENDBRANCH  23  25
ENDBRANCH  22  23
ENDBRANCH  21  22
ENDBRANCH   1  21
TORSDOF 17
ENDMDL
MODEL 3
REMARK VINA RESULT:     -10.1      2.901      4.610
REMARK SMILES CCCN(CC(=O)OCCOC(=O)c1ccc(-c2c3nc(c(-c4c(F)cccc4F)c4ccc([nH]4)c(-c4c(F)cccc4F)c4nc(c(-c5c(F)cccc5F)c5ccc2[nH]5)C=C4)C=C3)cc1)C(=O)Cc1ccc(F)c(F)c1
REMARK SMILES IDX 9 1 8 2 6 3 7 4 5 5 4 6 3 7 2 8 1 9 68 10 69 11 70 12 71 13
REMARK SMILES IDX 72 14 78 15 73 16 76 17 74 18 77 19 75 20 10 21 11 22 12 23
REMARK SMILES IDX 13 24 14 25 15 26 67 27 16 28 66 29 17 30 18 31 19 32 60 33
REMARK SMILES IDX 20 34 65 35 59 36 61 37 21 38 64 39 58 40 57 41 22 43 48 44
REMARK SMILES IDX 31 45 47 46 32 47 35 48 46 49 62 50 33 51 34 52 45 54 63 55
REMARK SMILES IDX 36 56 23 57 24 58 29 59 25 60 26 61 28 62 30 63 27 64 49 65
REMARK SMILES IDX 50 66 55 67 51 68 52 69 54 70 56 71 53 72 37 73 38 74 43 75
REMARK SMILES IDX 39 76 40 77 42 78 44 79 41 80
REMARK H PARENT 61 42 35 53
REMARK Flexibility Score: inf
ROOT
ATOM      1  C   UNL A   1      32.462  31.039  27.134  1.00  0.00     0.274 C 
ENDROOT
BRANCH   1   2
ATOM      2  O   UNL A   1      32.191  30.468  25.837  1.00  0.00    -0.461 OA
BRANCH   2   3
ATOM      3  C   UNL A   1      33.120  29.595  25.367  1.00  0.00     0.325 C 
ATOM      4  O   UNL A   1      34.010  29.086  26.041  1.00  0.00    -0.250 OA
BRANCH   3   5
ATOM      5  C   UNL A   1      32.897  29.208  23.903  1.00  0.00     0.242 C 
BRANCH   5   6
ATOM      6  N   UNL A   1      32.069  28.020  23.644  1.00  0.00    -0.331 N 
BRANCH   6   7
ATOM      7  C   UNL A   1      32.633  26.729  24.046  1.00  0.00     0.120 C 
BRANCH   7   8
ATOM      8  C   UNL A   1      31.687  25.941  24.965  1.00  0.00     0.018 C 
ATOM      9  C   UNL A   1      31.501  26.561  26.345  1.00  0.00     0.006 C 
ENDBRANCH   7   8
ENDBRANCH   6   7
BRANCH   6  10
ATOM     10  C   UNL A   1      30.834  28.026  23.003  1.00  0.00     0.227 C 
ATOM     11  O   UNL A   1      30.683  27.503  21.895  1.00  0.00    -0.275 OA
BRANCH  10  12
ATOM     12  C   UNL A   1      29.637  28.669  23.686  1.00  0.00     0.135 C 
BRANCH  12  13
ATOM     13  C   UNL A   1      29.086  29.946  23.074  1.00  0.00    -0.036 A 
ATOM     14  C   UNL A   1      29.153  31.204  23.692  1.00  0.00     0.007 A 
ATOM     15  C   UNL A   1      28.481  29.864  21.812  1.00  0.00     0.046 A 
ATOM     16  C   UNL A   1      28.712  32.356  23.029  1.00  0.00     0.043 A 
ATOM     17  C   UNL A   1      28.044  31.012  21.155  1.00  0.00     0.159 A 
ATOM     18  C   UNL A   1      28.172  32.254  21.754  1.00  0.00     0.158 A 
ATOM     19  F   UNL A   1      27.528  30.909  19.925  1.00  0.00    -0.204 F 
ATOM     20  F   UNL A   1      27.784  33.362  21.111  1.00  0.00    -0.204 F 
ENDBRANCH  12  13
ENDBRANCH  10  12
ENDBRANCH   6  10
ENDBRANCH   5   6
ENDBRANCH   3   5
ENDBRANCH   2   3
ENDBRANCH   1   2
BRANCH   1  21
ATOM     21  C   UNL A   1      31.988  32.490  27.177  1.00  0.00     0.275 C 
BRANCH  21  22
ATOM     22  O   UNL A   1      33.128  33.371  27.195  1.00  0.00    -0.458 OA
BRANCH  22  23
ATOM     23  C   UNL A   1      33.243  34.155  28.292  1.00  0.00     0.338 C 
ATOM     24  O   UNL A   1      32.519  35.078  28.620  1.00  0.00    -0.246 OA
BRANCH  23  25
ATOM     25  C   UNL A   1      34.395  33.733  29.114  1.00  0.00     0.060 A 
ATOM     26  C   UNL A   1      35.692  34.131  28.792  1.00  0.00     0.016 A 
ATOM     27  C   UNL A   1      34.184  32.800  30.134  1.00  0.00     0.016 A 
ATOM     28  C   UNL A   1      36.777  33.523  29.428  1.00  0.00     0.010 A 
ATOM     29  C   UNL A   1      35.272  32.256  30.825  1.00  0.00     0.010 A 
ATOM     30  C   UNL A   1      36.586  32.569  30.446  1.00  0.00    -0.014 A 
BRANCH  30  31
ATOM     31  C   UNL A   1      37.755  31.872  31.063  1.00  0.00     0.031 A 
ATOM     32  C   UNL A   1      38.519  30.804  30.310  1.00  0.00     0.074 A 
ATOM     33  C   UNL A   1      38.191  32.238  32.284  1.00  0.00     0.049 A 
ATOM     34  N   UNL A   1      39.536  30.077  30.708  1.00  0.00    -0.248 NA
ATOM     35  C   UNL A   1      38.095  30.522  28.929  1.00  0.00     0.031 C 
ATOM     36  C   UNL A   1      37.592  33.280  33.120  1.00  0.00     0.029 A 
ATOM     37  N   UNL A   1      39.257  31.791  33.027  1.00  0.00    -0.354 N 
ATOM     38  C   UNL A   1      39.875  29.266  29.632  1.00  0.00     0.074 A 
ATOM     39  C   UNL A   1      38.939  29.564  28.570  1.00  0.00     0.031 C 
ATOM     40  C   UNL A   1      38.332  33.433  34.228  1.00  0.00     0.029 A 
ATOM     41  C   UNL A   1      39.406  32.445  34.225  1.00  0.00     0.049 A 
ATOM     42  H   UNL A   1      39.858  31.070  32.728  1.00  0.00     0.167 HD
ATOM     43  C   UNL A   1      40.876  28.360  29.526  1.00  0.00     0.037 A 
ATOM     44  C   UNL A   1      40.282  32.257  35.230  1.00  0.00     0.037 A 
ATOM     45  C   UNL A   1      41.824  28.052  30.564  1.00  0.00     0.049 A 
ATOM     46  C   UNL A   1      41.299  31.160  35.141  1.00  0.00     0.074 A 
ATOM     47  C   UNL A   1      42.866  27.139  30.538  1.00  0.00     0.029 A 
ATOM     48  N   UNL A   1      41.848  28.650  31.812  1.00  0.00    -0.354 N 
ATOM     49  N   UNL A   1      41.560  30.356  34.142  1.00  0.00    -0.248 NA
ATOM     50  C   UNL A   1      42.119  30.920  36.338  1.00  0.00     0.031 C 
ATOM     51  C   UNL A   1      43.495  27.155  31.788  1.00  0.00     0.029 A 
ATOM     52  C   UNL A   1      42.865  28.102  32.578  1.00  0.00     0.049 A 
ATOM     53  H   UNL A   1      41.235  29.360  32.111  1.00  0.00     0.167 HD
ATOM     54  C   UNL A   1      42.562  29.507  34.590  1.00  0.00     0.074 A 
ATOM     55  C   UNL A   1      42.884  29.910  35.942  1.00  0.00     0.031 C 
ATOM     56  C   UNL A   1      43.156  28.480  33.936  1.00  0.00     0.037 A 
BRANCH  43  57
ATOM     57  C   UNL A   1      40.989  27.603  28.237  1.00  0.00     0.057 A 
ATOM     58  C   UNL A   1      40.325  26.388  28.037  1.00  0.00     0.134 A 
ATOM     59  C   UNL A   1      41.725  28.127  27.167  1.00  0.00     0.134 A 
ATOM     60  F   UNL A   1      39.614  25.829  29.028  1.00  0.00    -0.206 F 
ATOM     61  C   UNL A   1      40.393  25.715  26.815  1.00  0.00     0.040 A 
ATOM     62  C   UNL A   1      41.789  27.472  25.937  1.00  0.00     0.040 A 
ATOM     63  F   UNL A   1      42.381  29.290  27.297  1.00  0.00    -0.206 F 
ATOM     64  C   UNL A   1      41.122  26.261  25.758  1.00  0.00     0.006 A 
ENDBRANCH  43  57
BRANCH  44  65
ATOM     65  C   UNL A   1      40.189  33.108  36.441  1.00  0.00     0.057 A 
ATOM     66  C   UNL A   1      39.297  32.804  37.472  1.00  0.00     0.134 A 
ATOM     67  C   UNL A   1      41.015  34.227  36.605  1.00  0.00     0.134 A 
ATOM     68  F   UNL A   1      38.461  31.760  37.359  1.00  0.00    -0.206 F 
ATOM     69  C   UNL A   1      39.236  33.577  38.632  1.00  0.00     0.040 A 
ATOM     70  C   UNL A   1      40.983  34.994  37.767  1.00  0.00     0.040 A 
ATOM     71  F   UNL A   1      41.889  34.570  35.646  1.00  0.00    -0.206 F 
ATOM     72  C   UNL A   1      40.089  34.669  38.787  1.00  0.00     0.006 A 
ENDBRANCH  44  65
BRANCH  56  73
ATOM     73  C   UNL A   1      44.191  27.700  34.686  1.00  0.00     0.057 A 
ATOM     74  C   UNL A   1      45.528  28.113  34.718  1.00  0.00     0.134 A 
ATOM     75  C   UNL A   1      43.851  26.544  35.398  1.00  0.00     0.134 A 
ATOM     76  F   UNL A   1      45.919  29.206  34.044  1.00  0.00    -0.206 F 
ATOM     77  C   UNL A   1      46.497  27.392  35.418  1.00  0.00     0.040 A 
ATOM     78  C   UNL A   1      44.807  25.823  36.116  1.00  0.00     0.040 A 
ATOM     79  F   UNL A   1      42.585  26.099  35.411  1.00  0.00    -0.206 F 
ATOM     80  C   UNL A   1      46.135  26.245  36.123  1.00  0.00     0.006 A 
ENDBRANCH  56  73
ENDBRANCH  30  31
ENDBRANCH  23  25
ENDBRANCH  22  23
ENDBRANCH  21  22
ENDBRANCH   1  21
TORSDOF 17
ENDMDL
