MODEL 1
REMARK VINA RESULT:     -12.2      0.000      0.000
REMARK SMILES CCN(c1cccc(C)c1)c1nc(OCC(=O)OCCOC(=O)c2ccc(-c3c4nc(c(-c5c(F)cccc5F)c5ccc([nH]5)c(-c5c(F)cccc5F)c5nc(c(-c6c(F)cccc6F)c6ccc3[nH]6)C=C5)C=C4)cc2)cc(-c2ccc(C)cc2)n1
REMARK SMILES IDX 19 1 18 2 16 3 17 4 15 5 14 6 13 7 11 8 12 9 87 10 79 11
REMARK SMILES IDX 78 12 3 13 2 14 1 15 4 16 5 17 10 18 6 19 8 20 7 21 9 22
REMARK SMILES IDX 80 23 81 24 86 25 82 26 85 27 83 28 84 29 20 30 21 31 22 32
REMARK SMILES IDX 23 33 24 34 25 35 77 36 26 37 76 38 27 39 28 40 29 41 70 42
REMARK SMILES IDX 30 43 75 44 69 45 71 46 31 47 74 48 68 49 67 50 32 52 58 53
REMARK SMILES IDX 41 54 57 55 42 56 45 57 56 58 72 59 43 60 44 61 55 63 73 64
REMARK SMILES IDX 46 65 33 66 34 67 39 68 35 69 36 70 38 71 40 72 37 73 59 74
REMARK SMILES IDX 60 75 65 76 61 77 62 78 64 79 66 80 63 81 47 82 48 83 53 84
REMARK SMILES IDX 49 85 50 86 52 87 54 88 51 89
REMARK H PARENT 71 51 45 62
REMARK Flexibility Score: inf
ROOT
ATOM      1  C   UNL A   1      40.238  19.783  26.035  1.00  0.00     0.274 C 
ENDROOT
BRANCH   1   2
ATOM      2  O   UNL A   1      39.937  20.840  26.952  1.00  0.00    -0.460 OA
BRANCH   2   3
ATOM      3  C   UNL A   1      39.518  21.997  26.373  1.00  0.00     0.344 C 
ATOM      4  O   UNL A   1      40.128  23.051  26.488  1.00  0.00    -0.248 OA
BRANCH   3   5
ATOM      5  C   UNL A   1      38.178  21.769  25.637  1.00  0.00     0.353 C 
BRANCH   5   6
ATOM      6  O   UNL A   1      37.011  22.491  26.044  1.00  0.00    -0.466 OA
BRANCH   6   7
ATOM      7  C   UNL A   1      35.907  22.151  25.298  1.00  0.00     0.219 A 
ATOM      8  C   UNL A   1      33.839  22.695  24.539  1.00  0.00     0.233 A 
ATOM      9  N   UNL A   1      35.018  23.098  25.038  1.00  0.00    -0.177 NA
ATOM     10  N   UNL A   1      33.482  21.406  24.453  1.00  0.00    -0.212 NA
ATOM     11  C   UNL A   1      34.439  20.488  24.637  1.00  0.00     0.080 A 
ATOM     12  C   UNL A   1      35.737  20.846  24.933  1.00  0.00     0.097 A 
BRANCH   8  13
ATOM     13  N   UNL A   1      33.047  23.663  23.919  1.00  0.00    -0.311 N 
BRANCH  13  14
ATOM     14  C   UNL A   1      32.000  23.178  23.022  1.00  0.00     0.122 C 
ATOM     15  C   UNL A   1      30.599  23.654  23.405  1.00  0.00     0.028 C 
ENDBRANCH  13  14
BRANCH  13  16
ATOM     16  C   UNL A   1      33.179  25.024  24.233  1.00  0.00     0.044 A 
ATOM     17  C   UNL A   1      33.758  25.953  23.368  1.00  0.00     0.026 A 
ATOM     18  C   UNL A   1      32.626  25.508  25.439  1.00  0.00     0.029 A 
ATOM     19  C   UNL A   1      33.771  27.315  23.691  1.00  0.00     0.002 A 
ATOM     20  C   UNL A   1      32.636  26.866  25.780  1.00  0.00    -0.049 A 
ATOM     21  C   UNL A   1      33.212  27.769  24.889  1.00  0.00     0.003 A 
ATOM     22  C   UNL A   1      32.007  27.311  27.066  1.00  0.00     0.044 C 
ENDBRANCH  13  16
ENDBRANCH   8  13
BRANCH  11  23
ATOM     23  C   UNL A   1      33.993  19.087  24.658  1.00  0.00     0.000 A 
ATOM     24  C   UNL A   1      32.684  18.770  25.068  1.00  0.00     0.010 A 
ATOM     25  C   UNL A   1      34.865  18.027  24.394  1.00  0.00     0.010 A 
ATOM     26  C   UNL A   1      32.308  17.458  25.370  1.00  0.00     0.004 A 
ATOM     27  C   UNL A   1      34.469  16.703  24.629  1.00  0.00     0.004 A 
ATOM     28  C   UNL A   1      33.211  16.414  25.176  1.00  0.00    -0.051 A 
ATOM     29  C   UNL A   1      32.825  15.003  25.505  1.00  0.00     0.044 C 
ENDBRANCH  11  23
ENDBRANCH   6   7
ENDBRANCH   5   6
ENDBRANCH   3   5
ENDBRANCH   2   3
ENDBRANCH   1   2
BRANCH   1  30
ATOM     30  C   UNL A   1      41.722  19.338  26.020  1.00  0.00     0.275 C 
BRANCH  30  31
ATOM     31  O   UNL A   1      42.774  20.236  26.505  1.00  0.00    -0.458 OA
BRANCH  31  32
ATOM     32  C   UNL A   1      43.182  21.459  26.104  1.00  0.00     0.338 C 
ATOM     33  O   UNL A   1      43.328  21.804  24.934  1.00  0.00    -0.246 OA
BRANCH  32  34
ATOM     34  C   UNL A   1      43.328  22.495  27.085  1.00  0.00     0.060 A 
ATOM     35  C   UNL A   1      42.940  22.327  28.431  1.00  0.00     0.016 A 
ATOM     36  C   UNL A   1      43.781  23.689  26.587  1.00  0.00     0.016 A 
ATOM     37  C   UNL A   1      42.961  23.431  29.254  1.00  0.00     0.010 A 
ATOM     38  C   UNL A   1      44.159  24.632  27.466  1.00  0.00     0.010 A 
ATOM     39  C   UNL A   1      43.529  24.572  28.706  1.00  0.00    -0.014 A 
BRANCH  39  40
ATOM     40  C   UNL A   1      43.229  25.917  29.116  1.00  0.00     0.031 A 
ATOM     41  C   UNL A   1      42.027  26.487  28.546  1.00  0.00     0.074 A 
ATOM     42  C   UNL A   1      43.917  26.273  30.229  1.00  0.00     0.049 A 
ATOM     43  N   UNL A   1      41.941  27.673  28.059  1.00  0.00    -0.248 NA
ATOM     44  C   UNL A   1      40.823  25.672  28.342  1.00  0.00     0.031 C 
ATOM     45  C   UNL A   1      43.587  27.187  31.299  1.00  0.00     0.029 A 
ATOM     46  N   UNL A   1      45.099  25.709  30.696  1.00  0.00    -0.354 N 
ATOM     47  C   UNL A   1      40.585  27.898  28.020  1.00  0.00     0.074 A 
ATOM     48  C   UNL A   1      39.983  26.591  27.864  1.00  0.00     0.031 C 
ATOM     49  C   UNL A   1      44.667  27.324  32.103  1.00  0.00     0.029 A 
ATOM     50  C   UNL A   1      45.781  26.565  31.545  1.00  0.00     0.049 A 
ATOM     51  H   UNL A   1      45.412  24.808  30.453  1.00  0.00     0.167 HD
ATOM     52  C   UNL A   1      40.086  29.001  28.655  1.00  0.00     0.037 A 
ATOM     53  C   UNL A   1      46.974  27.075  31.103  1.00  0.00     0.037 A 
ATOM     54  C   UNL A   1      41.140  29.667  29.451  1.00  0.00     0.049 A 
ATOM     55  C   UNL A   1      46.744  28.362  30.341  1.00  0.00     0.074 A 
ATOM     56  C   UNL A   1      41.390  29.801  30.808  1.00  0.00     0.029 A 
ATOM     57  N   UNL A   1      42.327  30.028  28.838  1.00  0.00    -0.354 N 
ATOM     58  N   UNL A   1      45.629  29.039  30.375  1.00  0.00    -0.248 NA
ATOM     59  C   UNL A   1      47.718  28.937  29.416  1.00  0.00     0.031 C 
ATOM     60  C   UNL A   1      42.730  30.285  30.978  1.00  0.00     0.029 A 
ATOM     61  C   UNL A   1      43.298  30.440  29.729  1.00  0.00     0.049 A 
ATOM     62  H   UNL A   1      42.465  29.995  27.864  1.00  0.00     0.167 HD
ATOM     63  C   UNL A   1      45.665  30.032  29.442  1.00  0.00     0.074 A 
ATOM     64  C   UNL A   1      47.002  29.935  28.874  1.00  0.00     0.031 C 
ATOM     65  C   UNL A   1      44.591  30.837  29.177  1.00  0.00     0.037 A 
BRANCH  52  66
ATOM     66  C   UNL A   1      38.610  29.293  28.810  1.00  0.00     0.057 A 
ATOM     67  C   UNL A   1      37.853  29.744  27.715  1.00  0.00     0.134 A 
ATOM     68  C   UNL A   1      37.853  29.074  29.980  1.00  0.00     0.134 A 
ATOM     69  F   UNL A   1      38.391  29.879  26.496  1.00  0.00    -0.206 F 
ATOM     70  C   UNL A   1      36.488  30.039  27.797  1.00  0.00     0.040 A 
ATOM     71  C   UNL A   1      36.496  29.411  30.093  1.00  0.00     0.040 A 
ATOM     72  F   UNL A   1      38.360  28.449  31.051  1.00  0.00    -0.206 F 
ATOM     73  C   UNL A   1      35.807  29.899  28.996  1.00  0.00     0.006 A 
ENDBRANCH  52  66
BRANCH  53  74
ATOM     74  C   UNL A   1      47.896  25.968  30.684  1.00  0.00     0.057 A 
ATOM     75  C   UNL A   1      47.994  25.750  29.296  1.00  0.00     0.134 A 
ATOM     76  C   UNL A   1      49.000  25.607  31.468  1.00  0.00     0.134 A 
ATOM     77  F   UNL A   1      46.939  25.982  28.501  1.00  0.00    -0.206 F 
ATOM     78  C   UNL A   1      49.215  25.462  28.691  1.00  0.00     0.040 A 
ATOM     79  C   UNL A   1      50.222  25.294  30.870  1.00  0.00     0.040 A 
ATOM     80  F   UNL A   1      48.965  25.726  32.803  1.00  0.00    -0.206 F 
ATOM     81  C   UNL A   1      50.344  25.289  29.480  1.00  0.00     0.006 A 
ENDBRANCH  53  74
BRANCH  65  82
ATOM     82  C   UNL A   1      44.686  32.062  28.300  1.00  0.00     0.057 A 
ATOM     83  C   UNL A   1      45.080  33.310  28.804  1.00  0.00     0.134 A 
ATOM     84  C   UNL A   1      44.264  32.079  26.953  1.00  0.00     0.134 A 
ATOM     85  F   UNL A   1      45.326  33.492  30.110  1.00  0.00    -0.206 F 
ATOM     86  C   UNL A   1      45.191  34.447  27.998  1.00  0.00     0.040 A 
ATOM     87  C   UNL A   1      44.317  33.218  26.152  1.00  0.00     0.040 A 
ATOM     88  F   UNL A   1      43.767  31.004  26.330  1.00  0.00    -0.206 F 
ATOM     89  C   UNL A   1      44.814  34.401  26.663  1.00  0.00     0.006 A 
ENDBRANCH  65  82
ENDBRANCH  39  40
ENDBRANCH  32  34
ENDBRANCH  31  32
ENDBRANCH  30  31
ENDBRANCH   1  30
TORSDOF 17
ENDMDL
MODEL 2
REMARK VINA RESULT:     -12.1      4.479      9.494
REMARK SMILES CCN(c1cccc(C)c1)c1nc(OCC(=O)OCCOC(=O)c2ccc(-c3c4nc(c(-c5c(F)cccc5F)c5ccc([nH]5)c(-c5c(F)cccc5F)c5nc(c(-c6c(F)cccc6F)c6ccc3[nH]6)C=C5)C=C4)cc2)cc(-c2ccc(C)cc2)n1
REMARK SMILES IDX 19 1 18 2 16 3 17 4 15 5 14 6 13 7 11 8 12 9 87 10 79 11
REMARK SMILES IDX 78 12 3 13 2 14 1 15 4 16 5 17 10 18 6 19 8 20 7 21 9 22
REMARK SMILES IDX 80 23 81 24 86 25 82 26 85 27 83 28 84 29 20 30 21 31 22 32
REMARK SMILES IDX 23 33 24 34 25 35 77 36 26 37 76 38 27 39 28 40 29 41 70 42
REMARK SMILES IDX 30 43 75 44 69 45 71 46 31 47 74 48 68 49 67 50 32 52 58 53
REMARK SMILES IDX 41 54 57 55 42 56 45 57 56 58 72 59 43 60 44 61 55 63 73 64
REMARK SMILES IDX 46 65 33 66 34 67 39 68 35 69 36 70 38 71 40 72 37 73 59 74
REMARK SMILES IDX 60 75 65 76 61 77 62 78 64 79 66 80 63 81 47 82 48 83 53 84
REMARK SMILES IDX 49 85 50 86 52 87 54 88 51 89
REMARK H PARENT 71 51 45 62
REMARK Flexibility Score: inf
ROOT
ATOM      1  C   UNL A   1      33.675  33.440  28.000  1.00  0.00     0.274 C 
ENDROOT
BRANCH   1   2
ATOM      2  O   UNL A   1      33.549  32.067  28.383  1.00  0.00    -0.460 OA
BRANCH   2   3
ATOM      3  C   UNL A   1      34.284  31.196  27.641  1.00  0.00     0.344 C 
ATOM      4  O   UNL A   1      35.485  31.336  27.457  1.00  0.00    -0.248 OA
BRANCH   3   5
ATOM      5  C   UNL A   1      33.370  30.096  27.054  1.00  0.00     0.353 C 
BRANCH   5   6
ATOM      6  O   UNL A   1      33.568  28.730  27.432  1.00  0.00    -0.466 OA
BRANCH   6   7
ATOM      7  C   UNL A   1      32.887  27.862  26.611  1.00  0.00     0.219 A 
ATOM      8  C   UNL A   1      32.864  25.920  25.438  1.00  0.00     0.233 A 
ATOM      9  N   UNL A   1      33.394  26.652  26.431  1.00  0.00    -0.177 NA
ATOM     10  N   UNL A   1      31.988  26.413  24.552  1.00  0.00    -0.212 NA
ATOM     11  C   UNL A   1      31.437  27.602  24.826  1.00  0.00     0.080 A 
ATOM     12  C   UNL A   1      31.774  28.311  25.960  1.00  0.00     0.097 A 
BRANCH   8  13
ATOM     13  N   UNL A   1      33.106  24.545  25.463  1.00  0.00    -0.311 N 
BRANCH  13  14
ATOM     14  C   UNL A   1      32.017  23.697  25.942  1.00  0.00     0.122 C 
ATOM     15  C   UNL A   1      32.396  22.841  27.150  1.00  0.00     0.028 C 
ENDBRANCH  13  14
BRANCH  13  16
ATOM     16  C   UNL A   1      34.293  24.004  24.948  1.00  0.00     0.044 A 
ATOM     17  C   UNL A   1      34.391  23.464  23.665  1.00  0.00     0.026 A 
ATOM     18  C   UNL A   1      35.475  24.084  25.717  1.00  0.00     0.029 A 
ATOM     19  C   UNL A   1      35.626  23.032  23.167  1.00  0.00     0.002 A 
ATOM     20  C   UNL A   1      36.716  23.652  25.235  1.00  0.00    -0.049 A 
ATOM     21  C   UNL A   1      36.781  23.127  23.946  1.00  0.00     0.003 A 
ATOM     22  C   UNL A   1      37.934  23.791  26.098  1.00  0.00     0.044 C 
ENDBRANCH  13  16
ENDBRANCH   8  13
BRANCH  11  23
ATOM     23  C   UNL A   1      30.575  28.171  23.779  1.00  0.00     0.000 A 
ATOM     24  C   UNL A   1      31.105  29.092  22.855  1.00  0.00     0.010 A 
ATOM     25  C   UNL A   1      29.202  27.922  23.732  1.00  0.00     0.010 A 
ATOM     26  C   UNL A   1      30.278  29.863  22.032  1.00  0.00     0.004 A 
ATOM     27  C   UNL A   1      28.376  28.643  22.857  1.00  0.00     0.004 A 
ATOM     28  C   UNL A   1      28.899  29.660  22.047  1.00  0.00    -0.051 A 
ATOM     29  C   UNL A   1      27.999  30.486  21.178  1.00  0.00     0.044 C 
ENDBRANCH  11  23
ENDBRANCH   6   7
ENDBRANCH   5   6
ENDBRANCH   3   5
ENDBRANCH   2   3
ENDBRANCH   1   2
BRANCH   1  30
ATOM     30  C   UNL A   1      33.579  34.454  29.168  1.00  0.00     0.275 C 
BRANCH  30  31
ATOM     31  O   UNL A   1      33.811  34.022  30.550  1.00  0.00    -0.458 OA
BRANCH  31  32
ATOM     32  C   UNL A   1      34.926  33.959  31.308  1.00  0.00     0.338 C 
ATOM     33  O   UNL A   1      35.209  34.743  32.212  1.00  0.00    -0.246 OA
BRANCH  32  34
ATOM     34  C   UNL A   1      35.795  32.826  31.167  1.00  0.00     0.060 A 
ATOM     35  C   UNL A   1      35.664  31.666  31.960  1.00  0.00     0.016 A 
ATOM     36  C   UNL A   1      36.818  33.002  30.272  1.00  0.00     0.016 A 
ATOM     37  C   UNL A   1      36.647  30.705  31.869  1.00  0.00     0.010 A 
ATOM     38  C   UNL A   1      37.531  31.921  29.916  1.00  0.00     0.010 A 
ATOM     39  C   UNL A   1      37.587  30.908  30.870  1.00  0.00    -0.014 A 
BRANCH  39  40
ATOM     40  C   UNL A   1      38.926  30.386  30.884  1.00  0.00     0.031 A 
ATOM     41  C   UNL A   1      39.131  29.179  30.110  1.00  0.00     0.074 A 
ATOM     42  C   UNL A   1      39.824  31.306  31.313  1.00  0.00     0.049 A 
ATOM     43  N   UNL A   1      39.788  28.153  30.517  1.00  0.00    -0.248 NA
ATOM     44  C   UNL A   1      38.454  28.979  28.823  1.00  0.00     0.031 C 
ATOM     45  C   UNL A   1      41.221  31.495  30.990  1.00  0.00     0.029 A 
ATOM     46  N   UNL A   1      39.564  32.423  32.098  1.00  0.00    -0.354 N 
ATOM     47  C   UNL A   1      40.050  27.467  29.355  1.00  0.00     0.074 A 
ATOM     48  C   UNL A   1      38.964  27.801  28.459  1.00  0.00     0.031 C 
ATOM     49  C   UNL A   1      41.728  32.454  31.798  1.00  0.00     0.029 A 
ATOM     50  C   UNL A   1      40.702  32.878  32.743  1.00  0.00     0.049 A 
ATOM     51  H   UNL A   1      38.678  32.841  32.184  1.00  0.00     0.167 HD
ATOM     52  C   UNL A   1      41.348  27.162  29.052  1.00  0.00     0.037 A 
ATOM     53  C   UNL A   1      40.748  32.751  34.108  1.00  0.00     0.037 A 
ATOM     54  C   UNL A   1      42.273  27.827  29.996  1.00  0.00     0.049 A 
ATOM     55  C   UNL A   1      41.332  31.407  34.489  1.00  0.00     0.074 A 
ATOM     56  C   UNL A   1      43.177  28.873  29.893  1.00  0.00     0.029 A 
ATOM     57  N   UNL A   1      42.098  27.646  31.357  1.00  0.00    -0.354 N 
ATOM     58  N   UNL A   1      41.979  30.633  33.662  1.00  0.00    -0.248 NA
ATOM     59  C   UNL A   1      41.157  30.796  35.804  1.00  0.00     0.031 C 
ATOM     60  C   UNL A   1      43.559  29.277  31.215  1.00  0.00     0.029 A 
ATOM     61  C   UNL A   1      42.886  28.483  32.123  1.00  0.00     0.049 A 
ATOM     62  H   UNL A   1      41.476  26.987  31.741  1.00  0.00     0.167 HD
ATOM     63  C   UNL A   1      42.204  29.422  34.245  1.00  0.00     0.074 A 
ATOM     64  C   UNL A   1      41.680  29.577  35.595  1.00  0.00     0.031 C 
ATOM     65  C   UNL A   1      42.769  28.371  33.575  1.00  0.00     0.037 A 
BRANCH  52  66
ATOM     66  C   UNL A   1      41.789  26.539  27.746  1.00  0.00     0.057 A 
ATOM     67  C   UNL A   1      41.997  25.152  27.653  1.00  0.00     0.134 A 
ATOM     68  C   UNL A   1      41.945  27.227  26.525  1.00  0.00     0.134 A 
ATOM     69  F   UNL A   1      41.764  24.334  28.687  1.00  0.00    -0.206 F 
ATOM     70  C   UNL A   1      42.412  24.518  26.477  1.00  0.00     0.040 A 
ATOM     71  C   UNL A   1      42.409  26.614  25.352  1.00  0.00     0.040 A 
ATOM     72  F   UNL A   1      41.584  28.508  26.377  1.00  0.00    -0.206 F 
ATOM     73  C   UNL A   1      42.647  25.252  25.325  1.00  0.00     0.006 A 
ENDBRANCH  52  66
BRANCH  53  74
ATOM     74  C   UNL A   1      39.544  33.387  34.737  1.00  0.00     0.057 A 
ATOM     75  C   UNL A   1      38.531  32.499  35.147  1.00  0.00     0.134 A 
ATOM     76  C   UNL A   1      39.641  34.607  35.419  1.00  0.00     0.134 A 
ATOM     77  F   UNL A   1      38.321  31.358  34.474  1.00  0.00    -0.206 F 
ATOM     78  C   UNL A   1      37.845  32.685  36.345  1.00  0.00     0.040 A 
ATOM     79  C   UNL A   1      38.939  34.811  36.609  1.00  0.00     0.040 A 
ATOM     80  F   UNL A   1      40.539  35.532  35.052  1.00  0.00    -0.206 F 
ATOM     81  C   UNL A   1      38.093  33.820  37.105  1.00  0.00     0.006 A 
ENDBRANCH  53  74
BRANCH  65  82
ATOM     82  C   UNL A   1      43.208  27.104  34.267  1.00  0.00     0.057 A 
ATOM     83  C   UNL A   1      42.288  26.171  34.768  1.00  0.00     0.134 A 
ATOM     84  C   UNL A   1      44.557  26.825  34.578  1.00  0.00     0.134 A 
ATOM     85  F   UNL A   1      40.967  26.395  34.719  1.00  0.00    -0.206 F 
ATOM     86  C   UNL A   1      42.684  24.985  35.393  1.00  0.00     0.040 A 
ATOM     87  C   UNL A   1      44.961  25.673  35.250  1.00  0.00     0.040 A 
ATOM     88  F   UNL A   1      45.564  27.649  34.264  1.00  0.00    -0.206 F 
ATOM     89  C   UNL A   1      44.027  24.730  35.631  1.00  0.00     0.006 A 
ENDBRANCH  65  82
ENDBRANCH  39  40
ENDBRANCH  32  34
ENDBRANCH  31  32
ENDBRANCH  30  31
ENDBRANCH   1  30
TORSDOF 17
ENDMDL
MODEL 3
REMARK VINA RESULT:     -12.0      1.757      2.591
REMARK SMILES CCN(c1cccc(C)c1)c1nc(OCC(=O)OCCOC(=O)c2ccc(-c3c4nc(c(-c5c(F)cccc5F)c5ccc([nH]5)c(-c5c(F)cccc5F)c5nc(c(-c6c(F)cccc6F)c6ccc3[nH]6)C=C5)C=C4)cc2)cc(-c2ccc(C)cc2)n1
REMARK SMILES IDX 19 1 18 2 16 3 17 4 15 5 14 6 13 7 11 8 12 9 87 10 79 11
REMARK SMILES IDX 78 12 3 13 2 14 1 15 4 16 5 17 10 18 6 19 8 20 7 21 9 22
REMARK SMILES IDX 80 23 81 24 86 25 82 26 85 27 83 28 84 29 20 30 21 31 22 32
REMARK SMILES IDX 23 33 24 34 25 35 77 36 26 37 76 38 27 39 28 40 29 41 70 42
REMARK SMILES IDX 30 43 75 44 69 45 71 46 31 47 74 48 68 49 67 50 32 52 58 53
REMARK SMILES IDX 41 54 57 55 42 56 45 57 56 58 72 59 43 60 44 61 55 63 73 64
REMARK SMILES IDX 46 65 33 66 34 67 39 68 35 69 36 70 38 71 40 72 37 73 59 74
REMARK SMILES IDX 60 75 65 76 61 77 62 78 64 79 66 80 63 81 47 82 48 83 53 84
REMARK SMILES IDX 49 85 50 86 52 87 54 88 51 89
REMARK H PARENT 71 51 45 62
REMARK Flexibility Score: inf
ROOT
ATOM      1  C   UNL A   1      41.136  20.614  27.520  1.00  0.00     0.274 C 
ENDROOT
BRANCH   1   2
ATOM      2  O   UNL A   1      40.123  21.477  26.995  1.00  0.00    -0.460 OA
BRANCH   2   3
ATOM      3  C   UNL A   1      39.317  20.909  26.058  1.00  0.00     0.344 C 
ATOM      4  O   UNL A   1      39.393  19.728  25.750  1.00  0.00    -0.248 OA
BRANCH   3   5
ATOM      5  C   UNL A   1      38.382  21.976  25.443  1.00  0.00     0.353 C 
BRANCH   5   6
ATOM      6  O   UNL A   1      37.170  22.333  26.115  1.00  0.00    -0.466 OA
BRANCH   6   7
ATOM      7  C   UNL A   1      36.057  22.037  25.364  1.00  0.00     0.219 A 
ATOM      8  C   UNL A   1      34.017  22.664  24.593  1.00  0.00     0.233 A 
ATOM      9  N   UNL A   1      35.209  23.019  25.098  1.00  0.00    -0.177 NA
ATOM     10  N   UNL A   1      33.608  21.391  24.508  1.00  0.00    -0.212 NA
ATOM     11  C   UNL A   1      34.525  20.435  24.699  1.00  0.00     0.080 A 
ATOM     12  C   UNL A   1      35.836  20.739  25.001  1.00  0.00     0.097 A 
BRANCH   8  13
ATOM     13  N   UNL A   1      33.268  23.662  23.967  1.00  0.00    -0.311 N 
BRANCH  13  14
ATOM     14  C   UNL A   1      32.342  23.230  22.924  1.00  0.00     0.122 C 
ATOM     15  C   UNL A   1      30.875  23.489  23.264  1.00  0.00     0.028 C 
ENDBRANCH  13  14
BRANCH  13  16
ATOM     16  C   UNL A   1      33.325  24.996  24.400  1.00  0.00     0.044 A 
ATOM     17  C   UNL A   1      33.234  25.366  25.742  1.00  0.00     0.026 A 
ATOM     18  C   UNL A   1      33.575  26.015  23.455  1.00  0.00     0.029 A 
ATOM     19  C   UNL A   1      33.400  26.702  26.124  1.00  0.00     0.002 A 
ATOM     20  C   UNL A   1      33.738  27.356  23.820  1.00  0.00    -0.049 A 
ATOM     21  C   UNL A   1      33.652  27.691  25.170  1.00  0.00     0.003 A 
ATOM     22  C   UNL A   1      34.027  28.381  22.765  1.00  0.00     0.044 C 
ENDBRANCH  13  16
ENDBRANCH   8  13
BRANCH  11  23
ATOM     23  C   UNL A   1      34.022  19.052  24.720  1.00  0.00     0.000 A 
ATOM     24  C   UNL A   1      32.872  18.733  25.468  1.00  0.00     0.010 A 
ATOM     25  C   UNL A   1      34.715  18.002  24.114  1.00  0.00     0.010 A 
ATOM     26  C   UNL A   1      32.524  17.408  25.744  1.00  0.00     0.004 A 
ATOM     27  C   UNL A   1      34.326  16.672  24.331  1.00  0.00     0.004 A 
ATOM     28  C   UNL A   1      33.267  16.364  25.196  1.00  0.00    -0.051 A 
ATOM     29  C   UNL A   1      32.910  14.938  25.492  1.00  0.00     0.044 C 
ENDBRANCH  11  23
ENDBRANCH   6   7
ENDBRANCH   5   6
ENDBRANCH   3   5
ENDBRANCH   2   3
ENDBRANCH   1   2
BRANCH   1  30
ATOM     30  C   UNL A   1      42.373  20.430  26.604  1.00  0.00     0.275 C 
BRANCH  30  31
ATOM     31  O   UNL A   1      43.274  21.554  26.335  1.00  0.00    -0.458 OA
BRANCH  31  32
ATOM     32  C   UNL A   1      43.216  22.575  25.453  1.00  0.00     0.338 C 
ATOM     33  O   UNL A   1      43.441  22.479  24.248  1.00  0.00    -0.246 OA
BRANCH  32  34
ATOM     34  C   UNL A   1      42.722  23.846  25.898  1.00  0.00     0.060 A 
ATOM     35  C   UNL A   1      42.459  24.911  25.011  1.00  0.00     0.016 A 
ATOM     36  C   UNL A   1      42.620  23.971  27.259  1.00  0.00     0.016 A 
ATOM     37  C   UNL A   1      42.151  26.141  25.549  1.00  0.00     0.010 A 
ATOM     38  C   UNL A   1      41.957  25.034  27.742  1.00  0.00     0.010 A 
ATOM     39  C   UNL A   1      41.965  26.160  26.924  1.00  0.00    -0.014 A 
BRANCH  39  40
ATOM     40  C   UNL A   1      42.143  27.315  27.760  1.00  0.00     0.031 A 
ATOM     41  C   UNL A   1      40.937  28.062  28.053  1.00  0.00     0.074 A 
ATOM     42  C   UNL A   1      43.330  27.289  28.415  1.00  0.00     0.049 A 
ATOM     43  N   UNL A   1      40.841  29.342  28.005  1.00  0.00    -0.248 NA
ATOM     44  C   UNL A   1      39.659  27.379  28.288  1.00  0.00     0.031 C 
ATOM     45  C   UNL A   1      43.720  27.829  29.698  1.00  0.00     0.029 A 
ATOM     46  N   UNL A   1      44.469  26.582  28.050  1.00  0.00    -0.354 N 
ATOM     47  C   UNL A   1      39.697  29.598  28.722  1.00  0.00     0.074 A 
ATOM     48  C   UNL A   1      38.872  28.420  28.561  1.00  0.00     0.031 C 
ATOM     49  C   UNL A   1      45.057  27.683  29.843  1.00  0.00     0.029 A 
ATOM     50  C   UNL A   1      45.613  27.113  28.621  1.00  0.00     0.049 A 
ATOM     51  H   UNL A   1      44.462  25.795  27.458  1.00  0.00     0.167 HD
ATOM     52  C   UNL A   1      39.767  30.458  29.783  1.00  0.00     0.037 A 
ATOM     53  C   UNL A   1      46.519  27.709  27.782  1.00  0.00     0.037 A 
ATOM     54  C   UNL A   1      41.173  30.816  30.071  1.00  0.00     0.049 A 
ATOM     55  C   UNL A   1      46.186  29.175  27.607  1.00  0.00     0.074 A 
ATOM     56  C   UNL A   1      42.060  30.514  31.092  1.00  0.00     0.029 A 
ATOM     57  N   UNL A   1      41.965  31.325  29.056  1.00  0.00    -0.354 N 
ATOM     58  N   UNL A   1      45.364  29.832  28.379  1.00  0.00    -0.248 NA
ATOM     59  C   UNL A   1      46.684  29.989  26.501  1.00  0.00     0.031 C 
ATOM     60  C   UNL A   1      43.380  30.890  30.674  1.00  0.00     0.029 A 
ATOM     61  C   UNL A   1      43.299  31.416  29.399  1.00  0.00     0.049 A 
ATOM     62  H   UNL A   1      41.612  31.597  28.178  1.00  0.00     0.167 HD
ATOM     63  C   UNL A   1      45.125  31.066  27.853  1.00  0.00     0.074 A 
ATOM     64  C   UNL A   1      45.986  31.122  26.680  1.00  0.00     0.031 C 
ATOM     65  C   UNL A   1      44.218  31.937  28.390  1.00  0.00     0.037 A 
BRANCH  52  66
ATOM     66  C   UNL A   1      38.623  30.719  30.737  1.00  0.00     0.057 A 
ATOM     67  C   UNL A   1      37.553  31.548  30.359  1.00  0.00     0.134 A 
ATOM     68  C   UNL A   1      38.468  30.124  32.007  1.00  0.00     0.134 A 
ATOM     69  F   UNL A   1      37.480  32.087  29.136  1.00  0.00    -0.206 F 
ATOM     70  C   UNL A   1      36.472  31.834  31.200  1.00  0.00     0.040 A 
ATOM     71  C   UNL A   1      37.417  30.439  32.880  1.00  0.00     0.040 A 
ATOM     72  F   UNL A   1      39.277  29.148  32.441  1.00  0.00    -0.206 F 
ATOM     73  C   UNL A   1      36.412  31.301  32.477  1.00  0.00     0.006 A 
ENDBRANCH  52  66
BRANCH  53  74
ATOM     74  C   UNL A   1      46.915  26.769  26.682  1.00  0.00     0.057 A 
ATOM     75  C   UNL A   1      47.759  25.708  27.062  1.00  0.00     0.134 A 
ATOM     76  C   UNL A   1      46.085  26.561  25.572  1.00  0.00     0.134 A 
ATOM     77  F   UNL A   1      48.647  25.875  28.053  1.00  0.00    -0.206 F 
ATOM     78  C   UNL A   1      47.584  24.423  26.552  1.00  0.00     0.040 A 
ATOM     79  C   UNL A   1      45.921  25.281  25.040  1.00  0.00     0.040 A 
ATOM     80  F   UNL A   1      45.295  27.540  25.109  1.00  0.00    -0.206 F 
ATOM     81  C   UNL A   1      46.622  24.201  25.577  1.00  0.00     0.006 A 
ENDBRANCH  53  74
BRANCH  65  82
ATOM     82  C   UNL A   1      44.099  33.373  27.939  1.00  0.00     0.057 A 
ATOM     83  C   UNL A   1      44.193  34.446  28.837  1.00  0.00     0.134 A 
ATOM     84  C   UNL A   1      43.754  33.739  26.620  1.00  0.00     0.134 A 
ATOM     85  F   UNL A   1      44.326  34.246  30.157  1.00  0.00    -0.206 F 
ATOM     86  C   UNL A   1      44.104  35.780  28.428  1.00  0.00     0.040 A 
ATOM     87  C   UNL A   1      43.607  35.063  26.210  1.00  0.00     0.040 A 
ATOM     88  F   UNL A   1      43.529  32.845  25.650  1.00  0.00    -0.206 F 
ATOM     89  C   UNL A   1      43.815  36.092  27.107  1.00  0.00     0.006 A 
ENDBRANCH  65  82
ENDBRANCH  39  40
ENDBRANCH  32  34
ENDBRANCH  31  32
ENDBRANCH  30  31
ENDBRANCH   1  30
TORSDOF 17
ENDMDL
