MODEL 1
REMARK VINA RESULT:     -12.2      0.000      0.000
REMARK SMILES O=C(CCC(=O)N1CCC[C@@]2(CCC(=O)N(Cc3ccncc3)C2)C1)OCCOC(=O)c1ccc(-c2c3nc(c(-c4c(F)cccc4F)c4ccc([nH]4)c(-c4c(F)cccc4F)c4nc(c(-c5c(F)cccc5F)c5ccc2[nH]5)C=C4)C=C3)cc1
REMARK SMILES IDX 26 1 2 2 1 3 3 4 4 5 5 6 6 7 7 8 8 9 25 10 9 11 11 12 10 13
REMARK SMILES IDX 12 14 24 15 13 16 16 17 14 18 15 19 17 20 18 21 19 22 23 23
REMARK SMILES IDX 20 24 22 25 21 26 27 27 28 28 29 29 30 30 31 31 32 32 33 33
REMARK SMILES IDX 85 34 34 35 84 36 35 37 36 38 37 39 78 40 38 41 83 42 77 43
REMARK SMILES IDX 79 44 39 45 82 46 76 47 75 48 40 50 66 51 49 52 65 53 50 54
REMARK SMILES IDX 53 55 64 56 80 57 51 58 52 59 63 61 81 62 54 63 41 64 42 65
REMARK SMILES IDX 47 66 43 67 44 68 46 69 48 70 45 71 67 72 68 73 73 74 69 75
REMARK SMILES IDX 70 76 72 77 74 78 71 79 55 80 56 81 61 82 57 83 58 84 60 85
REMARK SMILES IDX 62 86 59 87
REMARK H PARENT 79 49 53 60
REMARK Flexibility Score: inf
ROOT
ATOM      1  O   UNL A   1      42.154  20.598  25.687  1.00  0.00    -0.462 OA
ENDROOT
BRANCH   1   2
ATOM      2  C   UNL A   1      41.451  20.499  26.831  1.00  0.00     0.306 C 
ATOM      3  O   UNL A   1      41.752  19.654  27.674  1.00  0.00    -0.252 OA
BRANCH   2   4
ATOM      4  C   UNL A   1      40.347  21.481  27.098  1.00  0.00     0.132 C 
BRANCH   4   5
ATOM      5  C   UNL A   1      39.276  21.510  26.010  1.00  0.00     0.112 C 
BRANCH   5   6
ATOM      6  C   UNL A   1      38.413  22.758  26.098  1.00  0.00     0.223 C 
ATOM      7  O   UNL A   1      38.887  23.781  26.596  1.00  0.00    -0.275 OA
BRANCH   6   8
ATOM      8  N   UNL A   1      37.064  22.639  25.774  1.00  0.00    -0.342 N 
ATOM      9  C   UNL A   1      36.616  21.328  25.272  1.00  0.00     0.119 C 
ATOM     10  C   UNL A   1      36.171  23.799  25.709  1.00  0.00     0.128 C 
ATOM     11  C   UNL A   1      35.135  21.118  24.984  1.00  0.00     0.022 C 
ATOM     12  C   UNL A   1      34.695  23.428  25.856  1.00  0.00     0.006 C 
ATOM     13  C   UNL A   1      34.383  22.409  24.744  1.00  0.00     0.012 C 
ATOM     14  C   UNL A   1      34.447  22.918  27.290  1.00  0.00     0.020 C 
ATOM     15  C   UNL A   1      33.806  24.662  25.686  1.00  0.00     0.128 C 
ATOM     16  C   UNL A   1      33.000  22.537  27.503  1.00  0.00     0.101 C 
ATOM     17  N   UNL A   1      32.400  24.331  25.907  1.00  0.00    -0.338 N 
ATOM     18  C   UNL A   1      31.984  23.512  26.951  1.00  0.00     0.222 C 
ATOM     19  O   UNL A   1      30.816  23.415  27.325  1.00  0.00    -0.275 OA
BRANCH  17  20
ATOM     20  C   UNL A   1      31.422  24.757  24.912  1.00  0.00     0.155 C 
BRANCH  20  21
ATOM     21  C   UNL A   1      31.460  26.225  24.604  1.00  0.00    -0.026 A 
ATOM     22  C   UNL A   1      31.807  26.690  23.337  1.00  0.00     0.025 A 
ATOM     23  C   UNL A   1      31.215  27.157  25.617  1.00  0.00     0.025 A 
ATOM     24  C   UNL A   1      31.905  28.058  23.144  1.00  0.00     0.111 A 
ATOM     25  C   UNL A   1      31.348  28.503  25.328  1.00  0.00     0.111 A 
ATOM     26  N   UNL A   1      31.677  28.977  24.108  1.00  0.00    -0.265 NA
ENDBRANCH  20  21
ENDBRANCH  17  20
ENDBRANCH   6   8
ENDBRANCH   5   6
ENDBRANCH   4   5
ENDBRANCH   2   4
ENDBRANCH   1   2
BRANCH   1  27
ATOM     27  C   UNL A   1      43.547  20.251  25.466  1.00  0.00     0.274 C 
BRANCH  27  28
ATOM     28  C   UNL A   1      44.350  21.555  25.421  1.00  0.00     0.275 C 
BRANCH  28  29
ATOM     29  O   UNL A   1      43.443  22.648  25.604  1.00  0.00    -0.458 OA
BRANCH  29  30
ATOM     30  C   UNL A   1      43.993  23.861  25.319  1.00  0.00     0.338 C 
ATOM     31  O   UNL A   1      44.754  24.109  24.414  1.00  0.00    -0.246 OA
BRANCH  30  32
ATOM     32  C   UNL A   1      43.302  24.873  26.165  1.00  0.00     0.060 A 
ATOM     33  C   UNL A   1      43.492  26.232  25.882  1.00  0.00     0.016 A 
ATOM     34  C   UNL A   1      42.414  24.485  27.177  1.00  0.00     0.016 A 
ATOM     35  C   UNL A   1      42.857  27.205  26.656  1.00  0.00     0.010 A 
ATOM     36  C   UNL A   1      41.772  25.451  27.942  1.00  0.00     0.010 A 
ATOM     37  C   UNL A   1      42.038  26.811  27.721  1.00  0.00    -0.014 A 
BRANCH  37  38
ATOM     38  C   UNL A   1      41.669  27.757  28.793  1.00  0.00     0.031 A 
ATOM     39  C   UNL A   1      42.426  27.650  30.088  1.00  0.00     0.074 A 
ATOM     40  C   UNL A   1      40.639  28.609  28.660  1.00  0.00     0.049 A 
ATOM     41  N   UNL A   1      42.194  28.224  31.238  1.00  0.00    -0.248 NA
ATOM     42  C   UNL A   1      43.589  26.744  30.088  1.00  0.00     0.031 C 
ATOM     43  C   UNL A   1      39.846  28.798  27.449  1.00  0.00     0.029 A 
ATOM     44  N   UNL A   1      40.067  29.448  29.579  1.00  0.00    -0.354 N 
ATOM     45  C   UNL A   1      43.171  27.738  32.098  1.00  0.00     0.074 A 
ATOM     46  C   UNL A   1      43.973  26.796  31.352  1.00  0.00     0.031 C 
ATOM     47  C   UNL A   1      38.865  29.683  27.709  1.00  0.00     0.029 A 
ATOM     48  C   UNL A   1      38.947  30.091  29.111  1.00  0.00     0.049 A 
ATOM     49  H   UNL A   1      40.423  29.579  30.487  1.00  0.00     0.167 HD
ATOM     50  C   UNL A   1      43.384  28.055  33.395  1.00  0.00     0.037 A 
ATOM     51  C   UNL A   1      38.076  30.889  29.758  1.00  0.00     0.037 A 
ATOM     52  C   UNL A   1      42.577  28.990  34.128  1.00  0.00     0.049 A 
ATOM     53  C   UNL A   1      38.300  31.186  31.221  1.00  0.00     0.074 A 
ATOM     54  C   UNL A   1      42.726  29.419  35.434  1.00  0.00     0.029 A 
ATOM     55  N   UNL A   1      41.460  29.633  33.616  1.00  0.00    -0.354 N 
ATOM     56  N   UNL A   1      39.257  30.767  32.015  1.00  0.00    -0.248 NA
ATOM     57  C   UNL A   1      37.320  32.064  31.877  1.00  0.00     0.031 C 
ATOM     58  C   UNL A   1      41.665  30.279  35.730  1.00  0.00     0.029 A 
ATOM     59  C   UNL A   1      40.889  30.432  34.591  1.00  0.00     0.049 A 
ATOM     60  H   UNL A   1      41.123  29.534  32.696  1.00  0.00     0.167 HD
ATOM     61  C   UNL A   1      39.014  31.356  33.251  1.00  0.00     0.074 A 
ATOM     62  C   UNL A   1      37.824  32.167  33.098  1.00  0.00     0.031 C 
ATOM     63  C   UNL A   1      39.711  31.240  34.409  1.00  0.00     0.037 A 
BRANCH  50  64
ATOM     64  C   UNL A   1      44.516  27.368  34.099  1.00  0.00     0.057 A 
ATOM     65  C   UNL A   1      44.359  26.115  34.705  1.00  0.00     0.134 A 
ATOM     66  C   UNL A   1      45.783  27.962  34.159  1.00  0.00     0.134 A 
ATOM     67  F   UNL A   1      43.165  25.502  34.702  1.00  0.00    -0.206 F 
ATOM     68  C   UNL A   1      45.416  25.486  35.364  1.00  0.00     0.040 A 
ATOM     69  C   UNL A   1      46.854  27.330  34.791  1.00  0.00     0.040 A 
ATOM     70  F   UNL A   1      46.000  29.163  33.602  1.00  0.00    -0.206 F 
ATOM     71  C   UNL A   1      46.671  26.091  35.402  1.00  0.00     0.006 A 
ENDBRANCH  50  64
BRANCH  51  72
ATOM     72  C   UNL A   1      36.907  31.458  29.042  1.00  0.00     0.057 A 
ATOM     73  C   UNL A   1      36.907  32.788  28.603  1.00  0.00     0.134 A 
ATOM     74  C   UNL A   1      35.755  30.700  28.800  1.00  0.00     0.134 A 
ATOM     75  F   UNL A   1      37.972  33.571  28.825  1.00  0.00    -0.206 F 
ATOM     76  C   UNL A   1      35.796  33.350  27.972  1.00  0.00     0.040 A 
ATOM     77  C   UNL A   1      34.646  31.242  28.146  1.00  0.00     0.040 A 
ATOM     78  F   UNL A   1      35.691  29.419  29.191  1.00  0.00    -0.206 F 
ATOM     79  C   UNL A   1      34.662  32.574  27.738  1.00  0.00     0.006 A 
ENDBRANCH  51  72
BRANCH  63  80
ATOM     80  C   UNL A   1      39.233  32.034  35.589  1.00  0.00     0.057 A 
ATOM     81  C   UNL A   1      39.573  33.381  35.762  1.00  0.00     0.134 A 
ATOM     82  C   UNL A   1      38.366  31.459  36.527  1.00  0.00     0.134 A 
ATOM     83  F   UNL A   1      40.408  33.988  34.904  1.00  0.00    -0.206 F 
ATOM     84  C   UNL A   1      39.079  34.124  36.836  1.00  0.00     0.040 A 
ATOM     85  C   UNL A   1      37.843  32.198  37.587  1.00  0.00     0.040 A 
ATOM     86  F   UNL A   1      37.991  30.175  36.411  1.00  0.00    -0.206 F 
ATOM     87  C   UNL A   1      38.204  33.534  37.746  1.00  0.00     0.006 A 
ENDBRANCH  63  80
ENDBRANCH  37  38
ENDBRANCH  30  32
ENDBRANCH  29  30
ENDBRANCH  28  29
ENDBRANCH  27  28
ENDBRANCH   1  27
TORSDOF 16
ENDMDL
MODEL 2
REMARK VINA RESULT:     -12.1      0.930      6.196
REMARK SMILES O=C(CCC(=O)N1CCC[C@@]2(CCC(=O)N(Cc3ccncc3)C2)C1)OCCOC(=O)c1ccc(-c2c3nc(c(-c4c(F)cccc4F)c4ccc([nH]4)c(-c4c(F)cccc4F)c4nc(c(-c5c(F)cccc5F)c5ccc2[nH]5)C=C4)C=C3)cc1
REMARK SMILES IDX 26 1 2 2 1 3 3 4 4 5 5 6 6 7 7 8 8 9 25 10 9 11 11 12 10 13
REMARK SMILES IDX 12 14 24 15 13 16 16 17 14 18 15 19 17 20 18 21 19 22 23 23
REMARK SMILES IDX 20 24 22 25 21 26 27 27 28 28 29 29 30 30 31 31 32 32 33 33
REMARK SMILES IDX 85 34 34 35 84 36 35 37 36 38 37 39 78 40 38 41 83 42 77 43
REMARK SMILES IDX 79 44 39 45 82 46 76 47 75 48 40 50 66 51 49 52 65 53 50 54
REMARK SMILES IDX 53 55 64 56 80 57 51 58 52 59 63 61 81 62 54 63 41 64 42 65
REMARK SMILES IDX 47 66 43 67 44 68 46 69 48 70 45 71 67 72 68 73 73 74 69 75
REMARK SMILES IDX 70 76 72 77 74 78 71 79 55 80 56 81 61 82 57 83 58 84 60 85
REMARK SMILES IDX 62 86 59 87
REMARK H PARENT 79 49 53 60
REMARK Flexibility Score: inf
ROOT
ATOM      1  O   UNL A   1      42.550  21.851  25.500  1.00  0.00    -0.462 OA
ENDROOT
BRANCH   1   2
ATOM      2  C   UNL A   1      41.802  20.921  26.125  1.00  0.00     0.306 C 
ATOM      3  O   UNL A   1      42.137  19.737  26.103  1.00  0.00    -0.252 OA
BRANCH   2   4
ATOM      4  C   UNL A   1      40.601  21.358  26.912  1.00  0.00     0.132 C 
BRANCH   4   5
ATOM      5  C   UNL A   1      39.290  21.259  26.135  1.00  0.00     0.112 C 
BRANCH   5   6
ATOM      6  C   UNL A   1      38.546  22.584  26.107  1.00  0.00     0.223 C 
ATOM      7  O   UNL A   1      39.103  23.593  26.544  1.00  0.00    -0.275 OA
BRANCH   6   8
ATOM      8  N   UNL A   1      37.199  22.565  25.754  1.00  0.00    -0.342 N 
ATOM      9  C   UNL A   1      36.691  21.324  25.142  1.00  0.00     0.119 C 
ATOM     10  C   UNL A   1      36.371  23.774  25.767  1.00  0.00     0.128 C 
ATOM     11  C   UNL A   1      35.207  21.220  24.816  1.00  0.00     0.022 C 
ATOM     12  C   UNL A   1      34.875  23.475  25.862  1.00  0.00     0.006 C 
ATOM     13  C   UNL A   1      34.531  22.565  24.668  1.00  0.00     0.012 C 
ATOM     14  C   UNL A   1      34.572  22.868  27.247  1.00  0.00     0.020 C 
ATOM     15  C   UNL A   1      34.058  24.766  25.777  1.00  0.00     0.128 C 
ATOM     16  C   UNL A   1      33.102  22.553  27.406  1.00  0.00     0.101 C 
ATOM     17  N   UNL A   1      32.632  24.497  25.949  1.00  0.00    -0.338 N 
ATOM     18  C   UNL A   1      32.151  23.623  26.918  1.00  0.00     0.222 C 
ATOM     19  O   UNL A   1      30.973  23.562  27.265  1.00  0.00    -0.275 OA
BRANCH  17  20
ATOM     20  C   UNL A   1      31.698  25.053  24.975  1.00  0.00     0.155 C 
BRANCH  20  21
ATOM     21  C   UNL A   1      32.342  25.504  23.696  1.00  0.00    -0.026 A 
ATOM     22  C   UNL A   1      32.915  26.769  23.583  1.00  0.00     0.025 A 
ATOM     23  C   UNL A   1      32.309  24.677  22.570  1.00  0.00     0.025 A 
ATOM     24  C   UNL A   1      33.417  27.153  22.349  1.00  0.00     0.111 A 
ATOM     25  C   UNL A   1      32.827  25.155  21.380  1.00  0.00     0.111 A 
ATOM     26  N   UNL A   1      33.393  26.373  21.246  1.00  0.00    -0.265 NA
ENDBRANCH  20  21
ENDBRANCH  17  20
ENDBRANCH   6   8
ENDBRANCH   5   6
ENDBRANCH   4   5
ENDBRANCH   2   4
ENDBRANCH   1   2
BRANCH   1  27
ATOM     27  C   UNL A   1      43.963  21.781  25.172  1.00  0.00     0.274 C 
BRANCH  27  28
ATOM     28  C   UNL A   1      44.281  22.950  24.233  1.00  0.00     0.275 C 
BRANCH  28  29
ATOM     29  O   UNL A   1      43.549  24.097  24.680  1.00  0.00    -0.458 OA
BRANCH  29  30
ATOM     30  C   UNL A   1      44.343  25.094  25.156  1.00  0.00     0.338 C 
ATOM     31  O   UNL A   1      45.398  25.456  24.691  1.00  0.00    -0.246 OA
BRANCH  30  32
ATOM     32  C   UNL A   1      43.569  25.820  26.201  1.00  0.00     0.060 A 
ATOM     33  C   UNL A   1      43.822  27.183  26.403  1.00  0.00     0.016 A 
ATOM     34  C   UNL A   1      42.548  25.183  26.918  1.00  0.00     0.016 A 
ATOM     35  C   UNL A   1      43.111  27.892  27.374  1.00  0.00     0.010 A 
ATOM     36  C   UNL A   1      41.832  25.887  27.877  1.00  0.00     0.010 A 
ATOM     37  C   UNL A   1      42.153  27.227  28.147  1.00  0.00    -0.014 A 
BRANCH  37  38
ATOM     38  C   UNL A   1      41.665  27.797  29.419  1.00  0.00     0.031 A 
ATOM     39  C   UNL A   1      40.445  28.674  29.351  1.00  0.00     0.074 A 
ATOM     40  C   UNL A   1      42.333  27.627  30.572  1.00  0.00     0.049 A 
ATOM     41  N   UNL A   1      39.914  29.435  30.269  1.00  0.00    -0.248 NA
ATOM     42  C   UNL A   1      39.748  28.718  28.053  1.00  0.00     0.031 C 
ATOM     43  C   UNL A   1      43.518  26.793  30.750  1.00  0.00     0.029 A 
ATOM     44  N   UNL A   1      42.117  28.185  31.805  1.00  0.00    -0.354 N 
ATOM     45  C   UNL A   1      38.833  30.057  29.656  1.00  0.00     0.074 A 
ATOM     46  C   UNL A   1      38.804  29.616  28.281  1.00  0.00     0.031 C 
ATOM     47  C   UNL A   1      43.945  26.916  32.020  1.00  0.00     0.029 A 
ATOM     48  C   UNL A   1      43.082  27.862  32.727  1.00  0.00     0.049 A 
ATOM     49  H   UNL A   1      41.347  28.761  32.009  1.00  0.00     0.167 HD
ATOM     50  C   UNL A   1      37.939  30.915  30.196  1.00  0.00     0.037 A 
ATOM     51  C   UNL A   1      43.257  28.310  33.985  1.00  0.00     0.037 A 
ATOM     52  C   UNL A   1      37.979  31.351  31.564  1.00  0.00     0.049 A 
ATOM     53  C   UNL A   1      42.279  29.311  34.550  1.00  0.00     0.074 A 
ATOM     54  C   UNL A   1      37.101  32.185  32.229  1.00  0.00     0.029 A 
ATOM     55  N   UNL A   1      38.963  30.990  32.473  1.00  0.00    -0.354 N 
ATOM     56  N   UNL A   1      41.227  29.852  33.985  1.00  0.00    -0.248 NA
ATOM     57  C   UNL A   1      42.516  29.764  35.928  1.00  0.00     0.031 C 
ATOM     58  C   UNL A   1      37.584  32.375  33.527  1.00  0.00     0.029 A 
ATOM     59  C   UNL A   1      38.731  31.612  33.687  1.00  0.00     0.049 A 
ATOM     60  H   UNL A   1      39.714  30.383  32.282  1.00  0.00     0.167 HD
ATOM     61  C   UNL A   1      40.659  30.682  34.946  1.00  0.00     0.074 A 
ATOM     62  C   UNL A   1      41.480  30.564  36.133  1.00  0.00     0.031 C 
ATOM     63  C   UNL A   1      39.558  31.468  34.858  1.00  0.00     0.037 A 
BRANCH  50  64
ATOM     64  C   UNL A   1      36.863  31.449  29.298  1.00  0.00     0.057 A 
ATOM     65  C   UNL A   1      36.903  32.755  28.791  1.00  0.00     0.134 A 
ATOM     66  C   UNL A   1      35.781  30.643  28.925  1.00  0.00     0.134 A 
ATOM     67  F   UNL A   1      37.902  33.586  29.127  1.00  0.00    -0.206 F 
ATOM     68  C   UNL A   1      35.894  33.246  27.961  1.00  0.00     0.040 A 
ATOM     69  C   UNL A   1      34.780  31.114  28.074  1.00  0.00     0.040 A 
ATOM     70  F   UNL A   1      35.680  29.384  29.378  1.00  0.00    -0.206 F 
ATOM     71  C   UNL A   1      34.832  32.422  27.595  1.00  0.00     0.006 A 
ENDBRANCH  50  64
BRANCH  51  72
ATOM     72  C   UNL A   1      44.403  27.831  34.798  1.00  0.00     0.057 A 
ATOM     73  C   UNL A   1      44.302  26.672  35.577  1.00  0.00     0.134 A 
ATOM     74  C   UNL A   1      45.616  28.529  34.838  1.00  0.00     0.134 A 
ATOM     75  F   UNL A   1      43.158  25.972  35.598  1.00  0.00    -0.206 F 
ATOM     76  C   UNL A   1      45.355  26.238  36.383  1.00  0.00     0.040 A 
ATOM     77  C   UNL A   1      46.687  28.092  35.620  1.00  0.00     0.040 A 
ATOM     78  F   UNL A   1      45.781  29.645  34.113  1.00  0.00    -0.206 F 
ATOM     79  C   UNL A   1      46.555  26.947  36.403  1.00  0.00     0.006 A 
ENDBRANCH  51  72
BRANCH  63  80
ATOM     80  C   UNL A   1      39.152  32.233  36.084  1.00  0.00     0.057 A 
ATOM     81  C   UNL A   1      39.577  33.548  36.311  1.00  0.00     0.134 A 
ATOM     82  C   UNL A   1      38.269  31.667  37.013  1.00  0.00     0.134 A 
ATOM     83  F   UNL A   1      40.430  34.143  35.464  1.00  0.00    -0.206 F 
ATOM     84  C   UNL A   1      39.150  34.267  37.429  1.00  0.00     0.040 A 
ATOM     85  C   UNL A   1      37.814  32.386  38.117  1.00  0.00     0.040 A 
ATOM     86  F   UNL A   1      37.815  30.415  36.847  1.00  0.00    -0.206 F 
ATOM     87  C   UNL A   1      38.258  33.688  38.330  1.00  0.00     0.006 A 
ENDBRANCH  63  80
ENDBRANCH  37  38
ENDBRANCH  30  32
ENDBRANCH  29  30
ENDBRANCH  28  29
ENDBRANCH  27  28
ENDBRANCH   1  27
TORSDOF 16
ENDMDL
MODEL 3
REMARK VINA RESULT:     -12.0      0.979      6.130
REMARK SMILES O=C(CCC(=O)N1CCC[C@@]2(CCC(=O)N(Cc3ccncc3)C2)C1)OCCOC(=O)c1ccc(-c2c3nc(c(-c4c(F)cccc4F)c4ccc([nH]4)c(-c4c(F)cccc4F)c4nc(c(-c5c(F)cccc5F)c5ccc2[nH]5)C=C4)C=C3)cc1
REMARK SMILES IDX 26 1 2 2 1 3 3 4 4 5 5 6 6 7 7 8 8 9 25 10 9 11 11 12 10 13
REMARK SMILES IDX 12 14 24 15 13 16 16 17 14 18 15 19 17 20 18 21 19 22 23 23
REMARK SMILES IDX 20 24 22 25 21 26 27 27 28 28 29 29 30 30 31 31 32 32 33 33
REMARK SMILES IDX 85 34 34 35 84 36 35 37 36 38 37 39 78 40 38 41 83 42 77 43
REMARK SMILES IDX 79 44 39 45 82 46 76 47 75 48 40 50 66 51 49 52 65 53 50 54
REMARK SMILES IDX 53 55 64 56 80 57 51 58 52 59 63 61 81 62 54 63 41 64 42 65
REMARK SMILES IDX 47 66 43 67 44 68 46 69 48 70 45 71 67 72 68 73 73 74 69 75
REMARK SMILES IDX 70 76 72 77 74 78 71 79 55 80 56 81 61 82 57 83 58 84 60 85
REMARK SMILES IDX 62 86 59 87
REMARK H PARENT 79 49 53 60
REMARK Flexibility Score: inf
ROOT
ATOM      1  O   UNL A   1      42.402  21.854  25.623  1.00  0.00    -0.462 OA
ENDROOT
BRANCH   1   2
ATOM      2  C   UNL A   1      41.714  21.062  26.467  1.00  0.00     0.306 C 
ATOM      3  O   UNL A   1      42.164  19.966  26.797  1.00  0.00    -0.252 OA
BRANCH   2   4
ATOM      4  C   UNL A   1      40.430  21.567  27.060  1.00  0.00     0.132 C 
BRANCH   4   5
ATOM      5  C   UNL A   1      39.253  21.538  26.087  1.00  0.00     0.112 C 
BRANCH   5   6
ATOM      6  C   UNL A   1      38.469  22.840  26.106  1.00  0.00     0.223 C 
ATOM      7  O   UNL A   1      38.991  23.846  26.591  1.00  0.00    -0.275 OA
BRANCH   6   8
ATOM      8  N   UNL A   1      37.127  22.796  25.737  1.00  0.00    -0.342 N 
ATOM      9  C   UNL A   1      36.673  21.585  25.031  1.00  0.00     0.119 C 
ATOM     10  C   UNL A   1      36.253  23.969  25.831  1.00  0.00     0.128 C 
ATOM     11  C   UNL A   1      35.197  21.449  24.681  1.00  0.00     0.022 C 
ATOM     12  C   UNL A   1      34.769  23.607  25.887  1.00  0.00     0.006 C 
ATOM     13  C   UNL A   1      34.470  22.775  24.625  1.00  0.00     0.012 C 
ATOM     14  C   UNL A   1      34.478  22.888  27.219  1.00  0.00     0.020 C 
ATOM     15  C   UNL A   1      33.903  24.868  25.888  1.00  0.00     0.128 C 
ATOM     16  C   UNL A   1      33.020  22.506  27.338  1.00  0.00     0.101 C 
ATOM     17  N   UNL A   1      32.487  24.532  26.023  1.00  0.00    -0.338 N 
ATOM     18  C   UNL A   1      32.033  23.572  26.920  1.00  0.00     0.222 C 
ATOM     19  O   UNL A   1      30.854  23.440  27.248  1.00  0.00    -0.275 OA
BRANCH  17  20
ATOM     20  C   UNL A   1      31.540  25.123  25.083  1.00  0.00     0.155 C 
BRANCH  20  21
ATOM     21  C   UNL A   1      32.143  25.496  23.760  1.00  0.00    -0.026 A 
ATOM     22  C   UNL A   1      32.232  24.573  22.720  1.00  0.00     0.025 A 
ATOM     23  C   UNL A   1      32.693  26.769  23.578  1.00  0.00     0.025 A 
ATOM     24  C   UNL A   1      32.875  24.958  21.554  1.00  0.00     0.111 A 
ATOM     25  C   UNL A   1      33.325  27.054  22.381  1.00  0.00     0.111 A 
ATOM     26  N   UNL A   1      33.418  26.180  21.358  1.00  0.00    -0.265 NA
ENDBRANCH  20  21
ENDBRANCH  17  20
ENDBRANCH   6   8
ENDBRANCH   5   6
ENDBRANCH   4   5
ENDBRANCH   2   4
ENDBRANCH   1   2
BRANCH   1  27
ATOM     27  C   UNL A   1      43.811  21.777  25.282  1.00  0.00     0.274 C 
BRANCH  27  28
ATOM     28  C   UNL A   1      44.135  22.961  24.364  1.00  0.00     0.275 C 
BRANCH  28  29
ATOM     29  O   UNL A   1      43.421  24.107  24.842  1.00  0.00    -0.458 OA
BRANCH  29  30
ATOM     30  C   UNL A   1      44.233  25.090  25.319  1.00  0.00     0.338 C 
ATOM     31  O   UNL A   1      45.302  25.422  24.865  1.00  0.00    -0.246 OA
BRANCH  30  32
ATOM     32  C   UNL A   1      43.462  25.843  26.348  1.00  0.00     0.060 A 
ATOM     33  C   UNL A   1      43.777  27.190  26.572  1.00  0.00     0.016 A 
ATOM     34  C   UNL A   1      42.390  25.250  27.026  1.00  0.00     0.016 A 
ATOM     35  C   UNL A   1      43.071  27.923  27.529  1.00  0.00     0.010 A 
ATOM     36  C   UNL A   1      41.679  25.980  27.970  1.00  0.00     0.010 A 
ATOM     37  C   UNL A   1      42.057  27.300  28.265  1.00  0.00    -0.014 A 
BRANCH  37  38
ATOM     38  C   UNL A   1      41.559  27.882  29.527  1.00  0.00     0.031 A 
ATOM     39  C   UNL A   1      40.342  28.760  29.440  1.00  0.00     0.074 A 
ATOM     40  C   UNL A   1      42.215  27.719  30.688  1.00  0.00     0.049 A 
ATOM     41  N   UNL A   1      39.804  29.530  30.347  1.00  0.00    -0.248 NA
ATOM     42  C   UNL A   1      39.657  28.794  28.135  1.00  0.00     0.031 C 
ATOM     43  C   UNL A   1      43.397  26.884  30.884  1.00  0.00     0.029 A 
ATOM     44  N   UNL A   1      41.989  28.288  31.914  1.00  0.00    -0.354 N 
ATOM     45  C   UNL A   1      38.729  30.148  29.719  1.00  0.00     0.074 A 
ATOM     46  C   UNL A   1      38.713  29.696  28.347  1.00  0.00     0.031 C 
ATOM     47  C   UNL A   1      43.813  27.017  32.157  1.00  0.00     0.029 A 
ATOM     48  C   UNL A   1      42.945  27.970  32.848  1.00  0.00     0.049 A 
ATOM     49  H   UNL A   1      41.218  28.867  32.107  1.00  0.00     0.167 HD
ATOM     50  C   UNL A   1      37.832  31.013  30.244  1.00  0.00     0.037 A 
ATOM     51  C   UNL A   1      43.108  28.428  34.104  1.00  0.00     0.037 A 
ATOM     52  C   UNL A   1      37.860  31.460  31.608  1.00  0.00     0.049 A 
ATOM     53  C   UNL A   1      42.127  29.436  34.652  1.00  0.00     0.074 A 
ATOM     54  C   UNL A   1      36.977  32.301  32.258  1.00  0.00     0.029 A 
ATOM     55  N   UNL A   1      38.835  31.104  32.529  1.00  0.00    -0.354 N 
ATOM     56  N   UNL A   1      41.082  29.975  34.072  1.00  0.00    -0.248 NA
ATOM     57  C   UNL A   1      42.352  29.900  36.028  1.00  0.00     0.031 C 
ATOM     58  C   UNL A   1      37.449  32.501  33.559  1.00  0.00     0.029 A 
ATOM     59  C   UNL A   1      38.593  31.737  33.736  1.00  0.00     0.049 A 
ATOM     60  H   UNL A   1      39.586  30.495  32.351  1.00  0.00     0.167 HD
ATOM     61  C   UNL A   1      40.507  30.813  35.021  1.00  0.00     0.074 A 
ATOM     62  C   UNL A   1      41.316  30.704  36.216  1.00  0.00     0.031 C 
ATOM     63  C   UNL A   1      39.408  31.601  34.916  1.00  0.00     0.037 A 
BRANCH  50  64
ATOM     64  C   UNL A   1      36.766  31.542  29.331  1.00  0.00     0.057 A 
ATOM     65  C   UNL A   1      35.661  30.766  28.955  1.00  0.00     0.134 A 
ATOM     66  C   UNL A   1      36.839  32.849  28.833  1.00  0.00     0.134 A 
ATOM     67  F   UNL A   1      35.542  29.499  29.380  1.00  0.00    -0.206 F 
ATOM     68  C   UNL A   1      34.678  31.265  28.099  1.00  0.00     0.040 A 
ATOM     69  C   UNL A   1      35.848  33.367  27.999  1.00  0.00     0.040 A 
ATOM     70  F   UNL A   1      37.872  33.643  29.151  1.00  0.00    -0.206 F 
ATOM     71  C   UNL A   1      34.766  32.572  27.624  1.00  0.00     0.006 A 
ENDBRANCH  50  64
BRANCH  51  72
ATOM     72  C   UNL A   1      44.246  27.954  34.932  1.00  0.00     0.057 A 
ATOM     73  C   UNL A   1      45.471  28.634  34.931  1.00  0.00     0.134 A 
ATOM     74  C   UNL A   1      44.150  26.802  35.721  1.00  0.00     0.134 A 
ATOM     75  F   UNL A   1      45.632  29.732  34.179  1.00  0.00    -0.206 F 
ATOM     76  C   UNL A   1      46.563  28.172  35.666  1.00  0.00     0.040 A 
ATOM     77  C   UNL A   1      45.227  26.343  36.481  1.00  0.00     0.040 A 
ATOM     78  F   UNL A   1      43.004  26.106  35.768  1.00  0.00    -0.206 F 
ATOM     79  C   UNL A   1      46.442  27.025  36.448  1.00  0.00     0.006 A 
ENDBRANCH  51  72
BRANCH  63  80
ATOM     80  C   UNL A   1      38.992  32.377  36.132  1.00  0.00     0.057 A 
ATOM     81  C   UNL A   1      38.196  31.810  37.135  1.00  0.00     0.134 A 
ATOM     82  C   UNL A   1      39.451  33.685  36.330  1.00  0.00     0.134 A 
ATOM     83  F   UNL A   1      37.716  30.564  37.000  1.00  0.00    -0.206 F 
ATOM     84  C   UNL A   1      37.860  32.524  38.286  1.00  0.00     0.040 A 
ATOM     85  C   UNL A   1      39.145  34.397  37.489  1.00  0.00     0.040 A 
ATOM     86  F   UNL A   1      40.227  34.282  35.411  1.00  0.00    -0.206 F 
ATOM     87  C   UNL A   1      38.343  33.818  38.469  1.00  0.00     0.006 A 
ENDBRANCH  63  80
ENDBRANCH  37  38
ENDBRANCH  30  32
ENDBRANCH  29  30
ENDBRANCH  28  29
ENDBRANCH  27  28
ENDBRANCH   1  27
TORSDOF 16
ENDMDL
