MODEL 1
REMARK VINA RESULT:     -11.9      0.000      0.000
REMARK SMILES COC(=O)c1ccc(C)c(NC(=O)[C@H]2CC=CC[C@H]2C(=O)OCCOC(=O)c2ccc(-c3c4nc(c(-c5c(F)cccc5F)c5ccc([nH]5)c(-c5c(F)cccc5F)c5nc(c(-c6c(F)cccc6F)c6ccc3[nH]6)C=C5)C=C4)cc2)c1
REMARK SMILES IDX 23 1 22 2 20 3 21 4 19 5 14 6 15 7 16 8 18 9 17 10 12 11
REMARK SMILES IDX 11 12 13 14 10 15 5 16 6 17 82 18 7 19 8 20 9 21 3 22 4 23
REMARK SMILES IDX 2 24 1 25 24 26 25 27 26 28 27 29 28 30 29 31 81 32 30 33
REMARK SMILES IDX 80 34 31 35 32 36 33 37 74 38 34 39 79 40 73 41 75 42 35 43
REMARK SMILES IDX 78 44 72 45 71 46 36 48 62 49 45 50 61 51 46 52 49 53 60 54
REMARK SMILES IDX 76 55 47 56 48 57 59 59 77 60 50 61 37 62 38 63 43 64 39 65
REMARK SMILES IDX 40 66 42 67 44 68 41 69 63 70 64 71 69 72 65 73 66 74 68 75
REMARK SMILES IDX 70 76 67 77 51 78 52 79 57 80 53 81 54 82 56 83 58 84 55 85
REMARK H PARENT 11 13 75 47 49 58
REMARK Flexibility Score: inf
ROOT
ATOM      1  C   UNL A   1      32.718  29.231  24.523  1.00  0.00     0.274 C 
ENDROOT
BRANCH   1   2
ATOM      2  O   UNL A   1      32.405  27.898  24.138  1.00  0.00    -0.462 OA
BRANCH   2   3
ATOM      3  C   UNL A   1      33.178  26.887  24.601  1.00  0.00     0.310 C 
ATOM      4  O   UNL A   1      34.403  26.947  24.712  1.00  0.00    -0.252 OA
BRANCH   3   5
ATOM      5  C   UNL A   1      32.280  25.707  24.906  1.00  0.00     0.116 C 
ATOM      6  C   UNL A   1      32.013  24.937  23.627  1.00  0.00     0.097 C 
ATOM      7  C   UNL A   1      30.827  23.963  23.858  1.00  0.00     0.041 C 
ATOM      8  C   UNL A   1      30.806  23.303  25.229  1.00  0.00    -0.030 C 
ATOM      9  C   UNL A   1      32.547  24.857  26.147  1.00  0.00     0.043 C 
ATOM     10  C   UNL A   1      31.609  23.680  26.236  1.00  0.00    -0.030 C 
BRANCH   6  11
ATOM     11  C   UNL A   1      33.361  24.817  22.835  1.00  0.00     0.228 C 
ATOM     12  N   UNL A   1      34.497  24.161  23.239  1.00  0.00    -0.326 N 
ATOM     13  H   UNL A   1      35.321  24.643  22.995  1.00  0.00     0.169 HD
ATOM     14  O   UNL A   1      33.543  25.622  21.905  1.00  0.00    -0.274 OA
BRANCH  12  15
ATOM     15  C   UNL A   1      34.752  22.959  23.922  1.00  0.00     0.044 A 
ATOM     16  C   UNL A   1      34.131  20.689  24.522  1.00  0.00     0.062 A 
ATOM     17  C   UNL A   1      35.398  20.480  25.069  1.00  0.00     0.016 A 
ATOM     18  C   UNL A   1      33.849  21.902  23.859  1.00  0.00     0.042 A 
ATOM     19  C   UNL A   1      36.223  21.570  25.248  1.00  0.00     0.006 A 
ATOM     20  C   UNL A   1      35.756  22.824  24.861  1.00  0.00    -0.027 A 
ATOM     21  C   UNL A   1      36.144  24.005  25.667  1.00  0.00     0.046 C 
BRANCH  16  22
ATOM     22  C   UNL A   1      33.097  19.673  24.875  1.00  0.00     0.337 C 
ATOM     23  O   UNL A   1      31.935  19.974  25.109  1.00  0.00    -0.246 OA
BRANCH  22  24
ATOM     24  O   UNL A   1      33.502  18.399  24.668  1.00  0.00    -0.465 OA
ATOM     25  C   UNL A   1      33.079  17.848  23.424  1.00  0.00     0.282 C 
ENDBRANCH  22  24
ENDBRANCH  16  22
ENDBRANCH  12  15
ENDBRANCH   6  11
ENDBRANCH   3   5
ENDBRANCH   2   3
ENDBRANCH   1   2
BRANCH   1  26
ATOM     26  C   UNL A   1      32.427  29.374  26.030  1.00  0.00     0.275 C 
BRANCH  26  27
ATOM     27  O   UNL A   1      33.502  29.589  27.016  1.00  0.00    -0.458 OA
BRANCH  27  28
ATOM     28  C   UNL A   1      33.844  30.796  27.547  1.00  0.00     0.338 C 
ATOM     29  O   UNL A   1      33.074  31.739  27.671  1.00  0.00    -0.246 OA
BRANCH  28  30
ATOM     30  C   UNL A   1      35.283  30.898  27.865  1.00  0.00     0.060 A 
ATOM     31  C   UNL A   1      36.004  32.108  27.832  1.00  0.00     0.016 A 
ATOM     32  C   UNL A   1      35.833  29.783  28.454  1.00  0.00     0.016 A 
ATOM     33  C   UNL A   1      37.245  32.196  28.475  1.00  0.00     0.010 A 
ATOM     34  C   UNL A   1      36.794  29.990  29.384  1.00  0.00     0.010 A 
ATOM     35  C   UNL A   1      37.613  31.108  29.253  1.00  0.00    -0.014 A 
BRANCH  35  36
ATOM     36  C   UNL A   1      38.930  30.752  29.776  1.00  0.00     0.031 A 
ATOM     37  C   UNL A   1      39.499  29.489  29.182  1.00  0.00     0.074 A 
ATOM     38  C   UNL A   1      39.395  31.889  30.407  1.00  0.00     0.049 A 
ATOM     39  N   UNL A   1      40.195  28.557  29.737  1.00  0.00    -0.248 NA
ATOM     40  C   UNL A   1      39.159  29.029  27.820  1.00  0.00     0.031 C 
ATOM     41  C   UNL A   1      40.666  32.494  30.793  1.00  0.00     0.029 A 
ATOM     42  N   UNL A   1      38.512  32.878  30.941  1.00  0.00    -0.354 N 
ATOM     43  C   UNL A   1      40.879  27.937  28.677  1.00  0.00     0.074 A 
ATOM     44  C   UNL A   1      39.989  28.010  27.566  1.00  0.00     0.031 C 
ATOM     45  C   UNL A   1      40.466  33.309  31.861  1.00  0.00     0.029 A 
ATOM     46  C   UNL A   1      39.041  33.324  32.155  1.00  0.00     0.049 A 
ATOM     47  H   UNL A   1      37.677  33.192  30.524  1.00  0.00     0.167 HD
ATOM     48  C   UNL A   1      42.252  27.939  28.678  1.00  0.00     0.037 A 
ATOM     49  C   UNL A   1      38.387  32.858  33.257  1.00  0.00     0.037 A 
ATOM     50  C   UNL A   1      42.668  28.821  29.766  1.00  0.00     0.049 A 
ATOM     51  C   UNL A   1      39.138  31.614  33.719  1.00  0.00     0.074 A 
ATOM     52  C   UNL A   1      43.106  30.128  29.835  1.00  0.00     0.029 A 
ATOM     53  N   UNL A   1      42.204  28.523  31.023  1.00  0.00    -0.354 N 
ATOM     54  N   UNL A   1      39.911  30.887  32.948  1.00  0.00    -0.248 NA
ATOM     55  C   UNL A   1      39.139  31.144  35.094  1.00  0.00     0.031 C 
ATOM     56  C   UNL A   1      42.922  30.565  31.191  1.00  0.00     0.029 A 
ATOM     57  C   UNL A   1      42.260  29.573  31.897  1.00  0.00     0.049 A 
ATOM     58  H   UNL A   1      41.862  27.635  31.272  1.00  0.00     0.167 HD
ATOM     59  C   UNL A   1      40.631  30.006  33.696  1.00  0.00     0.074 A 
ATOM     60  C   UNL A   1      39.978  30.097  35.001  1.00  0.00     0.031 C 
ATOM     61  C   UNL A   1      41.737  29.324  33.236  1.00  0.00     0.037 A 
BRANCH  48  62
ATOM     62  C   UNL A   1      43.241  27.420  27.644  1.00  0.00     0.057 A 
ATOM     63  C   UNL A   1      43.891  26.181  27.861  1.00  0.00     0.134 A 
ATOM     64  C   UNL A   1      43.508  27.989  26.383  1.00  0.00     0.134 A 
ATOM     65  F   UNL A   1      43.698  25.472  28.980  1.00  0.00    -0.206 F 
ATOM     66  C   UNL A   1      44.755  25.576  26.937  1.00  0.00     0.040 A 
ATOM     67  C   UNL A   1      44.378  27.388  25.443  1.00  0.00     0.040 A 
ATOM     68  F   UNL A   1      42.915  29.125  25.990  1.00  0.00    -0.206 F 
ATOM     69  C   UNL A   1      45.006  26.179  25.719  1.00  0.00     0.006 A 
ENDBRANCH  48  62
BRANCH  49  70
ATOM     70  C   UNL A   1      36.889  33.013  33.051  1.00  0.00     0.057 A 
ATOM     71  C   UNL A   1      36.356  34.332  32.982  1.00  0.00     0.134 A 
ATOM     72  C   UNL A   1      36.083  32.005  32.526  1.00  0.00     0.134 A 
ATOM     73  F   UNL A   1      37.054  35.369  33.478  1.00  0.00    -0.206 F 
ATOM     74  C   UNL A   1      35.200  34.646  32.256  1.00  0.00     0.040 A 
ATOM     75  C   UNL A   1      34.863  32.301  31.888  1.00  0.00     0.040 A 
ATOM     76  F   UNL A   1      36.516  30.738  32.475  1.00  0.00    -0.206 F 
ATOM     77  C   UNL A   1      34.453  33.624  31.695  1.00  0.00     0.006 A 
ENDBRANCH  49  70
BRANCH  61  78
ATOM     78  C   UNL A   1      42.427  28.251  34.048  1.00  0.00     0.057 A 
ATOM     79  C   UNL A   1      41.828  27.020  34.297  1.00  0.00     0.134 A 
ATOM     80  C   UNL A   1      43.708  28.412  34.639  1.00  0.00     0.134 A 
ATOM     81  F   UNL A   1      40.529  26.817  34.045  1.00  0.00    -0.206 F 
ATOM     82  C   UNL A   1      42.531  25.956  34.863  1.00  0.00     0.040 A 
ATOM     83  C   UNL A   1      44.381  27.390  35.295  1.00  0.00     0.040 A 
ATOM     84  F   UNL A   1      44.413  29.548  34.621  1.00  0.00    -0.206 F 
ATOM     85  C   UNL A   1      43.818  26.136  35.352  1.00  0.00     0.006 A 
ENDBRANCH  61  78
ENDBRANCH  35  36
ENDBRANCH  28  30
ENDBRANCH  27  28
ENDBRANCH  26  27
ENDBRANCH   1  26
TORSDOF 15
ENDMDL
MODEL 2
REMARK VINA RESULT:     -11.7      2.296      3.717
REMARK SMILES COC(=O)c1ccc(C)c(NC(=O)[C@H]2CC=CC[C@H]2C(=O)OCCOC(=O)c2ccc(-c3c4nc(c(-c5c(F)cccc5F)c5ccc([nH]5)c(-c5c(F)cccc5F)c5nc(c(-c6c(F)cccc6F)c6ccc3[nH]6)C=C5)C=C4)cc2)c1
REMARK SMILES IDX 23 1 22 2 20 3 21 4 19 5 14 6 15 7 16 8 18 9 17 10 12 11
REMARK SMILES IDX 11 12 13 14 10 15 5 16 6 17 82 18 7 19 8 20 9 21 3 22 4 23
REMARK SMILES IDX 2 24 1 25 24 26 25 27 26 28 27 29 28 30 29 31 81 32 30 33
REMARK SMILES IDX 80 34 31 35 32 36 33 37 74 38 34 39 79 40 73 41 75 42 35 43
REMARK SMILES IDX 78 44 72 45 71 46 36 48 62 49 45 50 61 51 46 52 49 53 60 54
REMARK SMILES IDX 76 55 47 56 48 57 59 59 77 60 50 61 37 62 38 63 43 64 39 65
REMARK SMILES IDX 40 66 42 67 44 68 41 69 63 70 64 71 69 72 65 73 66 74 68 75
REMARK SMILES IDX 70 76 67 77 51 78 52 79 57 80 53 81 54 82 56 83 58 84 55 85
REMARK H PARENT 11 13 75 47 49 58
REMARK Flexibility Score: inf
ROOT
ATOM      1  C   UNL A   1      32.958  28.171  25.924  1.00  0.00     0.274 C 
ENDROOT
BRANCH   1   2
ATOM      2  O   UNL A   1      33.660  26.944  26.081  1.00  0.00    -0.462 OA
BRANCH   2   3
ATOM      3  C   UNL A   1      33.589  26.022  25.092  1.00  0.00     0.310 C 
ATOM      4  O   UNL A   1      32.982  26.187  24.033  1.00  0.00    -0.252 OA
BRANCH   3   5
ATOM      5  C   UNL A   1      34.338  24.786  25.543  1.00  0.00     0.116 C 
ATOM      6  C   UNL A   1      33.482  24.011  26.526  1.00  0.00     0.097 C 
ATOM      7  C   UNL A   1      34.366  22.964  27.255  1.00  0.00     0.041 C 
ATOM      8  C   UNL A   1      35.411  22.293  26.375  1.00  0.00    -0.030 C 
ATOM      9  C   UNL A   1      35.092  23.944  24.514  1.00  0.00     0.043 C 
ATOM     10  C   UNL A   1      35.700  22.711  25.133  1.00  0.00    -0.030 C 
BRANCH   6  11
ATOM     11  C   UNL A   1      32.013  23.981  25.980  1.00  0.00     0.228 C 
ATOM     12  N   UNL A   1      31.570  23.350  24.844  1.00  0.00    -0.326 N 
ATOM     13  H   UNL A   1      30.891  23.874  24.358  1.00  0.00     0.169 HD
ATOM     14  O   UNL A   1      31.227  24.836  26.425  1.00  0.00    -0.274 OA
BRANCH  12  15
ATOM     15  C   UNL A   1      31.864  22.127  24.216  1.00  0.00     0.044 A 
ATOM     16  C   UNL A   1      32.363  19.752  24.328  1.00  0.00     0.062 A 
ATOM     17  C   UNL A   1      32.187  19.644  22.947  1.00  0.00     0.016 A 
ATOM     18  C   UNL A   1      32.100  20.981  24.971  1.00  0.00     0.042 A 
ATOM     19  C   UNL A   1      32.094  20.802  22.206  1.00  0.00     0.006 A 
ATOM     20  C   UNL A   1      32.166  22.023  22.872  1.00  0.00    -0.027 A 
ATOM     21  C   UNL A   1      32.838  23.160  22.201  1.00  0.00     0.046 C 
BRANCH  16  22
ATOM     22  C   UNL A   1      33.026  18.592  24.991  1.00  0.00     0.337 C 
ATOM     23  O   UNL A   1      32.573  18.064  25.996  1.00  0.00    -0.246 OA
BRANCH  22  24
ATOM     24  O   UNL A   1      34.012  18.039  24.247  1.00  0.00    -0.465 OA
ATOM     25  C   UNL A   1      34.347  16.706  24.622  1.00  0.00     0.282 C 
ENDBRANCH  22  24
ENDBRANCH  16  22
ENDBRANCH  12  15
ENDBRANCH   6  11
ENDBRANCH   3   5
ENDBRANCH   2   3
ENDBRANCH   1   2
BRANCH   1  26
ATOM     26  C   UNL A   1      33.930  29.322  26.250  1.00  0.00     0.275 C 
BRANCH  26  27
ATOM     27  O   UNL A   1      34.741  29.333  27.483  1.00  0.00    -0.458 OA
BRANCH  27  28
ATOM     28  C   UNL A   1      35.514  30.374  27.899  1.00  0.00     0.338 C 
ATOM     29  O   UNL A   1      35.235  31.554  27.729  1.00  0.00    -0.246 OA
BRANCH  28  30
ATOM     30  C   UNL A   1      36.797  29.939  28.487  1.00  0.00     0.060 A 
ATOM     31  C   UNL A   1      36.909  29.344  29.760  1.00  0.00     0.016 A 
ATOM     32  C   UNL A   1      37.859  29.904  27.614  1.00  0.00     0.016 A 
ATOM     33  C   UNL A   1      38.073  28.645  30.101  1.00  0.00     0.010 A 
ATOM     34  C   UNL A   1      38.768  28.917  27.790  1.00  0.00     0.010 A 
ATOM     35  C   UNL A   1      38.991  28.444  29.080  1.00  0.00    -0.014 A 
BRANCH  35  36
ATOM     36  C   UNL A   1      40.397  28.054  29.168  1.00  0.00     0.031 A 
ATOM     37  C   UNL A   1      40.659  26.626  28.761  1.00  0.00     0.074 A 
ATOM     38  C   UNL A   1      41.101  29.238  29.269  1.00  0.00     0.049 A 
ATOM     39  N   UNL A   1      41.484  25.767  29.252  1.00  0.00    -0.248 NA
ATOM     40  C   UNL A   1      39.812  25.912  27.784  1.00  0.00     0.031 C 
ATOM     41  C   UNL A   1      42.441  29.749  28.999  1.00  0.00     0.029 A 
ATOM     42  N   UNL A   1      40.519  30.427  29.806  1.00  0.00    -0.354 N 
ATOM     43  C   UNL A   1      41.695  24.838  28.218  1.00  0.00     0.074 A 
ATOM     44  C   UNL A   1      40.451  24.765  27.524  1.00  0.00     0.031 C 
ATOM     45  C   UNL A   1      42.688  30.807  29.815  1.00  0.00     0.029 A 
ATOM     46  C   UNL A   1      41.482  31.069  30.587  1.00  0.00     0.049 A 
ATOM     47  H   UNL A   1      39.598  30.739  29.651  1.00  0.00     0.167 HD
ATOM     48  C   UNL A   1      42.964  24.666  27.724  1.00  0.00     0.037 A 
ATOM     49  C   UNL A   1      41.283  30.957  31.931  1.00  0.00     0.037 A 
ATOM     50  C   UNL A   1      43.790  25.715  28.318  1.00  0.00     0.049 A 
ATOM     51  C   UNL A   1      42.115  29.768  32.399  1.00  0.00     0.074 A 
ATOM     52  C   UNL A   1      44.260  26.936  27.881  1.00  0.00     0.029 A 
ATOM     53  N   UNL A   1      43.829  25.776  29.689  1.00  0.00    -0.354 N 
ATOM     54  N   UNL A   1      42.513  28.791  31.621  1.00  0.00    -0.248 NA
ATOM     55  C   UNL A   1      42.624  29.632  33.754  1.00  0.00     0.031 C 
ATOM     56  C   UNL A   1      44.619  27.693  29.048  1.00  0.00     0.029 A 
ATOM     57  C   UNL A   1      44.246  26.983  30.178  1.00  0.00     0.049 A 
ATOM     58  H   UNL A   1      43.580  25.020  30.267  1.00  0.00     0.167 HD
ATOM     59  C   UNL A   1      43.437  28.022  32.262  1.00  0.00     0.074 A 
ATOM     60  C   UNL A   1      43.332  28.493  33.642  1.00  0.00     0.031 C 
ATOM     61  C   UNL A   1      44.264  27.117  31.630  1.00  0.00     0.037 A 
BRANCH  48  62
ATOM     62  C   UNL A   1      43.469  23.802  26.578  1.00  0.00     0.057 A 
ATOM     63  C   UNL A   1      43.423  22.392  26.695  1.00  0.00     0.134 A 
ATOM     64  C   UNL A   1      43.882  24.254  25.309  1.00  0.00     0.134 A 
ATOM     65  F   UNL A   1      42.992  21.792  27.812  1.00  0.00    -0.206 F 
ATOM     66  C   UNL A   1      43.786  21.507  25.669  1.00  0.00     0.040 A 
ATOM     67  C   UNL A   1      44.251  23.370  24.267  1.00  0.00     0.040 A 
ATOM     68  F   UNL A   1      43.910  25.560  25.008  1.00  0.00    -0.206 F 
ATOM     69  C   UNL A   1      44.205  21.993  24.446  1.00  0.00     0.006 A 
ENDBRANCH  48  62
BRANCH  49  70
ATOM     70  C   UNL A   1      39.825  31.249  32.245  1.00  0.00     0.057 A 
ATOM     71  C   UNL A   1      39.074  30.251  32.929  1.00  0.00     0.134 A 
ATOM     72  C   UNL A   1      39.297  32.539  32.285  1.00  0.00     0.134 A 
ATOM     73  F   UNL A   1      39.494  28.974  32.933  1.00  0.00    -0.206 F 
ATOM     74  C   UNL A   1      37.991  30.556  33.764  1.00  0.00     0.040 A 
ATOM     75  C   UNL A   1      38.144  32.835  33.036  1.00  0.00     0.040 A 
ATOM     76  F   UNL A   1      39.958  33.567  31.736  1.00  0.00    -0.206 F 
ATOM     77  C   UNL A   1      37.529  31.860  33.828  1.00  0.00     0.006 A 
ENDBRANCH  49  70
BRANCH  61  78
ATOM     78  C   UNL A   1      45.177  26.182  32.390  1.00  0.00     0.057 A 
ATOM     79  C   UNL A   1      46.562  26.313  32.345  1.00  0.00     0.134 A 
ATOM     80  C   UNL A   1      44.715  25.094  33.175  1.00  0.00     0.134 A 
ATOM     81  F   UNL A   1      47.156  27.107  31.445  1.00  0.00    -0.206 F 
ATOM     82  C   UNL A   1      47.400  25.594  33.197  1.00  0.00     0.040 A 
ATOM     83  C   UNL A   1      45.549  24.303  33.952  1.00  0.00     0.040 A 
ATOM     84  F   UNL A   1      43.435  24.718  33.268  1.00  0.00    -0.206 F 
ATOM     85  C   UNL A   1      46.892  24.593  34.015  1.00  0.00     0.006 A 
ENDBRANCH  61  78
ENDBRANCH  35  36
ENDBRANCH  28  30
ENDBRANCH  27  28
ENDBRANCH  26  27
ENDBRANCH   1  26
TORSDOF 15
ENDMDL
MODEL 3
REMARK VINA RESULT:     -11.6      1.916      2.756
REMARK SMILES COC(=O)c1ccc(C)c(NC(=O)[C@H]2CC=CC[C@H]2C(=O)OCCOC(=O)c2ccc(-c3c4nc(c(-c5c(F)cccc5F)c5ccc([nH]5)c(-c5c(F)cccc5F)c5nc(c(-c6c(F)cccc6F)c6ccc3[nH]6)C=C5)C=C4)cc2)c1
REMARK SMILES IDX 23 1 22 2 20 3 21 4 19 5 14 6 15 7 16 8 18 9 17 10 12 11
REMARK SMILES IDX 11 12 13 14 10 15 5 16 6 17 82 18 7 19 8 20 9 21 3 22 4 23
REMARK SMILES IDX 2 24 1 25 24 26 25 27 26 28 27 29 28 30 29 31 81 32 30 33
REMARK SMILES IDX 80 34 31 35 32 36 33 37 74 38 34 39 79 40 73 41 75 42 35 43
REMARK SMILES IDX 78 44 72 45 71 46 36 48 62 49 45 50 61 51 46 52 49 53 60 54
REMARK SMILES IDX 76 55 47 56 48 57 59 59 77 60 50 61 37 62 38 63 43 64 39 65
REMARK SMILES IDX 40 66 42 67 44 68 41 69 63 70 64 71 69 72 65 73 66 74 68 75
REMARK SMILES IDX 70 76 67 77 51 78 52 79 57 80 53 81 54 82 56 83 58 84 55 85
REMARK H PARENT 11 13 75 47 49 58
REMARK Flexibility Score: inf
ROOT
ATOM      1  C   UNL A   1      32.162  28.455  26.558  1.00  0.00     0.274 C 
ENDROOT
BRANCH   1   2
ATOM      2  O   UNL A   1      32.379  27.541  25.490  1.00  0.00    -0.462 OA
BRANCH   2   3
ATOM      3  C   UNL A   1      33.173  26.465  25.703  1.00  0.00     0.310 C 
ATOM      4  O   UNL A   1      34.403  26.511  25.751  1.00  0.00    -0.252 OA
BRANCH   3   5
ATOM      5  C   UNL A   1      32.290  25.242  25.827  1.00  0.00     0.116 C 
ATOM      6  C   UNL A   1      31.932  24.740  24.441  1.00  0.00     0.097 C 
ATOM      7  C   UNL A   1      30.757  23.733  24.553  1.00  0.00     0.041 C 
ATOM      8  C   UNL A   1      30.823  22.813  25.764  1.00  0.00    -0.030 C 
ATOM      9  C   UNL A   1      32.634  24.164  26.853  1.00  0.00     0.043 C 
ATOM     10  C   UNL A   1      31.695  22.987  26.769  1.00  0.00    -0.030 C 
BRANCH   6  11
ATOM     11  C   UNL A   1      33.222  24.789  23.553  1.00  0.00     0.228 C 
ATOM     12  N   UNL A   1      34.404  24.131  23.782  1.00  0.00    -0.326 N 
ATOM     13  H   UNL A   1      35.193  24.676  23.555  1.00  0.00     0.169 HD
ATOM     14  O   UNL A   1      33.311  25.724  22.737  1.00  0.00    -0.274 OA
BRANCH  12  15
ATOM     15  C   UNL A   1      34.747  22.856  24.268  1.00  0.00     0.044 A 
ATOM     16  C   UNL A   1      34.231  20.506  24.599  1.00  0.00     0.062 A 
ATOM     17  C   UNL A   1      35.547  20.268  25.001  1.00  0.00     0.016 A 
ATOM     18  C   UNL A   1      33.864  21.788  24.137  1.00  0.00     0.042 A 
ATOM     19  C   UNL A   1      36.360  21.351  25.257  1.00  0.00     0.006 A 
ATOM     20  C   UNL A   1      35.833  22.629  25.089  1.00  0.00    -0.027 A 
ATOM     21  C   UNL A   1      36.267  23.703  26.014  1.00  0.00     0.046 C 
BRANCH  16  22
ATOM     22  C   UNL A   1      33.255  19.417  24.896  1.00  0.00     0.337 C 
ATOM     23  O   UNL A   1      32.153  19.639  25.376  1.00  0.00    -0.246 OA
BRANCH  22  24
ATOM     24  O   UNL A   1      33.603  18.224  24.362  1.00  0.00    -0.465 OA
ATOM     25  C   UNL A   1      33.000  17.102  25.002  1.00  0.00     0.282 C 
ENDBRANCH  22  24
ENDBRANCH  16  22
ENDBRANCH  12  15
ENDBRANCH   6  11
ENDBRANCH   3   5
ENDBRANCH   2   3
ENDBRANCH   1   2
BRANCH   1  26
ATOM     26  C   UNL A   1      33.112  29.653  26.362  1.00  0.00     0.275 C 
BRANCH  26  27
ATOM     27  O   UNL A   1      34.483  29.660  26.908  1.00  0.00    -0.458 OA
BRANCH  27  28
ATOM     28  C   UNL A   1      34.980  30.599  27.760  1.00  0.00     0.338 C 
ATOM     29  O   UNL A   1      34.486  31.705  27.932  1.00  0.00    -0.246 OA
BRANCH  28  30
ATOM     30  C   UNL A   1      36.254  30.191  28.386  1.00  0.00     0.060 A 
ATOM     31  C   UNL A   1      36.345  29.633  29.676  1.00  0.00     0.016 A 
ATOM     32  C   UNL A   1      37.334  30.142  27.535  1.00  0.00     0.016 A 
ATOM     33  C   UNL A   1      37.507  28.953  30.060  1.00  0.00     0.010 A 
ATOM     34  C   UNL A   1      38.247  29.167  27.757  1.00  0.00     0.010 A 
ATOM     35  C   UNL A   1      38.448  28.733  29.064  1.00  0.00    -0.014 A 
BRANCH  35  36
ATOM     36  C   UNL A   1      39.854  28.357  29.191  1.00  0.00     0.031 A 
ATOM     37  C   UNL A   1      40.131  26.912  28.863  1.00  0.00     0.074 A 
ATOM     38  C   UNL A   1      40.549  29.549  29.239  1.00  0.00     0.049 A 
ATOM     39  N   UNL A   1      40.955  26.085  29.408  1.00  0.00    -0.248 NA
ATOM     40  C   UNL A   1      39.302  26.142  27.912  1.00  0.00     0.031 C 
ATOM     41  C   UNL A   1      41.890  30.056  28.961  1.00  0.00     0.029 A 
ATOM     42  N   UNL A   1      39.952  30.761  29.706  1.00  0.00    -0.354 N 
ATOM     43  C   UNL A   1      41.186  25.105  28.427  1.00  0.00     0.074 A 
ATOM     44  C   UNL A   1      39.952  24.987  27.721  1.00  0.00     0.031 C 
ATOM     45  C   UNL A   1      42.118  31.156  29.724  1.00  0.00     0.029 A 
ATOM     46  C   UNL A   1      40.901  31.450  30.465  1.00  0.00     0.049 A 
ATOM     47  H   UNL A   1      39.032  31.058  29.522  1.00  0.00     0.167 HD
ATOM     48  C   UNL A   1      42.463  24.917  27.960  1.00  0.00     0.037 A 
ATOM     49  C   UNL A   1      40.684  31.406  31.810  1.00  0.00     0.037 A 
ATOM     50  C   UNL A   1      43.273  26.001  28.510  1.00  0.00     0.049 A 
ATOM     51  C   UNL A   1      41.517  30.250  32.351  1.00  0.00     0.074 A 
ATOM     52  C   UNL A   1      43.742  27.201  28.016  1.00  0.00     0.029 A 
ATOM     53  N   UNL A   1      43.293  26.134  29.876  1.00  0.00    -0.354 N 
ATOM     54  N   UNL A   1      41.932  29.236  31.630  1.00  0.00    -0.248 NA
ATOM     55  C   UNL A   1      42.008  30.187  33.717  1.00  0.00     0.031 C 
ATOM     56  C   UNL A   1      44.080  28.020  29.146  1.00  0.00     0.029 A 
ATOM     57  C   UNL A   1      43.696  27.368  30.306  1.00  0.00     0.049 A 
ATOM     58  H   UNL A   1      43.041  25.407  30.489  1.00  0.00     0.167 HD
ATOM     59  C   UNL A   1      42.852  28.508  32.323  1.00  0.00     0.074 A 
ATOM     60  C   UNL A   1      42.725  29.049  33.675  1.00  0.00     0.031 C 
ATOM     61  C   UNL A   1      43.693  27.578  31.750  1.00  0.00     0.037 A 
BRANCH  48  62
ATOM     62  C   UNL A   1      42.989  23.998  26.867  1.00  0.00     0.057 A 
ATOM     63  C   UNL A   1      43.032  22.601  27.092  1.00  0.00     0.134 A 
ATOM     64  C   UNL A   1      43.339  24.373  25.555  1.00  0.00     0.134 A 
ATOM     65  F   UNL A   1      42.669  22.065  28.264  1.00  0.00    -0.206 F 
ATOM     66  C   UNL A   1      43.421  21.662  26.126  1.00  0.00     0.040 A 
ATOM     67  C   UNL A   1      43.733  23.435  24.572  1.00  0.00     0.040 A 
ATOM     68  F   UNL A   1      43.280  25.651  25.156  1.00  0.00    -0.206 F 
ATOM     69  C   UNL A   1      43.777  22.075  24.856  1.00  0.00     0.006 A 
ENDBRANCH  48  62
BRANCH  49  70
ATOM     70  C   UNL A   1      39.220  31.704  32.089  1.00  0.00     0.057 A 
ATOM     71  C   UNL A   1      38.468  30.742  32.822  1.00  0.00     0.134 A 
ATOM     72  C   UNL A   1      38.681  32.989  32.046  1.00  0.00     0.134 A 
ATOM     73  F   UNL A   1      38.898  29.471  32.907  1.00  0.00    -0.206 F 
ATOM     74  C   UNL A   1      37.373  31.087  33.625  1.00  0.00     0.040 A 
ATOM     75  C   UNL A   1      37.517  33.320  32.764  1.00  0.00     0.040 A 
ATOM     76  F   UNL A   1      39.341  33.989  31.445  1.00  0.00    -0.206 F 
ATOM     77  C   UNL A   1      36.900  32.388  33.605  1.00  0.00     0.006 A 
ENDBRANCH  49  70
BRANCH  61  78
ATOM     78  C   UNL A   1      44.602  26.690  32.569  1.00  0.00     0.057 A 
ATOM     79  C   UNL A   1      44.100  25.784  33.499  1.00  0.00     0.134 A 
ATOM     80  C   UNL A   1      46.018  26.721  32.485  1.00  0.00     0.134 A 
ATOM     81  F   UNL A   1      42.819  25.827  33.888  1.00  0.00    -0.206 F 
ATOM     82  C   UNL A   1      44.908  24.823  34.106  1.00  0.00     0.040 A 
ATOM     83  C   UNL A   1      46.844  25.834  33.161  1.00  0.00     0.040 A 
ATOM     84  F   UNL A   1      46.714  27.588  31.742  1.00  0.00    -0.206 F 
ATOM     85  C   UNL A   1      46.285  24.836  33.926  1.00  0.00     0.006 A 
ENDBRANCH  61  78
ENDBRANCH  35  36
ENDBRANCH  28  30
ENDBRANCH  27  28
ENDBRANCH  26  27
ENDBRANCH   1  26
TORSDOF 15
ENDMDL
