MODEL 1
REMARK VINA RESULT:      -9.6      0.000      0.000
REMARK SMILES COc1ccc2c(c1)C=C(C(=O)OCCOC(=O)c1ccc(-c3c4nc(c(-c5c(F)cccc5F)c5ccc([nH]5)c(-c5c(F)cccc5F)c5nc(c(-c6c(F)cccc6F)c6ccc3[nH]6)C=C5)C=C4)cc1)[C@H](C(F)(F)F)O2
REMARK SMILES IDX 15 1 14 2 13 3 11 4 12 5 10 6 3 7 4 8 8 9 5 10 7 11 6 12
REMARK SMILES IDX 9 13 78 14 73 15 2 16 1 17 74 18 75 19 76 20 77 21 16 22
REMARK SMILES IDX 17 23 18 24 19 25 20 26 72 27 21 28 71 29 22 30 23 31 24 32
REMARK SMILES IDX 65 33 25 34 70 35 64 36 66 37 26 38 69 39 63 40 62 41 27 43
REMARK SMILES IDX 53 44 36 45 52 46 37 47 40 48 51 49 67 50 38 51 39 52 50 54
REMARK SMILES IDX 68 55 41 56 28 57 29 58 34 59 30 60 31 61 33 62 35 63 32 64
REMARK SMILES IDX 54 65 55 66 60 67 56 68 57 69 59 70 61 71 58 72 42 73 43 74
REMARK SMILES IDX 48 75 44 76 45 77 47 78 49 79 46 80
REMARK H PARENT 66 42 40 53
REMARK Flexibility Score: inf
ROOT
ATOM      1  C   UNL A   1      33.985  33.512  28.176  1.00  0.00     0.275 C 
ENDROOT
BRANCH   1   2
ATOM      2  C   UNL A   1      34.684  34.650  28.926  1.00  0.00     0.275 C 
BRANCH   2   3
ATOM      3  O   UNL A   1      34.399  34.618  30.342  1.00  0.00    -0.459 OA
BRANCH   3   4
ATOM      4  C   UNL A   1      34.869  33.536  31.018  1.00  0.00     0.338 C 
ATOM      5  O   UNL A   1      34.301  32.468  31.114  1.00  0.00    -0.246 OA
BRANCH   4   6
ATOM      6  C   UNL A   1      36.206  33.795  31.609  1.00  0.00     0.087 C 
ATOM      7  C   UNL A   1      41.009  34.319  31.333  1.00  0.00     0.119 A 
ATOM      8  C   UNL A   1      41.044  34.610  32.697  1.00  0.00     0.050 A 
ATOM      9  C   UNL A   1      39.776  34.087  30.708  1.00  0.00     0.058 A 
ATOM     10  C   UNL A   1      39.855  34.701  33.422  1.00  0.00     0.051 A 
ATOM     11  C   UNL A   1      38.581  34.145  31.436  1.00  0.00     0.021 A 
ATOM     12  C   UNL A   1      38.636  34.471  32.791  1.00  0.00     0.128 A 
ATOM     13  C   UNL A   1      37.282  33.912  30.810  1.00  0.00     0.027 C 
ATOM     14  O   UNL A   1      37.511  34.656  33.543  1.00  0.00    -0.475 OA
ATOM     15  C   UNL A   1      36.335  33.909  33.121  1.00  0.00     0.316 C 
BRANCH   7  16
ATOM     16  O   UNL A   1      42.093  34.262  30.500  1.00  0.00    -0.497 OA
ATOM     17  C   UNL A   1      42.634  32.974  30.228  1.00  0.00     0.278 C 
ENDBRANCH   7  16
BRANCH  15  18
ATOM     18  C   UNL A   1      35.142  34.460  33.927  1.00  0.00     0.430 C 
ATOM     19  F   UNL A   1      34.102  33.595  33.955  1.00  0.00    -0.167 F 
ATOM     20  F   UNL A   1      35.496  34.635  35.229  1.00  0.00    -0.167 F 
ATOM     21  F   UNL A   1      34.710  35.654  33.474  1.00  0.00    -0.167 F 
ENDBRANCH  15  18
ENDBRANCH   4   6
ENDBRANCH   3   4
ENDBRANCH   2   3
ENDBRANCH   1   2
BRANCH   1  22
ATOM     22  O   UNL A   1      34.938  32.585  27.625  1.00  0.00    -0.458 OA
BRANCH  22  23
ATOM     23  C   UNL A   1      34.699  31.284  27.918  1.00  0.00     0.338 C 
ATOM     24  O   UNL A   1      33.716  30.630  27.610  1.00  0.00    -0.246 OA
BRANCH  23  25
ATOM     25  C   UNL A   1      35.906  30.674  28.508  1.00  0.00     0.060 A 
ATOM     26  C   UNL A   1      37.135  31.086  27.985  1.00  0.00     0.016 A 
ATOM     27  C   UNL A   1      35.859  29.722  29.529  1.00  0.00     0.016 A 
ATOM     28  C   UNL A   1      38.327  30.604  28.522  1.00  0.00     0.010 A 
ATOM     29  C   UNL A   1      37.056  29.196  30.033  1.00  0.00     0.010 A 
ATOM     30  C   UNL A   1      38.294  29.644  29.539  1.00  0.00    -0.014 A 
BRANCH  30  31
ATOM     31  C   UNL A   1      39.566  29.042  29.998  1.00  0.00     0.031 A 
ATOM     32  C   UNL A   1      40.247  29.604  31.211  1.00  0.00     0.074 A 
ATOM     33  C   UNL A   1      40.090  27.977  29.365  1.00  0.00     0.049 A 
ATOM     34  N   UNL A   1      41.361  29.231  31.786  1.00  0.00    -0.248 NA
ATOM     35  C   UNL A   1      39.572  30.731  31.870  1.00  0.00     0.031 C 
ATOM     36  C   UNL A   1      39.495  27.300  28.216  1.00  0.00     0.029 A 
ATOM     37  N   UNL A   1      41.251  27.284  29.605  1.00  0.00    -0.354 N 
ATOM     38  C   UNL A   1      41.520  30.071  32.878  1.00  0.00     0.074 A 
ATOM     39  C   UNL A   1      40.396  30.985  32.875  1.00  0.00     0.031 C 
ATOM     40  C   UNL A   1      40.312  26.303  27.830  1.00  0.00     0.029 A 
ATOM     41  C   UNL A   1      41.496  26.292  28.688  1.00  0.00     0.049 A 
ATOM     42  H   UNL A   1      41.850  27.479  30.361  1.00  0.00     0.167 HD
ATOM     43  C   UNL A   1      42.513  30.083  33.798  1.00  0.00     0.037 A 
ATOM     44  C   UNL A   1      42.567  25.486  28.543  1.00  0.00     0.037 A 
ATOM     45  C   UNL A   1      43.648  29.198  33.782  1.00  0.00     0.049 A 
ATOM     46  C   UNL A   1      43.709  25.584  29.521  1.00  0.00     0.074 A 
ATOM     47  C   UNL A   1      44.704  29.134  34.674  1.00  0.00     0.029 A 
ATOM     48  N   UNL A   1      43.887  28.239  32.809  1.00  0.00    -0.354 N 
ATOM     49  N   UNL A   1      43.837  26.359  30.571  1.00  0.00    -0.248 NA
ATOM     50  C   UNL A   1      44.856  24.692  29.294  1.00  0.00     0.031 C 
ATOM     51  C   UNL A   1      45.613  28.178  34.207  1.00  0.00     0.029 A 
ATOM     52  C   UNL A   1      45.093  27.603  33.059  1.00  0.00     0.049 A 
ATOM     53  H   UNL A   1      43.288  28.039  32.054  1.00  0.00     0.167 HD
ATOM     54  C   UNL A   1      45.062  26.032  31.142  1.00  0.00     0.074 A 
ATOM     55  C   UNL A   1      45.634  24.980  30.329  1.00  0.00     0.031 C 
ATOM     56  C   UNL A   1      45.656  26.557  32.242  1.00  0.00     0.037 A 
BRANCH  43  57
ATOM     57  C   UNL A   1      42.435  31.132  34.868  1.00  0.00     0.057 A 
ATOM     58  C   UNL A   1      41.781  30.903  36.085  1.00  0.00     0.134 A 
ATOM     59  C   UNL A   1      43.022  32.388  34.673  1.00  0.00     0.134 A 
ATOM     60  F   UNL A   1      41.183  29.727  36.328  1.00  0.00    -0.206 F 
ATOM     61  C   UNL A   1      41.687  31.900  37.059  1.00  0.00     0.040 A 
ATOM     62  C   UNL A   1      42.956  33.383  35.648  1.00  0.00     0.040 A 
ATOM     63  F   UNL A   1      43.665  32.670  33.530  1.00  0.00    -0.206 F 
ATOM     64  C   UNL A   1      42.279  33.143  36.843  1.00  0.00     0.006 A 
ENDBRANCH  43  57
BRANCH  44  65
ATOM     65  C   UNL A   1      42.630  24.539  27.402  1.00  0.00     0.057 A 
ATOM     66  C   UNL A   1      42.194  23.215  27.521  1.00  0.00     0.134 A 
ATOM     67  C   UNL A   1      43.157  24.935  26.165  1.00  0.00     0.134 A 
ATOM     68  F   UNL A   1      41.708  22.767  28.688  1.00  0.00    -0.206 F 
ATOM     69  C   UNL A   1      42.291  22.315  26.458  1.00  0.00     0.040 A 
ATOM     70  C   UNL A   1      43.236  24.054  25.087  1.00  0.00     0.040 A 
ATOM     71  F   UNL A   1      43.599  26.189  25.987  1.00  0.00    -0.206 F 
ATOM     72  C   UNL A   1      42.808  22.736  25.234  1.00  0.00     0.006 A 
ENDBRANCH  44  65
BRANCH  56  73
ATOM     73  C   UNL A   1      46.984  25.983  32.653  1.00  0.00     0.057 A 
ATOM     74  C   UNL A   1      48.194  26.480  32.153  1.00  0.00     0.134 A 
ATOM     75  C   UNL A   1      47.052  24.953  33.600  1.00  0.00     0.134 A 
ATOM     76  F   UNL A   1      48.200  27.459  31.235  1.00  0.00    -0.206 F 
ATOM     77  C   UNL A   1      49.422  25.960  32.565  1.00  0.00     0.040 A 
ATOM     78  C   UNL A   1      48.275  24.444  34.040  1.00  0.00     0.040 A 
ATOM     79  F   UNL A   1      45.932  24.437  34.128  1.00  0.00    -0.206 F 
ATOM     80  C   UNL A   1      49.466  24.945  33.517  1.00  0.00     0.006 A 
ENDBRANCH  56  73
ENDBRANCH  30  31
ENDBRANCH  23  25
ENDBRANCH  22  23
ENDBRANCH   1  22
TORSDOF 13
ENDMDL
MODEL 2
REMARK VINA RESULT:      -9.6      4.418     10.433
REMARK SMILES COc1ccc2c(c1)C=C(C(=O)OCCOC(=O)c1ccc(-c3c4nc(c(-c5c(F)cccc5F)c5ccc([nH]5)c(-c5c(F)cccc5F)c5nc(c(-c6c(F)cccc6F)c6ccc3[nH]6)C=C5)C=C4)cc1)[C@H](C(F)(F)F)O2
REMARK SMILES IDX 15 1 14 2 13 3 11 4 12 5 10 6 3 7 4 8 8 9 5 10 7 11 6 12
REMARK SMILES IDX 9 13 78 14 73 15 2 16 1 17 74 18 75 19 76 20 77 21 16 22
REMARK SMILES IDX 17 23 18 24 19 25 20 26 72 27 21 28 71 29 22 30 23 31 24 32
REMARK SMILES IDX 65 33 25 34 70 35 64 36 66 37 26 38 69 39 63 40 62 41 27 43
REMARK SMILES IDX 53 44 36 45 52 46 37 47 40 48 51 49 67 50 38 51 39 52 50 54
REMARK SMILES IDX 68 55 41 56 28 57 29 58 34 59 30 60 31 61 33 62 35 63 32 64
REMARK SMILES IDX 54 65 55 66 60 67 56 68 57 69 59 70 61 71 58 72 42 73 43 74
REMARK SMILES IDX 48 75 44 76 45 77 47 78 49 79 46 80
REMARK H PARENT 66 42 40 53
REMARK Flexibility Score: inf
ROOT
ATOM      1  C   UNL A   1      43.492  22.220  24.876  1.00  0.00     0.275 C 
ENDROOT
BRANCH   1   2
ATOM      2  C   UNL A   1      42.470  21.619  25.846  1.00  0.00     0.275 C 
BRANCH   2   3
ATOM      3  O   UNL A   1      41.139  22.128  25.611  1.00  0.00    -0.459 OA
BRANCH   3   4
ATOM      4  C   UNL A   1      40.201  21.787  26.534  1.00  0.00     0.338 C 
ATOM      5  O   UNL A   1      40.424  21.222  27.584  1.00  0.00    -0.246 OA
BRANCH   4   6
ATOM      6  C   UNL A   1      38.843  22.228  26.127  1.00  0.00     0.087 C 
ATOM      7  C   UNL A   1      34.321  21.410  24.610  1.00  0.00     0.119 A 
ATOM      8  C   UNL A   1      34.061  22.779  24.680  1.00  0.00     0.050 A 
ATOM      9  C   UNL A   1      35.576  20.923  25.001  1.00  0.00     0.058 A 
ATOM     10  C   UNL A   1      35.036  23.650  25.169  1.00  0.00     0.051 A 
ATOM     11  C   UNL A   1      36.570  21.796  25.463  1.00  0.00     0.021 A 
ATOM     12  C   UNL A   1      36.279  23.156  25.558  1.00  0.00     0.128 A 
ATOM     13  C   UNL A   1      37.884  21.316  25.882  1.00  0.00     0.027 C 
ATOM     14  O   UNL A   1      37.154  24.053  26.100  1.00  0.00    -0.475 OA
ATOM     15  C   UNL A   1      38.565  23.717  25.980  1.00  0.00     0.316 C 
BRANCH   7  16
ATOM     16  O   UNL A   1      33.434  20.448  24.209  1.00  0.00    -0.497 OA
ATOM     17  C   UNL A   1      33.692  19.113  24.628  1.00  0.00     0.278 C 
ENDBRANCH   7  16
BRANCH  15  18
ATOM     18  C   UNL A   1      39.339  24.707  26.873  1.00  0.00     0.430 C 
ATOM     19  F   UNL A   1      40.366  25.292  26.216  1.00  0.00    -0.167 F 
ATOM     20  F   UNL A   1      38.526  25.731  27.252  1.00  0.00    -0.167 F 
ATOM     21  F   UNL A   1      39.805  24.139  28.004  1.00  0.00    -0.167 F 
ENDBRANCH  15  18
ENDBRANCH   4   6
ENDBRANCH   3   4
ENDBRANCH   2   3
ENDBRANCH   1   2
BRANCH   1  22
ATOM     22  O   UNL A   1      43.264  23.627  24.681  1.00  0.00    -0.458 OA
BRANCH  22  23
ATOM     23  C   UNL A   1      44.196  24.436  25.238  1.00  0.00     0.338 C 
ATOM     24  O   UNL A   1      45.318  24.665  24.814  1.00  0.00    -0.246 OA
BRANCH  23  25
ATOM     25  C   UNL A   1      43.601  25.192  26.356  1.00  0.00     0.060 A 
ATOM     26  C   UNL A   1      43.532  26.580  26.207  1.00  0.00     0.016 A 
ATOM     27  C   UNL A   1      43.131  24.585  27.523  1.00  0.00     0.016 A 
ATOM     28  C   UNL A   1      42.932  27.365  27.189  1.00  0.00     0.010 A 
ATOM     29  C   UNL A   1      42.577  25.379  28.535  1.00  0.00     0.010 A 
ATOM     30  C   UNL A   1      42.464  26.771  28.366  1.00  0.00    -0.014 A 
BRANCH  30  31
ATOM     31  C   UNL A   1      41.960  27.638  29.455  1.00  0.00     0.031 A 
ATOM     32  C   UNL A   1      42.643  27.607  30.790  1.00  0.00     0.074 A 
ATOM     33  C   UNL A   1      40.929  28.475  29.245  1.00  0.00     0.049 A 
ATOM     34  N   UNL A   1      42.370  28.281  31.878  1.00  0.00    -0.248 NA
ATOM     35  C   UNL A   1      43.795  26.703  30.910  1.00  0.00     0.031 C 
ATOM     36  C   UNL A   1      40.222  28.644  27.979  1.00  0.00     0.029 A 
ATOM     37  N   UNL A   1      40.297  29.339  30.107  1.00  0.00    -0.354 N 
ATOM     38  C   UNL A   1      43.320  27.889  32.811  1.00  0.00     0.074 A 
ATOM     39  C   UNL A   1      44.165  26.905  32.165  1.00  0.00     0.031 C 
ATOM     40  C   UNL A   1      39.230  29.537  28.152  1.00  0.00     0.029 A 
ATOM     41  C   UNL A   1      39.219  29.979  29.547  1.00  0.00     0.049 A 
ATOM     42  H   UNL A   1      40.587  29.484  31.035  1.00  0.00     0.167 HD
ATOM     43  C   UNL A   1      43.473  28.308  34.089  1.00  0.00     0.037 A 
ATOM     44  C   UNL A   1      38.312  30.805  30.104  1.00  0.00     0.037 A 
ATOM     45  C   UNL A   1      42.613  29.259  34.742  1.00  0.00     0.049 A 
ATOM     46  C   UNL A   1      38.442  31.180  31.557  1.00  0.00     0.074 A 
ATOM     47  C   UNL A   1      42.690  29.746  36.035  1.00  0.00     0.029 A 
ATOM     48  N   UNL A   1      41.501  29.849  34.158  1.00  0.00    -0.354 N 
ATOM     49  N   UNL A   1      39.362  30.832  32.425  1.00  0.00    -0.248 NA
ATOM     50  C   UNL A   1      37.407  32.068  32.110  1.00  0.00     0.031 C 
ATOM     51  C   UNL A   1      41.591  30.585  36.253  1.00  0.00     0.029 A 
ATOM     52  C   UNL A   1      40.863  30.668  35.077  1.00  0.00     0.049 A 
ATOM     53  H   UNL A   1      41.210  29.708  33.228  1.00  0.00     0.167 HD
ATOM     54  C   UNL A   1      39.033  31.473  33.613  1.00  0.00     0.074 A 
ATOM     55  C   UNL A   1      37.835  32.243  33.353  1.00  0.00     0.031 C 
ATOM     56  C   UNL A   1      39.668  31.429  34.810  1.00  0.00     0.037 A 
BRANCH  43  57
ATOM     57  C   UNL A   1      44.586  27.686  34.879  1.00  0.00     0.057 A 
ATOM     58  C   UNL A   1      45.866  28.255  34.932  1.00  0.00     0.134 A 
ATOM     59  C   UNL A   1      44.374  26.501  35.592  1.00  0.00     0.134 A 
ATOM     60  F   UNL A   1      46.140  29.381  34.257  1.00  0.00    -0.206 F 
ATOM     61  C   UNL A   1      46.902  27.648  35.644  1.00  0.00     0.040 A 
ATOM     62  C   UNL A   1      45.395  25.899  36.327  1.00  0.00     0.040 A 
ATOM     63  F   UNL A   1      43.172  25.906  35.583  1.00  0.00    -0.206 F 
ATOM     64  C   UNL A   1      46.667  26.468  36.347  1.00  0.00     0.006 A 
ENDBRANCH  43  57
BRANCH  44  65
ATOM     65  C   UNL A   1      37.172  31.305  29.295  1.00  0.00     0.057 A 
ATOM     66  C   UNL A   1      37.179  32.584  28.728  1.00  0.00     0.134 A 
ATOM     67  C   UNL A   1      36.031  30.517  29.093  1.00  0.00     0.134 A 
ATOM     68  F   UNL A   1      38.230  33.398  28.913  1.00  0.00    -0.206 F 
ATOM     69  C   UNL A   1      36.089  33.068  28.001  1.00  0.00     0.040 A 
ATOM     70  C   UNL A   1      34.946  30.977  28.347  1.00  0.00     0.040 A 
ATOM     71  F   UNL A   1      35.958  29.284  29.616  1.00  0.00    -0.206 F 
ATOM     72  C   UNL A   1      34.971  32.260  27.804  1.00  0.00     0.006 A 
ENDBRANCH  44  65
BRANCH  56  73
ATOM     73  C   UNL A   1      39.100  32.259  35.928  1.00  0.00     0.057 A 
ATOM     74  C   UNL A   1      38.205  31.728  36.864  1.00  0.00     0.134 A 
ATOM     75  C   UNL A   1      39.495  33.593  36.096  1.00  0.00     0.134 A 
ATOM     76  F   UNL A   1      37.778  30.461  36.756  1.00  0.00    -0.206 F 
ATOM     77  C   UNL A   1      37.708  32.500  37.917  1.00  0.00     0.040 A 
ATOM     78  C   UNL A   1      39.026  34.366  37.160  1.00  0.00     0.040 A 
ATOM     79  F   UNL A   1      40.358  34.162  35.241  1.00  0.00    -0.206 F 
ATOM     80  C   UNL A   1      38.124  33.820  38.072  1.00  0.00     0.006 A 
ENDBRANCH  56  73
ENDBRANCH  30  31
ENDBRANCH  23  25
ENDBRANCH  22  23
ENDBRANCH   1  22
TORSDOF 13
ENDMDL
MODEL 3
REMARK VINA RESULT:      -9.4      5.021      8.698
REMARK SMILES COc1ccc2c(c1)C=C(C(=O)OCCOC(=O)c1ccc(-c3c4nc(c(-c5c(F)cccc5F)c5ccc([nH]5)c(-c5c(F)cccc5F)c5nc(c(-c6c(F)cccc6F)c6ccc3[nH]6)C=C5)C=C4)cc1)[C@H](C(F)(F)F)O2
REMARK SMILES IDX 15 1 14 2 13 3 11 4 12 5 10 6 3 7 4 8 8 9 5 10 7 11 6 12
REMARK SMILES IDX 9 13 78 14 73 15 2 16 1 17 74 18 75 19 76 20 77 21 16 22
REMARK SMILES IDX 17 23 18 24 19 25 20 26 72 27 21 28 71 29 22 30 23 31 24 32
REMARK SMILES IDX 65 33 25 34 70 35 64 36 66 37 26 38 69 39 63 40 62 41 27 43
REMARK SMILES IDX 53 44 36 45 52 46 37 47 40 48 51 49 67 50 38 51 39 52 50 54
REMARK SMILES IDX 68 55 41 56 28 57 29 58 34 59 30 60 31 61 33 62 35 63 32 64
REMARK SMILES IDX 54 65 55 66 60 67 56 68 57 69 59 70 61 71 58 72 42 73 43 74
REMARK SMILES IDX 48 75 44 76 45 77 47 78 49 79 46 80
REMARK H PARENT 66 42 40 53
REMARK Flexibility Score: inf
ROOT
ATOM      1  C   UNL A   1      35.959  20.657  25.067  1.00  0.00     0.275 C 
ENDROOT
BRANCH   1   2
ATOM      2  C   UNL A   1      34.505  21.139  25.056  1.00  0.00     0.275 C 
BRANCH   2   3
ATOM      3  O   UNL A   1      34.386  22.503  25.516  1.00  0.00    -0.459 OA
BRANCH   3   4
ATOM      4  C   UNL A   1      33.821  23.378  24.640  1.00  0.00     0.338 C 
ATOM      5  O   UNL A   1      33.743  23.216  23.441  1.00  0.00    -0.246 OA
BRANCH   4   6
ATOM      6  C   UNL A   1      33.259  24.564  25.334  1.00  0.00     0.087 C 
ATOM      7  C   UNL A   1      33.292  29.237  26.593  1.00  0.00     0.119 A 
ATOM      8  C   UNL A   1      32.085  29.053  27.266  1.00  0.00     0.050 A 
ATOM      9  C   UNL A   1      33.867  28.163  25.898  1.00  0.00     0.058 A 
ATOM     10  C   UNL A   1      31.441  27.816  27.217  1.00  0.00     0.051 A 
ATOM     11  C   UNL A   1      33.242  26.910  25.872  1.00  0.00     0.021 A 
ATOM     12  C   UNL A   1      32.018  26.757  26.522  1.00  0.00     0.128 A 
ATOM     13  C   UNL A   1      33.814  25.776  25.152  1.00  0.00     0.027 C 
ATOM     14  O   UNL A   1      31.294  25.601  26.451  1.00  0.00    -0.475 OA
ATOM     15  C   UNL A   1      32.062  24.381  26.256  1.00  0.00     0.316 C 
BRANCH   7  16
ATOM     16  O   UNL A   1      33.991  30.410  26.511  1.00  0.00    -0.497 OA
ATOM     17  C   UNL A   1      34.100  31.185  27.700  1.00  0.00     0.278 C 
ENDBRANCH   7  16
BRANCH  15  18
ATOM     18  C   UNL A   1      31.051  23.260  25.943  1.00  0.00     0.430 C 
ATOM     19  F   UNL A   1      31.494  22.046  26.342  1.00  0.00    -0.167 F 
ATOM     20  F   UNL A   1      29.896  23.464  26.635  1.00  0.00    -0.167 F 
ATOM     21  F   UNL A   1      30.720  23.202  24.637  1.00  0.00    -0.167 F 
ENDBRANCH  15  18
ENDBRANCH   4   6
ENDBRANCH   3   4
ENDBRANCH   2   3
ENDBRANCH   1   2
BRANCH   1  22
ATOM     22  O   UNL A   1      36.822  21.611  25.711  1.00  0.00    -0.458 OA
BRANCH  22  23
ATOM     23  C   UNL A   1      38.123  21.242  25.781  1.00  0.00     0.338 C 
ATOM     24  O   UNL A   1      38.615  20.203  25.371  1.00  0.00    -0.246 OA
BRANCH  23  25
ATOM     25  C   UNL A   1      38.941  22.376  26.253  1.00  0.00     0.060 A 
ATOM     26  C   UNL A   1      38.501  23.655  25.900  1.00  0.00     0.016 A 
ATOM     27  C   UNL A   1      40.106  22.215  27.007  1.00  0.00     0.016 A 
ATOM     28  C   UNL A   1      39.180  24.784  26.352  1.00  0.00     0.010 A 
ATOM     29  C   UNL A   1      40.820  23.349  27.416  1.00  0.00     0.010 A 
ATOM     30  C   UNL A   1      40.353  24.638  27.101  1.00  0.00    -0.014 A 
BRANCH  30  31
ATOM     31  C   UNL A   1      41.136  25.845  27.451  1.00  0.00     0.031 A 
ATOM     32  C   UNL A   1      40.482  26.935  28.245  1.00  0.00     0.074 A 
ATOM     33  C   UNL A   1      42.430  25.949  27.101  1.00  0.00     0.049 A 
ATOM     34  N   UNL A   1      40.979  28.072  28.661  1.00  0.00    -0.248 NA
ATOM     35  C   UNL A   1      39.082  26.708  28.631  1.00  0.00     0.031 C 
ATOM     36  C   UNL A   1      43.196  24.934  26.384  1.00  0.00     0.029 A 
ATOM     37  N   UNL A   1      43.324  26.973  27.302  1.00  0.00    -0.354 N 
ATOM     38  C   UNL A   1      39.957  28.694  29.365  1.00  0.00     0.074 A 
ATOM     39  C   UNL A   1      38.806  27.816  29.303  1.00  0.00     0.031 C 
ATOM     40  C   UNL A   1      44.442  25.398  26.178  1.00  0.00     0.029 A 
ATOM     41  C   UNL A   1      44.549  26.750  26.725  1.00  0.00     0.049 A 
ATOM     42  H   UNL A   1      43.107  27.787  27.810  1.00  0.00     0.167 HD
ATOM     43  C   UNL A   1      39.974  29.889  30.001  1.00  0.00     0.037 A 
ATOM     44  C   UNL A   1      45.624  27.557  26.626  1.00  0.00     0.037 A 
ATOM     45  C   UNL A   1      41.106  30.777  30.033  1.00  0.00     0.049 A 
ATOM     46  C   UNL A   1      45.587  28.925  27.255  1.00  0.00     0.074 A 
ATOM     47  C   UNL A   1      41.217  32.009  30.654  1.00  0.00     0.029 A 
ATOM     48  N   UNL A   1      42.314  30.540  29.395  1.00  0.00    -0.354 N 
ATOM     49  N   UNL A   1      44.628  29.494  27.947  1.00  0.00    -0.248 NA
ATOM     50  C   UNL A   1      46.784  29.765  27.092  1.00  0.00     0.031 C 
ATOM     51  C   UNL A   1      42.472  32.544  30.341  1.00  0.00     0.029 A 
ATOM     52  C   UNL A   1      43.165  31.619  29.577  1.00  0.00     0.049 A 
ATOM     53  H   UNL A   1      42.535  29.725  28.888  1.00  0.00     0.167 HD
ATOM     54  C   UNL A   1      45.113  30.741  28.321  1.00  0.00     0.074 A 
ATOM     55  C   UNL A   1      46.456  30.844  27.791  1.00  0.00     0.031 C 
ATOM     56  C   UNL A   1      44.501  31.713  29.042  1.00  0.00     0.037 A 
BRANCH  43  57
ATOM     57  C   UNL A   1      38.701  30.323  30.665  1.00  0.00     0.057 A 
ATOM     58  C   UNL A   1      38.366  29.916  31.963  1.00  0.00     0.134 A 
ATOM     59  C   UNL A   1      37.799  31.156  29.994  1.00  0.00     0.134 A 
ATOM     60  F   UNL A   1      39.178  29.103  32.655  1.00  0.00    -0.206 F 
ATOM     61  C   UNL A   1      37.161  30.300  32.557  1.00  0.00     0.040 A 
ATOM     62  C   UNL A   1      36.605  31.566  30.586  1.00  0.00     0.040 A 
ATOM     63  F   UNL A   1      38.062  31.582  28.749  1.00  0.00    -0.206 F 
ATOM     64  C   UNL A   1      36.279  31.131  31.869  1.00  0.00     0.006 A 
ENDBRANCH  43  57
BRANCH  44  65
ATOM     65  C   UNL A   1      46.817  27.110  25.865  1.00  0.00     0.057 A 
ATOM     66  C   UNL A   1      47.834  26.361  26.467  1.00  0.00     0.134 A 
ATOM     67  C   UNL A   1      46.980  27.447  24.514  1.00  0.00     0.134 A 
ATOM     68  F   UNL A   1      47.751  26.033  27.765  1.00  0.00    -0.206 F 
ATOM     69  C   UNL A   1      48.975  25.974  25.761  1.00  0.00     0.040 A 
ATOM     70  C   UNL A   1      48.102  27.046  23.789  1.00  0.00     0.040 A 
ATOM     71  F   UNL A   1      46.045  28.169  23.880  1.00  0.00    -0.206 F 
ATOM     72  C   UNL A   1      49.107  26.312  24.415  1.00  0.00     0.006 A 
ENDBRANCH  44  65
BRANCH  56  73
ATOM     73  C   UNL A   1      45.284  32.964  29.327  1.00  0.00     0.057 A 
ATOM     74  C   UNL A   1      45.199  34.096  28.507  1.00  0.00     0.134 A 
ATOM     75  C   UNL A   1      46.096  33.053  30.466  1.00  0.00     0.134 A 
ATOM     76  F   UNL A   1      44.448  34.076  27.395  1.00  0.00    -0.206 F 
ATOM     77  C   UNL A   1      45.908  35.263  28.799  1.00  0.00     0.040 A 
ATOM     78  C   UNL A   1      46.787  34.223  30.783  1.00  0.00     0.040 A 
ATOM     79  F   UNL A   1      46.215  32.009  31.301  1.00  0.00    -0.206 F 
ATOM     80  C   UNL A   1      46.698  35.332  29.944  1.00  0.00     0.006 A 
ENDBRANCH  56  73
ENDBRANCH  30  31
ENDBRANCH  23  25
ENDBRANCH  22  23
ENDBRANCH   1  22
TORSDOF 13
ENDMDL
