MODEL 1
REMARK VINA RESULT:     -11.7      0.000      0.000
REMARK SMILES CC(C)c1ccc(NC(=O)C[C@H]2SC[C@@H](C(=O)OCCOC(=O)c3ccc(-c4c5nc(c(-c6c(F)cccc6F)c6ccc([nH]6)c(-c6c(F)cccc6F)c6nc(c(-c7c(F)cccc7F)c7ccc4[nH]7)C=C6)C=C5)cc3)NC2=O)cc1
REMARK SMILES IDX 19 1 18 2 16 3 17 4 15 5 12 6 13 7 79 8 14 9 78 10 80 11
REMARK SMILES IDX 11 13 9 14 8 15 10 17 7 18 4 19 5 20 82 21 6 22 81 23 2 24
REMARK SMILES IDX 1 25 3 26 20 27 21 28 22 29 23 30 24 31 25 32 77 33 26 34
REMARK SMILES IDX 76 35 27 36 28 37 29 38 70 39 30 40 75 41 69 42 71 43 31 44
REMARK SMILES IDX 74 45 68 46 67 47 32 49 58 50 41 51 57 52 42 53 45 54 56 55
REMARK SMILES IDX 72 56 43 57 44 58 55 60 73 61 46 62 33 63 34 64 39 65 35 66
REMARK SMILES IDX 36 67 38 68 40 69 37 70 59 71 60 72 65 73 61 74 62 75 64 76
REMARK SMILES IDX 66 77 63 78 47 79 48 80 53 81 49 82 50 83 52 84 54 85 51 86
REMARK H PARENT 78 12 8 16 71 48 45 59
REMARK Flexibility Score: inf
ROOT
ATOM      1  C   UNL A   1      31.718  30.762  26.224  1.00  0.00     0.274 C 
ENDROOT
BRANCH   1   2
ATOM      2  O   UNL A   1      32.167  29.693  27.082  1.00  0.00    -0.461 OA
BRANCH   2   3
ATOM      3  C   UNL A   1      31.706  28.459  26.739  1.00  0.00     0.329 C 
ATOM      4  O   UNL A   1      31.327  27.616  27.538  1.00  0.00    -0.250 OA
BRANCH   3   5
ATOM      5  C   UNL A   1      31.857  28.199  25.241  1.00  0.00     0.202 C 
ATOM      6  C   UNL A   1      31.984  25.183  25.431  1.00  0.00     0.145 C 
ATOM      7  S   UNL A   1      30.502  25.770  24.502  1.00  0.00    -0.145 SA
ATOM      8  C   UNL A   1      33.198  26.106  25.373  1.00  0.00     0.234 C 
ATOM      9  C   UNL A   1      30.619  27.589  24.611  1.00  0.00     0.107 C 
ATOM     10  N   UNL A   1      33.067  27.424  25.064  1.00  0.00    -0.341 N 
ATOM     11  O   UNL A   1      34.347  25.709  25.572  1.00  0.00    -0.274 OA
ATOM     12  H   UNL A   1      33.853  27.886  24.692  1.00  0.00     0.164 HD
BRANCH   6  13
ATOM     13  C   UNL A   1      31.568  24.607  26.789  1.00  0.00     0.124 C 
BRANCH  13  14
ATOM     14  C   UNL A   1      30.757  23.321  26.857  1.00  0.00     0.226 C 
ATOM     15  N   UNL A   1      31.198  22.133  26.353  1.00  0.00    -0.326 N 
ATOM     16  H   UNL A   1      30.544  21.398  26.350  1.00  0.00     0.169 HD
ATOM     17  O   UNL A   1      29.621  23.333  27.348  1.00  0.00    -0.275 OA
BRANCH  15  18
ATOM     18  C   UNL A   1      32.460  21.832  25.841  1.00  0.00     0.041 A 
ATOM     19  C   UNL A   1      35.111  21.945  24.968  1.00  0.00    -0.045 A 
ATOM     20  C   UNL A   1      34.063  21.839  24.043  1.00  0.00     0.006 A 
ATOM     21  C   UNL A   1      34.809  21.819  26.334  1.00  0.00     0.006 A 
ATOM     22  C   UNL A   1      32.736  21.785  24.479  1.00  0.00     0.026 A 
ATOM     23  C   UNL A   1      33.491  21.721  26.769  1.00  0.00     0.026 A 
BRANCH  19  24
ATOM     24  C   UNL A   1      36.544  22.270  24.578  1.00  0.00     0.013 C 
ATOM     25  C   UNL A   1      37.443  21.044  24.741  1.00  0.00     0.012 C 
ATOM     26  C   UNL A   1      36.715  22.881  23.184  1.00  0.00     0.012 C 
ENDBRANCH  19  24
ENDBRANCH  15  18
ENDBRANCH  13  14
ENDBRANCH   6  13
ENDBRANCH   3   5
ENDBRANCH   2   3
ENDBRANCH   1   2
BRANCH   1  27
ATOM     27  C   UNL A   1      31.573  32.103  26.949  1.00  0.00     0.275 C 
BRANCH  27  28
ATOM     28  O   UNL A   1      32.705  32.971  26.742  1.00  0.00    -0.458 OA
BRANCH  28  29
ATOM     29  C   UNL A   1      33.071  33.706  27.816  1.00  0.00     0.338 C 
ATOM     30  O   UNL A   1      32.390  34.563  28.369  1.00  0.00    -0.246 OA
BRANCH  29  31
ATOM     31  C   UNL A   1      34.347  33.219  28.390  1.00  0.00     0.060 A 
ATOM     32  C   UNL A   1      34.290  32.003  29.071  1.00  0.00     0.016 A 
ATOM     33  C   UNL A   1      35.568  33.890  28.274  1.00  0.00     0.016 A 
ATOM     34  C   UNL A   1      35.446  31.410  29.566  1.00  0.00     0.010 A 
ATOM     35  C   UNL A   1      36.730  33.318  28.826  1.00  0.00     0.010 A 
ATOM     36  C   UNL A   1      36.677  32.065  29.458  1.00  0.00    -0.014 A 
BRANCH  36  37
ATOM     37  C   UNL A   1      37.858  31.415  30.075  1.00  0.00     0.031 A 
ATOM     38  C   UNL A   1      38.159  31.661  31.525  1.00  0.00     0.074 A 
ATOM     39  C   UNL A   1      38.557  30.482  29.402  1.00  0.00     0.049 A 
ATOM     40  N   UNL A   1      39.106  31.154  32.274  1.00  0.00    -0.248 NA
ATOM     41  C   UNL A   1      37.252  32.577  32.235  1.00  0.00     0.031 C 
ATOM     42  C   UNL A   1      38.282  30.044  28.037  1.00  0.00     0.029 A 
ATOM     43  N   UNL A   1      39.618  29.702  29.798  1.00  0.00    -0.354 N 
ATOM     44  C   UNL A   1      38.904  31.683  33.541  1.00  0.00     0.074 A 
ATOM     45  C   UNL A   1      37.736  32.533  33.468  1.00  0.00     0.031 C 
ATOM     46  C   UNL A   1      39.129  29.051  27.717  1.00  0.00     0.029 A 
ATOM     47  C   UNL A   1      40.047  28.823  28.833  1.00  0.00     0.049 A 
ATOM     48  H   UNL A   1      40.032  29.768  30.688  1.00  0.00     0.167 HD
ATOM     49  C   UNL A   1      39.643  31.500  34.661  1.00  0.00     0.037 A 
ATOM     50  C   UNL A   1      41.080  27.957  28.841  1.00  0.00     0.037 A 
ATOM     51  C   UNL A   1      40.842  30.711  34.725  1.00  0.00     0.049 A 
ATOM     52  C   UNL A   1      41.972  27.881  30.055  1.00  0.00     0.074 A 
ATOM     53  C   UNL A   1      41.733  30.579  35.776  1.00  0.00     0.029 A 
ATOM     54  N   UNL A   1      41.325  29.927  33.690  1.00  0.00    -0.354 N 
ATOM     55  N   UNL A   1      41.836  28.462  31.222  1.00  0.00    -0.248 NA
ATOM     56  C   UNL A   1      43.181  27.051  29.939  1.00  0.00     0.031 C 
ATOM     57  C   UNL A   1      42.777  29.745  35.361  1.00  0.00     0.029 A 
ATOM     58  C   UNL A   1      42.509  29.320  34.069  1.00  0.00     0.049 A 
ATOM     59  H   UNL A   1      40.888  29.819  32.814  1.00  0.00     0.167 HD
ATOM     60  C   UNL A   1      42.935  28.068  31.976  1.00  0.00     0.074 A 
ATOM     61  C   UNL A   1      43.714  27.173  31.148  1.00  0.00     0.031 C 
ATOM     62  C   UNL A   1      43.276  28.429  33.237  1.00  0.00     0.037 A 
BRANCH  49  63
ATOM     63  C   UNL A   1      39.210  32.257  35.878  1.00  0.00     0.057 A 
ATOM     64  C   UNL A   1      39.714  33.528  36.179  1.00  0.00     0.134 A 
ATOM     65  C   UNL A   1      38.295  31.688  36.773  1.00  0.00     0.134 A 
ATOM     66  F   UNL A   1      40.614  34.112  35.373  1.00  0.00    -0.206 F 
ATOM     67  C   UNL A   1      39.337  34.199  37.342  1.00  0.00     0.040 A 
ATOM     68  C   UNL A   1      37.897  32.358  37.929  1.00  0.00     0.040 A 
ATOM     69  F   UNL A   1      37.784  30.470  36.541  1.00  0.00    -0.206 F 
ATOM     70  C   UNL A   1      38.424  33.616  38.220  1.00  0.00     0.006 A 
ENDBRANCH  49  63
BRANCH  50  71
ATOM     71  C   UNL A   1      41.384  27.128  27.644  1.00  0.00     0.057 A 
ATOM     72  C   UNL A   1      40.928  25.810  27.537  1.00  0.00     0.134 A 
ATOM     73  C   UNL A   1      42.197  27.613  26.611  1.00  0.00     0.134 A 
ATOM     74  F   UNL A   1      40.177  25.273  28.511  1.00  0.00    -0.206 F 
ATOM     75  C   UNL A   1      41.281  24.998  26.456  1.00  0.00     0.040 A 
ATOM     76  C   UNL A   1      42.534  26.824  25.511  1.00  0.00     0.040 A 
ATOM     77  F   UNL A   1      42.683  28.862  26.661  1.00  0.00    -0.206 F 
ATOM     78  C   UNL A   1      42.083  25.508  25.436  1.00  0.00     0.006 A 
ENDBRANCH  50  71
BRANCH  62  79
ATOM     79  C   UNL A   1      44.538  27.851  33.810  1.00  0.00     0.057 A 
ATOM     80  C   UNL A   1      45.765  28.521  33.711  1.00  0.00     0.134 A 
ATOM     81  C   UNL A   1      44.515  26.645  34.520  1.00  0.00     0.134 A 
ATOM     82  F   UNL A   1      45.857  29.675  33.034  1.00  0.00    -0.206 F 
ATOM     83  C   UNL A   1      46.926  28.003  34.287  1.00  0.00     0.040 A 
ATOM     84  C   UNL A   1      45.665  26.129  35.121  1.00  0.00     0.040 A 
ATOM     85  F   UNL A   1      43.372  25.959  34.660  1.00  0.00    -0.206 F 
ATOM     86  C   UNL A   1      46.876  26.807  35.001  1.00  0.00     0.006 A 
ENDBRANCH  62  79
ENDBRANCH  36  37
ENDBRANCH  29  31
ENDBRANCH  28  29
ENDBRANCH  27  28
ENDBRANCH   1  27
TORSDOF 15
ENDMDL
MODEL 2
REMARK VINA RESULT:     -11.6      3.068      4.327
REMARK SMILES CC(C)c1ccc(NC(=O)C[C@H]2SC[C@@H](C(=O)OCCOC(=O)c3ccc(-c4c5nc(c(-c6c(F)cccc6F)c6ccc([nH]6)c(-c6c(F)cccc6F)c6nc(c(-c7c(F)cccc7F)c7ccc4[nH]7)C=C6)C=C5)cc3)NC2=O)cc1
REMARK SMILES IDX 19 1 18 2 16 3 17 4 15 5 12 6 13 7 79 8 14 9 78 10 80 11
REMARK SMILES IDX 11 13 9 14 8 15 10 17 7 18 4 19 5 20 82 21 6 22 81 23 2 24
REMARK SMILES IDX 1 25 3 26 20 27 21 28 22 29 23 30 24 31 25 32 77 33 26 34
REMARK SMILES IDX 76 35 27 36 28 37 29 38 70 39 30 40 75 41 69 42 71 43 31 44
REMARK SMILES IDX 74 45 68 46 67 47 32 49 58 50 41 51 57 52 42 53 45 54 56 55
REMARK SMILES IDX 72 56 43 57 44 58 55 60 73 61 46 62 33 63 34 64 39 65 35 66
REMARK SMILES IDX 36 67 38 68 40 69 37 70 59 71 60 72 65 73 61 74 62 75 64 76
REMARK SMILES IDX 66 77 63 78 47 79 48 80 53 81 49 82 50 83 52 84 54 85 51 86
REMARK H PARENT 78 12 8 16 71 48 45 59
REMARK Flexibility Score: inf
ROOT
ATOM      1  C   UNL A   1      32.088  29.957  25.800  1.00  0.00     0.274 C 
ENDROOT
BRANCH   1   2
ATOM      2  O   UNL A   1      31.688  28.688  25.247  1.00  0.00    -0.461 OA
BRANCH   2   3
ATOM      3  C   UNL A   1      32.458  28.251  24.213  1.00  0.00     0.329 C 
ATOM      4  O   UNL A   1      33.671  28.372  24.155  1.00  0.00    -0.250 OA
BRANCH   3   5
ATOM      5  C   UNL A   1      31.603  27.718  23.063  1.00  0.00     0.202 C 
ATOM      6  C   UNL A   1      30.940  25.058  24.341  1.00  0.00     0.145 C 
ATOM      7  S   UNL A   1      29.445  26.107  24.080  1.00  0.00    -0.145 SA
ATOM      8  C   UNL A   1      32.082  25.292  23.356  1.00  0.00     0.234 C 
ATOM      9  C   UNL A   1      30.123  27.657  23.394  1.00  0.00     0.107 C 
ATOM     10  N   UNL A   1      32.181  26.454  22.655  1.00  0.00    -0.341 N 
ATOM     11  O   UNL A   1      32.947  24.446  23.125  1.00  0.00    -0.274 OA
ATOM     12  H   UNL A   1      32.682  26.434  21.809  1.00  0.00     0.164 HD
BRANCH   6  13
ATOM     13  C   UNL A   1      31.270  24.961  25.835  1.00  0.00     0.124 C 
BRANCH  13  14
ATOM     14  C   UNL A   1      30.723  23.811  26.665  1.00  0.00     0.226 C 
ATOM     15  N   UNL A   1      31.374  22.622  26.814  1.00  0.00    -0.326 N 
ATOM     16  H   UNL A   1      30.874  21.912  27.277  1.00  0.00     0.169 HD
ATOM     17  O   UNL A   1      29.616  23.913  27.209  1.00  0.00    -0.275 OA
BRANCH  15  18
ATOM     18  C   UNL A   1      32.660  22.287  26.392  1.00  0.00     0.041 A 
ATOM     19  C   UNL A   1      35.261  22.340  25.375  1.00  0.00    -0.045 A 
ATOM     20  C   UNL A   1      34.229  21.726  24.652  1.00  0.00     0.006 A 
ATOM     21  C   UNL A   1      34.994  22.769  26.685  1.00  0.00     0.006 A 
ATOM     22  C   UNL A   1      32.927  21.702  25.159  1.00  0.00     0.026 A 
ATOM     23  C   UNL A   1      33.706  22.706  27.209  1.00  0.00     0.026 A 
BRANCH  19  24
ATOM     24  C   UNL A   1      36.632  22.640  24.789  1.00  0.00     0.013 C 
ATOM     25  C   UNL A   1      36.536  22.902  23.287  1.00  0.00     0.012 C 
ATOM     26  C   UNL A   1      37.402  23.768  25.482  1.00  0.00     0.012 C 
ENDBRANCH  19  24
ENDBRANCH  15  18
ENDBRANCH  13  14
ENDBRANCH   6  13
ENDBRANCH   3   5
ENDBRANCH   2   3
ENDBRANCH   1   2
BRANCH   1  27
ATOM     27  C   UNL A   1      32.504  29.876  27.272  1.00  0.00     0.275 C 
BRANCH  27  28
ATOM     28  O   UNL A   1      33.899  29.554  27.437  1.00  0.00    -0.458 OA
BRANCH  28  29
ATOM     29  C   UNL A   1      34.656  30.534  27.979  1.00  0.00     0.338 C 
ATOM     30  O   UNL A   1      34.266  31.651  28.303  1.00  0.00    -0.246 OA
BRANCH  29  31
ATOM     31  C   UNL A   1      36.007  30.037  28.329  1.00  0.00     0.060 A 
ATOM     32  C   UNL A   1      36.975  30.131  27.329  1.00  0.00     0.016 A 
ATOM     33  C   UNL A   1      36.352  29.508  29.577  1.00  0.00     0.016 A 
ATOM     34  C   UNL A   1      38.296  29.782  27.582  1.00  0.00     0.010 A 
ATOM     35  C   UNL A   1      37.677  29.100  29.816  1.00  0.00     0.010 A 
ATOM     36  C   UNL A   1      38.660  29.254  28.825  1.00  0.00    -0.014 A 
BRANCH  36  37
ATOM     37  C   UNL A   1      40.070  28.828  29.005  1.00  0.00     0.031 A 
ATOM     38  C   UNL A   1      40.994  29.676  29.830  1.00  0.00     0.074 A 
ATOM     39  C   UNL A   1      40.479  27.616  28.587  1.00  0.00     0.049 A 
ATOM     40  N   UNL A   1      42.243  29.464  30.159  1.00  0.00    -0.248 NA
ATOM     41  C   UNL A   1      40.425  30.914  30.386  1.00  0.00     0.031 C 
ATOM     42  C   UNL A   1      39.644  26.635  27.900  1.00  0.00     0.029 A 
ATOM     43  N   UNL A   1      41.694  26.988  28.719  1.00  0.00    -0.354 N 
ATOM     44  C   UNL A   1      42.606  30.535  30.963  1.00  0.00     0.074 A 
ATOM     45  C   UNL A   1      41.443  31.386  31.091  1.00  0.00     0.031 C 
ATOM     46  C   UNL A   1      40.359  25.515  27.700  1.00  0.00     0.029 A 
ATOM     47  C   UNL A   1      41.722  25.720  28.189  1.00  0.00     0.049 A 
ATOM     48  H   UNL A   1      42.472  27.407  29.153  1.00  0.00     0.167 HD
ATOM     49  C   UNL A   1      43.810  30.803  31.523  1.00  0.00     0.037 A 
ATOM     50  C   UNL A   1      42.739  24.842  28.086  1.00  0.00     0.037 A 
ATOM     51  C   UNL A   1      44.987  29.999  31.345  1.00  0.00     0.049 A 
ATOM     52  C   UNL A   1      44.106  25.229  28.593  1.00  0.00     0.074 A 
ATOM     53  C   UNL A   1      46.282  30.261  31.756  1.00  0.00     0.029 A 
ATOM     54  N   UNL A   1      45.014  28.777  30.693  1.00  0.00    -0.354 N 
ATOM     55  N   UNL A   1      44.470  26.293  29.267  1.00  0.00    -0.248 NA
ATOM     56  C   UNL A   1      45.211  24.305  28.295  1.00  0.00     0.031 C 
ATOM     57  C   UNL A   1      47.100  29.215  31.317  1.00  0.00     0.029 A 
ATOM     58  C   UNL A   1      46.305  28.279  30.675  1.00  0.00     0.049 A 
ATOM     59  H   UNL A   1      44.229  28.329  30.301  1.00  0.00     0.167 HD
ATOM     60  C   UNL A   1      45.838  26.165  29.473  1.00  0.00     0.074 A 
ATOM     61  C   UNL A   1      46.237  24.905  28.883  1.00  0.00     0.031 C 
ATOM     62  C   UNL A   1      46.691  27.023  30.086  1.00  0.00     0.037 A 
BRANCH  49  63
ATOM     63  C   UNL A   1      43.917  32.079  32.298  1.00  0.00     0.057 A 
ATOM     64  C   UNL A   1      43.697  32.128  33.679  1.00  0.00     0.134 A 
ATOM     65  C   UNL A   1      44.219  33.279  31.642  1.00  0.00     0.134 A 
ATOM     66  F   UNL A   1      43.378  31.015  34.358  1.00  0.00    -0.206 F 
ATOM     67  C   UNL A   1      43.753  33.333  34.380  1.00  0.00     0.040 A 
ATOM     68  C   UNL A   1      44.297  34.486  32.335  1.00  0.00     0.040 A 
ATOM     69  F   UNL A   1      44.433  33.295  30.318  1.00  0.00    -0.206 F 
ATOM     70  C   UNL A   1      44.057  34.517  33.708  1.00  0.00     0.006 A 
ENDBRANCH  49  63
BRANCH  50  71
ATOM     71  C   UNL A   1      42.540  23.527  27.420  1.00  0.00     0.057 A 
ATOM     72  C   UNL A   1      42.245  22.375  28.158  1.00  0.00     0.134 A 
ATOM     73  C   UNL A   1      42.708  23.379  26.038  1.00  0.00     0.134 A 
ATOM     74  F   UNL A   1      42.110  22.443  29.492  1.00  0.00    -0.206 F 
ATOM     75  C   UNL A   1      42.141  21.122  27.550  1.00  0.00     0.040 A 
ATOM     76  C   UNL A   1      42.579  22.138  25.412  1.00  0.00     0.040 A 
ATOM     77  F   UNL A   1      43.010  24.439  25.274  1.00  0.00    -0.206 F 
ATOM     78  C   UNL A   1      42.304  21.003  26.171  1.00  0.00     0.006 A 
ENDBRANCH  50  71
BRANCH  62  79
ATOM     79  C   UNL A   1      48.138  26.630  30.161  1.00  0.00     0.057 A 
ATOM     80  C   UNL A   1      48.632  25.833  31.202  1.00  0.00     0.134 A 
ATOM     81  C   UNL A   1      49.033  27.000  29.150  1.00  0.00     0.134 A 
ATOM     82  F   UNL A   1      47.829  25.453  32.207  1.00  0.00    -0.206 F 
ATOM     83  C   UNL A   1      49.968  25.431  31.241  1.00  0.00     0.040 A 
ATOM     84  C   UNL A   1      50.366  26.584  29.166  1.00  0.00     0.040 A 
ATOM     85  F   UNL A   1      48.623  27.755  28.120  1.00  0.00    -0.206 F 
ATOM     86  C   UNL A   1      50.837  25.800  30.216  1.00  0.00     0.006 A 
ENDBRANCH  62  79
ENDBRANCH  36  37
ENDBRANCH  29  31
ENDBRANCH  28  29
ENDBRANCH  27  28
ENDBRANCH   1  27
TORSDOF 15
ENDMDL
MODEL 3
REMARK VINA RESULT:     -11.6      3.278      4.698
REMARK SMILES CC(C)c1ccc(NC(=O)C[C@H]2SC[C@@H](C(=O)OCCOC(=O)c3ccc(-c4c5nc(c(-c6c(F)cccc6F)c6ccc([nH]6)c(-c6c(F)cccc6F)c6nc(c(-c7c(F)cccc7F)c7ccc4[nH]7)C=C6)C=C5)cc3)NC2=O)cc1
REMARK SMILES IDX 19 1 18 2 16 3 17 4 15 5 12 6 13 7 79 8 14 9 78 10 80 11
REMARK SMILES IDX 11 13 9 14 8 15 10 17 7 18 4 19 5 20 82 21 6 22 81 23 2 24
REMARK SMILES IDX 1 25 3 26 20 27 21 28 22 29 23 30 24 31 25 32 77 33 26 34
REMARK SMILES IDX 76 35 27 36 28 37 29 38 70 39 30 40 75 41 69 42 71 43 31 44
REMARK SMILES IDX 74 45 68 46 67 47 32 49 58 50 41 51 57 52 42 53 45 54 56 55
REMARK SMILES IDX 72 56 43 57 44 58 55 60 73 61 46 62 33 63 34 64 39 65 35 66
REMARK SMILES IDX 36 67 38 68 40 69 37 70 59 71 60 72 65 73 61 74 62 75 64 76
REMARK SMILES IDX 66 77 63 78 47 79 48 80 53 81 49 82 50 83 52 84 54 85 51 86
REMARK H PARENT 78 12 8 16 71 48 45 59
REMARK Flexibility Score: inf
ROOT
ATOM      1  C   UNL A   1      32.708  29.229  25.437  1.00  0.00     0.274 C 
ENDROOT
BRANCH   1   2
ATOM      2  O   UNL A   1      32.147  28.107  24.728  1.00  0.00    -0.461 OA
BRANCH   2   3
ATOM      3  C   UNL A   1      32.203  28.207  23.371  1.00  0.00     0.329 C 
ATOM      4  O   UNL A   1      32.989  28.918  22.763  1.00  0.00    -0.250 OA
BRANCH   3   5
ATOM      5  C   UNL A   1      31.068  27.433  22.704  1.00  0.00     0.202 C 
ATOM      6  C   UNL A   1      32.429  24.732  22.746  1.00  0.00     0.145 C 
ATOM      7  S   UNL A   1      30.901  24.769  23.780  1.00  0.00    -0.145 SA
ATOM      8  C   UNL A   1      32.440  25.697  21.563  1.00  0.00     0.234 C 
ATOM      9  C   UNL A   1      30.338  26.501  23.653  1.00  0.00     0.107 C 
ATOM     10  N   UNL A   1      31.625  26.785  21.534  1.00  0.00    -0.341 N 
ATOM     11  O   UNL A   1      33.155  25.530  20.574  1.00  0.00    -0.274 OA
ATOM     12  H   UNL A   1      31.398  27.161  20.654  1.00  0.00     0.164 HD
BRANCH   6  13
ATOM     13  C   UNL A   1      33.674  24.654  23.637  1.00  0.00     0.124 C 
BRANCH  13  14
ATOM     14  C   UNL A   1      33.527  24.445  25.137  1.00  0.00     0.226 C 
ATOM     15  N   UNL A   1      33.508  23.213  25.720  1.00  0.00    -0.326 N 
ATOM     16  H   UNL A   1      33.293  23.195  26.681  1.00  0.00     0.169 HD
ATOM     17  O   UNL A   1      33.374  25.420  25.884  1.00  0.00    -0.275 OA
BRANCH  15  18
ATOM     18  C   UNL A   1      33.753  21.976  25.125  1.00  0.00     0.041 A 
ATOM     19  C   UNL A   1      33.940  19.246  24.564  1.00  0.00    -0.045 A 
ATOM     20  C   UNL A   1      35.090  19.989  24.866  1.00  0.00     0.006 A 
ATOM     21  C   UNL A   1      32.730  19.935  24.382  1.00  0.00     0.006 A 
ATOM     22  C   UNL A   1      34.997  21.354  25.150  1.00  0.00     0.026 A 
ATOM     23  C   UNL A   1      32.644  21.303  24.622  1.00  0.00     0.026 A 
BRANCH  19  24
ATOM     24  C   UNL A   1      33.915  17.727  24.503  1.00  0.00     0.013 C 
ATOM     25  C   UNL A   1      32.808  17.165  25.394  1.00  0.00     0.012 C 
ATOM     26  C   UNL A   1      33.821  17.135  23.093  1.00  0.00     0.012 C 
ENDBRANCH  19  24
ENDBRANCH  15  18
ENDBRANCH  13  14
ENDBRANCH   6  13
ENDBRANCH   3   5
ENDBRANCH   2   3
ENDBRANCH   1   2
BRANCH   1  27
ATOM     27  C   UNL A   1      33.908  28.856  26.313  1.00  0.00     0.275 C 
BRANCH  27  28
ATOM     28  O   UNL A   1      33.831  29.428  27.633  1.00  0.00    -0.458 OA
BRANCH  28  29
ATOM     29  C   UNL A   1      34.682  30.453  27.868  1.00  0.00     0.338 C 
ATOM     30  O   UNL A   1      34.377  31.640  27.942  1.00  0.00    -0.246 OA
BRANCH  29  31
ATOM     31  C   UNL A   1      36.031  29.960  28.227  1.00  0.00     0.060 A 
ATOM     32  C   UNL A   1      37.013  30.082  27.243  1.00  0.00     0.016 A 
ATOM     33  C   UNL A   1      36.362  29.408  29.469  1.00  0.00     0.016 A 
ATOM     34  C   UNL A   1      38.333  29.737  27.508  1.00  0.00     0.010 A 
ATOM     35  C   UNL A   1      37.687  29.005  29.719  1.00  0.00     0.010 A 
ATOM     36  C   UNL A   1      38.683  29.186  28.745  1.00  0.00    -0.014 A 
BRANCH  36  37
ATOM     37  C   UNL A   1      40.093  28.768  28.938  1.00  0.00     0.031 A 
ATOM     38  C   UNL A   1      41.007  29.622  29.768  1.00  0.00     0.074 A 
ATOM     39  C   UNL A   1      40.511  27.557  28.525  1.00  0.00     0.049 A 
ATOM     40  N   UNL A   1      42.255  29.416  30.106  1.00  0.00    -0.248 NA
ATOM     41  C   UNL A   1      40.428  30.858  30.316  1.00  0.00     0.031 C 
ATOM     42  C   UNL A   1      39.686  26.570  27.834  1.00  0.00     0.029 A 
ATOM     43  N   UNL A   1      41.728  26.935  28.668  1.00  0.00    -0.354 N 
ATOM     44  C   UNL A   1      42.607  30.491  30.911  1.00  0.00     0.074 A 
ATOM     45  C   UNL A   1      41.438  31.336  31.028  1.00  0.00     0.031 C 
ATOM     46  C   UNL A   1      40.408  25.453  27.642  1.00  0.00     0.029 A 
ATOM     47  C   UNL A   1      41.766  25.666  28.142  1.00  0.00     0.049 A 
ATOM     48  H   UNL A   1      42.501  27.358  29.107  1.00  0.00     0.167 HD
ATOM     49  C   UNL A   1      43.804  30.766  31.479  1.00  0.00     0.037 A 
ATOM     50  C   UNL A   1      42.788  24.792  28.048  1.00  0.00     0.037 A 
ATOM     51  C   UNL A   1      44.987  29.967  31.312  1.00  0.00     0.049 A 
ATOM     52  C   UNL A   1      44.149  25.186  28.564  1.00  0.00     0.074 A 
ATOM     53  C   UNL A   1      46.277  30.236  31.733  1.00  0.00     0.029 A 
ATOM     54  N   UNL A   1      45.024  28.743  30.664  1.00  0.00    -0.354 N 
ATOM     55  N   UNL A   1      44.503  26.253  29.239  1.00  0.00    -0.248 NA
ATOM     56  C   UNL A   1      45.261  24.267  28.277  1.00  0.00     0.031 C 
ATOM     57  C   UNL A   1      47.104  29.193  31.302  1.00  0.00     0.029 A 
ATOM     58  C   UNL A   1      46.318  28.251  30.657  1.00  0.00     0.049 A 
ATOM     59  H   UNL A   1      44.245  28.291  30.266  1.00  0.00     0.167 HD
ATOM     60  C   UNL A   1      45.870  26.133  29.456  1.00  0.00     0.074 A 
ATOM     61  C   UNL A   1      46.279  24.874  28.871  1.00  0.00     0.031 C 
ATOM     62  C   UNL A   1      46.714  26.995  30.073  1.00  0.00     0.037 A 
BRANCH  49  63
ATOM     63  C   UNL A   1      43.900  32.043  32.252  1.00  0.00     0.057 A 
ATOM     64  C   UNL A   1      43.674  32.094  33.633  1.00  0.00     0.134 A 
ATOM     65  C   UNL A   1      44.197  33.244  31.595  1.00  0.00     0.134 A 
ATOM     66  F   UNL A   1      43.358  30.980  34.312  1.00  0.00    -0.206 F 
ATOM     67  C   UNL A   1      43.719  33.301  34.331  1.00  0.00     0.040 A 
ATOM     68  C   UNL A   1      44.264  34.454  32.286  1.00  0.00     0.040 A 
ATOM     69  F   UNL A   1      44.417  33.259  30.272  1.00  0.00    -0.206 F 
ATOM     70  C   UNL A   1      44.017  34.485  33.658  1.00  0.00     0.006 A 
ENDBRANCH  49  63
BRANCH  50  71
ATOM     71  C   UNL A   1      42.600  23.475  27.384  1.00  0.00     0.057 A 
ATOM     72  C   UNL A   1      42.258  22.332  28.117  1.00  0.00     0.134 A 
ATOM     73  C   UNL A   1      42.826  23.313  26.011  1.00  0.00     0.134 A 
ATOM     74  F   UNL A   1      42.065  22.413  29.442  1.00  0.00    -0.206 F 
ATOM     75  C   UNL A   1      42.163  21.076  27.513  1.00  0.00     0.040 A 
ATOM     76  C   UNL A   1      42.708  22.070  25.389  1.00  0.00     0.040 A 
ATOM     77  F   UNL A   1      43.176  24.363  25.254  1.00  0.00    -0.206 F 
ATOM     78  C   UNL A   1      42.384  20.944  26.144  1.00  0.00     0.006 A 
ENDBRANCH  50  71
BRANCH  62  79
ATOM     79  C   UNL A   1      48.163  26.610  30.160  1.00  0.00     0.057 A 
ATOM     80  C   UNL A   1      48.661  25.855  31.230  1.00  0.00     0.134 A 
ATOM     81  C   UNL A   1      49.055  26.944  29.134  1.00  0.00     0.134 A 
ATOM     82  F   UNL A   1      47.861  25.511  32.251  1.00  0.00    -0.206 F 
ATOM     83  C   UNL A   1      49.998  25.458  31.282  1.00  0.00     0.040 A 
ATOM     84  C   UNL A   1      50.388  26.532  29.163  1.00  0.00     0.040 A 
ATOM     85  F   UNL A   1      48.640  27.657  28.077  1.00  0.00    -0.206 F 
ATOM     86  C   UNL A   1      50.864  25.790  30.241  1.00  0.00     0.006 A 
ENDBRANCH  62  79
ENDBRANCH  36  37
ENDBRANCH  29  31
ENDBRANCH  28  29
ENDBRANCH  27  28
ENDBRANCH   1  27
TORSDOF 15
ENDMDL
