MODEL 1
REMARK VINA RESULT:     -11.8      0.000      0.000
REMARK SMILES Cc1cccc(OCC(=O)Nc2cc(C(=O)OCCOC(=O)c3ccc(-c4c5nc(c(-c6c(F)cccc6F)c6ccc([nH]6)c(-c6c(F)cccc6F)c6nc(c(-c7c(F)cccc7F)c7ccc4[nH]7)C=C6)C=C5)cc3)c(Cl)cc2Cl)c1
REMARK SMILES IDX 18 1 17 2 15 3 16 4 14 5 12 6 13 7 80 8 79 9 81 10 77 11
REMARK SMILES IDX 78 12 11 13 9 14 10 15 8 17 7 18 6 19 1 20 2 21 3 22 82 23
REMARK SMILES IDX 4 24 5 25 19 26 20 27 21 28 22 29 23 30 24 31 76 32 25 33
REMARK SMILES IDX 75 34 26 35 27 36 28 37 69 38 29 39 74 40 68 41 70 42 30 43
REMARK SMILES IDX 73 44 67 45 66 46 31 48 57 49 40 50 56 51 41 52 44 53 55 54
REMARK SMILES IDX 71 55 42 56 43 57 54 59 72 60 45 61 32 62 33 63 38 64 34 65
REMARK SMILES IDX 35 66 37 67 39 68 36 69 58 70 59 71 64 72 60 73 61 74 63 75
REMARK SMILES IDX 65 76 62 77 46 78 47 79 52 80 48 81 49 82 51 83 53 84 50 85
REMARK H PARENT 11 16 70 47 44 58
REMARK Flexibility Score: inf
ROOT
ATOM      1  C   UNL A   1      35.631  29.865  27.432  1.00  0.00     0.275 C 
ENDROOT
BRANCH   1   2
ATOM      2  O   UNL A   1      34.650  29.034  26.827  1.00  0.00    -0.458 OA
BRANCH   2   3
ATOM      3  C   UNL A   1      33.439  29.595  26.785  1.00  0.00     0.339 C 
ATOM      4  O   UNL A   1      32.999  30.403  27.591  1.00  0.00    -0.246 OA
BRANCH   3   5
ATOM      5  C   UNL A   1      32.634  29.029  25.592  1.00  0.00     0.080 A 
ATOM      6  C   UNL A   1      31.752  26.142  25.692  1.00  0.00     0.061 A 
ATOM      7  C   UNL A   1      32.209  27.537  26.469  1.00  0.00     0.045 A 
ATOM      8  C   UNL A   1      31.758  25.958  23.995  1.00  0.00     0.066 A 
ATOM      9  C   UNL A   1      32.147  27.227  22.885  1.00  0.00     0.044 A 
ATOM     10  Cl  UNL A   1      31.369  24.386  23.375  1.00  0.00    -0.082 Cl
ATOM     11  C   UNL A   1      32.696  28.866  23.525  1.00  0.00     0.057 A 
ATOM     12  Cl  UNL A   1      34.295  28.534  22.200  1.00  0.00    -0.083 Cl
BRANCH   6  13
ATOM     13  N   UNL A   1      31.154  25.194  26.542  1.00  0.00    -0.322 N 
ATOM     14  C   UNL A   1      31.743  23.978  26.861  1.00  0.00     0.262 C 
ATOM     15  O   UNL A   1      31.158  23.205  27.626  1.00  0.00    -0.271 OA
ATOM     16  H   UNL A   1      30.273  25.403  26.928  1.00  0.00     0.170 HD
BRANCH  14  17
ATOM     17  C   UNL A   1      33.237  23.686  26.439  1.00  0.00     0.329 C 
BRANCH  17  18
ATOM     18  O   UNL A   1      33.739  22.600  25.647  1.00  0.00    -0.484 OA
BRANCH  18  19
ATOM     19  C   UNL A   1      35.083  22.471  25.494  1.00  0.00     0.120 A 
ATOM     20  C   UNL A   1      38.221  24.196  26.502  1.00  0.00     0.044 C 
ATOM     21  C   UNL A   1      37.323  23.149  25.948  1.00  0.00    -0.047 A 
ATOM     22  C   UNL A   1      37.834  22.000  25.329  1.00  0.00     0.003 A 
ATOM     23  C   UNL A   1      35.953  23.370  26.040  1.00  0.00     0.049 A 
ATOM     24  C   UNL A   1      36.965  21.091  24.758  1.00  0.00     0.004 A 
ATOM     25  C   UNL A   1      35.604  21.377  24.790  1.00  0.00     0.046 A 
ENDBRANCH  18  19
ENDBRANCH  17  18
ENDBRANCH  14  17
ENDBRANCH   6  13
ENDBRANCH   3   5
ENDBRANCH   2   3
ENDBRANCH   1   2
BRANCH   1  26
ATOM     26  C   UNL A   1      35.969  29.666  28.963  1.00  0.00     0.275 C 
BRANCH  26  27
ATOM     27  O   UNL A   1      37.203  30.176  29.679  1.00  0.00    -0.458 OA
BRANCH  27  28
ATOM     28  C   UNL A   1      38.471  29.629  29.973  1.00  0.00     0.338 C 
ATOM     29  O   UNL A   1      39.085  29.939  30.981  1.00  0.00    -0.246 OA
BRANCH  28  30
ATOM     30  C   UNL A   1      39.232  29.195  28.761  1.00  0.00     0.060 A 
ATOM     31  C   UNL A   1      39.184  29.272  26.893  1.00  0.00     0.016 A 
ATOM     32  C   UNL A   1      40.752  28.785  29.501  1.00  0.00     0.016 A 
ATOM     33  C   UNL A   1      41.049  28.926  26.065  1.00  0.00     0.010 A 
ATOM     34  C   UNL A   1      42.117  28.617  28.769  1.00  0.00     0.010 A 
ATOM     35  C   UNL A   1      42.412  28.507  27.238  1.00  0.00    -0.014 A 
BRANCH  35  36
ATOM     36  C   UNL A   1      44.041  28.247  27.586  1.00  0.00     0.031 A 
ATOM     37  C   UNL A   1      44.658  29.592  27.281  1.00  0.00     0.074 A 
ATOM     38  C   UNL A   1      44.571  27.053  28.357  1.00  0.00     0.049 A 
ATOM     39  N   UNL A   1      45.452  29.984  26.338  1.00  0.00    -0.248 NA
ATOM     40  C   UNL A   1      44.014  30.808  27.831  1.00  0.00     0.031 C 
ATOM     41  C   UNL A   1      45.886  26.510  29.004  1.00  0.00     0.029 A 
ATOM     42  N   UNL A   1      43.861  25.808  28.664  1.00  0.00    -0.354 N 
ATOM     43  C   UNL A   1      45.904  31.248  26.764  1.00  0.00     0.074 A 
ATOM     44  C   UNL A   1      44.788  31.826  27.437  1.00  0.00     0.031 C 
ATOM     45  C   UNL A   1      46.009  25.154  28.882  1.00  0.00     0.029 A 
ATOM     46  C   UNL A   1      44.720  24.681  28.477  1.00  0.00     0.049 A 
ATOM     47  H   UNL A   1      42.923  25.756  28.957  1.00  0.00     0.167 HD
ATOM     48  C   UNL A   1      47.200  31.397  27.169  1.00  0.00     0.037 A 
ATOM     49  C   UNL A   1      44.527  23.777  27.490  1.00  0.00     0.037 A 
ATOM     50  C   UNL A   1      47.749  30.054  27.343  1.00  0.00     0.049 A 
ATOM     51  C   UNL A   1      45.380  24.392  26.364  1.00  0.00     0.074 A 
ATOM     52  C   UNL A   1      48.020  29.285  28.454  1.00  0.00     0.029 A 
ATOM     53  N   UNL A   1      47.641  29.166  26.286  1.00  0.00    -0.354 N 
ATOM     54  N   UNL A   1      45.734  25.661  26.283  1.00  0.00    -0.248 NA
ATOM     55  C   UNL A   1      46.170  23.526  25.513  1.00  0.00     0.031 C 
ATOM     56  C   UNL A   1      48.145  27.932  28.001  1.00  0.00     0.029 A 
ATOM     57  C   UNL A   1      47.806  27.851  26.650  1.00  0.00     0.049 A 
ATOM     58  H   UNL A   1      47.463  29.449  25.360  1.00  0.00     0.167 HD
ATOM     59  C   UNL A   1      46.944  25.747  25.640  1.00  0.00     0.074 A 
ATOM     60  C   UNL A   1      47.159  24.372  25.197  1.00  0.00     0.031 C 
ATOM     61  C   UNL A   1      47.790  26.837  25.580  1.00  0.00     0.037 A 
BRANCH  48  62
ATOM     62  C   UNL A   1      47.886  32.657  27.676  1.00  0.00     0.057 A 
ATOM     63  C   UNL A   1      47.841  32.936  29.057  1.00  0.00     0.134 A 
ATOM     64  C   UNL A   1      48.696  33.548  26.935  1.00  0.00     0.134 A 
ATOM     65  F   UNL A   1      47.161  32.153  29.905  1.00  0.00    -0.206 F 
ATOM     66  C   UNL A   1      48.519  34.001  29.660  1.00  0.00     0.040 A 
ATOM     67  C   UNL A   1      49.377  34.635  27.531  1.00  0.00     0.040 A 
ATOM     68  F   UNL A   1      48.899  33.391  25.619  1.00  0.00    -0.206 F 
ATOM     69  C   UNL A   1      49.294  34.859  28.900  1.00  0.00     0.006 A 
ENDBRANCH  48  62
BRANCH  49  70
ATOM     70  C   UNL A   1      43.075  23.445  27.513  1.00  0.00     0.057 A 
ATOM     71  C   UNL A   1      42.333  23.416  26.266  1.00  0.00     0.134 A 
ATOM     72  C   UNL A   1      42.757  22.532  28.468  1.00  0.00     0.134 A 
ATOM     73  F   UNL A   1      42.666  24.247  25.269  1.00  0.00    -0.206 F 
ATOM     74  C   UNL A   1      41.451  22.382  25.918  1.00  0.00     0.040 A 
ATOM     75  C   UNL A   1      41.971  21.507  28.036  1.00  0.00     0.040 A 
ATOM     76  F   UNL A   1      43.544  22.280  29.527  1.00  0.00    -0.206 F 
ATOM     77  C   UNL A   1      41.251  21.403  26.842  1.00  0.00     0.006 A 
ENDBRANCH  49  70
BRANCH  61  78
ATOM     78  C   UNL A   1      48.760  27.041  24.402  1.00  0.00     0.057 A 
ATOM     79  C   UNL A   1      48.371  27.513  23.141  1.00  0.00     0.134 A 
ATOM     80  C   UNL A   1      50.170  26.895  24.521  1.00  0.00     0.134 A 
ATOM     81  F   UNL A   1      47.150  27.992  22.886  1.00  0.00    -0.206 F 
ATOM     82  C   UNL A   1      49.243  27.630  22.059  1.00  0.00     0.040 A 
ATOM     83  C   UNL A   1      51.069  27.158  23.487  1.00  0.00     0.040 A 
ATOM     84  F   UNL A   1      50.796  26.529  25.644  1.00  0.00    -0.206 F 
ATOM     85  C   UNL A   1      50.602  27.473  22.231  1.00  0.00     0.006 A 
ENDBRANCH  61  78
ENDBRANCH  35  36
ENDBRANCH  28  30
ENDBRANCH  27  28
ENDBRANCH  26  27
ENDBRANCH   1  26
TORSDOF 15
ENDMDL
MODEL 2
REMARK VINA RESULT:     -11.8      4.618      8.812
REMARK SMILES Cc1cccc(OCC(=O)Nc2cc(C(=O)OCCOC(=O)c3ccc(-c4c5nc(c(-c6c(F)cccc6F)c6ccc([nH]6)c(-c6c(F)cccc6F)c6nc(c(-c7c(F)cccc7F)c7ccc4[nH]7)C=C6)C=C5)cc3)c(Cl)cc2Cl)c1
REMARK SMILES IDX 18 1 17 2 15 3 16 4 14 5 12 6 13 7 80 8 79 9 81 10 77 11
REMARK SMILES IDX 78 12 11 13 9 14 10 15 8 17 7 18 6 19 1 20 2 21 3 22 82 23
REMARK SMILES IDX 4 24 5 25 19 26 20 27 21 28 22 29 23 30 24 31 76 32 25 33
REMARK SMILES IDX 75 34 26 35 27 36 28 37 69 38 29 39 74 40 68 41 70 42 30 43
REMARK SMILES IDX 73 44 67 45 66 46 31 48 57 49 40 50 56 51 41 52 44 53 55 54
REMARK SMILES IDX 71 55 42 56 43 57 54 59 72 60 45 61 32 62 33 63 38 64 34 65
REMARK SMILES IDX 35 66 37 67 39 68 36 69 58 70 59 71 64 72 60 73 61 74 63 75
REMARK SMILES IDX 65 76 62 77 46 78 47 79 52 80 48 81 49 82 51 83 53 84 50 85
REMARK H PARENT 11 16 70 47 44 58
REMARK Flexibility Score: inf
ROOT
ATOM      1  C   UNL A   1      33.200  30.863  27.335  1.00  0.00     0.275 C 
ENDROOT
BRANCH   1   2
ATOM      2  O   UNL A   1      33.126  29.639  26.616  1.00  0.00    -0.458 OA
BRANCH   2   3
ATOM      3  C   UNL A   1      31.975  28.990  26.800  1.00  0.00     0.339 C 
ATOM      4  O   UNL A   1      31.416  28.820  27.875  1.00  0.00    -0.246 OA
BRANCH   3   5
ATOM      5  C   UNL A   1      31.465  28.420  25.456  1.00  0.00     0.080 A 
ATOM      6  C   UNL A   1      30.758  25.487  25.313  1.00  0.00     0.061 A 
ATOM      7  C   UNL A   1      30.962  26.879  26.196  1.00  0.00     0.045 A 
ATOM      8  C   UNL A   1      31.122  25.359  23.650  1.00  0.00     0.066 A 
ATOM      9  C   UNL A   1      31.652  26.683  22.670  1.00  0.00     0.044 A 
ATOM     10  Cl  UNL A   1      30.964  23.789  22.931  1.00  0.00    -0.082 Cl
ATOM     11  C   UNL A   1      31.958  28.328  23.443  1.00  0.00     0.057 A 
ATOM     12  Cl  UNL A   1      33.811  28.127  22.469  1.00  0.00    -0.083 Cl
BRANCH   6  13
ATOM     13  N   UNL A   1      30.058  24.481  26.002  1.00  0.00    -0.322 N 
ATOM     14  C   UNL A   1      30.685  23.458  26.702  1.00  0.00     0.262 C 
ATOM     15  O   UNL A   1      29.997  22.619  27.292  1.00  0.00    -0.271 OA
ATOM     16  H   UNL A   1      29.074  24.502  25.986  1.00  0.00     0.170 HD
BRANCH  14  17
ATOM     17  C   UNL A   1      32.247  23.497  26.932  1.00  0.00     0.329 C 
BRANCH  17  18
ATOM     18  O   UNL A   1      33.219  22.497  26.594  1.00  0.00    -0.484 OA
BRANCH  18  19
ATOM     19  C   UNL A   1      34.247  22.837  25.773  1.00  0.00     0.120 A 
ATOM     20  C   UNL A   1      37.824  23.836  25.989  1.00  0.00     0.044 C 
ATOM     21  C   UNL A   1      36.530  23.413  25.394  1.00  0.00    -0.047 A 
ATOM     22  C   UNL A   1      36.365  23.295  24.007  1.00  0.00     0.003 A 
ATOM     23  C   UNL A   1      35.475  23.169  26.268  1.00  0.00     0.049 A 
ATOM     24  C   UNL A   1      35.124  22.976  23.494  1.00  0.00     0.004 A 
ATOM     25  C   UNL A   1      34.067  22.820  24.384  1.00  0.00     0.046 A 
ENDBRANCH  18  19
ENDBRANCH  17  18
ENDBRANCH  14  17
ENDBRANCH   6  13
ENDBRANCH   3   5
ENDBRANCH   2   3
ENDBRANCH   1   2
BRANCH   1  26
ATOM     26  C   UNL A   1      34.612  31.535  27.564  1.00  0.00     0.275 C 
BRANCH  26  27
ATOM     27  O   UNL A   1      34.885  33.020  27.693  1.00  0.00    -0.458 OA
BRANCH  27  28
ATOM     28  C   UNL A   1      35.020  33.908  28.781  1.00  0.00     0.338 C 
ATOM     29  O   UNL A   1      35.243  35.097  28.615  1.00  0.00    -0.246 OA
BRANCH  28  30
ATOM     30  C   UNL A   1      35.486  33.249  30.039  1.00  0.00     0.060 A 
ATOM     31  C   UNL A   1      34.847  32.326  31.536  1.00  0.00     0.016 A 
ATOM     32  C   UNL A   1      37.184  33.114  29.688  1.00  0.00     0.016 A 
ATOM     33  C   UNL A   1      36.340  31.221  32.449  1.00  0.00     0.010 A 
ATOM     34  C   UNL A   1      38.204  32.185  30.412  1.00  0.00     0.010 A 
ATOM     35  C   UNL A   1      38.039  31.381  31.742  1.00  0.00    -0.014 A 
BRANCH  35  36
ATOM     36  C   UNL A   1      39.650  30.896  31.632  1.00  0.00     0.031 A 
ATOM     37  C   UNL A   1      39.568  29.698  30.715  1.00  0.00     0.074 A 
ATOM     38  C   UNL A   1      40.830  31.742  32.071  1.00  0.00     0.049 A 
ATOM     39  N   UNL A   1      39.738  28.434  30.929  1.00  0.00    -0.248 NA
ATOM     40  C   UNL A   1      38.789  29.818  29.460  1.00  0.00     0.031 C 
ATOM     41  C   UNL A   1      42.391  31.770  32.021  1.00  0.00     0.029 A 
ATOM     42  N   UNL A   1      40.797  32.942  32.913  1.00  0.00    -0.354 N 
ATOM     43  C   UNL A   1      39.825  27.869  29.643  1.00  0.00     0.074 A 
ATOM     44  C   UNL A   1      38.925  28.636  28.847  1.00  0.00     0.031 C 
ATOM     45  C   UNL A   1      42.942  32.290  33.160  1.00  0.00     0.029 A 
ATOM     46  C   UNL A   1      41.865  32.917  33.863  1.00  0.00     0.049 A 
ATOM     47  H   UNL A   1      40.132  33.663  32.836  1.00  0.00     0.167 HD
ATOM     48  C   UNL A   1      41.027  27.397  29.195  1.00  0.00     0.037 A 
ATOM     49  C   UNL A   1      41.653  32.780  35.191  1.00  0.00     0.037 A 
ATOM     50  C   UNL A   1      42.048  27.892  30.115  1.00  0.00     0.049 A 
ATOM     51  C   UNL A   1      41.722  31.247  35.337  1.00  0.00     0.074 A 
ATOM     52  C   UNL A   1      42.983  28.901  30.028  1.00  0.00     0.029 A 
ATOM     53  N   UNL A   1      41.875  27.653  31.468  1.00  0.00    -0.354 N 
ATOM     54  N   UNL A   1      41.530  30.379  34.361  1.00  0.00    -0.248 NA
ATOM     55  C   UNL A   1      42.382  30.670  36.490  1.00  0.00     0.031 C 
ATOM     56  C   UNL A   1      43.408  29.189  31.365  1.00  0.00     0.029 A 
ATOM     57  C   UNL A   1      42.633  28.468  32.274  1.00  0.00     0.049 A 
ATOM     58  H   UNL A   1      41.266  26.964  31.821  1.00  0.00     0.167 HD
ATOM     59  C   UNL A   1      42.280  29.256  34.607  1.00  0.00     0.074 A 
ATOM     60  C   UNL A   1      42.793  29.514  35.950  1.00  0.00     0.031 C 
ATOM     61  C   UNL A   1      42.579  28.234  33.729  1.00  0.00     0.037 A 
BRANCH  48  62
ATOM     62  C   UNL A   1      41.345  26.768  27.847  1.00  0.00     0.057 A 
ATOM     63  C   UNL A   1      41.703  27.616  26.779  1.00  0.00     0.134 A 
ATOM     64  C   UNL A   1      41.454  25.390  27.549  1.00  0.00     0.134 A 
ATOM     65  F   UNL A   1      41.705  28.948  26.916  1.00  0.00    -0.206 F 
ATOM     66  C   UNL A   1      42.118  27.157  25.524  1.00  0.00     0.040 A 
ATOM     67  C   UNL A   1      41.862  24.913  26.282  1.00  0.00     0.040 A 
ATOM     68  F   UNL A   1      41.211  24.447  28.470  1.00  0.00    -0.206 F 
ATOM     69  C   UNL A   1      42.203  25.800  25.267  1.00  0.00     0.006 A 
ENDBRANCH  48  62
BRANCH  49  70
ATOM     70  C   UNL A   1      40.549  33.720  35.532  1.00  0.00     0.057 A 
ATOM     71  C   UNL A   1      39.233  33.190  35.841  1.00  0.00     0.134 A 
ATOM     72  C   UNL A   1      40.978  34.809  36.222  1.00  0.00     0.134 A 
ATOM     73  F   UNL A   1      38.804  32.072  35.239  1.00  0.00    -0.206 F 
ATOM     74  C   UNL A   1      38.470  33.615  36.938  1.00  0.00     0.040 A 
ATOM     75  C   UNL A   1      40.242  35.108  37.328  1.00  0.00     0.040 A 
ATOM     76  F   UNL A   1      42.259  35.211  36.228  1.00  0.00    -0.206 F 
ATOM     77  C   UNL A   1      38.984  34.619  37.698  1.00  0.00     0.006 A 
ENDBRANCH  49  70
BRANCH  61  78
ATOM     78  C   UNL A   1      42.877  26.807  34.224  1.00  0.00     0.057 A 
ATOM     79  C   UNL A   1      44.085  26.135  33.993  1.00  0.00     0.134 A 
ATOM     80  C   UNL A   1      42.001  26.081  35.078  1.00  0.00     0.134 A 
ATOM     81  F   UNL A   1      45.160  26.728  33.467  1.00  0.00    -0.206 F 
ATOM     82  C   UNL A   1      44.321  24.818  34.386  1.00  0.00     0.040 A 
ATOM     83  C   UNL A   1      42.295  24.822  35.604  1.00  0.00     0.040 A 
ATOM     84  F   UNL A   1      40.819  26.537  35.507  1.00  0.00    -0.206 F 
ATOM     85  C   UNL A   1      43.435  24.160  35.212  1.00  0.00     0.006 A 
ENDBRANCH  61  78
ENDBRANCH  35  36
ENDBRANCH  28  30
ENDBRANCH  27  28
ENDBRANCH  26  27
ENDBRANCH   1  26
TORSDOF 15
ENDMDL
MODEL 3
REMARK VINA RESULT:     -11.8      4.700      8.929
REMARK SMILES Cc1cccc(OCC(=O)Nc2cc(C(=O)OCCOC(=O)c3ccc(-c4c5nc(c(-c6c(F)cccc6F)c6ccc([nH]6)c(-c6c(F)cccc6F)c6nc(c(-c7c(F)cccc7F)c7ccc4[nH]7)C=C6)C=C5)cc3)c(Cl)cc2Cl)c1
REMARK SMILES IDX 18 1 17 2 15 3 16 4 14 5 12 6 13 7 80 8 79 9 81 10 77 11
REMARK SMILES IDX 78 12 11 13 9 14 10 15 8 17 7 18 6 19 1 20 2 21 3 22 82 23
REMARK SMILES IDX 4 24 5 25 19 26 20 27 21 28 22 29 23 30 24 31 76 32 25 33
REMARK SMILES IDX 75 34 26 35 27 36 28 37 69 38 29 39 74 40 68 41 70 42 30 43
REMARK SMILES IDX 73 44 67 45 66 46 31 48 57 49 40 50 56 51 41 52 44 53 55 54
REMARK SMILES IDX 71 55 42 56 43 57 54 59 72 60 45 61 32 62 33 63 38 64 34 65
REMARK SMILES IDX 35 66 37 67 39 68 36 69 58 70 59 71 64 72 60 73 61 74 63 75
REMARK SMILES IDX 65 76 62 77 46 78 47 79 52 80 48 81 49 82 51 83 53 84 50 85
REMARK H PARENT 11 16 70 47 44 58
REMARK Flexibility Score: inf
ROOT
ATOM      1  C   UNL A   1      39.562  30.573  35.539  1.00  0.00     0.275 C 
ENDROOT
BRANCH   1   2
ATOM      2  O   UNL A   1      39.180  31.684  36.337  1.00  0.00    -0.458 OA
BRANCH   2   3
ATOM      3  C   UNL A   1      38.258  32.455  35.758  1.00  0.00     0.339 C 
ATOM      4  O   UNL A   1      37.061  32.450  36.013  1.00  0.00    -0.246 OA
BRANCH   3   5
ATOM      5  C   UNL A   1      38.908  33.328  34.660  1.00  0.00     0.080 A 
ATOM      6  C   UNL A   1      37.312  33.930  32.168  1.00  0.00     0.061 A 
ATOM      7  C   UNL A   1      37.373  33.521  33.776  1.00  0.00     0.045 A 
ATOM      8  C   UNL A   1      38.694  34.088  31.178  1.00  0.00     0.066 A 
ATOM      9  C   UNL A   1      40.319  33.935  31.753  1.00  0.00     0.044 A 
ATOM     10  Cl  UNL A   1      38.422  34.396  29.493  1.00  0.00    -0.082 Cl
ATOM     11  C   UNL A   1      40.628  33.472  33.509  1.00  0.00     0.057 A 
ATOM     12  Cl  UNL A   1      41.834  31.999  32.615  1.00  0.00    -0.083 Cl
BRANCH   6  13
ATOM     13  N   UNL A   1      36.039  34.347  31.740  1.00  0.00    -0.322 N 
ATOM     14  C   UNL A   1      35.143  33.511  31.085  1.00  0.00     0.262 C 
ATOM     15  O   UNL A   1      34.038  33.949  30.754  1.00  0.00    -0.271 OA
ATOM     16  H   UNL A   1      35.769  35.277  31.912  1.00  0.00     0.170 HD
BRANCH  14  17
ATOM     17  C   UNL A   1      35.441  31.963  30.972  1.00  0.00     0.329 C 
BRANCH  17  18
ATOM     18  O   UNL A   1      35.971  31.241  29.852  1.00  0.00    -0.484 OA
BRANCH  18  19
ATOM     19  C   UNL A   1      37.133  30.553  30.009  1.00  0.00     0.120 A 
ATOM     20  C   UNL A   1      38.529  27.806  32.093  1.00  0.00     0.044 C 
ATOM     21  C   UNL A   1      38.427  28.818  31.009  1.00  0.00    -0.047 A 
ATOM     22  C   UNL A   1      39.476  29.033  30.106  1.00  0.00     0.003 A 
ATOM     23  C   UNL A   1      37.257  29.568  30.946  1.00  0.00     0.049 A 
ATOM     24  C   UNL A   1      39.370  30.037  29.165  1.00  0.00     0.004 A 
ATOM     25  C   UNL A   1      38.226  30.828  29.177  1.00  0.00     0.046 A 
ENDBRANCH  18  19
ENDBRANCH  17  18
ENDBRANCH  14  17
ENDBRANCH   6  13
ENDBRANCH   3   5
ENDBRANCH   2   3
ENDBRANCH   1   2
BRANCH   1  26
ATOM     26  C   UNL A   1      41.084  30.150  35.488  1.00  0.00     0.275 C 
BRANCH  26  27
ATOM     27  O   UNL A   1      41.630  28.749  35.673  1.00  0.00    -0.458 OA
BRANCH  27  28
ATOM     28  C   UNL A   1      41.606  27.569  34.898  1.00  0.00     0.338 C 
ATOM     29  O   UNL A   1      40.911  26.614  35.205  1.00  0.00    -0.246 OA
BRANCH  28  30
ATOM     30  C   UNL A   1      42.862  27.336  34.122  1.00  0.00     0.060 A 
ATOM     31  C   UNL A   1      44.562  26.569  34.276  1.00  0.00     0.016 A 
ATOM     32  C   UNL A   1      42.278  27.654  32.514  1.00  0.00     0.016 A 
ATOM     33  C   UNL A   1      45.389  26.163  32.423  1.00  0.00     0.010 A 
ATOM     34  C   UNL A   1      42.968  27.232  31.182  1.00  0.00     0.010 A 
ATOM     35  C   UNL A   1      44.413  26.688  30.946  1.00  0.00    -0.014 A 
BRANCH  35  36
ATOM     36  C   UNL A   1      44.130  26.700  29.284  1.00  0.00     0.031 A 
ATOM     37  C   UNL A   1      44.536  25.303  28.875  1.00  0.00     0.074 A 
ATOM     38  C   UNL A   1      43.322  27.760  28.561  1.00  0.00     0.049 A 
ATOM     39  N   UNL A   1      45.535  24.862  28.182  1.00  0.00    -0.248 NA
ATOM     40  C   UNL A   1      44.022  24.157  29.661  1.00  0.00     0.031 C 
ATOM     41  C   UNL A   1      42.710  28.077  27.159  1.00  0.00     0.029 A 
ATOM     42  N   UNL A   1      42.915  29.070  29.077  1.00  0.00    -0.354 N 
ATOM     43  C   UNL A   1      45.201  23.525  27.896  1.00  0.00     0.074 A 
ATOM     44  C   UNL A   1      44.507  23.067  29.054  1.00  0.00     0.031 C 
ATOM     45  C   UNL A   1      42.765  29.408  26.852  1.00  0.00     0.029 A 
ATOM     46  C   UNL A   1      43.082  30.078  28.076  1.00  0.00     0.049 A 
ATOM     47  H   UNL A   1      42.576  29.234  29.986  1.00  0.00     0.167 HD
ATOM     48  C   UNL A   1      44.866  23.175  26.618  1.00  0.00     0.037 A 
ATOM     49  C   UNL A   1      44.008  31.057  28.180  1.00  0.00     0.037 A 
ATOM     50  C   UNL A   1      44.647  24.416  25.879  1.00  0.00     0.049 A 
ATOM     51  C   UNL A   1      45.206  30.399  27.467  1.00  0.00     0.074 A 
ATOM     52  C   UNL A   1      43.510  25.072  25.460  1.00  0.00     0.029 A 
ATOM     53  N   UNL A   1      45.648  25.372  25.904  1.00  0.00    -0.354 N 
ATOM     54  N   UNL A   1      45.372  29.101  27.298  1.00  0.00    -0.248 NA
ATOM     55  C   UNL A   1      46.045  31.198  26.598  1.00  0.00     0.031 C 
ATOM     56  C   UNL A   1      43.895  26.420  25.164  1.00  0.00     0.029 A 
ATOM     57  C   UNL A   1      45.222  26.627  25.541  1.00  0.00     0.049 A 
ATOM     58  H   UNL A   1      46.579  25.173  26.156  1.00  0.00     0.167 HD
ATOM     59  C   UNL A   1      46.075  28.887  26.138  1.00  0.00     0.074 A 
ATOM     60  C   UNL A   1      46.453  30.243  25.751  1.00  0.00     0.031 C 
ATOM     61  C   UNL A   1      46.234  27.696  25.457  1.00  0.00     0.037 A 
BRANCH  48  62
ATOM     62  C   UNL A   1      44.462  21.804  26.096  1.00  0.00     0.057 A 
ATOM     63  C   UNL A   1      43.129  21.383  26.280  1.00  0.00     0.134 A 
ATOM     64  C   UNL A   1      45.241  20.921  25.315  1.00  0.00     0.134 A 
ATOM     65  F   UNL A   1      42.246  22.134  26.952  1.00  0.00    -0.206 F 
ATOM     66  C   UNL A   1      42.606  20.195  25.757  1.00  0.00     0.040 A 
ATOM     67  C   UNL A   1      44.728  19.712  24.789  1.00  0.00     0.040 A 
ATOM     68  F   UNL A   1      46.511  21.198  24.990  1.00  0.00    -0.206 F 
ATOM     69  C   UNL A   1      43.403  19.350  25.004  1.00  0.00     0.006 A 
ENDBRANCH  48  62
BRANCH  49  70
ATOM     70  C   UNL A   1      43.899  31.584  29.569  1.00  0.00     0.057 A 
ATOM     71  C   UNL A   1      44.890  31.197  30.556  1.00  0.00     0.134 A 
ATOM     72  C   UNL A   1      43.410  32.851  29.615  1.00  0.00     0.134 A 
ATOM     73  F   UNL A   1      45.454  29.983  30.498  1.00  0.00    -0.206 F 
ATOM     74  C   UNL A   1      45.511  32.109  31.423  1.00  0.00     0.040 A 
ATOM     75  C   UNL A   1      44.117  33.705  30.407  1.00  0.00     0.040 A 
ATOM     76  F   UNL A   1      42.717  33.403  28.606  1.00  0.00    -0.206 F 
ATOM     77  C   UNL A   1      45.099  33.403  31.357  1.00  0.00     0.006 A 
ENDBRANCH  49  70
BRANCH  61  78
ATOM     78  C   UNL A   1      47.466  27.431  24.573  1.00  0.00     0.057 A 
ATOM     79  C   UNL A   1      47.558  27.805  23.226  1.00  0.00     0.134 A 
ATOM     80  C   UNL A   1      48.685  26.898  25.078  1.00  0.00     0.134 A 
ATOM     81  F   UNL A   1      46.651  28.576  22.620  1.00  0.00    -0.206 F 
ATOM     82  C   UNL A   1      48.650  27.500  22.414  1.00  0.00     0.040 A 
ATOM     83  C   UNL A   1      49.838  26.731  24.309  1.00  0.00     0.040 A 
ATOM     84  F   UNL A   1      48.878  26.535  26.351  1.00  0.00    -0.206 F 
ATOM     85  C   UNL A   1      49.806  26.979  22.956  1.00  0.00     0.006 A 
ENDBRANCH  61  78
ENDBRANCH  35  36
ENDBRANCH  28  30
ENDBRANCH  27  28
ENDBRANCH  26  27
ENDBRANCH   1  26
TORSDOF 15
ENDMDL
