MODEL 1
REMARK VINA RESULT:     -10.9      0.000      0.000
REMARK SMILES O=C(Cc1ccn[nH]1)Nc1sc2c(c1C(=O)OCCOC(=O)c1ccc(-c3c4nc(c(-c5c(F)cccc5F)c5ccc([nH]5)c(-c5c(F)cccc5F)c5nc(c(-c6c(F)cccc6F)c6ccc3[nH]6)C=C5)C=C4)cc1)CCC2
REMARK SMILES IDX 18 1 17 2 15 3 16 4 14 5 10 6 11 7 12 8 13 9 79 10 77 11
REMARK SMILES IDX 78 12 9 13 1 14 2 15 3 17 4 18 5 19 8 20 6 21 7 22 19 24
REMARK SMILES IDX 20 25 21 26 22 27 23 28 24 29 76 30 25 31 75 32 26 33 27 34
REMARK SMILES IDX 28 35 69 36 29 37 74 38 68 39 70 40 30 41 73 42 67 43 66 44
REMARK SMILES IDX 31 46 57 47 40 48 56 49 41 50 44 51 55 52 71 53 42 54 43 55
REMARK SMILES IDX 54 57 72 58 45 59 32 60 33 61 38 62 34 63 35 64 37 65 39 66
REMARK SMILES IDX 36 67 58 68 59 69 64 70 60 71 61 72 63 73 65 74 62 75 46 76
REMARK SMILES IDX 47 77 52 78 48 79 49 80 51 81 53 82 50 83
REMARK H PARENT 9 16 8 23 70 45 44 56
REMARK Flexibility Score: inf
ROOT
ATOM      1  C   UNL A   1      35.452  32.938  28.142  1.00  0.00     0.275 C 
ENDROOT
BRANCH   1   2
ATOM      2  O   UNL A   1      35.635  33.523  29.446  1.00  0.00    -0.458 OA
BRANCH   2   3
ATOM      3  C   UNL A   1      36.919  33.791  29.841  1.00  0.00     0.341 C 
ATOM      4  O   UNL A   1      37.788  34.218  29.077  1.00  0.00    -0.246 OA
BRANCH   3   5
ATOM      5  C   UNL A   1      37.175  33.446  31.240  1.00  0.00     0.098 A 
ATOM      6  C   UNL A   1      36.570  34.065  32.332  1.00  0.00     0.110 A 
ATOM      7  S   UNL A   1      37.250  33.649  33.847  1.00  0.00    -0.122 S 
ATOM      8  C   UNL A   1      38.213  32.506  33.104  1.00  0.00     0.011 A 
ATOM      9  C   UNL A   1      38.123  32.501  31.739  1.00  0.00    -0.017 A 
ATOM     10  C   UNL A   1      39.196  31.549  33.659  1.00  0.00     0.047 C 
ATOM     11  C   UNL A   1      39.091  31.537  31.151  1.00  0.00     0.038 C 
ATOM     12  C   UNL A   1      39.545  30.707  32.393  1.00  0.00     0.010 C 
BRANCH   6  13
ATOM     13  N   UNL A   1      35.544  34.982  32.409  1.00  0.00    -0.317 N 
ATOM     14  O   UNL A   1      33.939  33.357  32.776  1.00  0.00    -0.274 OA
ATOM     15  C   UNL A   1      34.244  34.512  32.486  1.00  0.00     0.230 C 
ATOM     16  H   UNL A   1      35.731  35.949  32.408  1.00  0.00     0.170 HD
BRANCH  15  17
ATOM     17  C   UNL A   1      33.185  35.574  32.247  1.00  0.00     0.155 C 
BRANCH  17  18
ATOM     18  C   UNL A   1      33.214  36.046  30.836  1.00  0.00     0.044 A 
ATOM     19  C   UNL A   1      33.085  35.376  29.638  1.00  0.00     0.045 A 
ATOM     20  N   UNL A   1      33.391  37.367  30.505  1.00  0.00    -0.282 N 
ATOM     21  C   UNL A   1      33.188  36.375  28.654  1.00  0.00     0.135 A 
ATOM     22  N   UNL A   1      33.346  37.589  29.180  1.00  0.00    -0.184 NA
ATOM     23  H   UNL A   1      33.536  38.077  31.170  1.00  0.00     0.190 HD
ENDBRANCH  17  18
ENDBRANCH  15  17
ENDBRANCH   6  13
ENDBRANCH   3   5
ENDBRANCH   2   3
ENDBRANCH   1   2
BRANCH   1  24
ATOM     24  C   UNL A   1      35.011  31.477  28.188  1.00  0.00     0.275 C 
BRANCH  24  25
ATOM     25  O   UNL A   1      36.071  30.581  27.850  1.00  0.00    -0.458 OA
BRANCH  25  26
ATOM     26  C   UNL A   1      36.546  29.895  28.913  1.00  0.00     0.338 C 
ATOM     27  O   UNL A   1      36.103  29.920  30.050  1.00  0.00    -0.246 OA
BRANCH  26  28
ATOM     28  C   UNL A   1      37.781  29.190  28.563  1.00  0.00     0.060 A 
ATOM     29  C   UNL A   1      38.320  28.371  29.556  1.00  0.00     0.016 A 
ATOM     30  C   UNL A   1      38.494  29.493  27.396  1.00  0.00     0.016 A 
ATOM     31  C   UNL A   1      39.618  27.936  29.442  1.00  0.00     0.010 A 
ATOM     32  C   UNL A   1      39.806  29.076  27.289  1.00  0.00     0.010 A 
ATOM     33  C   UNL A   1      40.368  28.356  28.345  1.00  0.00    -0.014 A 
BRANCH  33  34
ATOM     34  C   UNL A   1      41.769  27.984  28.337  1.00  0.00     0.031 A 
ATOM     35  C   UNL A   1      42.031  26.670  27.699  1.00  0.00     0.074 A 
ATOM     36  C   UNL A   1      42.707  28.807  28.845  1.00  0.00     0.049 A 
ATOM     37  N   UNL A   1      42.546  25.615  28.240  1.00  0.00    -0.248 NA
ATOM     38  C   UNL A   1      41.511  26.451  26.337  1.00  0.00     0.031 C 
ATOM     39  C   UNL A   1      42.544  30.191  29.301  1.00  0.00     0.029 A 
ATOM     40  N   UNL A   1      44.046  28.602  28.976  1.00  0.00    -0.354 N 
ATOM     41  C   UNL A   1      42.618  24.668  27.223  1.00  0.00     0.074 A 
ATOM     42  C   UNL A   1      41.828  25.172  26.132  1.00  0.00     0.031 C 
ATOM     43  C   UNL A   1      43.760  30.768  29.424  1.00  0.00     0.029 A 
ATOM     44  C   UNL A   1      44.781  29.765  29.184  1.00  0.00     0.049 A 
ATOM     45  H   UNL A   1      44.458  27.709  28.929  1.00  0.00     0.167 HD
ATOM     46  C   UNL A   1      43.542  23.671  27.261  1.00  0.00     0.037 A 
ATOM     47  C   UNL A   1      46.128  29.884  29.063  1.00  0.00     0.037 A 
ATOM     48  C   UNL A   1      43.980  23.410  28.606  1.00  0.00     0.049 A 
ATOM     49  C   UNL A   1      46.704  28.517  29.162  1.00  0.00     0.074 A 
ATOM     50  C   UNL A   1      43.344  23.012  29.767  1.00  0.00     0.029 A 
ATOM     51  N   UNL A   1      45.194  23.911  29.003  1.00  0.00    -0.354 N 
ATOM     52  N   UNL A   1      46.699  27.812  30.259  1.00  0.00    -0.248 NA
ATOM     53  C   UNL A   1      46.835  27.755  27.928  1.00  0.00     0.031 C 
ATOM     54  C   UNL A   1      43.983  23.747  30.808  1.00  0.00     0.029 A 
ATOM     55  C   UNL A   1      45.014  24.490  30.233  1.00  0.00     0.049 A 
ATOM     56  H   UNL A   1      46.037  23.863  28.498  1.00  0.00     0.167 HD
ATOM     57  C   UNL A   1      46.383  26.525  29.847  1.00  0.00     0.074 A 
ATOM     58  C   UNL A   1      46.541  26.538  28.394  1.00  0.00     0.031 C 
ATOM     59  C   UNL A   1      45.742  25.653  30.680  1.00  0.00     0.037 A 
BRANCH  46  60
ATOM     60  C   UNL A   1      44.322  23.235  26.047  1.00  0.00     0.057 A 
ATOM     61  C   UNL A   1      44.342  21.877  25.687  1.00  0.00     0.134 A 
ATOM     62  C   UNL A   1      45.288  24.040  25.404  1.00  0.00     0.134 A 
ATOM     63  F   UNL A   1      43.494  21.004  26.251  1.00  0.00    -0.206 F 
ATOM     64  C   UNL A   1      45.292  21.351  24.804  1.00  0.00     0.040 A 
ATOM     65  C   UNL A   1      46.208  23.534  24.483  1.00  0.00     0.040 A 
ATOM     66  F   UNL A   1      45.467  25.331  25.706  1.00  0.00    -0.206 F 
ATOM     67  C   UNL A   1      46.233  22.178  24.202  1.00  0.00     0.006 A 
ENDBRANCH  46  60
BRANCH  47  68
ATOM     68  C   UNL A   1      46.891  31.015  28.481  1.00  0.00     0.057 A 
ATOM     69  C   UNL A   1      46.713  31.394  27.143  1.00  0.00     0.134 A 
ATOM     70  C   UNL A   1      47.589  31.929  29.290  1.00  0.00     0.134 A 
ATOM     71  F   UNL A   1      46.022  30.611  26.300  1.00  0.00    -0.206 F 
ATOM     72  C   UNL A   1      47.177  32.620  26.645  1.00  0.00     0.040 A 
ATOM     73  C   UNL A   1      48.065  33.152  28.805  1.00  0.00     0.040 A 
ATOM     74  F   UNL A   1      47.757  31.712  30.602  1.00  0.00    -0.206 F 
ATOM     75  C   UNL A   1      47.845  33.510  27.481  1.00  0.00     0.006 A 
ENDBRANCH  47  68
BRANCH  59  76
ATOM     76  C   UNL A   1      45.583  26.050  32.122  1.00  0.00     0.057 A 
ATOM     77  C   UNL A   1      44.458  26.710  32.641  1.00  0.00     0.134 A 
ATOM     78  C   UNL A   1      46.546  25.626  33.045  1.00  0.00     0.134 A 
ATOM     79  F   UNL A   1      43.435  27.061  31.851  1.00  0.00    -0.206 F 
ATOM     80  C   UNL A   1      44.325  26.982  34.006  1.00  0.00     0.040 A 
ATOM     81  C   UNL A   1      46.409  25.862  34.414  1.00  0.00     0.040 A 
ATOM     82  F   UNL A   1      47.621  24.938  32.631  1.00  0.00    -0.206 F 
ATOM     83  C   UNL A   1      45.302  26.553  34.899  1.00  0.00     0.006 A 
ENDBRANCH  59  76
ENDBRANCH  33  34
ENDBRANCH  26  28
ENDBRANCH  25  26
ENDBRANCH  24  25
ENDBRANCH   1  24
TORSDOF 14
ENDMDL
MODEL 2
REMARK VINA RESULT:     -10.8      5.704     10.101
REMARK SMILES O=C(Cc1ccn[nH]1)Nc1sc2c(c1C(=O)OCCOC(=O)c1ccc(-c3c4nc(c(-c5c(F)cccc5F)c5ccc([nH]5)c(-c5c(F)cccc5F)c5nc(c(-c6c(F)cccc6F)c6ccc3[nH]6)C=C5)C=C4)cc1)CCC2
REMARK SMILES IDX 18 1 17 2 15 3 16 4 14 5 10 6 11 7 12 8 13 9 79 10 77 11
REMARK SMILES IDX 78 12 9 13 1 14 2 15 3 17 4 18 5 19 8 20 6 21 7 22 19 24
REMARK SMILES IDX 20 25 21 26 22 27 23 28 24 29 76 30 25 31 75 32 26 33 27 34
REMARK SMILES IDX 28 35 69 36 29 37 74 38 68 39 70 40 30 41 73 42 67 43 66 44
REMARK SMILES IDX 31 46 57 47 40 48 56 49 41 50 44 51 55 52 71 53 42 54 43 55
REMARK SMILES IDX 54 57 72 58 45 59 32 60 33 61 38 62 34 63 35 64 37 65 39 66
REMARK SMILES IDX 36 67 58 68 59 69 64 70 60 71 61 72 63 73 65 74 62 75 46 76
REMARK SMILES IDX 47 77 52 78 48 79 49 80 51 81 53 82 50 83
REMARK H PARENT 9 16 8 23 70 45 44 56
REMARK Flexibility Score: inf
ROOT
ATOM      1  C   UNL A   1      36.747  21.390  25.277  1.00  0.00     0.275 C 
ENDROOT
BRANCH   1   2
ATOM      2  O   UNL A   1      35.909  22.276  26.044  1.00  0.00    -0.458 OA
BRANCH   2   3
ATOM      3  C   UNL A   1      35.329  23.325  25.380  1.00  0.00     0.341 C 
ATOM      4  O   UNL A   1      35.904  23.974  24.504  1.00  0.00    -0.246 OA
BRANCH   3   5
ATOM      5  C   UNL A   1      33.987  23.644  25.870  1.00  0.00     0.098 A 
ATOM      6  C   UNL A   1      33.035  22.698  26.245  1.00  0.00     0.110 A 
ATOM      7  S   UNL A   1      31.472  23.339  26.521  1.00  0.00    -0.122 S 
ATOM      8  C   UNL A   1      32.072  24.887  26.342  1.00  0.00     0.011 A 
ATOM      9  C   UNL A   1      33.388  24.937  25.971  1.00  0.00    -0.017 A 
ATOM     10  C   UNL A   1      31.412  26.207  26.445  1.00  0.00     0.047 C 
ATOM     11  C   UNL A   1      33.812  26.340  25.724  1.00  0.00     0.038 C 
ATOM     12  C   UNL A   1      32.637  27.166  26.335  1.00  0.00     0.010 C 
BRANCH   6  13
ATOM     13  N   UNL A   1      33.118  21.331  26.400  1.00  0.00    -0.317 N 
ATOM     14  O   UNL A   1      32.952  20.928  24.128  1.00  0.00    -0.274 OA
ATOM     15  C   UNL A   1      32.918  20.528  25.290  1.00  0.00     0.230 C 
ATOM     16  H   UNL A   1      33.315  20.934  27.280  1.00  0.00     0.170 HD
BRANCH  15  17
ATOM     17  C   UNL A   1      32.714  19.059  25.616  1.00  0.00     0.155 C 
BRANCH  17  18
ATOM     18  C   UNL A   1      33.187  18.196  24.500  1.00  0.00     0.044 A 
ATOM     19  C   UNL A   1      34.306  17.403  24.358  1.00  0.00     0.045 A 
ATOM     20  N   UNL A   1      32.484  18.057  23.329  1.00  0.00    -0.282 N 
ATOM     21  C   UNL A   1      34.181  16.829  23.082  1.00  0.00     0.135 A 
ATOM     22  N   UNL A   1      33.061  17.203  22.465  1.00  0.00    -0.184 NA
ATOM     23  H   UNL A   1      31.645  18.536  23.140  1.00  0.00     0.190 HD
ENDBRANCH  17  18
ENDBRANCH  15  17
ENDBRANCH   6  13
ENDBRANCH   3   5
ENDBRANCH   2   3
ENDBRANCH   1   2
BRANCH   1  24
ATOM     24  C   UNL A   1      38.207  21.395  25.722  1.00  0.00     0.275 C 
BRANCH  24  25
ATOM     25  O   UNL A   1      38.646  22.694  26.122  1.00  0.00    -0.458 OA
BRANCH  25  26
ATOM     26  C   UNL A   1      39.752  22.665  26.899  1.00  0.00     0.338 C 
ATOM     27  O   UNL A   1      40.240  21.681  27.430  1.00  0.00    -0.246 OA
BRANCH  26  28
ATOM     28  C   UNL A   1      40.243  24.022  27.149  1.00  0.00     0.060 A 
ATOM     29  C   UNL A   1      41.197  24.151  28.159  1.00  0.00     0.016 A 
ATOM     30  C   UNL A   1      39.631  25.142  26.571  1.00  0.00     0.016 A 
ATOM     31  C   UNL A   1      41.470  25.394  28.676  1.00  0.00     0.010 A 
ATOM     32  C   UNL A   1      39.887  26.390  27.104  1.00  0.00     0.010 A 
ATOM     33  C   UNL A   1      40.755  26.489  28.193  1.00  0.00    -0.014 A 
BRANCH  33  34
ATOM     34  C   UNL A   1      40.979  27.755  28.862  1.00  0.00     0.031 A 
ATOM     35  C   UNL A   1      42.222  28.443  28.431  1.00  0.00     0.074 A 
ATOM     36  C   UNL A   1      40.093  28.231  29.758  1.00  0.00     0.049 A 
ATOM     37  N   UNL A   1      43.246  28.756  29.154  1.00  0.00    -0.248 NA
ATOM     38  C   UNL A   1      42.417  28.669  26.987  1.00  0.00     0.031 C 
ATOM     39  C   UNL A   1      38.761  27.708  30.077  1.00  0.00     0.029 A 
ATOM     40  N   UNL A   1      40.165  29.357  30.519  1.00  0.00    -0.354 N 
ATOM     41  C   UNL A   1      44.122  29.418  28.299  1.00  0.00     0.074 A 
ATOM     42  C   UNL A   1      43.642  29.193  26.962  1.00  0.00     0.031 C 
ATOM     43  C   UNL A   1      38.069  28.639  30.771  1.00  0.00     0.029 A 
ATOM     44  C   UNL A   1      38.946  29.760  31.054  1.00  0.00     0.049 A 
ATOM     45  H   UNL A   1      41.006  29.844  30.677  1.00  0.00     0.167 HD
ATOM     46  C   UNL A   1      45.018  30.320  28.779  1.00  0.00     0.037 A 
ATOM     47  C   UNL A   1      38.681  30.976  31.598  1.00  0.00     0.037 A 
ATOM     48  C   UNL A   1      45.307  30.088  30.169  1.00  0.00     0.049 A 
ATOM     49  C   UNL A   1      39.985  31.590  31.963  1.00  0.00     0.074 A 
ATOM     50  C   UNL A   1      45.833  29.026  30.880  1.00  0.00     0.029 A 
ATOM     51  N   UNL A   1      44.706  30.895  31.101  1.00  0.00    -0.354 N 
ATOM     52  N   UNL A   1      40.747  31.144  32.923  1.00  0.00    -0.248 NA
ATOM     53  C   UNL A   1      40.659  32.385  30.946  1.00  0.00     0.031 C 
ATOM     54  C   UNL A   1      45.095  28.996  32.099  1.00  0.00     0.029 A 
ATOM     55  C   UNL A   1      44.218  30.081  32.092  1.00  0.00     0.049 A 
ATOM     56  H   UNL A   1      44.638  31.876  31.065  1.00  0.00     0.167 HD
ATOM     57  C   UNL A   1      42.034  31.218  32.411  1.00  0.00     0.074 A 
ATOM     58  C   UNL A   1      41.924  32.049  31.214  1.00  0.00     0.031 C 
ATOM     59  C   UNL A   1      43.013  30.363  32.832  1.00  0.00     0.037 A 
BRANCH  46  60
ATOM     60  C   UNL A   1      45.303  31.632  28.092  1.00  0.00     0.057 A 
ATOM     61  C   UNL A   1      46.607  31.916  27.655  1.00  0.00     0.134 A 
ATOM     62  C   UNL A   1      44.424  32.737  28.115  1.00  0.00     0.134 A 
ATOM     63  F   UNL A   1      47.544  30.957  27.617  1.00  0.00    -0.206 F 
ATOM     64  C   UNL A   1      47.021  33.213  27.327  1.00  0.00     0.040 A 
ATOM     65  C   UNL A   1      44.813  34.025  27.743  1.00  0.00     0.040 A 
ATOM     66  F   UNL A   1      43.178  32.657  28.597  1.00  0.00    -0.206 F 
ATOM     67  C   UNL A   1      46.125  34.274  27.376  1.00  0.00     0.006 A 
ENDBRANCH  46  60
BRANCH  47  68
ATOM     68  C   UNL A   1      37.446  31.785  31.454  1.00  0.00     0.057 A 
ATOM     69  C   UNL A   1      37.009  32.219  30.194  1.00  0.00     0.134 A 
ATOM     70  C   UNL A   1      36.516  31.904  32.501  1.00  0.00     0.134 A 
ATOM     71  F   UNL A   1      37.807  32.108  29.121  1.00  0.00    -0.206 F 
ATOM     72  C   UNL A   1      35.716  32.716  29.983  1.00  0.00     0.040 A 
ATOM     73  C   UNL A   1      35.225  32.406  32.306  1.00  0.00     0.040 A 
ATOM     74  F   UNL A   1      36.791  31.454  33.733  1.00  0.00    -0.206 F 
ATOM     75  C   UNL A   1      34.814  32.799  31.039  1.00  0.00     0.006 A 
ENDBRANCH  47  68
BRANCH  59  76
ATOM     76  C   UNL A   1      42.716  29.488  34.019  1.00  0.00     0.057 A 
ATOM     77  C   UNL A   1      42.064  28.247  33.942  1.00  0.00     0.134 A 
ATOM     78  C   UNL A   1      43.230  29.853  35.268  1.00  0.00     0.134 A 
ATOM     79  F   UNL A   1      41.630  27.764  32.770  1.00  0.00    -0.206 F 
ATOM     80  C   UNL A   1      41.886  27.434  35.066  1.00  0.00     0.040 A 
ATOM     81  C   UNL A   1      43.089  29.035  36.391  1.00  0.00     0.040 A 
ATOM     82  F   UNL A   1      43.916  30.998  35.408  1.00  0.00    -0.206 F 
ATOM     83  C   UNL A   1      42.404  27.827  36.297  1.00  0.00     0.006 A 
ENDBRANCH  59  76
ENDBRANCH  33  34
ENDBRANCH  26  28
ENDBRANCH  25  26
ENDBRANCH  24  25
ENDBRANCH   1  24
TORSDOF 14
ENDMDL
MODEL 3
REMARK VINA RESULT:     -10.8      4.884      8.505
REMARK SMILES O=C(Cc1ccn[nH]1)Nc1sc2c(c1C(=O)OCCOC(=O)c1ccc(-c3c4nc(c(-c5c(F)cccc5F)c5ccc([nH]5)c(-c5c(F)cccc5F)c5nc(c(-c6c(F)cccc6F)c6ccc3[nH]6)C=C5)C=C4)cc1)CCC2
REMARK SMILES IDX 18 1 17 2 15 3 16 4 14 5 10 6 11 7 12 8 13 9 79 10 77 11
REMARK SMILES IDX 78 12 9 13 1 14 2 15 3 17 4 18 5 19 8 20 6 21 7 22 19 24
REMARK SMILES IDX 20 25 21 26 22 27 23 28 24 29 76 30 25 31 75 32 26 33 27 34
REMARK SMILES IDX 28 35 69 36 29 37 74 38 68 39 70 40 30 41 73 42 67 43 66 44
REMARK SMILES IDX 31 46 57 47 40 48 56 49 41 50 44 51 55 52 71 53 42 54 43 55
REMARK SMILES IDX 54 57 72 58 45 59 32 60 33 61 38 62 34 63 35 64 37 65 39 66
REMARK SMILES IDX 36 67 58 68 59 69 64 70 60 71 61 72 63 73 65 74 62 75 46 76
REMARK SMILES IDX 47 77 52 78 48 79 49 80 51 81 53 82 50 83
REMARK H PARENT 9 16 8 23 70 45 44 56
REMARK Flexibility Score: inf
ROOT
ATOM      1  C   UNL A   1      32.022  29.983  26.204  1.00  0.00     0.275 C 
ENDROOT
BRANCH   1   2
ATOM      2  O   UNL A   1      32.506  28.666  25.874  1.00  0.00    -0.458 OA
BRANCH   2   3
ATOM      3  C   UNL A   1      31.679  27.607  26.143  1.00  0.00     0.341 C 
ATOM      4  O   UNL A   1      31.017  27.510  27.179  1.00  0.00    -0.246 OA
BRANCH   3   5
ATOM      5  C   UNL A   1      31.721  26.568  25.113  1.00  0.00     0.098 A 
ATOM      6  C   UNL A   1      30.648  26.221  24.294  1.00  0.00     0.110 A 
ATOM      7  S   UNL A   1      30.895  24.801  23.369  1.00  0.00    -0.122 S 
ATOM      8  C   UNL A   1      32.481  24.738  23.886  1.00  0.00     0.011 A 
ATOM      9  C   UNL A   1      32.804  25.685  24.819  1.00  0.00    -0.017 A 
ATOM     10  C   UNL A   1      33.575  23.794  23.564  1.00  0.00     0.047 C 
ATOM     11  C   UNL A   1      34.195  25.490  25.307  1.00  0.00     0.038 C 
ATOM     12  C   UNL A   1      34.783  24.480  24.272  1.00  0.00     0.010 C 
BRANCH   6  13
ATOM     13  N   UNL A   1      29.407  26.797  24.121  1.00  0.00    -0.317 N 
ATOM     14  O   UNL A   1      30.083  28.016  22.274  1.00  0.00    -0.274 OA
ATOM     15  C   UNL A   1      29.271  27.795  23.170  1.00  0.00     0.230 C 
ATOM     16  H   UNL A   1      28.637  26.507  24.661  1.00  0.00     0.170 HD
BRANCH  15  17
ATOM     17  C   UNL A   1      27.973  28.575  23.273  1.00  0.00     0.155 C 
BRANCH  17  18
ATOM     18  C   UNL A   1      28.099  29.907  22.622  1.00  0.00     0.044 A 
ATOM     19  C   UNL A   1      28.430  31.149  23.120  1.00  0.00     0.045 A 
ATOM     20  N   UNL A   1      27.882  30.093  21.279  1.00  0.00    -0.282 N 
ATOM     21  C   UNL A   1      28.392  32.006  22.006  1.00  0.00     0.135 A 
ATOM     22  N   UNL A   1      28.087  31.361  20.881  1.00  0.00    -0.184 NA
ATOM     23  H   UNL A   1      27.603  29.371  20.670  1.00  0.00     0.190 HD
ENDBRANCH  17  18
ENDBRANCH  15  17
ENDBRANCH   6  13
ENDBRANCH   3   5
ENDBRANCH   2   3
ENDBRANCH   1   2
BRANCH   1  24
ATOM     24  C   UNL A   1      32.896  30.715  27.219  1.00  0.00     0.275 C 
BRANCH  24  25
ATOM     25  O   UNL A   1      34.289  30.541  26.960  1.00  0.00    -0.458 OA
BRANCH  25  26
ATOM     26  C   UNL A   1      35.066  31.435  27.611  1.00  0.00     0.338 C 
ATOM     27  O   UNL A   1      34.976  32.651  27.555  1.00  0.00    -0.246 OA
BRANCH  26  28
ATOM     28  C   UNL A   1      36.155  30.757  28.316  1.00  0.00     0.060 A 
ATOM     29  C   UNL A   1      37.186  31.573  28.782  1.00  0.00     0.016 A 
ATOM     30  C   UNL A   1      36.267  29.360  28.323  1.00  0.00     0.016 A 
ATOM     31  C   UNL A   1      38.380  31.008  29.158  1.00  0.00     0.010 A 
ATOM     32  C   UNL A   1      37.474  28.790  28.679  1.00  0.00     0.010 A 
ATOM     33  C   UNL A   1      38.534  29.628  29.030  1.00  0.00    -0.014 A 
BRANCH  33  34
ATOM     34  C   UNL A   1      39.852  29.094  29.309  1.00  0.00     0.031 A 
ATOM     35  C   UNL A   1      40.197  29.088  30.753  1.00  0.00     0.074 A 
ATOM     36  C   UNL A   1      40.636  28.631  28.316  1.00  0.00     0.049 A 
ATOM     37  N   UNL A   1      41.167  29.710  31.339  1.00  0.00    -0.248 NA
ATOM     38  C   UNL A   1      39.255  28.439  31.682  1.00  0.00     0.031 C 
ATOM     39  C   UNL A   1      40.282  28.422  26.909  1.00  0.00     0.029 A 
ATOM     40  N   UNL A   1      41.909  28.156  28.381  1.00  0.00    -0.354 N 
ATOM     41  C   UNL A   1      41.087  29.351  32.680  1.00  0.00     0.074 A 
ATOM     42  C   UNL A   1      39.813  28.709  32.862  1.00  0.00     0.031 C 
ATOM     43  C   UNL A   1      41.222  27.647  26.321  1.00  0.00     0.029 A 
ATOM     44  C   UNL A   1      42.297  27.416  27.268  1.00  0.00     0.049 A 
ATOM     45  H   UNL A   1      42.504  28.320  29.149  1.00  0.00     0.167 HD
ATOM     46  C   UNL A   1      42.190  29.372  33.476  1.00  0.00     0.037 A 
ATOM     47  C   UNL A   1      43.382  26.604  27.195  1.00  0.00     0.037 A 
ATOM     48  C   UNL A   1      43.192  30.268  32.963  1.00  0.00     0.049 A 
ATOM     49  C   UNL A   1      44.314  27.010  28.279  1.00  0.00     0.074 A 
ATOM     50  C   UNL A   1      43.227  31.623  32.694  1.00  0.00     0.029 A 
ATOM     51  N   UNL A   1      44.263  29.731  32.294  1.00  0.00    -0.354 N 
ATOM     52  N   UNL A   1      44.959  28.143  28.287  1.00  0.00    -0.248 NA
ATOM     53  C   UNL A   1      44.145  26.377  29.580  1.00  0.00     0.031 C 
ATOM     54  C   UNL A   1      43.994  31.742  31.499  1.00  0.00     0.029 A 
ATOM     55  C   UNL A   1      44.441  30.468  31.151  1.00  0.00     0.049 A 
ATOM     56  H   UNL A   1      44.802  28.959  32.581  1.00  0.00     0.167 HD
ATOM     57  C   UNL A   1      44.887  28.579  29.602  1.00  0.00     0.074 A 
ATOM     58  C   UNL A   1      44.428  27.419  30.365  1.00  0.00     0.031 C 
ATOM     59  C   UNL A   1      44.919  29.909  29.909  1.00  0.00     0.037 A 
BRANCH  46  60
ATOM     60  C   UNL A   1      42.498  28.284  34.472  1.00  0.00     0.057 A 
ATOM     61  C   UNL A   1      42.825  26.997  34.015  1.00  0.00     0.134 A 
ATOM     62  C   UNL A   1      42.194  28.372  35.848  1.00  0.00     0.134 A 
ATOM     63  F   UNL A   1      43.104  26.777  32.721  1.00  0.00    -0.206 F 
ATOM     64  C   UNL A   1      42.790  25.874  34.850  1.00  0.00     0.040 A 
ATOM     65  C   UNL A   1      42.205  27.266  36.701  1.00  0.00     0.040 A 
ATOM     66  F   UNL A   1      41.769  29.504  36.422  1.00  0.00    -0.206 F 
ATOM     67  C   UNL A   1      42.473  26.005  36.197  1.00  0.00     0.006 A 
ENDBRANCH  46  60
BRANCH  47  68
ATOM     68  C   UNL A   1      43.481  25.281  26.531  1.00  0.00     0.057 A 
ATOM     69  C   UNL A   1      42.562  24.260  26.812  1.00  0.00     0.134 A 
ATOM     70  C   UNL A   1      44.294  25.081  25.401  1.00  0.00     0.134 A 
ATOM     71  F   UNL A   1      41.712  24.375  27.843  1.00  0.00    -0.206 F 
ATOM     72  C   UNL A   1      42.438  23.122  26.002  1.00  0.00     0.040 A 
ATOM     73  C   UNL A   1      44.187  23.947  24.589  1.00  0.00     0.040 A 
ATOM     74  F   UNL A   1      45.158  26.019  24.989  1.00  0.00    -0.206 F 
ATOM     75  C   UNL A   1      43.244  22.969  24.878  1.00  0.00     0.006 A 
ENDBRANCH  47  68
BRANCH  59  76
ATOM     76  C   UNL A   1      45.255  30.875  28.806  1.00  0.00     0.057 A 
ATOM     77  C   UNL A   1      44.319  31.388  27.894  1.00  0.00     0.134 A 
ATOM     78  C   UNL A   1      46.546  31.410  28.751  1.00  0.00     0.134 A 
ATOM     79  F   UNL A   1      43.034  31.015  27.936  1.00  0.00    -0.206 F 
ATOM     80  C   UNL A   1      44.669  32.348  26.938  1.00  0.00     0.040 A 
ATOM     81  C   UNL A   1      46.899  32.393  27.825  1.00  0.00     0.040 A 
ATOM     82  F   UNL A   1      47.480  31.012  29.630  1.00  0.00    -0.206 F 
ATOM     83  C   UNL A   1      45.963  32.857  26.905  1.00  0.00     0.006 A 
ENDBRANCH  59  76
ENDBRANCH  33  34
ENDBRANCH  26  28
ENDBRANCH  25  26
ENDBRANCH  24  25
ENDBRANCH   1  24
TORSDOF 14
ENDMDL
