MODEL 1
REMARK VINA RESULT:     -12.0      0.000      0.000
REMARK SMILES COc1ccccc1NC(=O)N[C@@](C)(C(=O)OCCOC(=O)c1ccc(-c2c3nc(c(-c4c(F)cccc4F)c4ccc([nH]4)c(-c4c(F)cccc4F)c4nc(c(-c5c(F)cccc5F)c5ccc2[nH]5)C=C4)C=C3)cc1)C(F)(F)F
REMARK SMILES IDX 18 1 17 2 15 3 16 4 13 5 14 6 12 7 9 8 10 9 11 11 8 13 3 14
REMARK SMILES IDX 4 15 5 16 7 17 6 18 2 19 1 20 77 21 78 22 79 23 80 24 19 25
REMARK SMILES IDX 20 26 21 27 22 28 23 29 24 30 76 31 25 32 75 33 26 34 27 35
REMARK SMILES IDX 28 36 69 37 29 38 74 39 68 40 70 41 30 42 73 43 67 44 66 45
REMARK SMILES IDX 31 47 57 48 40 49 56 50 41 51 44 52 55 53 71 54 42 55 43 56
REMARK SMILES IDX 54 58 72 59 45 60 32 61 33 62 38 63 34 64 35 65 37 66 39 67
REMARK SMILES IDX 36 68 58 69 59 70 64 71 60 72 61 73 63 74 65 75 62 76 46 77
REMARK SMILES IDX 47 78 52 79 48 80 49 81 51 82 53 83 50 84
REMARK H PARENT 9 10 12 12 70 46 44 57
REMARK Flexibility Score: inf
ROOT
ATOM      1  C   UNL A   1      34.606  20.535  24.882  1.00  0.00     0.274 C 
ENDROOT
BRANCH   1   2
ATOM      2  O   UNL A   1      33.831  21.567  24.231  1.00  0.00    -0.460 OA
BRANCH   2   3
ATOM      3  C   UNL A   1      32.525  21.586  24.638  1.00  0.00     0.341 C 
ATOM      4  O   UNL A   1      31.925  20.585  25.018  1.00  0.00    -0.249 OA
BRANCH   3   5
ATOM      5  C   UNL A   1      31.974  23.018  24.770  1.00  0.00     0.232 C 
ATOM      6  C   UNL A   1      33.164  23.901  25.175  1.00  0.00     0.058 C 
BRANCH   5   7
ATOM      7  N   UNL A   1      30.975  23.042  25.885  1.00  0.00    -0.314 N 
ATOM      8  N   UNL A   1      29.681  25.045  26.136  1.00  0.00    -0.305 N 
ATOM      9  C   UNL A   1      30.112  23.842  26.500  1.00  0.00     0.320 C 
ATOM     10  H   UNL A   1      28.844  25.261  26.609  1.00  0.00     0.172 HD
ATOM     11  O   UNL A   1      29.548  23.328  27.477  1.00  0.00    -0.248 OA
ATOM     12  H   UNL A   1      30.947  22.154  26.308  1.00  0.00     0.166 HD
BRANCH   8  13
ATOM     13  C   UNL A   1      30.038  26.102  25.292  1.00  0.00     0.085 A 
ATOM     14  C   UNL A   1      31.030  26.983  25.763  1.00  0.00     0.142 A 
ATOM     15  C   UNL A   1      31.346  28.158  25.082  1.00  0.00     0.048 A 
ATOM     16  C   UNL A   1      30.743  28.411  23.855  1.00  0.00     0.004 A 
ATOM     17  C   UNL A   1      29.536  26.306  24.018  1.00  0.00     0.030 A 
ATOM     18  C   UNL A   1      29.873  27.467  23.306  1.00  0.00     0.002 A 
BRANCH  14  19
ATOM     19  O   UNL A   1      31.660  26.710  26.954  1.00  0.00    -0.495 OA
ATOM     20  C   UNL A   1      31.976  27.935  27.625  1.00  0.00     0.278 C 
ENDBRANCH  14  19
ENDBRANCH   8  13
ENDBRANCH   5   7
BRANCH   5  21
ATOM     21  C   UNL A   1      31.504  23.274  23.326  1.00  0.00     0.422 C 
ATOM     22  F   UNL A   1      32.014  24.417  22.830  1.00  0.00    -0.168 F 
ATOM     23  F   UNL A   1      31.851  22.266  22.493  1.00  0.00    -0.168 F 
ATOM     24  F   UNL A   1      30.157  23.387  23.194  1.00  0.00    -0.168 F 
ENDBRANCH   5  21
ENDBRANCH   3   5
ENDBRANCH   2   3
ENDBRANCH   1   2
BRANCH   1  25
ATOM     25  C   UNL A   1      35.678  21.162  25.769  1.00  0.00     0.275 C 
BRANCH  25  26
ATOM     26  O   UNL A   1      36.801  21.540  24.951  1.00  0.00    -0.458 OA
BRANCH  26  27
ATOM     27  C   UNL A   1      38.017  21.169  25.423  1.00  0.00     0.338 C 
ATOM     28  O   UNL A   1      38.540  20.075  25.289  1.00  0.00    -0.246 OA
BRANCH  27  29
ATOM     29  C   UNL A   1      38.680  22.296  26.126  1.00  0.00     0.060 A 
ATOM     30  C   UNL A   1      38.176  23.593  26.060  1.00  0.00     0.016 A 
ATOM     31  C   UNL A   1      39.897  22.077  26.770  1.00  0.00     0.016 A 
ATOM     32  C   UNL A   1      38.945  24.677  26.497  1.00  0.00     0.010 A 
ATOM     33  C   UNL A   1      40.605  23.153  27.323  1.00  0.00     0.010 A 
ATOM     34  C   UNL A   1      40.171  24.481  27.147  1.00  0.00    -0.014 A 
BRANCH  34  35
ATOM     35  C   UNL A   1      41.040  25.623  27.582  1.00  0.00     0.031 A 
ATOM     36  C   UNL A   1      40.484  26.676  28.515  1.00  0.00     0.074 A 
ATOM     37  C   UNL A   1      42.318  25.765  27.174  1.00  0.00     0.049 A 
ATOM     38  N   UNL A   1      40.902  27.898  28.735  1.00  0.00    -0.248 NA
ATOM     39  C   UNL A   1      39.279  26.312  29.277  1.00  0.00     0.031 C 
ATOM     40  C   UNL A   1      43.065  24.826  26.339  1.00  0.00     0.029 A 
ATOM     41  N   UNL A   1      43.224  26.774  27.420  1.00  0.00    -0.354 N 
ATOM     42  C   UNL A   1      39.949  28.483  29.562  1.00  0.00     0.074 A 
ATOM     43  C   UNL A   1      38.949  27.470  29.831  1.00  0.00     0.031 C 
ATOM     44  C   UNL A   1      44.326  25.264  26.198  1.00  0.00     0.029 A 
ATOM     45  C   UNL A   1      44.447  26.576  26.826  1.00  0.00     0.049 A 
ATOM     46  H   UNL A   1      43.015  27.562  27.971  1.00  0.00     0.167 HD
ATOM     47  C   UNL A   1      39.904  29.751  30.039  1.00  0.00     0.037 A 
ATOM     48  C   UNL A   1      45.528  27.375  26.736  1.00  0.00     0.037 A 
ATOM     49  C   UNL A   1      40.955  30.722  29.878  1.00  0.00     0.049 A 
ATOM     50  C   UNL A   1      45.475  28.772  27.285  1.00  0.00     0.074 A 
ATOM     51  C   UNL A   1      41.005  32.028  30.340  1.00  0.00     0.029 A 
ATOM     52  N   UNL A   1      42.162  30.479  29.243  1.00  0.00    -0.354 N 
ATOM     53  N   UNL A   1      44.504  29.370  27.929  1.00  0.00    -0.248 NA
ATOM     54  C   UNL A   1      46.654  29.620  27.050  1.00  0.00     0.031 C 
ATOM     55  C   UNL A   1      42.239  32.577  29.974  1.00  0.00     0.029 A 
ATOM     56  C   UNL A   1      42.967  31.604  29.310  1.00  0.00     0.049 A 
ATOM     57  H   UNL A   1      42.410  29.632  28.807  1.00  0.00     0.167 HD
ATOM     58  C   UNL A   1      44.951  30.663  28.170  1.00  0.00     0.074 A 
ATOM     59  C   UNL A   1      46.290  30.755  27.630  1.00  0.00     0.031 C 
ATOM     60  C   UNL A   1      44.299  31.688  28.772  1.00  0.00     0.037 A 
BRANCH  47  61
ATOM     61  C   UNL A   1      38.655  30.181  30.751  1.00  0.00     0.057 A 
ATOM     62  C   UNL A   1      38.482  30.028  32.130  1.00  0.00     0.134 A 
ATOM     63  C   UNL A   1      37.618  30.796  30.033  1.00  0.00     0.134 A 
ATOM     64  F   UNL A   1      39.430  29.435  32.872  1.00  0.00    -0.206 F 
ATOM     65  C   UNL A   1      37.313  30.450  32.769  1.00  0.00     0.040 A 
ATOM     66  C   UNL A   1      36.457  31.245  30.663  1.00  0.00     0.040 A 
ATOM     67  F   UNL A   1      37.724  30.983  28.708  1.00  0.00    -0.206 F 
ATOM     68  C   UNL A   1      36.300  31.066  32.035  1.00  0.00     0.006 A 
ENDBRANCH  47  61
BRANCH  48  69
ATOM     69  C   UNL A   1      46.748  26.890  26.042  1.00  0.00     0.057 A 
ATOM     70  C   UNL A   1      46.953  27.158  24.685  1.00  0.00     0.134 A 
ATOM     71  C   UNL A   1      47.735  26.158  26.714  1.00  0.00     0.134 A 
ATOM     72  F   UNL A   1      46.028  27.828  23.982  1.00  0.00    -0.206 F 
ATOM     73  C   UNL A   1      48.098  26.719  24.019  1.00  0.00     0.040 A 
ATOM     74  C   UNL A   1      48.897  25.735  26.068  1.00  0.00     0.040 A 
ATOM     75  F   UNL A   1      47.593  25.866  28.015  1.00  0.00    -0.206 F 
ATOM     76  C   UNL A   1      49.079  26.013  24.715  1.00  0.00     0.006 A 
ENDBRANCH  48  69
BRANCH  60  77
ATOM     77  C   UNL A   1      45.036  32.986  28.897  1.00  0.00     0.057 A 
ATOM     78  C   UNL A   1      44.923  33.990  27.927  1.00  0.00     0.134 A 
ATOM     79  C   UNL A   1      45.847  33.244  30.008  1.00  0.00     0.134 A 
ATOM     80  F   UNL A   1      44.173  33.796  26.833  1.00  0.00    -0.206 F 
ATOM     81  C   UNL A   1      45.609  35.200  28.049  1.00  0.00     0.040 A 
ATOM     82  C   UNL A   1      46.524  34.456  30.150  1.00  0.00     0.040 A 
ATOM     83  F   UNL A   1      45.992  32.324  30.973  1.00  0.00    -0.206 F 
ATOM     84  C   UNL A   1      46.410  35.437  29.166  1.00  0.00     0.006 A 
ENDBRANCH  60  77
ENDBRANCH  34  35
ENDBRANCH  27  29
ENDBRANCH  26  27
ENDBRANCH  25  26
ENDBRANCH   1  25
TORSDOF 15
ENDMDL
MODEL 2
REMARK VINA RESULT:     -11.7      3.607      8.595
REMARK SMILES COc1ccccc1NC(=O)N[C@@](C)(C(=O)OCCOC(=O)c1ccc(-c2c3nc(c(-c4c(F)cccc4F)c4ccc([nH]4)c(-c4c(F)cccc4F)c4nc(c(-c5c(F)cccc5F)c5ccc2[nH]5)C=C4)C=C3)cc1)C(F)(F)F
REMARK SMILES IDX 18 1 17 2 15 3 16 4 13 5 14 6 12 7 9 8 10 9 11 11 8 13 3 14
REMARK SMILES IDX 4 15 5 16 7 17 6 18 2 19 1 20 77 21 78 22 79 23 80 24 19 25
REMARK SMILES IDX 20 26 21 27 22 28 23 29 24 30 76 31 25 32 75 33 26 34 27 35
REMARK SMILES IDX 28 36 69 37 29 38 74 39 68 40 70 41 30 42 73 43 67 44 66 45
REMARK SMILES IDX 31 47 57 48 40 49 56 50 41 51 44 52 55 53 71 54 42 55 43 56
REMARK SMILES IDX 54 58 72 59 45 60 32 61 33 62 38 63 34 64 35 65 37 66 39 67
REMARK SMILES IDX 36 68 58 69 59 70 64 71 60 72 61 73 63 74 65 75 62 76 46 77
REMARK SMILES IDX 47 78 52 79 48 80 49 81 51 82 53 83 50 84
REMARK H PARENT 9 10 12 12 70 46 44 57
REMARK Flexibility Score: inf
ROOT
ATOM      1  C   UNL A   1      31.069  28.721  24.317  1.00  0.00     0.274 C 
ENDROOT
BRANCH   1   2
ATOM      2  O   UNL A   1      31.288  27.382  24.815  1.00  0.00    -0.460 OA
BRANCH   2   3
ATOM      3  C   UNL A   1      31.628  26.498  23.828  1.00  0.00     0.341 C 
ATOM      4  O   UNL A   1      31.517  26.751  22.632  1.00  0.00    -0.249 OA
BRANCH   3   5
ATOM      5  C   UNL A   1      32.359  25.260  24.378  1.00  0.00     0.232 C 
ATOM      6  C   UNL A   1      32.286  24.192  23.276  1.00  0.00     0.058 C 
BRANCH   5   7
ATOM      7  N   UNL A   1      31.605  24.753  25.569  1.00  0.00    -0.314 N 
ATOM      8  N   UNL A   1      32.607  22.955  26.800  1.00  0.00    -0.305 N 
ATOM      9  C   UNL A   1      31.629  23.804  26.498  1.00  0.00     0.320 C 
ATOM     10  H   UNL A   1      32.463  22.583  27.700  1.00  0.00     0.172 HD
ATOM     11  O   UNL A   1      30.651  23.809  27.258  1.00  0.00    -0.248 OA
ATOM     12  H   UNL A   1      30.816  25.324  25.714  1.00  0.00     0.166 HD
BRANCH   8  13
ATOM     13  C   UNL A   1      33.774  22.423  26.244  1.00  0.00     0.085 A 
ATOM     14  C   UNL A   1      33.624  21.313  25.391  1.00  0.00     0.142 A 
ATOM     15  C   UNL A   1      34.725  20.604  24.914  1.00  0.00     0.048 A 
ATOM     16  C   UNL A   1      36.004  21.068  25.202  1.00  0.00     0.004 A 
ATOM     17  C   UNL A   1      35.046  22.940  26.423  1.00  0.00     0.030 A 
ATOM     18  C   UNL A   1      36.162  22.255  25.918  1.00  0.00     0.002 A 
BRANCH  14  19
ATOM     19  O   UNL A   1      32.359  20.881  25.068  1.00  0.00    -0.495 OA
ATOM     20  C   UNL A   1      32.372  20.277  23.770  1.00  0.00     0.278 C 
ENDBRANCH  14  19
ENDBRANCH   8  13
ENDBRANCH   5   7
BRANCH   5  21
ATOM     21  C   UNL A   1      33.777  25.828  24.567  1.00  0.00     0.422 C 
ATOM     22  F   UNL A   1      34.031  26.118  25.858  1.00  0.00    -0.168 F 
ATOM     23  F   UNL A   1      34.729  24.969  24.138  1.00  0.00    -0.168 F 
ATOM     24  F   UNL A   1      34.010  26.977  23.881  1.00  0.00    -0.168 F 
ENDBRANCH   5  21
ENDBRANCH   3   5
ENDBRANCH   2   3
ENDBRANCH   1   2
BRANCH   1  25
ATOM     25  C   UNL A   1      32.164  29.656  24.821  1.00  0.00     0.275 C 
BRANCH  25  26
ATOM     26  O   UNL A   1      32.093  29.730  26.258  1.00  0.00    -0.458 OA
BRANCH  26  27
ATOM     27  C   UNL A   1      32.570  30.876  26.806  1.00  0.00     0.338 C 
ATOM     28  O   UNL A   1      31.964  31.929  26.920  1.00  0.00    -0.246 OA
BRANCH  27  29
ATOM     29  C   UNL A   1      33.958  30.690  27.298  1.00  0.00     0.060 A 
ATOM     30  C   UNL A   1      34.485  29.422  27.530  1.00  0.00     0.016 A 
ATOM     31  C   UNL A   1      34.714  31.809  27.647  1.00  0.00     0.016 A 
ATOM     32  C   UNL A   1      35.683  29.269  28.237  1.00  0.00     0.010 A 
ATOM     33  C   UNL A   1      35.975  31.651  28.238  1.00  0.00     0.010 A 
ATOM     34  C   UNL A   1      36.459  30.379  28.598  1.00  0.00    -0.014 A 
BRANCH  34  35
ATOM     35  C   UNL A   1      37.721  30.249  29.397  1.00  0.00     0.031 A 
ATOM     36  C   UNL A   1      38.904  29.508  28.818  1.00  0.00     0.074 A 
ATOM     37  C   UNL A   1      37.857  30.769  30.635  1.00  0.00     0.049 A 
ATOM     38  N   UNL A   1      39.933  28.972  29.429  1.00  0.00    -0.248 NA
ATOM     39  C   UNL A   1      38.914  29.320  27.358  1.00  0.00     0.031 C 
ATOM     40  C   UNL A   1      36.868  31.580  31.343  1.00  0.00     0.029 A 
ATOM     41  N   UNL A   1      38.907  30.687  31.524  1.00  0.00    -0.354 N 
ATOM     42  C   UNL A   1      40.641  28.285  28.448  1.00  0.00     0.074 A 
ATOM     43  C   UNL A   1      39.944  28.502  27.198  1.00  0.00     0.031 C 
ATOM     44  C   UNL A   1      37.379  31.976  32.520  1.00  0.00     0.029 A 
ATOM     45  C   UNL A   1      38.682  31.346  32.708  1.00  0.00     0.049 A 
ATOM     46  H   UNL A   1      39.741  30.202  31.328  1.00  0.00     0.167 HD
ATOM     47  C   UNL A   1      41.761  27.533  28.583  1.00  0.00     0.037 A 
ATOM     48  C   UNL A   1      39.403  31.397  33.846  1.00  0.00     0.037 A 
ATOM     49  C   UNL A   1      42.526  27.416  29.797  1.00  0.00     0.049 A 
ATOM     50  C   UNL A   1      40.652  30.574  33.978  1.00  0.00     0.074 A 
ATOM     51  C   UNL A   1      43.683  26.688  30.024  1.00  0.00     0.029 A 
ATOM     52  N   UNL A   1      42.238  28.083  30.977  1.00  0.00    -0.354 N 
ATOM     53  N   UNL A   1      41.229  29.800  33.093  1.00  0.00    -0.248 NA
ATOM     54  C   UNL A   1      41.322  30.595  35.287  1.00  0.00     0.031 C 
ATOM     55  C   UNL A   1      44.088  26.907  31.346  1.00  0.00     0.029 A 
ATOM     56  C   UNL A   1      43.200  27.792  31.931  1.00  0.00     0.049 A 
ATOM     57  H   UNL A   1      41.464  28.675  31.117  1.00  0.00     0.167 HD
ATOM     58  C   UNL A   1      42.323  29.238  33.737  1.00  0.00     0.074 A 
ATOM     59  C   UNL A   1      42.348  29.782  35.078  1.00  0.00     0.031 C 
ATOM     60  C   UNL A   1      43.219  28.338  33.262  1.00  0.00     0.037 A 
BRANCH  47  61
ATOM     61  C   UNL A   1      42.208  26.735  27.392  1.00  0.00     0.057 A 
ATOM     62  C   UNL A   1      43.076  27.249  26.424  1.00  0.00     0.134 A 
ATOM     63  C   UNL A   1      41.781  25.407  27.240  1.00  0.00     0.134 A 
ATOM     64  F   UNL A   1      43.510  28.516  26.504  1.00  0.00    -0.206 F 
ATOM     65  C   UNL A   1      43.487  26.480  25.332  1.00  0.00     0.040 A 
ATOM     66  C   UNL A   1      42.205  24.621  26.169  1.00  0.00     0.040 A 
ATOM     67  F   UNL A   1      40.956  24.850  28.140  1.00  0.00    -0.206 F 
ATOM     68  C   UNL A   1      43.056  25.159  25.207  1.00  0.00     0.006 A 
ENDBRANCH  47  61
BRANCH  48  69
ATOM     69  C   UNL A   1      38.927  32.222  34.985  1.00  0.00     0.057 A 
ATOM     70  C   UNL A   1      38.214  31.641  36.039  1.00  0.00     0.134 A 
ATOM     71  C   UNL A   1      39.176  33.598  35.051  1.00  0.00     0.134 A 
ATOM     72  F   UNL A   1      37.920  30.333  36.015  1.00  0.00    -0.206 F 
ATOM     73  C   UNL A   1      37.768  32.399  37.123  1.00  0.00     0.040 A 
ATOM     74  C   UNL A   1      38.759  34.364  36.140  1.00  0.00     0.040 A 
ATOM     75  F   UNL A   1      39.850  34.213  34.068  1.00  0.00    -0.206 F 
ATOM     76  C   UNL A   1      38.049  33.763  37.179  1.00  0.00     0.006 A 
ENDBRANCH  48  69
BRANCH  60  77
ATOM     77  C   UNL A   1      44.311  27.905  34.192  1.00  0.00     0.057 A 
ATOM     78  C   UNL A   1      45.514  28.617  34.292  1.00  0.00     0.134 A 
ATOM     79  C   UNL A   1      44.152  26.781  35.010  1.00  0.00     0.134 A 
ATOM     80  F   UNL A   1      45.731  29.694  33.523  1.00  0.00    -0.206 F 
ATOM     81  C   UNL A   1      46.528  28.213  35.161  1.00  0.00     0.040 A 
ATOM     82  C   UNL A   1      45.152  26.377  35.895  1.00  0.00     0.040 A 
ATOM     83  F   UNL A   1      43.022  26.060  34.963  1.00  0.00    -0.206 F 
ATOM     84  C   UNL A   1      46.346  27.091  35.969  1.00  0.00     0.006 A 
ENDBRANCH  60  77
ENDBRANCH  34  35
ENDBRANCH  27  29
ENDBRANCH  26  27
ENDBRANCH  25  26
ENDBRANCH   1  25
TORSDOF 15
ENDMDL
MODEL 3
REMARK VINA RESULT:     -11.6      0.835      1.842
REMARK SMILES COc1ccccc1NC(=O)N[C@@](C)(C(=O)OCCOC(=O)c1ccc(-c2c3nc(c(-c4c(F)cccc4F)c4ccc([nH]4)c(-c4c(F)cccc4F)c4nc(c(-c5c(F)cccc5F)c5ccc2[nH]5)C=C4)C=C3)cc1)C(F)(F)F
REMARK SMILES IDX 18 1 17 2 15 3 16 4 13 5 14 6 12 7 9 8 10 9 11 11 8 13 3 14
REMARK SMILES IDX 4 15 5 16 7 17 6 18 2 19 1 20 77 21 78 22 79 23 80 24 19 25
REMARK SMILES IDX 20 26 21 27 22 28 23 29 24 30 76 31 25 32 75 33 26 34 27 35
REMARK SMILES IDX 28 36 69 37 29 38 74 39 68 40 70 41 30 42 73 43 67 44 66 45
REMARK SMILES IDX 31 47 57 48 40 49 56 50 41 51 44 52 55 53 71 54 42 55 43 56
REMARK SMILES IDX 54 58 72 59 45 60 32 61 33 62 38 63 34 64 35 65 37 66 39 67
REMARK SMILES IDX 36 68 58 69 59 70 64 71 60 72 61 73 63 74 65 75 62 76 46 77
REMARK SMILES IDX 47 78 52 79 48 80 49 81 51 82 53 83 50 84
REMARK H PARENT 9 10 12 12 70 46 44 57
REMARK Flexibility Score: inf
ROOT
ATOM      1  C   UNL A   1      34.888  21.490  25.692  1.00  0.00     0.274 C 
ENDROOT
BRANCH   1   2
ATOM      2  O   UNL A   1      34.754  22.676  24.876  1.00  0.00    -0.460 OA
BRANCH   2   3
ATOM      3  C   UNL A   1      33.484  22.853  24.403  1.00  0.00     0.341 C 
ATOM      4  O   UNL A   1      32.814  21.945  23.921  1.00  0.00    -0.249 OA
BRANCH   3   5
ATOM      5  C   UNL A   1      32.923  24.247  24.739  1.00  0.00     0.232 C 
ATOM      6  C   UNL A   1      34.026  24.977  25.520  1.00  0.00     0.058 C 
BRANCH   5   7
ATOM      7  N   UNL A   1      31.743  24.080  25.645  1.00  0.00    -0.314 N 
ATOM      8  N   UNL A   1      30.732  26.084  26.488  1.00  0.00    -0.305 N 
ATOM      9  C   UNL A   1      30.904  24.768  26.410  1.00  0.00     0.320 C 
ATOM     10  H   UNL A   1      29.861  26.285  26.901  1.00  0.00     0.172 HD
ATOM     11  O   UNL A   1      30.094  24.069  27.036  1.00  0.00    -0.248 OA
ATOM     12  H   UNL A   1      31.505  23.125  25.686  1.00  0.00     0.166 HD
BRANCH   8  13
ATOM     13  C   UNL A   1      31.395  27.272  26.169  1.00  0.00     0.085 A 
ATOM     14  C   UNL A   1      31.066  27.873  24.939  1.00  0.00     0.142 A 
ATOM     15  C   UNL A   1      31.779  28.966  24.446  1.00  0.00     0.048 A 
ATOM     16  C   UNL A   1      32.768  29.540  25.236  1.00  0.00     0.004 A 
ATOM     17  C   UNL A   1      32.297  27.925  26.992  1.00  0.00     0.030 A 
ATOM     18  C   UNL A   1      32.996  29.046  26.522  1.00  0.00     0.002 A 
BRANCH  14  19
ATOM     19  O   UNL A   1      30.057  27.334  24.177  1.00  0.00    -0.495 OA
ATOM     20  C   UNL A   1      30.175  27.791  22.825  1.00  0.00     0.278 C 
ENDBRANCH  14  19
ENDBRANCH   8  13
ENDBRANCH   5   7
BRANCH   5  21
ATOM     21  C   UNL A   1      32.716  24.818  23.324  1.00  0.00     0.422 C 
ATOM     22  F   UNL A   1      33.052  26.120  23.256  1.00  0.00    -0.168 F 
ATOM     23  F   UNL A   1      33.442  24.151  22.397  1.00  0.00    -0.168 F 
ATOM     24  F   UNL A   1      31.435  24.746  22.879  1.00  0.00    -0.168 F 
ENDBRANCH   5  21
ENDBRANCH   3   5
ENDBRANCH   2   3
ENDBRANCH   1   2
BRANCH   1  25
ATOM     25  C   UNL A   1      35.928  20.550  25.090  1.00  0.00     0.275 C 
BRANCH  25  26
ATOM     26  O   UNL A   1      37.102  21.310  24.744  1.00  0.00    -0.458 OA
BRANCH  26  27
ATOM     27  C   UNL A   1      38.242  20.942  25.381  1.00  0.00     0.338 C 
ATOM     28  O   UNL A   1      38.741  19.829  25.382  1.00  0.00    -0.246 OA
BRANCH  27  29
ATOM     29  C   UNL A   1      38.854  22.098  26.082  1.00  0.00     0.060 A 
ATOM     30  C   UNL A   1      38.357  23.390  25.928  1.00  0.00     0.016 A 
ATOM     31  C   UNL A   1      40.023  21.908  26.820  1.00  0.00     0.016 A 
ATOM     32  C   UNL A   1      39.094  24.493  26.374  1.00  0.00     0.010 A 
ATOM     33  C   UNL A   1      40.690  23.007  27.377  1.00  0.00     0.010 A 
ATOM     34  C   UNL A   1      40.271  24.326  27.116  1.00  0.00    -0.014 A 
BRANCH  34  35
ATOM     35  C   UNL A   1      41.107  25.487  27.565  1.00  0.00     0.031 A 
ATOM     36  C   UNL A   1      40.521  26.516  28.504  1.00  0.00     0.074 A 
ATOM     37  C   UNL A   1      42.383  25.666  27.164  1.00  0.00     0.049 A 
ATOM     38  N   UNL A   1      40.906  27.748  28.737  1.00  0.00    -0.248 NA
ATOM     39  C   UNL A   1      39.323  26.114  29.258  1.00  0.00     0.031 C 
ATOM     40  C   UNL A   1      43.158  24.754  26.324  1.00  0.00     0.029 A 
ATOM     41  N   UNL A   1      43.261  26.695  27.422  1.00  0.00    -0.354 N 
ATOM     42  C   UNL A   1      39.934  28.299  29.564  1.00  0.00     0.074 A 
ATOM     43  C   UNL A   1      38.960  27.258  29.820  1.00  0.00     0.031 C 
ATOM     44  C   UNL A   1      44.408  25.226  26.192  1.00  0.00     0.029 A 
ATOM     45  C   UNL A   1      44.491  26.535  26.831  1.00  0.00     0.049 A 
ATOM     46  H   UNL A   1      43.029  27.474  27.978  1.00  0.00     0.167 HD
ATOM     47  C   UNL A   1      39.854  29.561  30.052  1.00  0.00     0.037 A 
ATOM     48  C   UNL A   1      45.552  27.363  26.753  1.00  0.00     0.037 A 
ATOM     49  C   UNL A   1      40.879  30.562  29.904  1.00  0.00     0.049 A 
ATOM     50  C   UNL A   1      45.460  28.753  27.313  1.00  0.00     0.074 A 
ATOM     51  C   UNL A   1      40.893  31.864  30.377  1.00  0.00     0.029 A 
ATOM     52  N   UNL A   1      42.094  30.356  29.271  1.00  0.00    -0.354 N 
ATOM     53  N   UNL A   1      44.471  29.320  27.959  1.00  0.00    -0.248 NA
ATOM     54  C   UNL A   1      46.617  29.634  27.091  1.00  0.00     0.031 C 
ATOM     55  C   UNL A   1      42.114  32.448  30.021  1.00  0.00     0.029 A 
ATOM     56  C   UNL A   1      42.869  31.501  29.352  1.00  0.00     0.049 A 
ATOM     57  H   UNL A   1      42.367  29.519  28.830  1.00  0.00     0.167 HD
ATOM     58  C   UNL A   1      44.882  30.622  28.212  1.00  0.00     0.074 A 
ATOM     59  C   UNL A   1      46.221  30.754  27.679  1.00  0.00     0.031 C 
ATOM     60  C   UNL A   1      44.201  31.624  28.820  1.00  0.00     0.037 A 
BRANCH  47  61
ATOM     61  C   UNL A   1      38.591  29.953  30.762  1.00  0.00     0.057 A 
ATOM     62  C   UNL A   1      38.424  29.802  32.142  1.00  0.00     0.134 A 
ATOM     63  C   UNL A   1      37.533  30.528  30.041  1.00  0.00     0.134 A 
ATOM     64  F   UNL A   1      39.392  29.246  32.887  1.00  0.00    -0.206 F 
ATOM     65  C   UNL A   1      37.241  30.187  32.780  1.00  0.00     0.040 A 
ATOM     66  C   UNL A   1      36.358  30.940  30.670  1.00  0.00     0.040 A 
ATOM     67  F   UNL A   1      37.632  30.711  28.716  1.00  0.00    -0.206 F 
ATOM     68  C   UNL A   1      36.207  30.764  32.043  1.00  0.00     0.006 A 
ENDBRANCH  47  61
BRANCH  48  69
ATOM     69  C   UNL A   1      46.787  26.916  26.060  1.00  0.00     0.057 A 
ATOM     70  C   UNL A   1      47.772  26.198  26.747  1.00  0.00     0.134 A 
ATOM     71  C   UNL A   1      47.010  27.188  24.705  1.00  0.00     0.134 A 
ATOM     72  F   UNL A   1      47.628  25.935  28.053  1.00  0.00    -0.206 F 
ATOM     73  C   UNL A   1      48.934  25.762  26.109  1.00  0.00     0.040 A 
ATOM     74  C   UNL A   1      48.154  26.736  24.048  1.00  0.00     0.040 A 
ATOM     75  F   UNL A   1      46.104  27.876  23.994  1.00  0.00    -0.206 F 
ATOM     76  C   UNL A   1      49.122  26.023  24.753  1.00  0.00     0.006 A 
ENDBRANCH  48  69
BRANCH  60  77
ATOM     77  C   UNL A   1      44.903  32.941  28.960  1.00  0.00     0.057 A 
ATOM     78  C   UNL A   1      45.733  33.216  30.054  1.00  0.00     0.134 A 
ATOM     79  C   UNL A   1      44.766  33.933  27.982  1.00  0.00     0.134 A 
ATOM     80  F   UNL A   1      45.893  32.311  31.031  1.00  0.00    -0.206 F 
ATOM     81  C   UNL A   1      46.388  34.442  30.180  1.00  0.00     0.040 A 
ATOM     82  C   UNL A   1      45.429  35.156  28.089  1.00  0.00     0.040 A 
ATOM     83  F   UNL A   1      43.989  33.728  26.909  1.00  0.00    -0.206 F 
ATOM     84  C   UNL A   1      46.240  35.415  29.192  1.00  0.00     0.006 A 
ENDBRANCH  60  77
ENDBRANCH  34  35
ENDBRANCH  27  29
ENDBRANCH  26  27
ENDBRANCH  25  26
ENDBRANCH   1  25
TORSDOF 15
ENDMDL
