MODEL 1
REMARK VINA RESULT:     -12.2      0.000      0.000
REMARK SMILES Cc1ccc(Nc2c(F)cccc2Cl)c(CC(=O)OCCOC(=O)c2ccc(-c3c4nc(c(-c5c(F)cccc5F)c5ccc([nH]5)c(-c5c(F)cccc5F)c5nc(c(-c6c(F)cccc6F)c6ccc3[nH]6)C=C5)C=C4)cc2)c1
REMARK SMILES IDX 20 1 19 2 17 3 18 4 16 5 15 6 1 7 2 8 3 9 79 10 4 11 5 12
REMARK SMILES IDX 6 13 7 15 8 16 13 17 9 18 10 19 12 20 14 21 11 22 21 23
REMARK SMILES IDX 22 24 23 25 24 26 25 27 26 28 78 29 27 30 77 31 28 32 29 33
REMARK SMILES IDX 30 34 71 35 31 36 76 37 70 38 72 39 32 40 75 41 69 42 68 43
REMARK SMILES IDX 33 45 59 46 42 47 58 48 43 49 46 50 57 51 73 52 44 53 45 54
REMARK SMILES IDX 56 56 74 57 47 58 34 59 35 60 40 61 36 62 37 63 39 64 41 65
REMARK SMILES IDX 38 66 60 67 61 68 66 69 62 70 63 71 65 72 67 73 64 74 48 75
REMARK SMILES IDX 49 76 54 77 50 78 51 79 53 80 55 81 52 82
REMARK H PARENT 6 14 72 44 46 55
REMARK Flexibility Score: inf
ROOT
ATOM      1  C   UNL A   1      33.360  29.166  26.756  1.00  0.00     0.274 C 
ENDROOT
BRANCH   1   2
ATOM      2  O   UNL A   1      32.874  27.843  26.600  1.00  0.00    -0.462 OA
BRANCH   2   3
ATOM      3  C   UNL A   1      31.641  27.552  27.103  1.00  0.00     0.310 C 
ATOM      4  O   UNL A   1      31.100  28.109  28.027  1.00  0.00    -0.252 OA
BRANCH   3   5
ATOM      5  C   UNL A   1      31.067  26.397  26.305  1.00  0.00     0.160 C 
BRANCH   5   6
ATOM      6  C   UNL A   1      31.209  26.703  24.839  1.00  0.00    -0.013 A 
ATOM      7  C   UNL A   1      29.449  29.202  22.580  1.00  0.00     0.044 C 
ATOM      8  C   UNL A   1      30.331  28.082  23.036  1.00  0.00    -0.051 A 
ATOM      9  C   UNL A   1      30.944  27.230  22.119  1.00  0.00     0.005 A 
ATOM     10  C   UNL A   1      30.492  27.829  24.393  1.00  0.00     0.009 A 
ATOM     11  C   UNL A   1      31.694  26.132  22.554  1.00  0.00     0.026 A 
ATOM     12  C   UNL A   1      31.831  25.832  23.914  1.00  0.00     0.042 A 
BRANCH  12  13
ATOM     13  N   UNL A   1      32.465  24.633  24.304  1.00  0.00    -0.352 N 
ATOM     14  H   UNL A   1      31.875  23.952  24.702  1.00  0.00     0.167 HD
BRANCH  13  15
ATOM     15  C   UNL A   1      33.833  24.270  24.203  1.00  0.00     0.094 A 
ATOM     16  C   UNL A   1      34.734  24.629  25.212  1.00  0.00     0.148 A 
ATOM     17  C   UNL A   1      34.307  23.389  23.214  1.00  0.00     0.067 A 
ATOM     18  F   UNL A   1      34.349  25.459  26.194  1.00  0.00    -0.205 F 
ATOM     19  C   UNL A   1      36.044  24.146  25.239  1.00  0.00     0.041 A 
ATOM     20  C   UNL A   1      35.597  22.844  23.272  1.00  0.00     0.023 A 
ATOM     21  Cl  UNL A   1      33.415  23.066  21.778  1.00  0.00    -0.082 Cl
ATOM     22  C   UNL A   1      36.470  23.229  24.282  1.00  0.00     0.005 A 
ENDBRANCH  13  15
ENDBRANCH  12  13
ENDBRANCH   5   6
ENDBRANCH   3   5
ENDBRANCH   2   3
ENDBRANCH   1   2
BRANCH   1  23
ATOM     23  C   UNL A   1      34.861  29.115  27.078  1.00  0.00     0.275 C 
BRANCH  23  24
ATOM     24  O   UNL A   1      35.390  30.027  28.120  1.00  0.00    -0.458 OA
BRANCH  24  25
ATOM     25  C   UNL A   1      36.621  30.590  28.282  1.00  0.00     0.338 C 
ATOM     26  O   UNL A   1      36.810  31.798  28.241  1.00  0.00    -0.246 OA
BRANCH  25  27
ATOM     27  C   UNL A   1      37.731  29.681  28.586  1.00  0.00     0.060 A 
ATOM     28  C   UNL A   1      37.685  28.758  29.645  1.00  0.00     0.016 A 
ATOM     29  C   UNL A   1      38.760  29.659  27.671  1.00  0.00     0.016 A 
ATOM     30  C   UNL A   1      38.627  27.733  29.687  1.00  0.00     0.010 A 
ATOM     31  C   UNL A   1      39.446  28.497  27.520  1.00  0.00     0.010 A 
ATOM     32  C   UNL A   1      39.480  27.603  28.591  1.00  0.00    -0.014 A 
BRANCH  32  33
ATOM     33  C   UNL A   1      40.707  26.829  28.569  1.00  0.00     0.031 A 
ATOM     34  C   UNL A   1      40.719  25.397  28.291  1.00  0.00     0.074 A 
ATOM     35  C   UNL A   1      41.806  27.610  28.700  1.00  0.00     0.049 A 
ATOM     36  N   UNL A   1      41.457  24.556  28.928  1.00  0.00    -0.248 NA
ATOM     37  C   UNL A   1      39.880  24.777  27.266  1.00  0.00     0.031 C 
ATOM     38  C   UNL A   1      43.211  27.342  28.497  1.00  0.00     0.029 A 
ATOM     39  N   UNL A   1      41.788  28.937  29.159  1.00  0.00    -0.354 N 
ATOM     40  C   UNL A   1      41.474  23.413  28.159  1.00  0.00     0.074 A 
ATOM     41  C   UNL A   1      40.345  23.520  27.264  1.00  0.00     0.031 C 
ATOM     42  C   UNL A   1      43.919  28.320  29.104  1.00  0.00     0.029 A 
ATOM     43  C   UNL A   1      42.985  29.202  29.801  1.00  0.00     0.049 A 
ATOM     44  H   UNL A   1      41.046  29.573  29.043  1.00  0.00     0.167 HD
ATOM     45  C   UNL A   1      42.593  22.635  28.135  1.00  0.00     0.037 A 
ATOM     46  C   UNL A   1      42.905  29.445  31.141  1.00  0.00     0.037 A 
ATOM     47  C   UNL A   1      43.671  23.292  28.871  1.00  0.00     0.049 A 
ATOM     48  C   UNL A   1      43.451  28.267  31.904  1.00  0.00     0.074 A 
ATOM     49  C   UNL A   1      44.699  24.110  28.426  1.00  0.00     0.029 A 
ATOM     50  N   UNL A   1      43.550  23.528  30.237  1.00  0.00    -0.354 N 
ATOM     51  N   UNL A   1      43.519  27.056  31.421  1.00  0.00    -0.248 NA
ATOM     52  C   UNL A   1      44.021  28.373  33.240  1.00  0.00     0.031 C 
ATOM     53  C   UNL A   1      45.155  24.884  29.520  1.00  0.00     0.029 A 
ATOM     54  C   UNL A   1      44.406  24.540  30.631  1.00  0.00     0.049 A 
ATOM     55  H   UNL A   1      42.940  23.042  30.838  1.00  0.00     0.167 HD
ATOM     56  C   UNL A   1      44.184  26.252  32.302  1.00  0.00     0.074 A 
ATOM     57  C   UNL A   1      44.464  27.118  33.434  1.00  0.00     0.031 C 
ATOM     58  C   UNL A   1      44.484  24.949  32.025  1.00  0.00     0.037 A 
BRANCH  45  59
ATOM     59  C   UNL A   1      42.799  21.526  27.134  1.00  0.00     0.057 A 
ATOM     60  C   UNL A   1      42.068  20.323  27.194  1.00  0.00     0.134 A 
ATOM     61  C   UNL A   1      43.713  21.607  26.068  1.00  0.00     0.134 A 
ATOM     62  F   UNL A   1      41.120  20.117  28.116  1.00  0.00    -0.206 F 
ATOM     63  C   UNL A   1      42.277  19.258  26.310  1.00  0.00     0.040 A 
ATOM     64  C   UNL A   1      43.951  20.537  25.191  1.00  0.00     0.040 A 
ATOM     65  F   UNL A   1      44.397  22.736  25.830  1.00  0.00    -0.206 F 
ATOM     66  C   UNL A   1      43.234  19.353  25.314  1.00  0.00     0.006 A 
ENDBRANCH  45  59
BRANCH  46  67
ATOM     67  C   UNL A   1      41.708  30.275  31.520  1.00  0.00     0.057 A 
ATOM     68  C   UNL A   1      41.600  31.579  30.985  1.00  0.00     0.134 A 
ATOM     69  C   UNL A   1      40.542  29.750  32.089  1.00  0.00     0.134 A 
ATOM     70  F   UNL A   1      42.669  32.160  30.413  1.00  0.00    -0.206 F 
ATOM     71  C   UNL A   1      40.388  32.278  30.926  1.00  0.00     0.040 A 
ATOM     72  C   UNL A   1      39.322  30.451  32.054  1.00  0.00     0.040 A 
ATOM     73  F   UNL A   1      40.532  28.517  32.614  1.00  0.00    -0.206 F 
ATOM     74  C   UNL A   1      39.234  31.701  31.441  1.00  0.00     0.006 A 
ENDBRANCH  46  67
BRANCH  58  75
ATOM     75  C   UNL A   1      44.993  23.947  33.020  1.00  0.00     0.057 A 
ATOM     76  C   UNL A   1      46.257  24.023  33.615  1.00  0.00     0.134 A 
ATOM     77  C   UNL A   1      44.131  22.956  33.541  1.00  0.00     0.134 A 
ATOM     78  F   UNL A   1      47.128  24.989  33.294  1.00  0.00    -0.206 F 
ATOM     79  C   UNL A   1      46.659  23.136  34.618  1.00  0.00     0.040 A 
ATOM     80  C   UNL A   1      44.498  22.113  34.589  1.00  0.00     0.040 A 
ATOM     81  F   UNL A   1      42.885  22.781  33.077  1.00  0.00    -0.206 F 
ATOM     82  C   UNL A   1      45.775  22.189  35.119  1.00  0.00     0.006 A 
ENDBRANCH  58  75
ENDBRANCH  32  33
ENDBRANCH  25  27
ENDBRANCH  24  25
ENDBRANCH  23  24
ENDBRANCH   1  23
TORSDOF 14
ENDMDL
MODEL 2
REMARK VINA RESULT:     -11.9      1.002      1.579
REMARK SMILES Cc1ccc(Nc2c(F)cccc2Cl)c(CC(=O)OCCOC(=O)c2ccc(-c3c4nc(c(-c5c(F)cccc5F)c5ccc([nH]5)c(-c5c(F)cccc5F)c5nc(c(-c6c(F)cccc6F)c6ccc3[nH]6)C=C5)C=C4)cc2)c1
REMARK SMILES IDX 20 1 19 2 17 3 18 4 16 5 15 6 1 7 2 8 3 9 79 10 4 11 5 12
REMARK SMILES IDX 6 13 7 15 8 16 13 17 9 18 10 19 12 20 14 21 11 22 21 23
REMARK SMILES IDX 22 24 23 25 24 26 25 27 26 28 78 29 27 30 77 31 28 32 29 33
REMARK SMILES IDX 30 34 71 35 31 36 76 37 70 38 72 39 32 40 75 41 69 42 68 43
REMARK SMILES IDX 33 45 59 46 42 47 58 48 43 49 46 50 57 51 73 52 44 53 45 54
REMARK SMILES IDX 56 56 74 57 47 58 34 59 35 60 40 61 36 62 37 63 39 64 41 65
REMARK SMILES IDX 38 66 60 67 61 68 66 69 62 70 63 71 65 72 67 73 64 74 48 75
REMARK SMILES IDX 49 76 54 77 50 78 51 79 53 80 55 81 52 82
REMARK H PARENT 6 14 72 44 46 55
REMARK Flexibility Score: inf
ROOT
ATOM      1  C   UNL A   1      33.065  28.693  27.610  1.00  0.00     0.274 C 
ENDROOT
BRANCH   1   2
ATOM      2  O   UNL A   1      32.341  28.448  26.414  1.00  0.00    -0.462 OA
BRANCH   2   3
ATOM      3  C   UNL A   1      32.162  29.489  25.552  1.00  0.00     0.310 C 
ATOM      4  O   UNL A   1      31.944  30.636  25.857  1.00  0.00    -0.252 OA
BRANCH   3   5
ATOM      5  C   UNL A   1      32.275  28.953  24.137  1.00  0.00     0.160 C 
BRANCH   5   6
ATOM      6  C   UNL A   1      30.967  28.318  23.754  1.00  0.00    -0.013 A 
ATOM      7  C   UNL A   1      27.663  29.797  22.592  1.00  0.00     0.044 C 
ATOM      8  C   UNL A   1      28.691  28.806  23.042  1.00  0.00    -0.051 A 
ATOM      9  C   UNL A   1      28.334  27.500  23.374  1.00  0.00     0.005 A 
ATOM     10  C   UNL A   1      30.014  29.198  23.207  1.00  0.00     0.009 A 
ATOM     11  C   UNL A   1      29.283  26.605  23.879  1.00  0.00     0.026 A 
ATOM     12  C   UNL A   1      30.610  26.992  24.097  1.00  0.00     0.042 A 
BRANCH  12  13
ATOM     13  N   UNL A   1      31.497  26.109  24.750  1.00  0.00    -0.352 N 
ATOM     14  H   UNL A   1      31.454  26.116  25.733  1.00  0.00     0.167 HD
BRANCH  13  15
ATOM     15  C   UNL A   1      32.440  25.211  24.187  1.00  0.00     0.094 A 
ATOM     16  C   UNL A   1      33.813  25.451  24.329  1.00  0.00     0.148 A 
ATOM     17  C   UNL A   1      32.067  23.969  23.644  1.00  0.00     0.067 A 
ATOM     18  F   UNL A   1      34.243  26.611  24.848  1.00  0.00    -0.205 F 
ATOM     19  C   UNL A   1      34.770  24.509  23.945  1.00  0.00     0.041 A 
ATOM     20  C   UNL A   1      33.018  22.991  23.322  1.00  0.00     0.023 A 
ATOM     21  Cl  UNL A   1      30.448  23.633  23.166  1.00  0.00    -0.082 Cl
ATOM     22  C   UNL A   1      34.372  23.265  23.466  1.00  0.00     0.005 A 
ENDBRANCH  13  15
ENDBRANCH  12  13
ENDBRANCH   5   6
ENDBRANCH   3   5
ENDBRANCH   2   3
ENDBRANCH   1   2
BRANCH   1  23
ATOM     23  C   UNL A   1      34.466  29.212  27.251  1.00  0.00     0.275 C 
BRANCH  23  24
ATOM     24  O   UNL A   1      35.306  29.780  28.332  1.00  0.00    -0.458 OA
BRANCH  24  25
ATOM     25  C   UNL A   1      36.515  30.408  28.296  1.00  0.00     0.338 C 
ATOM     26  O   UNL A   1      36.636  31.603  28.064  1.00  0.00    -0.246 OA
BRANCH  25  27
ATOM     27  C   UNL A   1      37.692  29.599  28.623  1.00  0.00     0.060 A 
ATOM     28  C   UNL A   1      37.767  28.803  29.780  1.00  0.00     0.016 A 
ATOM     29  C   UNL A   1      38.663  29.524  27.648  1.00  0.00     0.016 A 
ATOM     30  C   UNL A   1      38.768  27.839  29.871  1.00  0.00     0.010 A 
ATOM     31  C   UNL A   1      39.405  28.389  27.582  1.00  0.00     0.010 A 
ATOM     32  C   UNL A   1      39.558  27.627  28.741  1.00  0.00    -0.014 A 
BRANCH  32  33
ATOM     33  C   UNL A   1      40.824  26.920  28.722  1.00  0.00     0.031 A 
ATOM     34  C   UNL A   1      40.927  25.519  28.328  1.00  0.00     0.074 A 
ATOM     35  C   UNL A   1      41.872  27.741  28.976  1.00  0.00     0.049 A 
ATOM     36  N   UNL A   1      41.678  24.665  28.933  1.00  0.00    -0.248 NA
ATOM     37  C   UNL A   1      40.176  24.947  27.212  1.00  0.00     0.031 C 
ATOM     38  C   UNL A   1      43.297  27.561  28.828  1.00  0.00     0.029 A 
ATOM     39  N   UNL A   1      41.759  29.021  29.541  1.00  0.00    -0.354 N 
ATOM     40  C   UNL A   1      41.794  23.594  28.075  1.00  0.00     0.074 A 
ATOM     41  C   UNL A   1      40.708  23.720  27.131  1.00  0.00     0.031 C 
ATOM     42  C   UNL A   1      43.921  28.518  29.551  1.00  0.00     0.029 A 
ATOM     43  C   UNL A   1      42.907  29.291  30.266  1.00  0.00     0.049 A 
ATOM     44  H   UNL A   1      40.990  29.627  29.438  1.00  0.00     0.167 HD
ATOM     45  C   UNL A   1      42.954  22.877  28.047  1.00  0.00     0.037 A 
ATOM     46  C   UNL A   1      42.747  29.415  31.616  1.00  0.00     0.037 A 
ATOM     47  C   UNL A   1      43.956  23.522  28.892  1.00  0.00     0.049 A 
ATOM     48  C   UNL A   1      43.317  28.204  32.308  1.00  0.00     0.074 A 
ATOM     49  C   UNL A   1      44.959  24.425  28.572  1.00  0.00     0.029 A 
ATOM     50  N   UNL A   1      43.755  23.634  30.264  1.00  0.00    -0.354 N 
ATOM     51  N   UNL A   1      43.474  27.043  31.730  1.00  0.00    -0.248 NA
ATOM     52  C   UNL A   1      43.813  28.225  33.677  1.00  0.00     0.031 C 
ATOM     53  C   UNL A   1      45.318  25.125  29.749  1.00  0.00     0.029 A 
ATOM     54  C   UNL A   1      44.535  24.651  30.786  1.00  0.00     0.049 A 
ATOM     55  H   UNL A   1      43.143  23.069  30.789  1.00  0.00     0.167 HD
ATOM     56  C   UNL A   1      44.137  26.202  32.577  1.00  0.00     0.074 A 
ATOM     57  C   UNL A   1      44.313  26.981  33.791  1.00  0.00     0.031 C 
ATOM     58  C   UNL A   1      44.521  24.944  32.211  1.00  0.00     0.037 A 
BRANCH  45  59
ATOM     59  C   UNL A   1      43.269  21.869  26.971  1.00  0.00     0.057 A 
ATOM     60  C   UNL A   1      42.654  20.602  26.934  1.00  0.00     0.134 A 
ATOM     61  C   UNL A   1      44.177  22.113  25.925  1.00  0.00     0.134 A 
ATOM     62  F   UNL A   1      41.724  20.241  27.826  1.00  0.00    -0.206 F 
ATOM     63  C   UNL A   1      42.968  19.629  25.978  1.00  0.00     0.040 A 
ATOM     64  C   UNL A   1      44.520  21.137  24.975  1.00  0.00     0.040 A 
ATOM     65  F   UNL A   1      44.754  23.315  25.779  1.00  0.00    -0.206 F 
ATOM     66  C   UNL A   1      43.918  19.886  25.003  1.00  0.00     0.006 A 
ENDBRANCH  45  59
BRANCH  46  67
ATOM     67  C   UNL A   1      41.489  30.149  31.997  1.00  0.00     0.057 A 
ATOM     68  C   UNL A   1      40.450  29.419  32.618  1.00  0.00     0.134 A 
ATOM     69  C   UNL A   1      41.395  31.542  32.085  1.00  0.00     0.134 A 
ATOM     70  F   UNL A   1      40.463  28.075  32.588  1.00  0.00    -0.206 F 
ATOM     71  C   UNL A   1      39.436  30.030  33.366  1.00  0.00     0.040 A 
ATOM     72  C   UNL A   1      40.369  32.168  32.817  1.00  0.00     0.040 A 
ATOM     73  F   UNL A   1      42.334  32.328  31.540  1.00  0.00    -0.206 F 
ATOM     74  C   UNL A   1      39.408  31.413  33.489  1.00  0.00     0.006 A 
ENDBRANCH  46  67
BRANCH  58  75
ATOM     75  C   UNL A   1      45.034  23.888  33.146  1.00  0.00     0.057 A 
ATOM     76  C   UNL A   1      46.316  23.906  33.704  1.00  0.00     0.134 A 
ATOM     77  C   UNL A   1      44.162  22.897  33.652  1.00  0.00     0.134 A 
ATOM     78  F   UNL A   1      47.203  24.862  33.396  1.00  0.00    -0.206 F 
ATOM     79  C   UNL A   1      46.725  22.967  34.655  1.00  0.00     0.040 A 
ATOM     80  C   UNL A   1      44.538  22.000  34.651  1.00  0.00     0.040 A 
ATOM     81  F   UNL A   1      42.898  22.773  33.220  1.00  0.00    -0.206 F 
ATOM     82  C   UNL A   1      45.832  22.022  35.143  1.00  0.00     0.006 A 
ENDBRANCH  58  75
ENDBRANCH  32  33
ENDBRANCH  25  27
ENDBRANCH  24  25
ENDBRANCH  23  24
ENDBRANCH   1  23
TORSDOF 14
ENDMDL
MODEL 3
REMARK VINA RESULT:     -11.9      1.873      3.359
REMARK SMILES Cc1ccc(Nc2c(F)cccc2Cl)c(CC(=O)OCCOC(=O)c2ccc(-c3c4nc(c(-c5c(F)cccc5F)c5ccc([nH]5)c(-c5c(F)cccc5F)c5nc(c(-c6c(F)cccc6F)c6ccc3[nH]6)C=C5)C=C4)cc2)c1
REMARK SMILES IDX 20 1 19 2 17 3 18 4 16 5 15 6 1 7 2 8 3 9 79 10 4 11 5 12
REMARK SMILES IDX 6 13 7 15 8 16 13 17 9 18 10 19 12 20 14 21 11 22 21 23
REMARK SMILES IDX 22 24 23 25 24 26 25 27 26 28 78 29 27 30 77 31 28 32 29 33
REMARK SMILES IDX 30 34 71 35 31 36 76 37 70 38 72 39 32 40 75 41 69 42 68 43
REMARK SMILES IDX 33 45 59 46 42 47 58 48 43 49 46 50 57 51 73 52 44 53 45 54
REMARK SMILES IDX 56 56 74 57 47 58 34 59 35 60 40 61 36 62 37 63 39 64 41 65
REMARK SMILES IDX 38 66 60 67 61 68 66 69 62 70 63 71 65 72 67 73 64 74 48 75
REMARK SMILES IDX 49 76 54 77 50 78 51 79 53 80 55 81 52 82
REMARK H PARENT 6 14 72 44 46 55
REMARK Flexibility Score: inf
ROOT
ATOM      1  C   UNL A   1      33.664  29.138  27.067  1.00  0.00     0.274 C 
ENDROOT
BRANCH   1   2
ATOM      2  O   UNL A   1      33.608  29.738  25.783  1.00  0.00    -0.462 OA
BRANCH   2   3
ATOM      3  C   UNL A   1      32.528  29.466  24.998  1.00  0.00     0.310 C 
ATOM      4  O   UNL A   1      31.371  29.646  25.291  1.00  0.00    -0.252 OA
BRANCH   3   5
ATOM      5  C   UNL A   1      33.031  28.886  23.689  1.00  0.00     0.160 C 
BRANCH   5   6
ATOM      6  C   UNL A   1      32.797  27.400  23.697  1.00  0.00    -0.013 A 
ATOM      7  C   UNL A   1      34.936  24.492  24.885  1.00  0.00     0.044 C 
ATOM      8  C   UNL A   1      33.815  25.263  24.262  1.00  0.00    -0.051 A 
ATOM      9  C   UNL A   1      32.845  24.625  23.491  1.00  0.00     0.005 A 
ATOM     10  C   UNL A   1      33.767  26.647  24.384  1.00  0.00     0.009 A 
ATOM     11  C   UNL A   1      31.851  25.362  22.838  1.00  0.00     0.026 A 
ATOM     12  C   UNL A   1      31.811  26.759  22.908  1.00  0.00     0.042 A 
BRANCH  12  13
ATOM     13  N   UNL A   1      30.888  27.473  22.114  1.00  0.00    -0.352 N 
ATOM     14  H   UNL A   1      31.001  27.371  21.140  1.00  0.00     0.167 HD
BRANCH  13  15
ATOM     15  C   UNL A   1      29.822  28.315  22.519  1.00  0.00     0.094 A 
ATOM     16  C   UNL A   1      29.792  29.657  22.122  1.00  0.00     0.148 A 
ATOM     17  C   UNL A   1      28.671  27.818  23.157  1.00  0.00     0.067 A 
ATOM     18  F   UNL A   1      30.852  30.198  21.500  1.00  0.00    -0.205 F 
ATOM     19  C   UNL A   1      28.681  30.471  22.351  1.00  0.00     0.041 A 
ATOM     20  C   UNL A   1      27.525  28.607  23.327  1.00  0.00     0.023 A 
ATOM     21  Cl  UNL A   1      28.650  26.281  23.932  1.00  0.00    -0.082 Cl
ATOM     22  C   UNL A   1      27.533  29.938  22.930  1.00  0.00     0.005 A 
ENDBRANCH  13  15
ENDBRANCH  12  13
ENDBRANCH   5   6
ENDBRANCH   3   5
ENDBRANCH   2   3
ENDBRANCH   1   2
BRANCH   1  23
ATOM     23  C   UNL A   1      35.071  29.338  27.653  1.00  0.00     0.275 C 
BRANCH  23  24
ATOM     24  O   UNL A   1      35.365  30.603  28.365  1.00  0.00    -0.458 OA
BRANCH  24  25
ATOM     25  C   UNL A   1      36.116  30.859  29.474  1.00  0.00     0.338 C 
ATOM     26  O   UNL A   1      35.779  31.661  30.334  1.00  0.00    -0.246 OA
BRANCH  25  27
ATOM     27  C   UNL A   1      37.339  30.069  29.641  1.00  0.00     0.060 A 
ATOM     28  C   UNL A   1      37.377  28.882  30.395  1.00  0.00     0.016 A 
ATOM     29  C   UNL A   1      38.418  30.459  28.879  1.00  0.00     0.016 A 
ATOM     30  C   UNL A   1      38.474  28.034  30.260  1.00  0.00     0.010 A 
ATOM     31  C   UNL A   1      39.300  29.501  28.495  1.00  0.00     0.010 A 
ATOM     32  C   UNL A   1      39.411  28.349  29.276  1.00  0.00    -0.014 A 
BRANCH  32  33
ATOM     33  C   UNL A   1      40.749  27.798  29.184  1.00  0.00     0.031 A 
ATOM     34  C   UNL A   1      41.023  26.528  28.519  1.00  0.00     0.074 A 
ATOM     35  C   UNL A   1      41.688  28.653  29.655  1.00  0.00     0.049 A 
ATOM     36  N   UNL A   1      41.846  25.650  28.978  1.00  0.00    -0.248 NA
ATOM     37  C   UNL A   1      40.377  26.125  27.272  1.00  0.00     0.031 C 
ATOM     38  C   UNL A   1      43.129  28.659  29.551  1.00  0.00     0.029 A 
ATOM     39  N   UNL A   1      41.413  29.770  30.461  1.00  0.00    -0.354 N 
ATOM     40  C   UNL A   1      42.111  24.798  27.929  1.00  0.00     0.074 A 
ATOM     41  C   UNL A   1      41.047  25.003  26.973  1.00  0.00     0.031 C 
ATOM     42  C   UNL A   1      43.616  29.505  30.486  1.00  0.00     0.029 A 
ATOM     43  C   UNL A   1      42.499  30.001  31.287  1.00  0.00     0.049 A 
ATOM     44  H   UNL A   1      40.584  30.300  30.440  1.00  0.00     0.167 HD
ATOM     45  C   UNL A   1      43.344  24.228  27.820  1.00  0.00     0.037 A 
ATOM     46  C   UNL A   1      42.283  29.825  32.623  1.00  0.00     0.037 A 
ATOM     47  C   UNL A   1      44.240  24.785  28.831  1.00  0.00     0.049 A 
ATOM     48  C   UNL A   1      42.965  28.563  33.085  1.00  0.00     0.074 A 
ATOM     49  C   UNL A   1      45.143  25.835  28.756  1.00  0.00     0.029 A 
ATOM     50  N   UNL A   1      43.984  24.589  30.184  1.00  0.00    -0.354 N 
ATOM     51  N   UNL A   1      43.271  27.571  32.294  1.00  0.00    -0.248 NA
ATOM     52  C   UNL A   1      43.411  28.352  34.455  1.00  0.00     0.031 C 
ATOM     53  C   UNL A   1      45.383  26.310  30.068  1.00  0.00     0.029 A 
ATOM     54  C   UNL A   1      44.626  25.552  30.943  1.00  0.00     0.049 A 
ATOM     55  H   UNL A   1      43.424  23.866  30.550  1.00  0.00     0.167 HD
ATOM     56  C   UNL A   1      43.998  26.646  32.987  1.00  0.00     0.074 A 
ATOM     57  C   UNL A   1      44.046  27.171  34.341  1.00  0.00     0.031 C 
ATOM     58  C   UNL A   1      44.533  25.539  32.395  1.00  0.00     0.037 A 
BRANCH  45  59
ATOM     59  C   UNL A   1      43.806  23.504  26.580  1.00  0.00     0.057 A 
ATOM     60  C   UNL A   1      43.586  22.125  26.398  1.00  0.00     0.134 A 
ATOM     61  C   UNL A   1      44.472  24.139  25.516  1.00  0.00     0.134 A 
ATOM     62  F   UNL A   1      42.915  21.391  27.294  1.00  0.00    -0.206 F 
ATOM     63  C   UNL A   1      44.050  21.418  25.282  1.00  0.00     0.040 A 
ATOM     64  C   UNL A   1      44.965  23.439  24.404  1.00  0.00     0.040 A 
ATOM     65  F   UNL A   1      44.652  25.468  25.511  1.00  0.00    -0.206 F 
ATOM     66  C   UNL A   1      44.759  22.070  24.287  1.00  0.00     0.006 A 
ENDBRANCH  45  59
BRANCH  46  67
ATOM     67  C   UNL A   1      40.938  30.328  33.075  1.00  0.00     0.057 A 
ATOM     68  C   UNL A   1      40.690  31.719  33.017  1.00  0.00     0.134 A 
ATOM     69  C   UNL A   1      39.813  29.512  33.237  1.00  0.00     0.134 A 
ATOM     70  F   UNL A   1      41.711  32.577  32.856  1.00  0.00    -0.206 F 
ATOM     71  C   UNL A   1      39.397  32.259  33.016  1.00  0.00     0.040 A 
ATOM     72  C   UNL A   1      38.511  30.045  33.258  1.00  0.00     0.040 A 
ATOM     73  F   UNL A   1      39.937  28.179  33.293  1.00  0.00    -0.206 F 
ATOM     74  C   UNL A   1      38.298  31.416  33.112  1.00  0.00     0.006 A 
ENDBRANCH  46  67
BRANCH  58  75
ATOM     75  C   UNL A   1      45.133  24.371  33.123  1.00  0.00     0.057 A 
ATOM     76  C   UNL A   1      46.402  24.396  33.711  1.00  0.00     0.134 A 
ATOM     77  C   UNL A   1      44.353  23.226  33.403  1.00  0.00     0.134 A 
ATOM     78  F   UNL A   1      47.198  25.470  33.619  1.00  0.00    -0.206 F 
ATOM     79  C   UNL A   1      46.887  23.330  34.475  1.00  0.00     0.040 A 
ATOM     80  C   UNL A   1      44.801  22.190  34.220  1.00  0.00     0.040 A 
ATOM     81  F   UNL A   1      43.111  23.076  32.919  1.00  0.00    -0.206 F 
ATOM     82  C   UNL A   1      46.081  22.231  34.745  1.00  0.00     0.006 A 
ENDBRANCH  58  75
ENDBRANCH  32  33
ENDBRANCH  25  27
ENDBRANCH  24  25
ENDBRANCH  23  24
ENDBRANCH   1  23
TORSDOF 14
ENDMDL
