MODEL 1
REMARK VINA RESULT:     -12.6      0.000      0.000
REMARK SMILES CCc1ccc(C[NH+]2CCC3(CC2)[C@@H](C(=O)OCCOC(=O)c2ccc(-c4c5nc(c(-c6c(F)cccc6F)c6ccc([nH]6)c(-c6c(F)cccc6F)c6nc(c(-c7c(F)cccc7F)c7ccc4[nH]7)C=C6)C=C5)cc2)CC(=O)N3C)nc1
REMARK SMILES IDX 18 1 17 2 15 3 16 4 14 5 8 6 9 7 13 8 10 10 12 11 11 12
REMARK SMILES IDX 80 13 77 14 78 15 81 16 79 17 7 18 6 19 3 20 4 21 83 22 5 23
REMARK SMILES IDX 82 24 2 25 1 26 19 27 20 28 21 29 22 30 23 31 24 32 76 33
REMARK SMILES IDX 25 34 75 35 26 36 27 37 28 38 69 39 29 40 74 41 68 42 70 43
REMARK SMILES IDX 30 44 73 45 67 46 66 47 31 49 57 50 40 51 56 52 41 53 44 54
REMARK SMILES IDX 55 55 71 56 42 57 43 58 54 60 72 61 45 62 32 63 33 64 38 65
REMARK SMILES IDX 34 66 35 67 37 68 39 69 36 70 58 71 59 72 64 73 60 74 61 75
REMARK SMILES IDX 63 76 65 77 62 78 46 79 47 80 52 81 48 82 49 83 51 84 53 85
REMARK SMILES IDX 50 86
REMARK H PARENT 8 9 70 48 44 59
REMARK Flexibility Score: inf
ROOT
ATOM      1  C   UNL A   1      32.279  28.662  25.473  1.00  0.00     0.274 C 
ENDROOT
BRANCH   1   2
ATOM      2  O   UNL A   1      31.024  28.000  25.740  1.00  0.00    -0.462 OA
BRANCH   2   3
ATOM      3  C   UNL A   1      31.032  26.673  25.976  1.00  0.00     0.311 C 
ATOM      4  O   UNL A   1      31.403  26.187  27.042  1.00  0.00    -0.252 OA
BRANCH   3   5
ATOM      5  C   UNL A   1      30.703  25.797  24.763  1.00  0.00     0.134 C 
ATOM      6  N   UNL A   1      33.289  22.450  23.878  1.00  0.00    -0.330 N 
ATOM      7  C   UNL A   1      32.096  22.572  23.059  1.00  0.00     0.265 C 
ATOM      8  C   UNL A   1      34.001  23.713  24.009  1.00  0.00     0.265 C 
ATOM      9  H   UNL A   1      33.896  21.841  23.328  1.00  0.00     0.348 HD
ATOM     10  C   UNL A   1      31.127  23.677  23.479  1.00  0.00     0.091 C 
ATOM     11  C   UNL A   1      33.139  24.853  24.540  1.00  0.00     0.091 C 
ATOM     12  C   UNL A   1      31.765  25.045  23.876  1.00  0.00     0.067 C 
ATOM     13  N   UNL A   1      31.832  25.908  22.678  1.00  0.00    -0.339 N 
ATOM     14  C   UNL A   1      29.878  26.618  23.754  1.00  0.00     0.118 C 
ATOM     15  C   UNL A   1      30.790  26.811  22.581  1.00  0.00     0.223 C 
ATOM     16  C   UNL A   1      32.835  25.811  21.634  1.00  0.00     0.147 C 
ATOM     17  O   UNL A   1      30.602  27.616  21.684  1.00  0.00    -0.275 OA
BRANCH   6  18
ATOM     18  C   UNL A   1      33.203  21.626  25.097  1.00  0.00     0.319 C 
BRANCH  18  19
ATOM     19  C   UNL A   1      33.359  20.115  24.995  1.00  0.00     0.095 A 
ATOM     20  C   UNL A   1      33.568  17.362  24.703  1.00  0.00    -0.030 A 
ATOM     21  C   UNL A   1      34.683  18.171  24.489  1.00  0.00     0.007 A 
ATOM     22  C   UNL A   1      32.406  18.000  25.117  1.00  0.00     0.115 A 
ATOM     23  C   UNL A   1      34.586  19.552  24.655  1.00  0.00     0.030 A 
ATOM     24  N   UNL A   1      32.275  19.342  25.255  1.00  0.00    -0.255 NA
BRANCH  20  25
ATOM     25  C   UNL A   1      33.643  15.869  24.522  1.00  0.00     0.034 C 
ATOM     26  C   UNL A   1      32.687  15.096  25.419  1.00  0.00     0.009 C 
ENDBRANCH  20  25
ENDBRANCH  18  19
ENDBRANCH   6  18
ENDBRANCH   3   5
ENDBRANCH   2   3
ENDBRANCH   1   2
BRANCH   1  27
ATOM     27  C   UNL A   1      32.174  30.157  25.743  1.00  0.00     0.275 C 
BRANCH  27  28
ATOM     28  O   UNL A   1      32.566  30.397  27.100  1.00  0.00    -0.458 OA
BRANCH  28  29
ATOM     29  C   UNL A   1      33.185  31.574  27.311  1.00  0.00     0.338 C 
ATOM     30  O   UNL A   1      32.718  32.702  27.250  1.00  0.00    -0.246 OA
BRANCH  29  31
ATOM     31  C   UNL A   1      34.527  31.283  27.805  1.00  0.00     0.060 A 
ATOM     32  C   UNL A   1      34.815  29.971  28.184  1.00  0.00     0.016 A 
ATOM     33  C   UNL A   1      35.456  32.305  27.967  1.00  0.00     0.016 A 
ATOM     34  C   UNL A   1      36.029  29.672  28.780  1.00  0.00     0.010 A 
ATOM     35  C   UNL A   1      36.689  31.999  28.539  1.00  0.00     0.010 A 
ATOM     36  C   UNL A   1      36.969  30.688  28.972  1.00  0.00    -0.014 A 
BRANCH  36  37
ATOM     37  C   UNL A   1      38.209  30.418  29.727  1.00  0.00     0.031 A 
ATOM     38  C   UNL A   1      39.253  29.544  29.102  1.00  0.00     0.074 A 
ATOM     39  C   UNL A   1      38.389  30.942  30.951  1.00  0.00     0.049 A 
ATOM     40  N   UNL A   1      40.270  28.942  29.656  1.00  0.00    -0.248 NA
ATOM     41  C   UNL A   1      39.114  29.293  27.657  1.00  0.00     0.031 C 
ATOM     42  C   UNL A   1      37.478  31.871  31.619  1.00  0.00     0.029 A 
ATOM     43  N   UNL A   1      39.401  30.752  31.855  1.00  0.00    -0.354 N 
ATOM     44  C   UNL A   1      40.855  28.191  28.645  1.00  0.00     0.074 A 
ATOM     45  C   UNL A   1      40.087  28.420  27.442  1.00  0.00     0.031 C 
ATOM     46  C   UNL A   1      37.973  32.172  32.831  1.00  0.00     0.029 A 
ATOM     47  C   UNL A   1      39.191  31.398  33.048  1.00  0.00     0.049 A 
ATOM     48  H   UNL A   1      40.198  30.206  31.669  1.00  0.00     0.167 HD
ATOM     49  C   UNL A   1      41.930  27.374  28.732  1.00  0.00     0.037 A 
ATOM     50  C   UNL A   1      39.879  31.327  34.202  1.00  0.00     0.037 A 
ATOM     51  C   UNL A   1      42.708  27.208  29.931  1.00  0.00     0.049 A 
ATOM     52  C   UNL A   1      41.064  30.408  34.279  1.00  0.00     0.074 A 
ATOM     53  C   UNL A   1      43.811  26.403  30.144  1.00  0.00     0.029 A 
ATOM     54  N   UNL A   1      42.469  27.888  31.117  1.00  0.00    -0.354 N 
ATOM     55  N   UNL A   1      41.560  29.621  33.352  1.00  0.00    -0.248 NA
ATOM     56  C   UNL A   1      41.772  30.347  35.563  1.00  0.00     0.031 C 
ATOM     57  C   UNL A   1      44.229  26.582  31.469  1.00  0.00     0.029 A 
ATOM     58  C   UNL A   1      43.406  27.523  32.068  1.00  0.00     0.049 A 
ATOM     59  H   UNL A   1      41.741  28.535  31.261  1.00  0.00     0.167 HD
ATOM     60  C   UNL A   1      42.641  28.978  33.937  1.00  0.00     0.074 A 
ATOM     61  C   UNL A   1      42.740  29.481  35.293  1.00  0.00     0.031 C 
ATOM     62  C   UNL A   1      43.474  28.049  33.407  1.00  0.00     0.037 A 
BRANCH  49  63
ATOM     63  C   UNL A   1      42.290  26.573  27.516  1.00  0.00     0.057 A 
ATOM     64  C   UNL A   1      41.806  25.277  27.304  1.00  0.00     0.134 A 
ATOM     65  C   UNL A   1      43.130  27.118  26.536  1.00  0.00     0.134 A 
ATOM     66  F   UNL A   1      41.014  24.690  28.214  1.00  0.00    -0.206 F 
ATOM     67  C   UNL A   1      42.159  24.544  26.169  1.00  0.00     0.040 A 
ATOM     68  C   UNL A   1      43.471  26.404  25.386  1.00  0.00     0.040 A 
ATOM     69  F   UNL A   1      43.630  28.354  26.678  1.00  0.00    -0.206 F 
ATOM     70  C   UNL A   1      42.989  25.109  25.203  1.00  0.00     0.006 A 
ENDBRANCH  49  63
BRANCH  50  71
ATOM     71  C   UNL A   1      39.429  32.111  35.378  1.00  0.00     0.057 A 
ATOM     72  C   UNL A   1      38.542  31.568  36.313  1.00  0.00     0.134 A 
ATOM     73  C   UNL A   1      39.897  33.411  35.610  1.00  0.00     0.134 A 
ATOM     74  F   UNL A   1      38.043  30.337  36.133  1.00  0.00    -0.206 F 
ATOM     75  C   UNL A   1      38.135  32.288  37.437  1.00  0.00     0.040 A 
ATOM     76  C   UNL A   1      39.518  34.133  36.742  1.00  0.00     0.040 A 
ATOM     77  F   UNL A   1      40.751  33.987  34.753  1.00  0.00    -0.206 F 
ATOM     78  C   UNL A   1      38.631  33.573  37.659  1.00  0.00     0.006 A 
ENDBRANCH  50  71
BRANCH  62  79
ATOM     79  C   UNL A   1      44.571  27.548  34.293  1.00  0.00     0.057 A 
ATOM     80  C   UNL A   1      45.807  28.200  34.371  1.00  0.00     0.134 A 
ATOM     81  C   UNL A   1      44.376  26.418  35.095  1.00  0.00     0.134 A 
ATOM     82  F   UNL A   1      46.055  29.281  33.615  1.00  0.00    -0.206 F 
ATOM     83  C   UNL A   1      46.823  27.731  35.203  1.00  0.00     0.040 A 
ATOM     84  C   UNL A   1      45.376  25.951  35.946  1.00  0.00     0.040 A 
ATOM     85  F   UNL A   1      43.210  25.756  35.068  1.00  0.00    -0.206 F 
ATOM     86  C   UNL A   1      46.607  26.606  35.998  1.00  0.00     0.006 A 
ENDBRANCH  62  79
ENDBRANCH  36  37
ENDBRANCH  29  31
ENDBRANCH  28  29
ENDBRANCH  27  28
ENDBRANCH   1  27
TORSDOF 14
ENDMDL
MODEL 2
REMARK VINA RESULT:     -12.5      1.888      3.035
REMARK SMILES CCc1ccc(C[NH+]2CCC3(CC2)[C@@H](C(=O)OCCOC(=O)c2ccc(-c4c5nc(c(-c6c(F)cccc6F)c6ccc([nH]6)c(-c6c(F)cccc6F)c6nc(c(-c7c(F)cccc7F)c7ccc4[nH]7)C=C6)C=C5)cc2)CC(=O)N3C)nc1
REMARK SMILES IDX 18 1 17 2 15 3 16 4 14 5 8 6 9 7 13 8 10 10 12 11 11 12
REMARK SMILES IDX 80 13 77 14 78 15 81 16 79 17 7 18 6 19 3 20 4 21 83 22 5 23
REMARK SMILES IDX 82 24 2 25 1 26 19 27 20 28 21 29 22 30 23 31 24 32 76 33
REMARK SMILES IDX 25 34 75 35 26 36 27 37 28 38 69 39 29 40 74 41 68 42 70 43
REMARK SMILES IDX 30 44 73 45 67 46 66 47 31 49 57 50 40 51 56 52 41 53 44 54
REMARK SMILES IDX 55 55 71 56 42 57 43 58 54 60 72 61 45 62 32 63 33 64 38 65
REMARK SMILES IDX 34 66 35 67 37 68 39 69 36 70 58 71 59 72 64 73 60 74 61 75
REMARK SMILES IDX 63 76 65 77 62 78 46 79 47 80 52 81 48 82 49 83 51 84 53 85
REMARK SMILES IDX 50 86
REMARK H PARENT 8 9 70 48 44 59
REMARK Flexibility Score: inf
ROOT
ATOM      1  C   UNL A   1      31.816  29.613  24.351  1.00  0.00     0.274 C 
ENDROOT
BRANCH   1   2
ATOM      2  O   UNL A   1      31.853  28.170  24.378  1.00  0.00    -0.462 OA
BRANCH   2   3
ATOM      3  C   UNL A   1      33.047  27.557  24.510  1.00  0.00     0.311 C 
ATOM      4  O   UNL A   1      34.027  27.853  23.832  1.00  0.00    -0.252 OA
BRANCH   3   5
ATOM      5  C   UNL A   1      33.053  26.347  25.450  1.00  0.00     0.134 C 
ATOM      6  N   UNL A   1      34.817  22.659  24.049  1.00  0.00    -0.330 N 
ATOM      7  C   UNL A   1      34.387  22.678  25.437  1.00  0.00     0.265 C 
ATOM      8  C   UNL A   1      33.805  23.196  23.150  1.00  0.00     0.265 C 
ATOM      9  H   UNL A   1      34.886  21.664  23.833  1.00  0.00     0.348 HD
ATOM     10  C   UNL A   1      33.898  24.032  25.949  1.00  0.00     0.091 C 
ATOM     11  C   UNL A   1      33.339  24.601  23.515  1.00  0.00     0.091 C 
ATOM     12  C   UNL A   1      32.972  24.843  24.989  1.00  0.00     0.067 C 
ATOM     13  N   UNL A   1      31.563  24.506  25.284  1.00  0.00    -0.339 N 
ATOM     14  C   UNL A   1      31.910  26.493  26.472  1.00  0.00     0.118 C 
ATOM     15  C   UNL A   1      30.932  25.418  26.109  1.00  0.00     0.223 C 
ATOM     16  C   UNL A   1      30.880  23.308  24.833  1.00  0.00     0.147 C 
ATOM     17  O   UNL A   1      29.783  25.361  26.517  1.00  0.00    -0.275 OA
BRANCH   6  18
ATOM     18  C   UNL A   1      36.210  23.042  23.757  1.00  0.00     0.319 C 
BRANCH  18  19
ATOM     19  C   UNL A   1      37.305  22.716  24.762  1.00  0.00     0.095 A 
ATOM     20  C   UNL A   1      39.383  22.098  26.498  1.00  0.00    -0.030 A 
ATOM     21  C   UNL A   1      38.911  23.408  26.415  1.00  0.00     0.007 A 
ATOM     22  C   UNL A   1      38.725  21.149  25.726  1.00  0.00     0.115 A 
ATOM     23  C   UNL A   1      37.854  23.716  25.559  1.00  0.00     0.030 A 
ATOM     24  N   UNL A   1      37.717  21.427  24.863  1.00  0.00    -0.255 NA
BRANCH  20  25
ATOM     25  C   UNL A   1      40.528  21.740  27.406  1.00  0.00     0.034 C 
ATOM     26  C   UNL A   1      41.730  21.160  26.674  1.00  0.00     0.009 C 
ENDBRANCH  20  25
ENDBRANCH  18  19
ENDBRANCH   6  18
ENDBRANCH   3   5
ENDBRANCH   2   3
ENDBRANCH   1   2
BRANCH   1  27
ATOM     27  C   UNL A   1      31.518  30.175  25.735  1.00  0.00     0.275 C 
BRANCH  27  28
ATOM     28  O   UNL A   1      32.716  30.105  26.516  1.00  0.00    -0.458 OA
BRANCH  28  29
ATOM     29  C   UNL A   1      33.099  31.271  27.071  1.00  0.00     0.338 C 
ATOM     30  O   UNL A   1      32.437  32.283  27.251  1.00  0.00    -0.246 OA
BRANCH  29  31
ATOM     31  C   UNL A   1      34.447  31.086  27.597  1.00  0.00     0.060 A 
ATOM     32  C   UNL A   1      34.880  29.783  27.846  1.00  0.00     0.016 A 
ATOM     33  C   UNL A   1      35.237  32.185  27.916  1.00  0.00     0.016 A 
ATOM     34  C   UNL A   1      36.098  29.563  28.467  1.00  0.00     0.010 A 
ATOM     35  C   UNL A   1      36.476  31.964  28.513  1.00  0.00     0.010 A 
ATOM     36  C   UNL A   1      36.899  30.654  28.815  1.00  0.00    -0.014 A 
BRANCH  36  37
ATOM     37  C   UNL A   1      38.134  30.448  29.598  1.00  0.00     0.031 A 
ATOM     38  C   UNL A   1      39.230  29.617  29.002  1.00  0.00     0.074 A 
ATOM     39  C   UNL A   1      38.264  30.990  30.820  1.00  0.00     0.049 A 
ATOM     40  N   UNL A   1      40.261  29.067  29.584  1.00  0.00    -0.248 NA
ATOM     41  C   UNL A   1      39.133  29.348  27.558  1.00  0.00     0.031 C 
ATOM     42  C   UNL A   1      37.297  31.882  31.460  1.00  0.00     0.029 A 
ATOM     43  N   UNL A   1      39.264  30.854  31.747  1.00  0.00    -0.354 N 
ATOM     44  C   UNL A   1      40.901  28.335  28.592  1.00  0.00     0.074 A 
ATOM     45  C   UNL A   1      40.148  28.519  27.371  1.00  0.00     0.031 C 
ATOM     46  C   UNL A   1      37.753  32.216  32.679  1.00  0.00     0.029 A 
ATOM     47  C   UNL A   1      38.999  31.500  32.929  1.00  0.00     0.049 A 
ATOM     48  H   UNL A   1      40.089  30.344  31.582  1.00  0.00     0.167 HD
ATOM     49  C   UNL A   1      42.010  27.570  28.709  1.00  0.00     0.037 A 
ATOM     50  C   UNL A   1      39.665  31.471  34.097  1.00  0.00     0.037 A 
ATOM     51  C   UNL A   1      42.769  27.449  29.925  1.00  0.00     0.049 A 
ATOM     52  C   UNL A   1      40.890  30.608  34.207  1.00  0.00     0.074 A 
ATOM     53  C   UNL A   1      43.904  26.698  30.169  1.00  0.00     0.029 A 
ATOM     54  N   UNL A   1      42.475  28.128  31.099  1.00  0.00    -0.354 N 
ATOM     55  N   UNL A   1      41.440  29.837  33.298  1.00  0.00    -0.248 NA
ATOM     56  C   UNL A   1      41.572  30.590  35.506  1.00  0.00     0.031 C 
ATOM     57  C   UNL A   1      44.285  26.907  31.500  1.00  0.00     0.029 A 
ATOM     58  C   UNL A   1      43.407  27.814  32.073  1.00  0.00     0.049 A 
ATOM     59  H   UNL A   1      41.715  28.742  31.222  1.00  0.00     0.167 HD
ATOM     60  C   UNL A   1      42.537  29.249  33.912  1.00  0.00     0.074 A 
ATOM     61  C   UNL A   1      42.584  29.768  35.265  1.00  0.00     0.031 C 
ATOM     62  C   UNL A   1      43.423  28.355  33.408  1.00  0.00     0.037 A 
BRANCH  49  63
ATOM     63  C   UNL A   1      42.432  26.776  27.509  1.00  0.00     0.057 A 
ATOM     64  C   UNL A   1      42.009  25.458  27.297  1.00  0.00     0.134 A 
ATOM     65  C   UNL A   1      43.270  27.349  26.542  1.00  0.00     0.134 A 
ATOM     66  F   UNL A   1      41.223  24.844  28.194  1.00  0.00    -0.206 F 
ATOM     67  C   UNL A   1      42.420  24.732  26.176  1.00  0.00     0.040 A 
ATOM     68  C   UNL A   1      43.667  26.641  25.407  1.00  0.00     0.040 A 
ATOM     69  F   UNL A   1      43.713  28.607  26.684  1.00  0.00    -0.206 F 
ATOM     70  C   UNL A   1      43.246  25.325  25.224  1.00  0.00     0.006 A 
ENDBRANCH  49  63
BRANCH  50  71
ATOM     71  C   UNL A   1      39.156  32.244  35.256  1.00  0.00     0.057 A 
ATOM     72  C   UNL A   1      39.434  33.608  35.394  1.00  0.00     0.134 A 
ATOM     73  C   UNL A   1      38.356  31.645  36.238  1.00  0.00     0.134 A 
ATOM     74  F   UNL A   1      40.213  34.231  34.498  1.00  0.00    -0.206 F 
ATOM     75  C   UNL A   1      38.936  34.349  36.466  1.00  0.00     0.040 A 
ATOM     76  C   UNL A   1      37.832  32.380  37.302  1.00  0.00     0.040 A 
ATOM     77  F   UNL A   1      38.051  30.342  36.162  1.00  0.00    -0.206 F 
ATOM     78  C   UNL A   1      38.125  33.737  37.420  1.00  0.00     0.006 A 
ENDBRANCH  50  71
BRANCH  62  79
ATOM     79  C   UNL A   1      44.523  27.913  34.321  1.00  0.00     0.057 A 
ATOM     80  C   UNL A   1      44.396  26.776  35.126  1.00  0.00     0.134 A 
ATOM     81  C   UNL A   1      45.730  28.620  34.373  1.00  0.00     0.134 A 
ATOM     82  F   UNL A   1      43.257  26.067  35.127  1.00  0.00    -0.206 F 
ATOM     83  C   UNL A   1      45.428  26.366  35.970  1.00  0.00     0.040 A 
ATOM     84  C   UNL A   1      46.776  28.209  35.197  1.00  0.00     0.040 A 
ATOM     85  F   UNL A   1      45.912  29.714  33.619  1.00  0.00    -0.206 F 
ATOM     86  C   UNL A   1      46.625  27.081  36.003  1.00  0.00     0.006 A 
ENDBRANCH  62  79
ENDBRANCH  36  37
ENDBRANCH  29  31
ENDBRANCH  28  29
ENDBRANCH  27  28
ENDBRANCH   1  27
TORSDOF 14
ENDMDL
MODEL 3
REMARK VINA RESULT:     -12.2      4.083      9.336
REMARK SMILES CCc1ccc(C[NH+]2CCC3(CC2)[C@@H](C(=O)OCCOC(=O)c2ccc(-c4c5nc(c(-c6c(F)cccc6F)c6ccc([nH]6)c(-c6c(F)cccc6F)c6nc(c(-c7c(F)cccc7F)c7ccc4[nH]7)C=C6)C=C5)cc2)CC(=O)N3C)nc1
REMARK SMILES IDX 18 1 17 2 15 3 16 4 14 5 8 6 9 7 13 8 10 10 12 11 11 12
REMARK SMILES IDX 80 13 77 14 78 15 81 16 79 17 7 18 6 19 3 20 4 21 83 22 5 23
REMARK SMILES IDX 82 24 2 25 1 26 19 27 20 28 21 29 22 30 23 31 24 32 76 33
REMARK SMILES IDX 25 34 75 35 26 36 27 37 28 38 69 39 29 40 74 41 68 42 70 43
REMARK SMILES IDX 30 44 73 45 67 46 66 47 31 49 57 50 40 51 56 52 41 53 44 54
REMARK SMILES IDX 55 55 71 56 42 57 43 58 54 60 72 61 45 62 32 63 33 64 38 65
REMARK SMILES IDX 34 66 35 67 37 68 39 69 36 70 58 71 59 72 64 73 60 74 61 75
REMARK SMILES IDX 63 76 65 77 62 78 46 79 47 80 52 81 48 82 49 83 51 84 53 85
REMARK SMILES IDX 50 86
REMARK H PARENT 8 9 70 48 44 59
REMARK Flexibility Score: inf
ROOT
ATOM      1  C   UNL A   1      35.494  21.477  25.574  1.00  0.00     0.274 C 
ENDROOT
BRANCH   1   2
ATOM      2  O   UNL A   1      35.499  22.813  25.028  1.00  0.00    -0.462 OA
BRANCH   2   3
ATOM      3  C   UNL A   1      35.031  23.001  23.777  1.00  0.00     0.311 C 
ATOM      4  O   UNL A   1      35.764  23.202  22.813  1.00  0.00    -0.252 OA
BRANCH   3   5
ATOM      5  C   UNL A   1      33.507  23.114  23.667  1.00  0.00     0.134 C 
ATOM      6  N   UNL A   1      31.548  26.478  25.543  1.00  0.00    -0.330 N 
ATOM      7  C   UNL A   1      30.702  25.607  24.745  1.00  0.00     0.265 C 
ATOM      8  C   UNL A   1      32.412  25.732  26.447  1.00  0.00     0.265 C 
ATOM      9  H   UNL A   1      30.885  26.978  26.136  1.00  0.00     0.348 HD
ATOM     10  C   UNL A   1      31.438  24.509  23.978  1.00  0.00     0.091 C 
ATOM     11  C   UNL A   1      33.277  24.688  25.751  1.00  0.00     0.091 C 
ATOM     12  C   UNL A   1      32.566  23.759  24.753  1.00  0.00     0.067 C 
ATOM     13  N   UNL A   1      31.987  22.565  25.406  1.00  0.00    -0.339 N 
ATOM     14  C   UNL A   1      32.911  21.713  23.431  1.00  0.00     0.118 C 
ATOM     15  C   UNL A   1      32.170  21.395  24.693  1.00  0.00     0.223 C 
ATOM     16  C   UNL A   1      31.227  22.576  26.642  1.00  0.00     0.147 C 
ATOM     17  O   UNL A   1      31.773  20.282  25.001  1.00  0.00    -0.275 OA
BRANCH   6  18
ATOM     18  C   UNL A   1      32.161  27.640  24.874  1.00  0.00     0.319 C 
BRANCH  18  19
ATOM     19  C   UNL A   1      32.694  28.794  25.713  1.00  0.00     0.095 A 
ATOM     20  C   UNL A   1      33.591  30.857  27.340  1.00  0.00    -0.030 A 
ATOM     21  C   UNL A   1      34.463  29.834  26.968  1.00  0.00     0.007 A 
ATOM     22  C   UNL A   1      32.309  30.806  26.808  1.00  0.00     0.115 A 
ATOM     23  C   UNL A   1      34.020  28.807  26.134  1.00  0.00     0.030 A 
ATOM     24  N   UNL A   1      31.843  29.804  26.023  1.00  0.00    -0.255 NA
BRANCH  20  25
ATOM     25  C   UNL A   1      34.041  31.971  28.246  1.00  0.00     0.034 C 
ATOM     26  C   UNL A   1      35.327  32.647  27.791  1.00  0.00     0.009 C 
ENDBRANCH  20  25
ENDBRANCH  18  19
ENDBRANCH   6  18
ENDBRANCH   3   5
ENDBRANCH   2   3
ENDBRANCH   1   2
BRANCH   1  27
ATOM     27  C   UNL A   1      36.642  20.653  25.005  1.00  0.00     0.275 C 
BRANCH  27  28
ATOM     28  O   UNL A   1      37.817  21.472  24.988  1.00  0.00    -0.458 OA
BRANCH  28  29
ATOM     29  C   UNL A   1      38.824  21.035  25.769  1.00  0.00     0.338 C 
ATOM     30  O   UNL A   1      39.275  19.904  25.867  1.00  0.00    -0.246 OA
BRANCH  29  31
ATOM     31  C   UNL A   1      39.433  22.203  26.397  1.00  0.00     0.060 A 
ATOM     32  C   UNL A   1      38.947  23.463  26.045  1.00  0.00     0.016 A 
ATOM     33  C   UNL A   1      40.518  22.058  27.253  1.00  0.00     0.016 A 
ATOM     34  C   UNL A   1      39.577  24.605  26.512  1.00  0.00     0.010 A 
ATOM     35  C   UNL A   1      41.134  23.206  27.748  1.00  0.00     0.010 A 
ATOM     36  C   UNL A   1      40.683  24.482  27.358  1.00  0.00    -0.014 A 
BRANCH  36  37
ATOM     37  C   UNL A   1      41.450  25.680  27.754  1.00  0.00     0.031 A 
ATOM     38  C   UNL A   1      40.778  26.710  28.610  1.00  0.00     0.074 A 
ATOM     39  C   UNL A   1      42.721  25.841  27.348  1.00  0.00     0.049 A 
ATOM     40  N   UNL A   1      41.128  27.945  28.849  1.00  0.00    -0.248 NA
ATOM     41  C   UNL A   1      39.525  26.297  29.265  1.00  0.00     0.031 C 
ATOM     42  C   UNL A   1      43.498  24.865  26.584  1.00  0.00     0.029 A 
ATOM     43  N   UNL A   1      43.575  26.899  27.514  1.00  0.00    -0.354 N 
ATOM     44  C   UNL A   1      40.109  28.477  29.627  1.00  0.00     0.074 A 
ATOM     45  C   UNL A   1      39.132  27.429  29.830  1.00  0.00     0.031 C 
ATOM     46  C   UNL A   1      44.719  25.369  26.347  1.00  0.00     0.029 A 
ATOM     47  C   UNL A   1      44.779  26.729  26.875  1.00  0.00     0.049 A 
ATOM     48  H   UNL A   1      43.350  27.700  28.038  1.00  0.00     0.167 HD
ATOM     49  C   UNL A   1      40.003  29.736  30.111  1.00  0.00     0.037 A 
ATOM     50  C   UNL A   1      45.790  27.596  26.693  1.00  0.00     0.037 A 
ATOM     51  C   UNL A   1      41.017  30.742  29.939  1.00  0.00     0.049 A 
ATOM     52  C   UNL A   1      45.649  28.992  27.232  1.00  0.00     0.074 A 
ATOM     53  C   UNL A   1      41.020  32.054  30.375  1.00  0.00     0.029 A 
ATOM     54  N   UNL A   1      42.227  30.528  29.294  1.00  0.00    -0.354 N 
ATOM     55  N   UNL A   1      44.642  29.526  27.883  1.00  0.00    -0.248 NA
ATOM     56  C   UNL A   1      46.768  29.910  26.992  1.00  0.00     0.031 C 
ATOM     57  C   UNL A   1      42.227  32.641  29.975  1.00  0.00     0.029 A 
ATOM     58  C   UNL A   1      42.987  31.684  29.320  1.00  0.00     0.049 A 
ATOM     59  H   UNL A   1      42.504  29.679  28.879  1.00  0.00     0.167 HD
ATOM     60  C   UNL A   1      45.009  30.840  28.138  1.00  0.00     0.074 A 
ATOM     61  C   UNL A   1      46.339  31.014  27.588  1.00  0.00     0.031 C 
ATOM     62  C   UNL A   1      44.310  31.818  28.764  1.00  0.00     0.037 A 
BRANCH  49  63
ATOM     63  C   UNL A   1      38.735  30.098  30.825  1.00  0.00     0.057 A 
ATOM     64  C   UNL A   1      38.617  30.042  32.218  1.00  0.00     0.134 A 
ATOM     65  C   UNL A   1      37.614  30.522  30.098  1.00  0.00     0.134 A 
ATOM     66  F   UNL A   1      39.646  29.624  32.970  1.00  0.00    -0.206 F 
ATOM     67  C   UNL A   1      37.424  30.376  32.863  1.00  0.00     0.040 A 
ATOM     68  C   UNL A   1      36.424  30.882  30.733  1.00  0.00     0.040 A 
ATOM     69  F   UNL A   1      37.658  30.597  28.760  1.00  0.00    -0.206 F 
ATOM     70  C   UNL A   1      36.325  30.803  32.121  1.00  0.00     0.006 A 
ENDBRANCH  49  63
BRANCH  50  71
ATOM     71  C   UNL A   1      46.992  27.179  25.931  1.00  0.00     0.057 A 
ATOM     72  C   UNL A   1      47.081  27.386  24.550  1.00  0.00     0.134 A 
ATOM     73  C   UNL A   1      48.091  26.589  26.567  1.00  0.00     0.134 A 
ATOM     74  F   UNL A   1      46.051  27.926  23.882  1.00  0.00    -0.206 F 
ATOM     75  C   UNL A   1      48.218  27.022  23.829  1.00  0.00     0.040 A 
ATOM     76  C   UNL A   1      49.245  26.242  25.863  1.00  0.00     0.040 A 
ATOM     77  F   UNL A   1      48.070  26.366  27.889  1.00  0.00    -0.206 F 
ATOM     78  C   UNL A   1      49.309  26.455  24.487  1.00  0.00     0.006 A 
ENDBRANCH  50  71
BRANCH  62  79
ATOM     79  C   UNL A   1      44.988  33.145  28.903  1.00  0.00     0.057 A 
ATOM     80  C   UNL A   1      44.817  34.159  27.955  1.00  0.00     0.134 A 
ATOM     81  C   UNL A   1      45.800  33.414  30.011  1.00  0.00     0.134 A 
ATOM     82  F   UNL A   1      44.060  33.953  26.866  1.00  0.00    -0.206 F 
ATOM     83  C   UNL A   1      45.447  35.396  28.095  1.00  0.00     0.040 A 
ATOM     84  C   UNL A   1      46.420  34.652  30.171  1.00  0.00     0.040 A 
ATOM     85  F   UNL A   1      45.996  32.482  30.955  1.00  0.00    -0.206 F 
ATOM     86  C   UNL A   1      46.248  35.646  29.208  1.00  0.00     0.006 A 
ENDBRANCH  62  79
ENDBRANCH  36  37
ENDBRANCH  29  31
ENDBRANCH  28  29
ENDBRANCH  27  28
ENDBRANCH   1  27
TORSDOF 14
ENDMDL
