MODEL 1
REMARK VINA RESULT:     -11.8      0.000      0.000
REMARK SMILES O=C(OCCOC(=O)c1ccc(C[N@@H+]2CCN3C(=O)NC[C@@H]3C2)nc1)c1ccc(-c2c3nc(c(-c4c(F)cccc4F)c4ccc([nH]4)c(-c4c(F)cccc4F)c4nc(c(-c5c(F)cccc5F)c5ccc2[nH]5)C=C4)C=C3)cc1
REMARK SMILES IDX 4 1 3 2 2 3 1 4 26 5 27 6 79 7 28 8 78 9 29 10 30 11 31 12
REMARK SMILES IDX 72 13 32 14 77 15 71 16 73 17 33 18 76 19 70 20 69 21 34 23
REMARK SMILES IDX 60 24 43 25 59 26 44 27 47 28 58 29 74 30 45 31 46 32 57 34
REMARK SMILES IDX 75 35 48 36 35 37 36 38 41 39 37 40 38 41 40 42 42 43 39 44
REMARK SMILES IDX 61 45 62 46 67 47 63 48 64 49 66 50 68 51 65 52 49 53 50 54
REMARK SMILES IDX 55 55 51 56 52 57 54 58 56 59 53 60 5 61 6 62 7 63 8 64 9 65
REMARK SMILES IDX 10 66 25 67 11 68 24 69 12 70 13 71 14 72 15 73 23 74 16 76
REMARK SMILES IDX 22 77 17 78 21 79 18 80 20 81 19 82
REMARK H PARENT 73 22 47 33 14 75 20 83
REMARK Flexibility Score: inf
ROOT
ATOM      1  C   UNL A   1      31.485  32.204  26.928  1.00  0.00     0.275 C 
ENDROOT
BRANCH   1   2
ATOM      2  O   UNL A   1      32.377  33.333  26.974  1.00  0.00    -0.458 OA
BRANCH   2   3
ATOM      3  C   UNL A   1      32.960  33.935  28.038  1.00  0.00     0.338 C 
ATOM      4  O   UNL A   1      32.500  35.001  28.443  1.00  0.00    -0.246 OA
BRANCH   3   5
ATOM      5  C   UNL A   1      34.242  33.466  28.653  1.00  0.00     0.060 A 
ATOM      6  C   UNL A   1      35.518  33.941  28.349  1.00  0.00     0.016 A 
ATOM      7  C   UNL A   1      34.135  32.419  29.591  1.00  0.00     0.016 A 
ATOM      8  C   UNL A   1      36.648  33.421  28.987  1.00  0.00     0.010 A 
ATOM      9  C   UNL A   1      35.261  31.903  30.242  1.00  0.00     0.010 A 
ATOM     10  C   UNL A   1      36.529  32.394  29.927  1.00  0.00    -0.014 A 
BRANCH  10  11
ATOM     11  C   UNL A   1      37.757  31.750  30.440  1.00  0.00     0.031 A 
ATOM     12  C   UNL A   1      38.201  32.069  31.836  1.00  0.00     0.074 A 
ATOM     13  C   UNL A   1      38.407  30.828  29.709  1.00  0.00     0.049 A 
ATOM     14  N   UNL A   1      39.134  31.501  32.552  1.00  0.00    -0.248 NA
ATOM     15  C   UNL A   1      37.477  33.148  32.528  1.00  0.00     0.031 C 
ATOM     16  C   UNL A   1      38.020  30.393  28.369  1.00  0.00     0.029 A 
ATOM     17  N   UNL A   1      39.518  30.077  29.992  1.00  0.00    -0.354 N 
ATOM     18  C   UNL A   1      39.078  32.119  33.793  1.00  0.00     0.074 A 
ATOM     19  C   UNL A   1      38.068  33.151  33.712  1.00  0.00     0.031 C 
ATOM     20  C   UNL A   1      38.899  29.479  27.928  1.00  0.00     0.029 A 
ATOM     21  C   UNL A   1      39.894  29.241  28.969  1.00  0.00     0.049 A 
ATOM     22  H   UNL A   1      40.002  30.132  30.848  1.00  0.00     0.167 HD
ATOM     23  C   UNL A   1      39.783  31.830  34.910  1.00  0.00     0.037 A 
ATOM     24  C   UNL A   1      40.913  28.364  28.894  1.00  0.00     0.037 A 
ATOM     25  C   UNL A   1      40.811  30.828  34.971  1.00  0.00     0.049 A 
ATOM     26  C   UNL A   1      41.763  28.143  30.115  1.00  0.00     0.074 A 
ATOM     27  C   UNL A   1      41.598  30.459  36.046  1.00  0.00     0.029 A 
ATOM     28  N   UNL A   1      41.207  30.048  33.894  1.00  0.00    -0.354 N 
ATOM     29  N   UNL A   1      41.651  28.684  31.305  1.00  0.00    -0.248 NA
ATOM     30  C   UNL A   1      42.854  27.168  29.996  1.00  0.00     0.031 C 
ATOM     31  C   UNL A   1      42.503  29.486  35.605  1.00  0.00     0.029 A 
ATOM     32  C   UNL A   1      42.249  29.219  34.268  1.00  0.00     0.049 A 
ATOM     33  H   UNL A   1      40.807  30.081  32.996  1.00  0.00     0.167 HD
ATOM     34  C   UNL A   1      42.625  28.080  32.090  1.00  0.00     0.074 A 
ATOM     35  C   UNL A   1      43.318  27.134  31.237  1.00  0.00     0.031 C 
ATOM     36  C   UNL A   1      42.912  28.279  33.400  1.00  0.00     0.037 A 
BRANCH  23  37
ATOM     37  C   UNL A   1      39.463  32.634  36.133  1.00  0.00     0.057 A 
ATOM     38  C   UNL A   1      38.485  32.219  37.049  1.00  0.00     0.134 A 
ATOM     39  C   UNL A   1      40.104  33.853  36.379  1.00  0.00     0.134 A 
ATOM     40  F   UNL A   1      37.815  31.072  36.857  1.00  0.00    -0.206 F 
ATOM     41  C   UNL A   1      38.135  33.006  38.148  1.00  0.00     0.040 A 
ATOM     42  C   UNL A   1      39.778  34.637  37.486  1.00  0.00     0.040 A 
ATOM     43  F   UNL A   1      41.046  34.308  35.538  1.00  0.00    -0.206 F 
ATOM     44  C   UNL A   1      38.783  34.218  38.369  1.00  0.00     0.006 A 
ENDBRANCH  23  37
BRANCH  24  45
ATOM     45  C   UNL A   1      41.154  27.601  27.644  1.00  0.00     0.057 A 
ATOM     46  C   UNL A   1      40.587  26.338  27.439  1.00  0.00     0.134 A 
ATOM     47  C   UNL A   1      41.974  28.112  26.629  1.00  0.00     0.134 A 
ATOM     48  F   UNL A   1      39.803  25.790  28.378  1.00  0.00    -0.206 F 
ATOM     49  C   UNL A   1      40.844  25.601  26.281  1.00  0.00     0.040 A 
ATOM     50  C   UNL A   1      42.223  27.393  25.458  1.00  0.00     0.040 A 
ATOM     51  F   UNL A   1      42.536  29.322  26.758  1.00  0.00    -0.206 F 
ATOM     52  C   UNL A   1      41.662  26.130  25.285  1.00  0.00     0.006 A 
ENDBRANCH  24  45
BRANCH  36  53
ATOM     53  C   UNL A   1      43.991  27.427  33.996  1.00  0.00     0.057 A 
ATOM     54  C   UNL A   1      43.714  26.185  34.581  1.00  0.00     0.134 A 
ATOM     55  C   UNL A   1      45.328  27.839  33.948  1.00  0.00     0.134 A 
ATOM     56  F   UNL A   1      42.450  25.743  34.670  1.00  0.00    -0.206 F 
ATOM     57  C   UNL A   1      44.728  25.392  35.116  1.00  0.00     0.040 A 
ATOM     58  C   UNL A   1      46.354  27.043  34.456  1.00  0.00     0.040 A 
ATOM     59  F   UNL A   1      45.659  29.015  33.395  1.00  0.00    -0.206 F 
ATOM     60  C   UNL A   1      46.054  25.818  35.048  1.00  0.00     0.006 A 
ENDBRANCH  36  53
ENDBRANCH  10  11
ENDBRANCH   3   5
ENDBRANCH   2   3
ENDBRANCH   1   2
BRANCH   1  61
ATOM     61  C   UNL A   1      32.125  30.919  26.398  1.00  0.00     0.275 C 
BRANCH  61  62
ATOM     62  O   UNL A   1      32.413  29.975  27.439  1.00  0.00    -0.458 OA
BRANCH  62  63
ATOM     63  C   UNL A   1      33.524  29.225  27.223  1.00  0.00     0.339 C 
ATOM     64  O   UNL A   1      34.632  29.395  27.700  1.00  0.00    -0.246 OA
BRANCH  63  65
ATOM     65  C   UNL A   1      33.165  28.056  26.418  1.00  0.00     0.078 A 
ATOM     66  C   UNL A   1      32.055  27.262  26.686  1.00  0.00     0.019 A 
ATOM     67  C   UNL A   1      33.987  27.719  25.355  1.00  0.00     0.127 A 
ATOM     68  C   UNL A   1      31.802  26.164  25.865  1.00  0.00     0.031 A 
ATOM     69  N   UNL A   1      33.789  26.629  24.579  1.00  0.00    -0.254 NA
ATOM     70  C   UNL A   1      32.687  25.874  24.823  1.00  0.00     0.095 A 
BRANCH  70  71
ATOM     71  C   UNL A   1      32.343  24.784  23.819  1.00  0.00     0.319 C 
BRANCH  71  72
ATOM     72  N   UNL A   1      33.210  23.587  23.874  1.00  0.00    -0.327 N 
ATOM     73  C   UNL A   1      32.853  22.569  22.855  1.00  0.00     0.284 C 
ATOM     74  C   UNL A   1      33.348  23.049  25.244  1.00  0.00     0.289 C 
ATOM     75  H   UNL A   1      34.148  23.895  23.613  1.00  0.00     0.348 HD
ATOM     76  C   UNL A   1      32.308  21.213  23.347  1.00  0.00     0.183 C 
ATOM     77  C   UNL A   1      33.862  21.607  25.289  1.00  0.00     0.161 C 
ATOM     78  N   UNL A   1      33.005  20.728  24.519  1.00  0.00    -0.309 N 
ATOM     79  C   UNL A   1      33.821  20.980  26.685  1.00  0.00     0.148 C 
ATOM     80  C   UNL A   1      32.702  19.567  25.203  1.00  0.00     0.318 C 
ATOM     81  N   UNL A   1      33.279  19.665  26.459  1.00  0.00    -0.336 N 
ATOM     82  O   UNL A   1      32.009  18.640  24.826  1.00  0.00    -0.249 OA
ATOM     83  H   UNL A   1      33.316  18.930  27.113  1.00  0.00     0.165 HD
ENDBRANCH  71  72
ENDBRANCH  70  71
ENDBRANCH  63  65
ENDBRANCH  62  63
ENDBRANCH  61  62
ENDBRANCH   1  61
TORSDOF 13
ENDMDL
MODEL 2
REMARK VINA RESULT:     -11.7      3.132      8.415
REMARK SMILES O=C(OCCOC(=O)c1ccc(C[N@@H+]2CCN3C(=O)NC[C@@H]3C2)nc1)c1ccc(-c2c3nc(c(-c4c(F)cccc4F)c4ccc([nH]4)c(-c4c(F)cccc4F)c4nc(c(-c5c(F)cccc5F)c5ccc2[nH]5)C=C4)C=C3)cc1
REMARK SMILES IDX 4 1 3 2 2 3 1 4 26 5 27 6 79 7 28 8 78 9 29 10 30 11 31 12
REMARK SMILES IDX 72 13 32 14 77 15 71 16 73 17 33 18 76 19 70 20 69 21 34 23
REMARK SMILES IDX 60 24 43 25 59 26 44 27 47 28 58 29 74 30 45 31 46 32 57 34
REMARK SMILES IDX 75 35 48 36 35 37 36 38 41 39 37 40 38 41 40 42 42 43 39 44
REMARK SMILES IDX 61 45 62 46 67 47 63 48 64 49 66 50 68 51 65 52 49 53 50 54
REMARK SMILES IDX 55 55 51 56 52 57 54 58 56 59 53 60 5 61 6 62 7 63 8 64 9 65
REMARK SMILES IDX 10 66 25 67 11 68 24 69 12 70 13 71 14 72 15 73 23 74 16 76
REMARK SMILES IDX 22 77 17 78 21 79 18 80 20 81 19 82
REMARK H PARENT 73 22 47 33 14 75 20 83
REMARK Flexibility Score: inf
ROOT
ATOM      1  C   UNL A   1      42.939  21.369  25.840  1.00  0.00     0.275 C 
ENDROOT
BRANCH   1   2
ATOM      2  O   UNL A   1      42.458  22.638  25.357  1.00  0.00    -0.458 OA
BRANCH   2   3
ATOM      3  C   UNL A   1      43.051  23.854  25.375  1.00  0.00     0.338 C 
ATOM      4  O   UNL A   1      44.012  24.058  24.636  1.00  0.00    -0.246 OA
BRANCH   3   5
ATOM      5  C   UNL A   1      42.713  24.923  26.368  1.00  0.00     0.060 A 
ATOM      6  C   UNL A   1      43.355  26.155  26.494  1.00  0.00     0.016 A 
ATOM      7  C   UNL A   1      41.677  24.624  27.275  1.00  0.00     0.016 A 
ATOM      8  C   UNL A   1      42.954  27.077  27.466  1.00  0.00     0.010 A 
ATOM      9  C   UNL A   1      41.262  25.547  28.242  1.00  0.00     0.010 A 
ATOM     10  C   UNL A   1      41.916  26.776  28.351  1.00  0.00    -0.014 A 
BRANCH  10  11
ATOM     11  C   UNL A   1      41.646  27.698  29.475  1.00  0.00     0.031 A 
ATOM     12  C   UNL A   1      40.517  28.676  29.342  1.00  0.00     0.074 A 
ATOM     13  C   UNL A   1      42.333  27.598  30.626  1.00  0.00     0.049 A 
ATOM     14  N   UNL A   1      39.990  29.452  30.252  1.00  0.00    -0.248 NA
ATOM     15  C   UNL A   1      39.877  28.768  28.020  1.00  0.00     0.031 C 
ATOM     16  C   UNL A   1      43.403  26.637  30.886  1.00  0.00     0.029 A 
ATOM     17  N   UNL A   1      42.227  28.298  31.800  1.00  0.00    -0.354 N 
ATOM     18  C   UNL A   1      38.928  30.088  29.626  1.00  0.00     0.074 A 
ATOM     19  C   UNL A   1      38.927  29.661  28.243  1.00  0.00     0.031 C 
ATOM     20  C   UNL A   1      43.881  26.829  32.125  1.00  0.00     0.029 A 
ATOM     21  C   UNL A   1      43.130  27.908  32.758  1.00  0.00     0.049 A 
ATOM     22  H   UNL A   1      41.566  29.015  31.941  1.00  0.00     0.167 HD
ATOM     23  C   UNL A   1      38.015  30.928  30.164  1.00  0.00     0.037 A 
ATOM     24  C   UNL A   1      43.311  28.358  34.015  1.00  0.00     0.037 A 
ATOM     25  C   UNL A   1      38.046  31.376  31.528  1.00  0.00     0.049 A 
ATOM     26  C   UNL A   1      42.354  29.383  34.556  1.00  0.00     0.074 A 
ATOM     27  C   UNL A   1      37.180  32.236  32.178  1.00  0.00     0.029 A 
ATOM     28  N   UNL A   1      39.017  31.009  32.450  1.00  0.00    -0.354 N 
ATOM     29  N   UNL A   1      41.308  29.923  33.975  1.00  0.00    -0.248 NA
ATOM     30  C   UNL A   1      42.577  29.835  35.936  1.00  0.00     0.031 C 
ATOM     31  C   UNL A   1      37.654  32.425  33.481  1.00  0.00     0.029 A 
ATOM     32  C   UNL A   1      38.790  31.649  33.656  1.00  0.00     0.049 A 
ATOM     33  H   UNL A   1      39.757  30.387  32.272  1.00  0.00     0.167 HD
ATOM     34  C   UNL A   1      40.721  30.740  34.932  1.00  0.00     0.074 A 
ATOM     35  C   UNL A   1      41.530  30.625  36.130  1.00  0.00     0.031 C 
ATOM     36  C   UNL A   1      39.606  31.506  34.834  1.00  0.00     0.037 A 
BRANCH  23  37
ATOM     37  C   UNL A   1      36.933  31.417  29.250  1.00  0.00     0.057 A 
ATOM     38  C   UNL A   1      36.933  32.727  28.749  1.00  0.00     0.134 A 
ATOM     39  C   UNL A   1      35.860  30.590  28.900  1.00  0.00     0.134 A 
ATOM     40  F   UNL A   1      37.921  33.578  29.068  1.00  0.00    -0.206 F 
ATOM     41  C   UNL A   1      35.887  33.206  27.958  1.00  0.00     0.040 A 
ATOM     42  C   UNL A   1      34.819  31.051  28.093  1.00  0.00     0.040 A 
ATOM     43  F   UNL A   1      35.799  29.328  29.351  1.00  0.00    -0.206 F 
ATOM     44  C   UNL A   1      34.826  32.366  27.627  1.00  0.00     0.006 A 
ENDBRANCH  23  37
BRANCH  24  45
ATOM     45  C   UNL A   1      44.404  27.810  34.856  1.00  0.00     0.057 A 
ATOM     46  C   UNL A   1      45.675  28.395  34.874  1.00  0.00     0.134 A 
ATOM     47  C   UNL A   1      44.206  26.674  35.652  1.00  0.00     0.134 A 
ATOM     48  F   UNL A   1      45.930  29.478  34.125  1.00  0.00    -0.206 F 
ATOM     49  C   UNL A   1      46.717  27.860  35.635  1.00  0.00     0.040 A 
ATOM     50  C   UNL A   1      45.234  26.139  36.432  1.00  0.00     0.040 A 
ATOM     51  F   UNL A   1      43.008  26.074  35.690  1.00  0.00    -0.206 F 
ATOM     52  C   UNL A   1      46.496  26.729  36.419  1.00  0.00     0.006 A 
ENDBRANCH  24  45
BRANCH  36  53
ATOM     53  C   UNL A   1      39.177  32.240  36.068  1.00  0.00     0.057 A 
ATOM     54  C   UNL A   1      39.638  33.531  36.358  1.00  0.00     0.134 A 
ATOM     55  C   UNL A   1      38.261  31.662  36.956  1.00  0.00     0.134 A 
ATOM     56  F   UNL A   1      40.528  34.130  35.553  1.00  0.00    -0.206 F 
ATOM     57  C   UNL A   1      39.218  34.212  37.499  1.00  0.00     0.040 A 
ATOM     58  C   UNL A   1      37.814  32.344  38.087  1.00  0.00     0.040 A 
ATOM     59  F   UNL A   1      37.778  30.432  36.730  1.00  0.00    -0.206 F 
ATOM     60  C   UNL A   1      38.297  33.621  38.365  1.00  0.00     0.006 A 
ENDBRANCH  36  53
ENDBRANCH  10  11
ENDBRANCH   3   5
ENDBRANCH   2   3
ENDBRANCH   1   2
BRANCH   1  61
ATOM     61  C   UNL A   1      41.960  20.633  26.755  1.00  0.00     0.275 C 
BRANCH  61  62
ATOM     62  O   UNL A   1      40.659  21.236  26.773  1.00  0.00    -0.458 OA
BRANCH  62  63
ATOM     63  C   UNL A   1      39.741  20.609  25.995  1.00  0.00     0.339 C 
ATOM     64  O   UNL A   1      39.751  19.445  25.635  1.00  0.00    -0.246 OA
BRANCH  63  65
ATOM     65  C   UNL A   1      38.618  21.516  25.751  1.00  0.00     0.078 A 
ATOM     66  C   UNL A   1      38.627  22.855  26.126  1.00  0.00     0.019 A 
ATOM     67  C   UNL A   1      37.487  21.003  25.136  1.00  0.00     0.127 A 
ATOM     68  C   UNL A   1      37.505  23.635  25.857  1.00  0.00     0.031 A 
ATOM     69  N   UNL A   1      36.368  21.729  24.913  1.00  0.00    -0.254 NA
ATOM     70  C   UNL A   1      36.393  23.044  25.252  1.00  0.00     0.095 A 
BRANCH  70  71
ATOM     71  C   UNL A   1      35.225  23.910  24.801  1.00  0.00     0.319 C 
BRANCH  71  72
ATOM     72  N   UNL A   1      34.316  24.346  25.883  1.00  0.00    -0.327 N 
ATOM     73  C   UNL A   1      34.043  23.276  26.874  1.00  0.00     0.284 C 
ATOM     74  C   UNL A   1      33.104  25.018  25.368  1.00  0.00     0.289 C 
ATOM     75  H   UNL A   1      34.814  25.065  26.410  1.00  0.00     0.348 HD
ATOM     76  C   UNL A   1      32.604  22.732  26.972  1.00  0.00     0.183 C 
ATOM     77  C   UNL A   1      31.965  25.095  26.389  1.00  0.00     0.161 C 
ATOM     78  N   UNL A   1      31.607  23.775  26.868  1.00  0.00    -0.309 N 
ATOM     79  C   UNL A   1      30.646  25.610  25.804  1.00  0.00     0.148 C 
ATOM     80  C   UNL A   1      30.241  23.576  26.875  1.00  0.00     0.318 C 
ATOM     81  N   UNL A   1      29.656  24.714  26.342  1.00  0.00    -0.336 N 
ATOM     82  O   UNL A   1      29.636  22.578  27.221  1.00  0.00    -0.249 OA
ATOM     83  H   UNL A   1      28.687  24.888  26.332  1.00  0.00     0.165 HD
ENDBRANCH  71  72
ENDBRANCH  70  71
ENDBRANCH  63  65
ENDBRANCH  62  63
ENDBRANCH  61  62
ENDBRANCH   1  61
TORSDOF 13
ENDMDL
MODEL 3
REMARK VINA RESULT:     -11.6      3.266      8.065
REMARK SMILES O=C(OCCOC(=O)c1ccc(C[N@@H+]2CCN3C(=O)NC[C@@H]3C2)nc1)c1ccc(-c2c3nc(c(-c4c(F)cccc4F)c4ccc([nH]4)c(-c4c(F)cccc4F)c4nc(c(-c5c(F)cccc5F)c5ccc2[nH]5)C=C4)C=C3)cc1
REMARK SMILES IDX 4 1 3 2 2 3 1 4 26 5 27 6 79 7 28 8 78 9 29 10 30 11 31 12
REMARK SMILES IDX 72 13 32 14 77 15 71 16 73 17 33 18 76 19 70 20 69 21 34 23
REMARK SMILES IDX 60 24 43 25 59 26 44 27 47 28 58 29 74 30 45 31 46 32 57 34
REMARK SMILES IDX 75 35 48 36 35 37 36 38 41 39 37 40 38 41 40 42 42 43 39 44
REMARK SMILES IDX 61 45 62 46 67 47 63 48 64 49 66 50 68 51 65 52 49 53 50 54
REMARK SMILES IDX 55 55 51 56 52 57 54 58 56 59 53 60 5 61 6 62 7 63 8 64 9 65
REMARK SMILES IDX 10 66 25 67 11 68 24 69 12 70 13 71 14 72 15 73 23 74 16 76
REMARK SMILES IDX 22 77 17 78 21 79 18 80 20 81 19 82
REMARK H PARENT 73 22 47 33 14 75 20 83
REMARK Flexibility Score: inf
ROOT
ATOM      1  C   UNL A   1      44.017  22.061  25.027  1.00  0.00     0.275 C 
ENDROOT
BRANCH   1   2
ATOM      2  O   UNL A   1      43.643  23.396  24.640  1.00  0.00    -0.458 OA
BRANCH   2   3
ATOM      3  C   UNL A   1      44.157  24.588  25.026  1.00  0.00     0.338 C 
ATOM      4  O   UNL A   1      45.270  24.914  24.619  1.00  0.00    -0.246 OA
BRANCH   3   5
ATOM      5  C   UNL A   1      43.522  25.466  26.058  1.00  0.00     0.060 A 
ATOM      6  C   UNL A   1      43.991  26.712  26.474  1.00  0.00     0.016 A 
ATOM      7  C   UNL A   1      42.369  24.954  26.687  1.00  0.00     0.016 A 
ATOM      8  C   UNL A   1      43.315  27.445  27.454  1.00  0.00     0.010 A 
ATOM      9  C   UNL A   1      41.680  25.687  27.660  1.00  0.00     0.010 A 
ATOM     10  C   UNL A   1      42.164  26.934  28.061  1.00  0.00    -0.014 A 
BRANCH  10  11
ATOM     11  C   UNL A   1      41.587  27.653  29.216  1.00  0.00     0.031 A 
ATOM     12  C   UNL A   1      42.259  27.519  30.549  1.00  0.00     0.074 A 
ATOM     13  C   UNL A   1      40.540  28.482  29.057  1.00  0.00     0.049 A 
ATOM     14  N   UNL A   1      42.039  28.186  31.651  1.00  0.00    -0.248 NA
ATOM     15  C   UNL A   1      43.343  26.529  30.644  1.00  0.00     0.031 C 
ATOM     16  C   UNL A   1      39.856  28.738  27.792  1.00  0.00     0.029 A 
ATOM     17  N   UNL A   1      39.879  29.277  29.956  1.00  0.00    -0.354 N 
ATOM     18  C   UNL A   1      42.988  27.729  32.556  1.00  0.00     0.074 A 
ATOM     19  C   UNL A   1      43.739  26.683  31.897  1.00  0.00     0.031 C 
ATOM     20  C   UNL A   1      38.848  29.599  27.999  1.00  0.00     0.029 A 
ATOM     21  C   UNL A   1      38.835  29.980  29.407  1.00  0.00     0.049 A 
ATOM     22  H   UNL A   1      40.128  29.336  30.907  1.00  0.00     0.167 HD
ATOM     23  C   UNL A   1      43.232  28.167  33.812  1.00  0.00     0.037 A 
ATOM     24  C   UNL A   1      37.981  30.852  29.977  1.00  0.00     0.037 A 
ATOM     25  C   UNL A   1      42.456  29.181  34.471  1.00  0.00     0.049 A 
ATOM     26  C   UNL A   1      38.198  31.237  31.414  1.00  0.00     0.074 A 
ATOM     27  C   UNL A   1      42.605  29.693  35.746  1.00  0.00     0.029 A 
ATOM     28  N   UNL A   1      41.364  29.822  33.903  1.00  0.00    -0.354 N 
ATOM     29  N   UNL A   1      39.145  30.851  32.236  1.00  0.00    -0.248 NA
ATOM     30  C   UNL A   1      37.255  32.203  31.992  1.00  0.00     0.031 C 
ATOM     31  C   UNL A   1      41.573  30.613  35.966  1.00  0.00     0.029 A 
ATOM     32  C   UNL A   1      40.809  30.705  34.812  1.00  0.00     0.049 A 
ATOM     33  H   UNL A   1      41.033  29.670  32.989  1.00  0.00     0.167 HD
ATOM     34  C   UNL A   1      38.941  31.562  33.412  1.00  0.00     0.074 A 
ATOM     35  C   UNL A   1      37.778  32.400  33.194  1.00  0.00     0.031 C 
ATOM     36  C   UNL A   1      39.658  31.535  34.563  1.00  0.00     0.037 A 
BRANCH  23  37
ATOM     37  C   UNL A   1      44.372  27.521  34.538  1.00  0.00     0.057 A 
ATOM     38  C   UNL A   1      44.185  26.377  35.327  1.00  0.00     0.134 A 
ATOM     39  C   UNL A   1      45.659  28.067  34.484  1.00  0.00     0.134 A 
ATOM     40  F   UNL A   1      42.969  25.819  35.440  1.00  0.00    -0.206 F 
ATOM     41  C   UNL A   1      45.232  25.819  36.062  1.00  0.00     0.040 A 
ATOM     42  C   UNL A   1      46.718  27.506  35.198  1.00  0.00     0.040 A 
ATOM     43  F   UNL A   1      45.902  29.164  33.751  1.00  0.00    -0.206 F 
ATOM     44  C   UNL A   1      46.504  26.384  35.998  1.00  0.00     0.006 A 
ENDBRANCH  23  37
BRANCH  24  45
ATOM     45  C   UNL A   1      36.883  31.454  29.180  1.00  0.00     0.057 A 
ATOM     46  C   UNL A   1      36.947  32.776  28.727  1.00  0.00     0.134 A 
ATOM     47  C   UNL A   1      35.730  30.721  28.866  1.00  0.00     0.134 A 
ATOM     48  F   UNL A   1      38.019  33.532  29.005  1.00  0.00    -0.206 F 
ATOM     49  C   UNL A   1      35.899  33.356  28.011  1.00  0.00     0.040 A 
ATOM     50  C   UNL A   1      34.682  31.283  28.135  1.00  0.00     0.040 A 
ATOM     51  F   UNL A   1      35.611  29.445  29.259  1.00  0.00    -0.206 F 
ATOM     52  C   UNL A   1      34.762  32.608  27.711  1.00  0.00     0.006 A 
ENDBRANCH  24  45
BRANCH  36  53
ATOM     53  C   UNL A   1      39.227  32.469  35.652  1.00  0.00     0.057 A 
ATOM     54  C   UNL A   1      38.329  32.075  36.652  1.00  0.00     0.134 A 
ATOM     55  C   UNL A   1      39.749  33.767  35.722  1.00  0.00     0.134 A 
ATOM     56  F   UNL A   1      37.784  30.849  36.631  1.00  0.00    -0.206 F 
ATOM     57  C   UNL A   1      37.950  32.947  37.672  1.00  0.00     0.040 A 
ATOM     58  C   UNL A   1      39.397  34.639  36.751  1.00  0.00     0.040 A 
ATOM     59  F   UNL A   1      40.618  34.202  34.797  1.00  0.00    -0.206 F 
ATOM     60  C   UNL A   1      38.490  34.232  37.727  1.00  0.00     0.006 A 
ENDBRANCH  36  53
ENDBRANCH  10  11
ENDBRANCH   3   5
ENDBRANCH   2   3
ENDBRANCH   1   2
BRANCH   1  61
ATOM     61  C   UNL A   1      42.939  21.308  25.810  1.00  0.00     0.275 C 
BRANCH  61  62
ATOM     62  O   UNL A   1      41.655  21.943  25.733  1.00  0.00    -0.458 OA
BRANCH  62  63
ATOM     63  C   UNL A   1      40.727  21.431  26.581  1.00  0.00     0.339 C 
ATOM     64  O   UNL A   1      40.927  20.732  27.559  1.00  0.00    -0.246 OA
BRANCH  63  65
ATOM     65  C   UNL A   1      39.410  21.967  26.232  1.00  0.00     0.078 A 
ATOM     66  C   UNL A   1      39.041  23.287  26.469  1.00  0.00     0.019 A 
ATOM     67  C   UNL A   1      38.487  21.109  25.658  1.00  0.00     0.127 A 
ATOM     68  C   UNL A   1      37.760  23.701  26.107  1.00  0.00     0.031 A 
ATOM     69  N   UNL A   1      37.223  21.476  25.348  1.00  0.00    -0.254 NA
ATOM     70  C   UNL A   1      36.876  22.773  25.551  1.00  0.00     0.095 A 
BRANCH  70  71
ATOM     71  C   UNL A   1      35.536  23.239  25.000  1.00  0.00     0.319 C 
BRANCH  71  72
ATOM     72  N   UNL A   1      34.642  23.879  25.989  1.00  0.00    -0.327 N 
ATOM     73  C   UNL A   1      34.223  22.956  27.072  1.00  0.00     0.284 C 
ATOM     74  C   UNL A   1      33.525  24.610  25.352  1.00  0.00     0.289 C 
ATOM     75  H   UNL A   1      35.194  24.596  26.460  1.00  0.00     0.348 HD
ATOM     76  C   UNL A   1      32.733  22.573  27.161  1.00  0.00     0.183 C 
ATOM     77  C   UNL A   1      32.366  24.913  26.307  1.00  0.00     0.161 C 
ATOM     78  N   UNL A   1      31.856  23.695  26.904  1.00  0.00    -0.309 N 
ATOM     79  C   UNL A   1      31.130  25.492  25.613  1.00  0.00     0.148 C 
ATOM     80  C   UNL A   1      30.477  23.637  26.870  1.00  0.00     0.318 C 
ATOM     81  N   UNL A   1      30.033  24.764  26.196  1.00  0.00    -0.336 N 
ATOM     82  O   UNL A   1      29.758  22.749  27.290  1.00  0.00    -0.249 OA
ATOM     83  H   UNL A   1      29.089  25.033  26.125  1.00  0.00     0.165 HD
ENDBRANCH  71  72
ENDBRANCH  70  71
ENDBRANCH  63  65
ENDBRANCH  62  63
ENDBRANCH  61  62
ENDBRANCH   1  61
TORSDOF 13
ENDMDL
