MODEL 1
REMARK VINA RESULT:     -11.4      0.000      0.000
REMARK SMILES CS(=O)(=O)c1ccc(N2N=C(C(=O)OCCOC(=O)c3ccc(-c4c5nc(c(-c6c(F)cccc6F)c6ccc([nH]6)c(-c6c(F)cccc6F)c6nc(c(-c7c(F)cccc7F)c7ccc4[nH]7)C=C6)C=C5)cc3)C[C@H]2c2cccs2)cc1
REMARK SMILES IDX 15 1 14 2 12 3 13 4 11 5 9 6 10 7 75 8 74 9 8 10 5 11 6 12
REMARK SMILES IDX 82 13 7 14 81 15 2 16 1 17 3 18 4 19 76 20 77 21 80 22 78 23
REMARK SMILES IDX 79 24 16 25 17 26 18 27 19 28 20 29 21 30 73 31 22 32 72 33
REMARK SMILES IDX 23 34 24 35 25 36 66 37 26 38 71 39 65 40 67 41 27 42 70 43
REMARK SMILES IDX 64 44 63 45 28 47 54 48 37 49 53 50 38 51 41 52 52 53 68 54
REMARK SMILES IDX 39 55 40 56 51 58 69 59 42 60 29 61 30 62 35 63 31 64 32 65
REMARK SMILES IDX 34 66 36 67 33 68 55 69 56 70 61 71 57 72 58 73 60 74 62 75
REMARK SMILES IDX 59 76 43 77 44 78 49 79 45 80 46 81 48 82 50 83 47 84
REMARK H PARENT 67 46 41 57
REMARK Flexibility Score: inf
ROOT
ATOM      1  C   UNL A   1      34.836  21.883  24.754  1.00  0.00     0.275 C 
ENDROOT
BRANCH   1   2
ATOM      2  O   UNL A   1      34.970  23.277  25.090  1.00  0.00    -0.458 OA
BRANCH   2   3
ATOM      3  C   UNL A   1      34.752  24.154  24.091  1.00  0.00     0.354 C 
ATOM      4  O   UNL A   1      35.181  24.109  22.957  1.00  0.00    -0.245 OA
BRANCH   3   5
ATOM      5  C   UNL A   1      33.803  25.231  24.560  1.00  0.00     0.148 C 
ATOM      6  N   UNL A   1      32.475  26.878  24.514  1.00  0.00    -0.256 N 
ATOM      7  N   UNL A   1      33.127  25.973  23.737  1.00  0.00    -0.169 NA
ATOM      8  C   UNL A   1      32.774  26.770  25.943  1.00  0.00     0.154 C 
ATOM      9  C   UNL A   1      33.543  25.442  26.018  1.00  0.00     0.099 C 
BRANCH   6  10
ATOM     10  C   UNL A   1      31.395  27.596  24.023  1.00  0.00     0.060 A 
ATOM     11  C   UNL A   1      29.190  29.044  23.070  1.00  0.00     0.067 A 
ATOM     12  C   UNL A   1      30.405  29.697  23.281  1.00  0.00     0.022 A 
ATOM     13  C   UNL A   1      29.072  27.671  23.294  1.00  0.00     0.022 A 
ATOM     14  C   UNL A   1      31.499  28.968  23.754  1.00  0.00     0.029 A 
ATOM     15  C   UNL A   1      30.174  26.957  23.772  1.00  0.00     0.029 A 
BRANCH  11  16
ATOM     16  S   UNL A   1      27.803  29.971  22.457  1.00  0.00     0.175 S 
ATOM     17  C   UNL A   1      28.085  31.606  23.088  1.00  0.00     0.163 C 
ATOM     18  O   UNL A   1      26.608  29.442  23.088  1.00  0.00    -0.224 OA
ATOM     19  O   UNL A   1      27.923  30.007  21.011  1.00  0.00    -0.224 OA
ENDBRANCH  11  16
ENDBRANCH   6  10
BRANCH   8  20
ATOM     20  C   UNL A   1      33.522  27.956  26.522  1.00  0.00     0.030 A 
ATOM     21  C   UNL A   1      34.895  28.128  26.585  1.00  0.00     0.017 A 
ATOM     22  S   UNL A   1      32.703  29.262  27.283  1.00  0.00    -0.147 S 
ATOM     23  C   UNL A   1      35.267  29.349  27.220  1.00  0.00     0.012 A 
ATOM     24  C   UNL A   1      34.168  30.070  27.630  1.00  0.00     0.065 A 
ENDBRANCH   8  20
ENDBRANCH   3   5
ENDBRANCH   2   3
ENDBRANCH   1   2
BRANCH   1  25
ATOM     25  C   UNL A   1      36.219  21.229  24.695  1.00  0.00     0.275 C 
BRANCH  25  26
ATOM     26  O   UNL A   1      36.944  21.458  25.920  1.00  0.00    -0.458 OA
BRANCH  26  27
ATOM     27  C   UNL A   1      38.276  21.227  25.854  1.00  0.00     0.338 C 
ATOM     28  O   UNL A   1      38.822  20.241  25.379  1.00  0.00    -0.246 OA
BRANCH  27  29
ATOM     29  C   UNL A   1      39.026  22.406  26.334  1.00  0.00     0.060 A 
ATOM     30  C   UNL A   1      38.535  23.664  25.962  1.00  0.00     0.016 A 
ATOM     31  C   UNL A   1      40.190  22.301  27.106  1.00  0.00     0.016 A 
ATOM     32  C   UNL A   1      39.205  24.823  26.345  1.00  0.00     0.010 A 
ATOM     33  C   UNL A   1      40.876  23.463  27.477  1.00  0.00     0.010 A 
ATOM     34  C   UNL A   1      40.392  24.724  27.086  1.00  0.00    -0.014 A 
BRANCH  34  35
ATOM     35  C   UNL A   1      41.143  25.959  27.397  1.00  0.00     0.031 A 
ATOM     36  C   UNL A   1      40.496  27.036  28.216  1.00  0.00     0.074 A 
ATOM     37  C   UNL A   1      42.420  26.086  27.001  1.00  0.00     0.049 A 
ATOM     38  N   UNL A   1      41.000  28.167  28.639  1.00  0.00    -0.248 NA
ATOM     39  C   UNL A   1      39.102  26.803  28.627  1.00  0.00     0.031 C 
ATOM     40  C   UNL A   1      43.174  25.088  26.244  1.00  0.00     0.029 A 
ATOM     41  N   UNL A   1      43.311  27.110  27.194  1.00  0.00    -0.354 N 
ATOM     42  C   UNL A   1      39.994  28.777  29.372  1.00  0.00     0.074 A 
ATOM     43  C   UNL A   1      38.846  27.895  29.335  1.00  0.00     0.031 C 
ATOM     44  C   UNL A   1      44.420  25.547  26.040  1.00  0.00     0.029 A 
ATOM     45  C   UNL A   1      44.546  26.873  26.644  1.00  0.00     0.049 A 
ATOM     46  H   UNL A   1      43.088  27.936  27.681  1.00  0.00     0.167 HD
ATOM     47  C   UNL A   1      40.022  29.966  30.019  1.00  0.00     0.037 A 
ATOM     48  C   UNL A   1      45.650  27.639  26.632  1.00  0.00     0.037 A 
ATOM     49  C   UNL A   1      41.145  30.862  30.040  1.00  0.00     0.049 A 
ATOM     50  C   UNL A   1      45.636  28.981  27.302  1.00  0.00     0.074 A 
ATOM     51  C   UNL A   1      41.251  32.102  30.645  1.00  0.00     0.029 A 
ATOM     52  N   UNL A   1      42.358  30.613  29.420  1.00  0.00    -0.354 N 
ATOM     53  N   UNL A   1      44.672  29.551  27.984  1.00  0.00    -0.248 NA
ATOM     54  C   UNL A   1      46.860  29.788  27.197  1.00  0.00     0.031 C 
ATOM     55  C   UNL A   1      42.530  32.610  30.379  1.00  0.00     0.029 A 
ATOM     56  C   UNL A   1      43.218  31.679  29.618  1.00  0.00     0.049 A 
ATOM     57  H   UNL A   1      42.576  29.798  28.912  1.00  0.00     0.167 HD
ATOM     58  C   UNL A   1      45.172  30.783  28.385  1.00  0.00     0.074 A 
ATOM     59  C   UNL A   1      46.527  30.873  27.883  1.00  0.00     0.031 C 
ATOM     60  C   UNL A   1      44.558  31.752  29.103  1.00  0.00     0.037 A 
BRANCH  47  61
ATOM     61  C   UNL A   1      38.780  30.365  30.748  1.00  0.00     0.057 A 
ATOM     62  C   UNL A   1      38.594  30.026  32.094  1.00  0.00     0.134 A 
ATOM     63  C   UNL A   1      37.773  31.094  30.106  1.00  0.00     0.134 A 
ATOM     64  F   UNL A   1      39.522  29.315  32.751  1.00  0.00    -0.206 F 
ATOM     65  C   UNL A   1      37.437  30.397  32.779  1.00  0.00     0.040 A 
ATOM     66  C   UNL A   1      36.612  31.473  30.782  1.00  0.00     0.040 A 
ATOM     67  F   UNL A   1      37.895  31.435  28.815  1.00  0.00    -0.206 F 
ATOM     68  C   UNL A   1      36.444  31.124  32.122  1.00  0.00     0.006 A 
ENDBRANCH  47  61
BRANCH  48  69
ATOM     69  C   UNL A   1      46.871  27.154  25.953  1.00  0.00     0.057 A 
ATOM     70  C   UNL A   1      47.856  26.455  26.659  1.00  0.00     0.134 A 
ATOM     71  C   UNL A   1      47.076  27.382  24.586  1.00  0.00     0.134 A 
ATOM     72  F   UNL A   1      47.714  26.228  27.973  1.00  0.00    -0.206 F 
ATOM     73  C   UNL A   1      49.012  25.998  26.027  1.00  0.00     0.040 A 
ATOM     74  C   UNL A   1      48.224  26.924  23.941  1.00  0.00     0.040 A 
ATOM     75  F   UNL A   1      46.165  28.052  23.866  1.00  0.00    -0.206 F 
ATOM     76  C   UNL A   1      49.196  26.230  24.663  1.00  0.00     0.006 A 
ENDBRANCH  48  69
BRANCH  60  77
ATOM     77  C   UNL A   1      45.345  32.993  29.375  1.00  0.00     0.057 A 
ATOM     78  C   UNL A   1      46.168  33.093  30.504  1.00  0.00     0.134 A 
ATOM     79  C   UNL A   1      45.307  34.079  28.491  1.00  0.00     0.134 A 
ATOM     80  F   UNL A   1      46.234  32.088  31.389  1.00  0.00    -0.206 F 
ATOM     81  C   UNL A   1      46.926  34.239  30.748  1.00  0.00     0.040 A 
ATOM     82  C   UNL A   1      46.064  35.227  28.721  1.00  0.00     0.040 A 
ATOM     83  F   UNL A   1      44.533  34.038  27.395  1.00  0.00    -0.206 F 
ATOM     84  C   UNL A   1      46.877  35.309  29.853  1.00  0.00     0.006 A 
ENDBRANCH  60  77
ENDBRANCH  34  35
ENDBRANCH  27  29
ENDBRANCH  26  27
ENDBRANCH  25  26
ENDBRANCH   1  25
TORSDOF 14
ENDMDL
MODEL 2
REMARK VINA RESULT:     -11.4      3.782      9.363
REMARK SMILES CS(=O)(=O)c1ccc(N2N=C(C(=O)OCCOC(=O)c3ccc(-c4c5nc(c(-c6c(F)cccc6F)c6ccc([nH]6)c(-c6c(F)cccc6F)c6nc(c(-c7c(F)cccc7F)c7ccc4[nH]7)C=C6)C=C5)cc3)C[C@H]2c2cccs2)cc1
REMARK SMILES IDX 15 1 14 2 12 3 13 4 11 5 9 6 10 7 75 8 74 9 8 10 5 11 6 12
REMARK SMILES IDX 82 13 7 14 81 15 2 16 1 17 3 18 4 19 76 20 77 21 80 22 78 23
REMARK SMILES IDX 79 24 16 25 17 26 18 27 19 28 20 29 21 30 73 31 22 32 72 33
REMARK SMILES IDX 23 34 24 35 25 36 66 37 26 38 71 39 65 40 67 41 27 42 70 43
REMARK SMILES IDX 64 44 63 45 28 47 54 48 37 49 53 50 38 51 41 52 52 53 68 54
REMARK SMILES IDX 39 55 40 56 51 58 69 59 42 60 29 61 30 62 35 63 31 64 32 65
REMARK SMILES IDX 34 66 36 67 33 68 55 69 56 70 61 71 57 72 58 73 60 74 62 75
REMARK SMILES IDX 59 76 43 77 44 78 49 79 45 80 46 81 48 82 50 83 47 84
REMARK H PARENT 67 46 41 57
REMARK Flexibility Score: inf
ROOT
ATOM      1  C   UNL A   1      31.520  28.011  25.110  1.00  0.00     0.275 C 
ENDROOT
BRANCH   1   2
ATOM      2  O   UNL A   1      32.749  27.392  25.533  1.00  0.00    -0.458 OA
BRANCH   2   3
ATOM      3  C   UNL A   1      33.447  26.741  24.581  1.00  0.00     0.354 C 
ATOM      4  O   UNL A   1      33.647  27.092  23.437  1.00  0.00    -0.245 OA
BRANCH   3   5
ATOM      5  C   UNL A   1      34.039  25.479  25.161  1.00  0.00     0.148 C 
ATOM      6  N   UNL A   1      35.388  23.887  25.513  1.00  0.00    -0.256 N 
ATOM      7  N   UNL A   1      35.254  25.097  24.908  1.00  0.00    -0.169 NA
ATOM      8  C   UNL A   1      34.172  23.403  26.166  1.00  0.00     0.154 C 
ATOM      9  C   UNL A   1      33.261  24.640  26.125  1.00  0.00     0.099 C 
BRANCH   6  10
ATOM     10  C   UNL A   1      36.641  23.345  25.757  1.00  0.00     0.060 A 
ATOM     11  C   UNL A   1      39.182  22.246  26.207  1.00  0.00     0.067 A 
ATOM     12  C   UNL A   1      38.920  23.561  26.595  1.00  0.00     0.022 A 
ATOM     13  C   UNL A   1      38.181  21.462  25.631  1.00  0.00     0.022 A 
ATOM     14  C   UNL A   1      37.651  24.100  26.369  1.00  0.00     0.029 A 
ATOM     15  C   UNL A   1      36.918  22.017  25.407  1.00  0.00     0.029 A 
BRANCH  11  16
ATOM     16  S   UNL A   1      40.793  21.559  26.506  1.00  0.00     0.175 S 
ATOM     17  C   UNL A   1      40.556  19.818  26.255  1.00  0.00     0.163 C 
ATOM     18  O   UNL A   1      41.110  21.775  27.906  1.00  0.00    -0.224 OA
ATOM     19  O   UNL A   1      41.669  22.061  25.464  1.00  0.00    -0.224 OA
ENDBRANCH  11  16
ENDBRANCH   6  10
BRANCH   8  20
ATOM     20  C   UNL A   1      33.566  22.164  25.534  1.00  0.00     0.030 A 
ATOM     21  C   UNL A   1      33.304  20.953  26.154  1.00  0.00     0.017 A 
ATOM     22  S   UNL A   1      33.190  22.091  23.858  1.00  0.00    -0.147 S 
ATOM     23  C   UNL A   1      32.758  19.985  25.260  1.00  0.00     0.012 A 
ATOM     24  C   UNL A   1      32.626  20.483  23.983  1.00  0.00     0.065 A 
ENDBRANCH   8  20
ENDBRANCH   3   5
ENDBRANCH   2   3
ENDBRANCH   1   2
BRANCH   1  25
ATOM     25  C   UNL A   1      31.517  29.488  25.516  1.00  0.00     0.275 C 
BRANCH  25  26
ATOM     26  O   UNL A   1      32.860  29.952  25.758  1.00  0.00    -0.458 OA
BRANCH  26  27
ATOM     27  C   UNL A   1      32.980  30.887  26.730  1.00  0.00     0.338 C 
ATOM     28  O   UNL A   1      32.126  31.690  27.080  1.00  0.00    -0.246 OA
BRANCH  27  29
ATOM     29  C   UNL A   1      34.275  30.738  27.428  1.00  0.00     0.060 A 
ATOM     30  C   UNL A   1      34.644  29.443  27.810  1.00  0.00     0.016 A 
ATOM     31  C   UNL A   1      35.103  31.828  27.728  1.00  0.00     0.016 A 
ATOM     32  C   UNL A   1      35.832  29.224  28.502  1.00  0.00     0.010 A 
ATOM     33  C   UNL A   1      36.289  31.614  28.439  1.00  0.00     0.010 A 
ATOM     34  C   UNL A   1      36.648  30.314  28.839  1.00  0.00    -0.014 A 
BRANCH  34  35
ATOM     35  C   UNL A   1      37.854  30.075  29.660  1.00  0.00     0.031 A 
ATOM     36  C   UNL A   1      39.006  29.307  29.084  1.00  0.00     0.074 A 
ATOM     37  C   UNL A   1      37.940  30.597  30.895  1.00  0.00     0.049 A 
ATOM     38  N   UNL A   1      40.167  29.034  29.621  1.00  0.00    -0.248 NA
ATOM     39  C   UNL A   1      38.834  28.790  27.717  1.00  0.00     0.031 C 
ATOM     40  C   UNL A   1      36.908  31.404  31.545  1.00  0.00     0.029 A 
ATOM     41  N   UNL A   1      38.953  30.535  31.816  1.00  0.00    -0.354 N 
ATOM     42  C   UNL A   1      40.870  28.324  28.659  1.00  0.00     0.074 A 
ATOM     43  C   UNL A   1      40.004  28.203  27.504  1.00  0.00     0.031 C 
ATOM     44  C   UNL A   1      37.344  31.767  32.764  1.00  0.00     0.029 A 
ATOM     45  C   UNL A   1      38.679  31.211  32.978  1.00  0.00     0.049 A 
ATOM     46  H   UNL A   1      39.797  30.052  31.660  1.00  0.00     0.167 HD
ATOM     47  C   UNL A   1      42.123  27.819  28.730  1.00  0.00     0.037 A 
ATOM     48  C   UNL A   1      39.422  31.364  34.087  1.00  0.00     0.037 A 
ATOM     49  C   UNL A   1      42.981  27.910  29.879  1.00  0.00     0.049 A 
ATOM     50  C   UNL A   1      40.785  30.740  34.165  1.00  0.00     0.074 A 
ATOM     51  C   UNL A   1      44.256  27.400  30.050  1.00  0.00     0.029 A 
ATOM     52  N   UNL A   1      42.644  28.552  31.060  1.00  0.00    -0.354 N 
ATOM     53  N   UNL A   1      41.433  30.061  33.251  1.00  0.00    -0.248 NA
ATOM     54  C   UNL A   1      41.515  30.899  35.431  1.00  0.00     0.031 C 
ATOM     55  C   UNL A   1      44.687  27.724  31.343  1.00  0.00     0.029 A 
ATOM     56  C   UNL A   1      43.682  28.443  31.969  1.00  0.00     0.049 A 
ATOM     57  H   UNL A   1      41.792  29.015  31.227  1.00  0.00     0.167 HD
ATOM     58  C   UNL A   1      42.645  29.709  33.830  1.00  0.00     0.074 A 
ATOM     59  C   UNL A   1      42.648  30.260  35.170  1.00  0.00     0.031 C 
ATOM     60  C   UNL A   1      43.661  28.991  33.298  1.00  0.00     0.037 A 
BRANCH  47  61
ATOM     61  C   UNL A   1      42.631  27.106  27.519  1.00  0.00     0.057 A 
ATOM     62  C   UNL A   1      43.331  27.792  26.519  1.00  0.00     0.134 A 
ATOM     63  C   UNL A   1      42.425  25.732  27.355  1.00  0.00     0.134 A 
ATOM     64  F   UNL A   1      43.542  29.113  26.620  1.00  0.00    -0.206 F 
ATOM     65  C   UNL A   1      43.807  27.131  25.387  1.00  0.00     0.040 A 
ATOM     66  C   UNL A   1      42.900  25.059  26.228  1.00  0.00     0.040 A 
ATOM     67  F   UNL A   1      41.751  25.028  28.277  1.00  0.00    -0.206 F 
ATOM     68  C   UNL A   1      43.593  25.760  25.242  1.00  0.00     0.006 A 
ENDBRANCH  47  61
BRANCH  48  69
ATOM     69  C   UNL A   1      38.890  32.143  35.226  1.00  0.00     0.057 A 
ATOM     70  C   UNL A   1      38.263  31.505  36.302  1.00  0.00     0.134 A 
ATOM     71  C   UNL A   1      38.996  33.539  35.258  1.00  0.00     0.134 A 
ATOM     72  F   UNL A   1      38.121  30.172  36.309  1.00  0.00    -0.206 F 
ATOM     73  C   UNL A   1      37.756  32.232  37.378  1.00  0.00     0.040 A 
ATOM     74  C   UNL A   1      38.499  34.277  36.332  1.00  0.00     0.040 A 
ATOM     75  F   UNL A   1      39.583  34.198  34.248  1.00  0.00    -0.206 F 
ATOM     76  C   UNL A   1      37.876  33.623  37.395  1.00  0.00     0.006 A 
ENDBRANCH  48  69
BRANCH  60  77
ATOM     77  C   UNL A   1      44.851  28.752  34.171  1.00  0.00     0.057 A 
ATOM     78  C   UNL A   1      45.907  29.670  34.217  1.00  0.00     0.134 A 
ATOM     79  C   UNL A   1      44.926  27.620  34.992  1.00  0.00     0.134 A 
ATOM     80  F   UNL A   1      45.892  30.766  33.444  1.00  0.00    -0.206 F 
ATOM     81  C   UNL A   1      47.007  29.466  35.051  1.00  0.00     0.040 A 
ATOM     82  C   UNL A   1      46.018  27.409  35.834  1.00  0.00     0.040 A 
ATOM     83  F   UNL A   1      43.943  26.707  34.986  1.00  0.00    -0.206 F 
ATOM     84  C   UNL A   1      47.062  28.334  35.865  1.00  0.00     0.006 A 
ENDBRANCH  60  77
ENDBRANCH  34  35
ENDBRANCH  27  29
ENDBRANCH  26  27
ENDBRANCH  25  26
ENDBRANCH   1  25
TORSDOF 14
ENDMDL
MODEL 3
REMARK VINA RESULT:     -11.2      1.834      3.040
REMARK SMILES CS(=O)(=O)c1ccc(N2N=C(C(=O)OCCOC(=O)c3ccc(-c4c5nc(c(-c6c(F)cccc6F)c6ccc([nH]6)c(-c6c(F)cccc6F)c6nc(c(-c7c(F)cccc7F)c7ccc4[nH]7)C=C6)C=C5)cc3)C[C@H]2c2cccs2)cc1
REMARK SMILES IDX 15 1 14 2 12 3 13 4 11 5 9 6 10 7 75 8 74 9 8 10 5 11 6 12
REMARK SMILES IDX 82 13 7 14 81 15 2 16 1 17 3 18 4 19 76 20 77 21 80 22 78 23
REMARK SMILES IDX 79 24 16 25 17 26 18 27 19 28 20 29 21 30 73 31 22 32 72 33
REMARK SMILES IDX 23 34 24 35 25 36 66 37 26 38 71 39 65 40 67 41 27 42 70 43
REMARK SMILES IDX 64 44 63 45 28 47 54 48 37 49 53 50 38 51 41 52 52 53 68 54
REMARK SMILES IDX 39 55 40 56 51 58 69 59 42 60 29 61 30 62 35 63 31 64 32 65
REMARK SMILES IDX 34 66 36 67 33 68 55 69 56 70 61 71 57 72 58 73 60 74 62 75
REMARK SMILES IDX 59 76 43 77 44 78 49 79 45 80 46 81 48 82 50 83 47 84
REMARK H PARENT 67 46 41 57
REMARK Flexibility Score: inf
ROOT
ATOM      1  C   UNL A   1      35.286  22.496  24.154  1.00  0.00     0.275 C 
ENDROOT
BRANCH   1   2
ATOM      2  O   UNL A   1      35.177  23.624  25.042  1.00  0.00    -0.458 OA
BRANCH   2   3
ATOM      3  C   UNL A   1      33.933  23.939  25.454  1.00  0.00     0.354 C 
ATOM      4  O   UNL A   1      33.120  23.212  25.986  1.00  0.00    -0.245 OA
BRANCH   3   5
ATOM      5  C   UNL A   1      33.679  25.410  25.219  1.00  0.00     0.148 C 
ATOM      6  N   UNL A   1      33.299  27.455  25.607  1.00  0.00    -0.256 N 
ATOM      7  N   UNL A   1      33.648  26.276  26.186  1.00  0.00    -0.169 NA
ATOM      8  C   UNL A   1      33.026  27.363  24.172  1.00  0.00     0.154 C 
ATOM      9  C   UNL A   1      33.524  25.949  23.833  1.00  0.00     0.099 C 
BRANCH   6  10
ATOM     10  C   UNL A   1      33.508  28.661  26.258  1.00  0.00     0.060 A 
ATOM     11  C   UNL A   1      33.902  31.090  27.603  1.00  0.00     0.067 A 
ATOM     12  C   UNL A   1      34.915  30.131  27.601  1.00  0.00     0.022 A 
ATOM     13  C   UNL A   1      32.710  30.868  26.912  1.00  0.00     0.022 A 
ATOM     14  C   UNL A   1      34.712  28.924  26.927  1.00  0.00     0.029 A 
ATOM     15  C   UNL A   1      32.520  29.654  26.246  1.00  0.00     0.029 A 
BRANCH  11  16
ATOM     16  S   UNL A   1      34.168  32.629  28.451  1.00  0.00     0.175 S 
ATOM     17  C   UNL A   1      35.801  33.105  27.947  1.00  0.00     0.163 C 
ATOM     18  O   UNL A   1      34.198  32.347  29.875  1.00  0.00    -0.224 OA
ATOM     19  O   UNL A   1      33.220  33.584  27.906  1.00  0.00    -0.224 OA
ENDBRANCH  11  16
ENDBRANCH   6  10
BRANCH   8  20
ATOM     20  C   UNL A   1      31.582  27.623  23.786  1.00  0.00     0.030 A 
ATOM     21  C   UNL A   1      30.472  26.882  24.159  1.00  0.00     0.017 A 
ATOM     22  S   UNL A   1      31.143  28.894  22.715  1.00  0.00    -0.147 S 
ATOM     23  C   UNL A   1      29.262  27.386  23.596  1.00  0.00     0.012 A 
ATOM     24  C   UNL A   1      29.485  28.491  22.805  1.00  0.00     0.065 A 
ENDBRANCH   8  20
ENDBRANCH   3   5
ENDBRANCH   2   3
ENDBRANCH   1   2
BRANCH   1  25
ATOM     25  C   UNL A   1      35.947  21.323  24.885  1.00  0.00     0.275 C 
BRANCH  25  26
ATOM     26  O   UNL A   1      36.778  21.798  25.962  1.00  0.00    -0.458 OA
BRANCH  26  27
ATOM     27  C   UNL A   1      38.096  21.510  25.844  1.00  0.00     0.338 C 
ATOM     28  O   UNL A   1      38.582  20.530  25.296  1.00  0.00    -0.246 OA
BRANCH  27  29
ATOM     29  C   UNL A   1      38.913  22.624  26.368  1.00  0.00     0.060 A 
ATOM     30  C   UNL A   1      38.491  23.923  26.057  1.00  0.00     0.016 A 
ATOM     31  C   UNL A   1      40.075  22.420  27.125  1.00  0.00     0.016 A 
ATOM     32  C   UNL A   1      39.227  25.024  26.484  1.00  0.00     0.010 A 
ATOM     33  C   UNL A   1      40.827  23.525  27.541  1.00  0.00     0.010 A 
ATOM     34  C   UNL A   1      40.412  24.827  27.210  1.00  0.00    -0.014 A 
BRANCH  34  35
ATOM     35  C   UNL A   1      41.232  26.003  27.569  1.00  0.00     0.031 A 
ATOM     36  C   UNL A   1      40.675  27.045  28.493  1.00  0.00     0.074 A 
ATOM     37  C   UNL A   1      42.494  26.105  27.118  1.00  0.00     0.049 A 
ATOM     38  N   UNL A   1      41.249  28.120  28.968  1.00  0.00    -0.248 NA
ATOM     39  C   UNL A   1      39.292  26.842  28.956  1.00  0.00     0.031 C 
ATOM     40  C   UNL A   1      43.164  25.132  26.256  1.00  0.00     0.029 A 
ATOM     41  N   UNL A   1      43.439  27.073  27.337  1.00  0.00    -0.354 N 
ATOM     42  C   UNL A   1      40.308  28.717  29.792  1.00  0.00     0.074 A 
ATOM     43  C   UNL A   1      39.121  27.889  29.751  1.00  0.00     0.031 C 
ATOM     44  C   UNL A   1      44.419  25.552  26.022  1.00  0.00     0.029 A 
ATOM     45  C   UNL A   1      44.634  26.824  26.711  1.00  0.00     0.049 A 
ATOM     46  H   UNL A   1      43.277  27.870  27.892  1.00  0.00     0.167 HD
ATOM     47  C   UNL A   1      40.421  29.854  30.518  1.00  0.00     0.037 A 
ATOM     48  C   UNL A   1      45.770  27.542  26.696  1.00  0.00     0.037 A 
ATOM     49  C   UNL A   1      41.584  30.698  30.545  1.00  0.00     0.049 A 
ATOM     50  C   UNL A   1      45.849  28.831  27.459  1.00  0.00     0.074 A 
ATOM     51  C   UNL A   1      41.775  31.886  31.230  1.00  0.00     0.029 A 
ATOM     52  N   UNL A   1      42.754  30.443  29.848  1.00  0.00    -0.354 N 
ATOM     53  N   UNL A   1      44.946  29.391  28.226  1.00  0.00    -0.248 NA
ATOM     54  C   UNL A   1      47.103  29.591  27.348  1.00  0.00     0.031 C 
ATOM     55  C   UNL A   1      43.062  32.357  30.935  1.00  0.00     0.029 A 
ATOM     56  C   UNL A   1      43.670  31.455  30.077  1.00  0.00     0.049 A 
ATOM     57  H   UNL A   1      42.910  29.659  29.274  1.00  0.00     0.167 HD
ATOM     58  C   UNL A   1      45.520  30.568  28.687  1.00  0.00     0.074 A 
ATOM     59  C   UNL A   1      46.852  30.637  28.125  1.00  0.00     0.031 C 
ATOM     60  C   UNL A   1      44.986  31.509  29.502  1.00  0.00     0.037 A 
BRANCH  47  61
ATOM     61  C   UNL A   1      39.235  30.251  31.335  1.00  0.00     0.057 A 
ATOM     62  C   UNL A   1      39.049  29.748  32.628  1.00  0.00     0.134 A 
ATOM     63  C   UNL A   1      38.282  31.143  30.831  1.00  0.00     0.134 A 
ATOM     64  F   UNL A   1      39.925  28.878  33.152  1.00  0.00    -0.206 F 
ATOM     65  C   UNL A   1      37.944  30.116  33.395  1.00  0.00     0.040 A 
ATOM     66  C   UNL A   1      37.174  31.522  31.591  1.00  0.00     0.040 A 
ATOM     67  F   UNL A   1      38.406  31.648  29.595  1.00  0.00    -0.206 F 
ATOM     68  C   UNL A   1      37.004  31.007  32.876  1.00  0.00     0.006 A 
ENDBRANCH  47  61
BRANCH  48  69
ATOM     69  C   UNL A   1      46.934  27.056  25.924  1.00  0.00     0.057 A 
ATOM     70  C   UNL A   1      47.881  26.209  26.509  1.00  0.00     0.134 A 
ATOM     71  C   UNL A   1      47.122  27.432  24.588  1.00  0.00     0.134 A 
ATOM     72  F   UNL A   1      47.755  25.836  27.791  1.00  0.00    -0.206 F 
ATOM     73  C   UNL A   1      48.984  25.749  25.789  1.00  0.00     0.040 A 
ATOM     74  C   UNL A   1      48.216  26.973  23.855  1.00  0.00     0.040 A 
ATOM     75  F   UNL A   1      46.246  28.247  23.983  1.00  0.00    -0.206 F 
ATOM     76  C   UNL A   1      49.150  26.130  24.457  1.00  0.00     0.006 A 
ENDBRANCH  48  69
BRANCH  60  77
ATOM     77  C   UNL A   1      45.841  32.692  29.820  1.00  0.00     0.057 A 
ATOM     78  C   UNL A   1      46.714  32.678  30.914  1.00  0.00     0.134 A 
ATOM     79  C   UNL A   1      45.816  33.837  29.013  1.00  0.00     0.134 A 
ATOM     80  F   UNL A   1      46.770  31.613  31.727  1.00  0.00    -0.206 F 
ATOM     81  C   UNL A   1      47.535  33.770  31.200  1.00  0.00     0.040 A 
ATOM     82  C   UNL A   1      46.636  34.932  29.285  1.00  0.00     0.040 A 
ATOM     83  F   UNL A   1      44.996  33.905  27.952  1.00  0.00    -0.206 F 
ATOM     84  C   UNL A   1      47.499  34.900  30.381  1.00  0.00     0.006 A 
ENDBRANCH  60  77
ENDBRANCH  34  35
ENDBRANCH  27  29
ENDBRANCH  26  27
ENDBRANCH  25  26
ENDBRANCH   1  25
TORSDOF 14
ENDMDL
