MODEL 1
REMARK VINA RESULT:     -10.5      0.000      0.000
REMARK SMILES CC[C@H](C)[C@@H](Nc1ncnc2ccccc12)C(=O)OCCOC(=O)c1ccc(-c2c3nc(c(-c4c(F)cccc4F)c4ccc([nH]4)c(-c4c(F)cccc4F)c4nc(c(-c5c(F)cccc5F)c5ccc2[nH]5)C=C4)C=C3)cc1
REMARK SMILES IDX 20 1 19 2 17 3 18 4 5 5 3 6 4 7 2 8 1 9 6 10 7 12 8 13 16 14
REMARK SMILES IDX 9 15 11 16 15 17 10 18 12 19 14 20 13 21 21 22 22 23 23 24
REMARK SMILES IDX 24 25 25 26 26 27 78 28 27 29 77 30 28 31 29 32 30 33 71 34
REMARK SMILES IDX 31 35 76 36 70 37 72 38 32 39 75 40 69 41 68 42 33 44 59 45
REMARK SMILES IDX 42 46 58 47 43 48 46 49 57 50 73 51 44 52 45 53 56 55 74 56
REMARK SMILES IDX 47 57 34 58 35 59 40 60 36 61 37 62 39 63 41 64 38 65 60 66
REMARK SMILES IDX 61 67 66 68 62 69 63 70 65 71 67 72 64 73 48 74 49 75 54 76
REMARK SMILES IDX 50 77 51 78 53 79 55 80 52 81
REMARK H PARENT 6 11 72 43 46 54
REMARK Flexibility Score: inf
ROOT
ATOM      1  C   UNL A   1      35.909  20.062  24.974  1.00  0.00     0.274 C 
ENDROOT
BRANCH   1   2
ATOM      2  O   UNL A   1      35.339  21.303  24.504  1.00  0.00    -0.461 OA
BRANCH   2   3
ATOM      3  C   UNL A   1      33.981  21.344  24.534  1.00  0.00     0.328 C 
ATOM      4  O   UNL A   1      33.266  20.432  24.131  1.00  0.00    -0.250 OA
BRANCH   3   5
ATOM      5  C   UNL A   1      33.390  22.654  25.090  1.00  0.00     0.194 C 
BRANCH   5   6
ATOM      6  C   UNL A   1      32.969  22.548  26.594  1.00  0.00     0.019 C 
ATOM      7  C   UNL A   1      34.164  22.863  27.515  1.00  0.00     0.010 C 
BRANCH   6   8
ATOM      8  C   UNL A   1      31.798  23.501  26.942  1.00  0.00     0.002 C 
ATOM      9  C   UNL A   1      30.771  23.668  25.828  1.00  0.00     0.004 C 
ENDBRANCH   6   8
ENDBRANCH   5   6
BRANCH   5  10
ATOM     10  N   UNL A   1      34.250  23.843  24.870  1.00  0.00    -0.356 N 
ATOM     11  H   UNL A   1      35.156  23.835  25.255  1.00  0.00     0.163 HD
BRANCH  10  12
ATOM     12  C   UNL A   1      33.858  24.962  24.160  1.00  0.00     0.137 A 
ATOM     13  N   UNL A   1      33.938  24.762  22.836  1.00  0.00    -0.219 NA
ATOM     14  C   UNL A   1      33.358  26.156  24.708  1.00  0.00     0.043 A 
ATOM     15  C   UNL A   1      33.408  25.707  22.056  1.00  0.00     0.224 A 
ATOM     16  C   UNL A   1      32.747  27.019  23.788  1.00  0.00     0.076 A 
ATOM     17  C   UNL A   1      33.403  26.534  26.076  1.00  0.00     0.014 A 
ATOM     18  N   UNL A   1      32.770  26.804  22.470  1.00  0.00    -0.236 NA
ATOM     19  C   UNL A   1      32.067  28.133  24.267  1.00  0.00     0.029 A 
ATOM     20  C   UNL A   1      32.715  27.657  26.533  1.00  0.00     0.001 A 
ATOM     21  C   UNL A   1      32.019  28.443  25.627  1.00  0.00     0.002 A 
ENDBRANCH  10  12
ENDBRANCH   5  10
ENDBRANCH   3   5
ENDBRANCH   2   3
ENDBRANCH   1   2
BRANCH   1  22
ATOM     22  C   UNL A   1      37.442  20.001  24.860  1.00  0.00     0.275 C 
BRANCH  22  23
ATOM     23  O   UNL A   1      38.069  21.145  25.476  1.00  0.00    -0.458 OA
BRANCH  23  24
ATOM     24  C   UNL A   1      39.267  20.935  26.066  1.00  0.00     0.338 C 
ATOM     25  O   UNL A   1      39.919  19.905  26.073  1.00  0.00    -0.246 OA
BRANCH  24  26
ATOM     26  C   UNL A   1      39.773  22.191  26.653  1.00  0.00     0.060 A 
ATOM     27  C   UNL A   1      39.307  23.409  26.147  1.00  0.00     0.016 A 
ATOM     28  C   UNL A   1      40.800  22.173  27.594  1.00  0.00     0.016 A 
ATOM     29  C   UNL A   1      39.852  24.615  26.578  1.00  0.00     0.010 A 
ATOM     30  C   UNL A   1      41.357  23.385  28.022  1.00  0.00     0.010 A 
ATOM     31  C   UNL A   1      40.896  24.611  27.506  1.00  0.00    -0.014 A 
BRANCH  31  32
ATOM     32  C   UNL A   1      41.581  25.878  27.848  1.00  0.00     0.031 A 
ATOM     33  C   UNL A   1      40.842  26.920  28.636  1.00  0.00     0.074 A 
ATOM     34  C   UNL A   1      42.857  26.089  27.482  1.00  0.00     0.049 A 
ATOM     35  N   UNL A   1      41.191  28.148  28.918  1.00  0.00    -0.248 NA
ATOM     36  C   UNL A   1      39.536  26.520  29.184  1.00  0.00     0.031 C 
ATOM     37  C   UNL A   1      43.712  25.123  26.793  1.00  0.00     0.029 A 
ATOM     38  N   UNL A   1      43.653  27.196  27.635  1.00  0.00    -0.354 N 
ATOM     39  C   UNL A   1      40.136  28.680  29.649  1.00  0.00     0.074 A 
ATOM     40  C   UNL A   1      39.137  27.640  29.771  1.00  0.00     0.031 C 
ATOM     41  C   UNL A   1      44.910  25.687  26.566  1.00  0.00     0.029 A 
ATOM     42  C   UNL A   1      44.888  27.067  27.049  1.00  0.00     0.049 A 
ATOM     43  H   UNL A   1      43.368  28.006  28.117  1.00  0.00     0.167 HD
ATOM     44  C   UNL A   1      40.012  29.926  30.163  1.00  0.00     0.037 A 
ATOM     45  C   UNL A   1      45.871  27.973  26.884  1.00  0.00     0.037 A 
ATOM     46  C   UNL A   1      41.013  30.953  30.053  1.00  0.00     0.049 A 
ATOM     47  C   UNL A   1      45.676  29.375  27.390  1.00  0.00     0.074 A 
ATOM     48  C   UNL A   1      40.979  32.249  30.538  1.00  0.00     0.029 A 
ATOM     49  N   UNL A   1      42.233  30.797  29.414  1.00  0.00    -0.354 N 
ATOM     50  N   UNL A   1      44.659  29.886  28.042  1.00  0.00    -0.248 NA
ATOM     51  C   UNL A   1      46.758  30.334  27.122  1.00  0.00     0.031 C 
ATOM     52  C   UNL A   1      42.166  32.887  30.163  1.00  0.00     0.029 A 
ATOM     53  C   UNL A   1      42.953  31.978  29.475  1.00  0.00     0.049 A 
ATOM     54  H   UNL A   1      42.542  29.969  28.980  1.00  0.00     0.167 HD
ATOM     55  C   UNL A   1      44.986  31.214  28.278  1.00  0.00     0.074 A 
ATOM     56  C   UNL A   1      46.300  31.431  27.708  1.00  0.00     0.031 C 
ATOM     57  C   UNL A   1      44.262  32.171  28.908  1.00  0.00     0.037 A 
BRANCH  44  58
ATOM     58  C   UNL A   1      38.725  30.259  30.853  1.00  0.00     0.057 A 
ATOM     59  C   UNL A   1      38.529  30.010  32.215  1.00  0.00     0.134 A 
ATOM     60  C   UNL A   1      37.676  30.856  30.142  1.00  0.00     0.134 A 
ATOM     61  F   UNL A   1      39.489  29.424  32.945  1.00  0.00    -0.206 F 
ATOM     62  C   UNL A   1      37.325  30.332  32.847  1.00  0.00     0.040 A 
ATOM     63  C   UNL A   1      36.476  31.200  30.766  1.00  0.00     0.040 A 
ATOM     64  F   UNL A   1      37.802  31.119  28.833  1.00  0.00    -0.206 F 
ATOM     65  C   UNL A   1      36.297  30.934  32.123  1.00  0.00     0.006 A 
ENDBRANCH  44  58
BRANCH  45  66
ATOM     66  C   UNL A   1      47.114  27.598  26.166  1.00  0.00     0.057 A 
ATOM     67  C   UNL A   1      47.185  27.646  24.769  1.00  0.00     0.134 A 
ATOM     68  C   UNL A   1      48.250  27.163  26.858  1.00  0.00     0.134 A 
ATOM     69  F   UNL A   1      46.119  28.028  24.052  1.00  0.00    -0.206 F 
ATOM     70  C   UNL A   1      48.340  27.264  24.084  1.00  0.00     0.040 A 
ATOM     71  C   UNL A   1      49.419  26.799  26.187  1.00  0.00     0.040 A 
ATOM     72  F   UNL A   1      48.242  27.090  28.197  1.00  0.00    -0.206 F 
ATOM     73  C   UNL A   1      49.464  26.845  24.796  1.00  0.00     0.006 A 
ENDBRANCH  45  66
BRANCH  57  74
ATOM     74  C   UNL A   1      44.889  33.526  29.042  1.00  0.00     0.057 A 
ATOM     75  C   UNL A   1      44.651  34.542  28.110  1.00  0.00     0.134 A 
ATOM     76  C   UNL A   1      45.709  33.826  30.137  1.00  0.00     0.134 A 
ATOM     77  F   UNL A   1      43.886  34.311  27.033  1.00  0.00    -0.206 F 
ATOM     78  C   UNL A   1      45.222  35.809  28.253  1.00  0.00     0.040 A 
ATOM     79  C   UNL A   1      46.269  35.094  30.302  1.00  0.00     0.040 A 
ATOM     80  F   UNL A   1      45.970  32.896  31.069  1.00  0.00    -0.206 F 
ATOM     81  C   UNL A   1      46.028  36.088  29.356  1.00  0.00     0.006 A 
ENDBRANCH  57  74
ENDBRANCH  31  32
ENDBRANCH  24  26
ENDBRANCH  23  24
ENDBRANCH  22  23
ENDBRANCH   1  22
TORSDOF 15
ENDMDL
MODEL 2
REMARK VINA RESULT:     -10.5      4.122      8.857
REMARK SMILES CC[C@H](C)[C@@H](Nc1ncnc2ccccc12)C(=O)OCCOC(=O)c1ccc(-c2c3nc(c(-c4c(F)cccc4F)c4ccc([nH]4)c(-c4c(F)cccc4F)c4nc(c(-c5c(F)cccc5F)c5ccc2[nH]5)C=C4)C=C3)cc1
REMARK SMILES IDX 20 1 19 2 17 3 18 4 5 5 3 6 4 7 2 8 1 9 6 10 7 12 8 13 16 14
REMARK SMILES IDX 9 15 11 16 15 17 10 18 12 19 14 20 13 21 21 22 22 23 23 24
REMARK SMILES IDX 24 25 25 26 26 27 78 28 27 29 77 30 28 31 29 32 30 33 71 34
REMARK SMILES IDX 31 35 76 36 70 37 72 38 32 39 75 40 69 41 68 42 33 44 59 45
REMARK SMILES IDX 42 46 58 47 43 48 46 49 57 50 73 51 44 52 45 53 56 55 74 56
REMARK SMILES IDX 47 57 34 58 35 59 40 60 36 61 37 62 39 63 41 64 38 65 60 66
REMARK SMILES IDX 61 67 66 68 62 69 63 70 65 71 67 72 64 73 48 74 49 75 54 76
REMARK SMILES IDX 50 77 51 78 53 79 55 80 52 81
REMARK H PARENT 6 11 72 43 46 54
REMARK Flexibility Score: inf
ROOT
ATOM      1  C   UNL A   1      31.477  28.922  24.838  1.00  0.00     0.274 C 
ENDROOT
BRANCH   1   2
ATOM      2  O   UNL A   1      32.107  27.858  25.586  1.00  0.00    -0.461 OA
BRANCH   2   3
ATOM      3  C   UNL A   1      32.899  27.044  24.842  1.00  0.00     0.328 C 
ATOM      4  O   UNL A   1      33.628  27.443  23.940  1.00  0.00    -0.250 OA
BRANCH   3   5
ATOM      5  C   UNL A   1      32.793  25.547  25.195  1.00  0.00     0.194 C 
BRANCH   5   6
ATOM      6  C   UNL A   1      31.324  25.086  25.479  1.00  0.00     0.019 C 
ATOM      7  C   UNL A   1      30.670  24.536  24.197  1.00  0.00     0.010 C 
BRANCH   6   8
ATOM      8  C   UNL A   1      31.255  24.004  26.586  1.00  0.00     0.002 C 
ATOM      9  C   UNL A   1      30.659  22.677  26.132  1.00  0.00     0.004 C 
ENDBRANCH   6   8
ENDBRANCH   5   6
BRANCH   5  10
ATOM     10  N   UNL A   1      33.440  24.648  24.206  1.00  0.00    -0.356 N 
ATOM     11  H   UNL A   1      33.299  24.836  23.250  1.00  0.00     0.163 HD
BRANCH  10  12
ATOM     12  C   UNL A   1      34.227  23.564  24.544  1.00  0.00     0.137 A 
ATOM     13  N   UNL A   1      35.336  23.941  25.199  1.00  0.00    -0.219 NA
ATOM     14  C   UNL A   1      33.912  22.212  24.321  1.00  0.00     0.043 A 
ATOM     15  C   UNL A   1      36.072  22.966  25.736  1.00  0.00     0.224 A 
ATOM     16  C   UNL A   1      34.711  21.296  25.018  1.00  0.00     0.076 A 
ATOM     17  C   UNL A   1      32.872  21.720  23.490  1.00  0.00     0.014 A 
ATOM     18  N   UNL A   1      35.786  21.661  25.721  1.00  0.00    -0.236 NA
ATOM     19  C   UNL A   1      34.357  19.952  25.000  1.00  0.00     0.029 A 
ATOM     20  C   UNL A   1      32.535  20.367  23.486  1.00  0.00     0.001 A 
ATOM     21  C   UNL A   1      33.263  19.484  24.268  1.00  0.00     0.002 A 
ENDBRANCH  10  12
ENDBRANCH   5  10
ENDBRANCH   3   5
ENDBRANCH   2   3
ENDBRANCH   1   2
BRANCH   1  22
ATOM     22  C   UNL A   1      31.741  30.324  25.413  1.00  0.00     0.275 C 
BRANCH  22  23
ATOM     23  O   UNL A   1      32.417  30.261  26.686  1.00  0.00    -0.458 OA
BRANCH  23  24
ATOM     24  C   UNL A   1      32.981  31.406  27.130  1.00  0.00     0.338 C 
ATOM     25  O   UNL A   1      32.469  32.511  27.187  1.00  0.00    -0.246 OA
BRANCH  24  26
ATOM     26  C   UNL A   1      34.332  31.136  27.659  1.00  0.00     0.060 A 
ATOM     27  C   UNL A   1      34.686  29.819  27.970  1.00  0.00     0.016 A 
ATOM     28  C   UNL A   1      35.193  32.184  27.980  1.00  0.00     0.016 A 
ATOM     29  C   UNL A   1      35.898  29.534  28.593  1.00  0.00     0.010 A 
ATOM     30  C   UNL A   1      36.408  31.901  28.615  1.00  0.00     0.010 A 
ATOM     31  C   UNL A   1      36.760  30.577  28.938  1.00  0.00    -0.014 A 
BRANCH  31  32
ATOM     32  C   UNL A   1      37.974  30.293  29.737  1.00  0.00     0.031 A 
ATOM     33  C   UNL A   1      39.044  29.415  29.157  1.00  0.00     0.074 A 
ATOM     34  C   UNL A   1      38.133  30.832  30.959  1.00  0.00     0.049 A 
ATOM     35  N   UNL A   1      40.110  28.919  29.729  1.00  0.00    -0.248 NA
ATOM     36  C   UNL A   1      38.893  29.051  27.740  1.00  0.00     0.031 C 
ATOM     37  C   UNL A   1      37.212  31.771  31.597  1.00  0.00     0.029 A 
ATOM     38  N   UNL A   1      39.131  30.656  31.884  1.00  0.00    -0.354 N 
ATOM     39  C   UNL A   1      40.742  28.159  28.753  1.00  0.00     0.074 A 
ATOM     40  C   UNL A   1      39.942  28.263  27.551  1.00  0.00     0.031 C 
ATOM     41  C   UNL A   1      37.678  32.075  32.820  1.00  0.00     0.029 A 
ATOM     42  C   UNL A   1      38.903  31.315  33.066  1.00  0.00     0.049 A 
ATOM     43  H   UNL A   1      39.933  30.110  31.717  1.00  0.00     0.167 HD
ATOM     44  C   UNL A   1      41.881  27.435  28.855  1.00  0.00     0.037 A 
ATOM     45  C   UNL A   1      39.582  31.275  34.228  1.00  0.00     0.037 A 
ATOM     46  C   UNL A   1      42.682  27.346  30.047  1.00  0.00     0.049 A 
ATOM     47  C   UNL A   1      40.799  30.398  34.344  1.00  0.00     0.074 A 
ATOM     48  C   UNL A   1      43.852  26.636  30.250  1.00  0.00     0.029 A 
ATOM     49  N   UNL A   1      42.394  27.994  31.238  1.00  0.00    -0.354 N 
ATOM     50  N   UNL A   1      41.367  29.648  33.431  1.00  0.00    -0.248 NA
ATOM     51  C   UNL A   1      41.458  30.348  35.657  1.00  0.00     0.031 C 
ATOM     52  C   UNL A   1      44.254  26.828  31.577  1.00  0.00     0.029 A 
ATOM     53  C   UNL A   1      43.354  27.686  32.187  1.00  0.00     0.049 A 
ATOM     54  H   UNL A   1      41.621  28.586  31.388  1.00  0.00     0.167 HD
ATOM     55  C   UNL A   1      42.458  29.053  34.052  1.00  0.00     0.074 A 
ATOM     56  C   UNL A   1      42.479  29.537  35.417  1.00  0.00     0.031 C 
ATOM     57  C   UNL A   1      43.361  28.183  33.538  1.00  0.00     0.037 A 
BRANCH  44  58
ATOM     58  C   UNL A   1      42.302  26.646  27.655  1.00  0.00     0.057 A 
ATOM     59  C   UNL A   1      41.885  25.326  27.451  1.00  0.00     0.134 A 
ATOM     60  C   UNL A   1      43.122  27.227  26.679  1.00  0.00     0.134 A 
ATOM     61  F   UNL A   1      41.115  24.708  28.359  1.00  0.00    -0.206 F 
ATOM     62  C   UNL A   1      42.281  24.604  26.323  1.00  0.00     0.040 A 
ATOM     63  C   UNL A   1      43.509  26.522  25.538  1.00  0.00     0.040 A 
ATOM     64  F   UNL A   1      43.556  28.489  26.816  1.00  0.00    -0.206 F 
ATOM     65  C   UNL A   1      43.091  25.205  25.360  1.00  0.00     0.006 A 
ENDBRANCH  44  58
BRANCH  45  66
ATOM     66  C   UNL A   1      39.103  32.055  35.396  1.00  0.00     0.057 A 
ATOM     67  C   UNL A   1      38.252  31.483  36.348  1.00  0.00     0.134 A 
ATOM     68  C   UNL A   1      39.468  33.394  35.575  1.00  0.00     0.134 A 
ATOM     69  F   UNL A   1      37.847  30.211  36.214  1.00  0.00    -0.206 F 
ATOM     70  C   UNL A   1      37.771  32.219  37.432  1.00  0.00     0.040 A 
ATOM     71  C   UNL A   1      39.012  34.135  36.666  1.00  0.00     0.040 A 
ATOM     72  F   UNL A   1      40.277  34.000  34.694  1.00  0.00    -0.206 F 
ATOM     73  C   UNL A   1      38.157  33.549  37.596  1.00  0.00     0.006 A 
ENDBRANCH  45  66
BRANCH  57  74
ATOM     74  C   UNL A   1      44.463  27.726  34.446  1.00  0.00     0.057 A 
ATOM     75  C   UNL A   1      44.352  26.555  35.205  1.00  0.00     0.134 A 
ATOM     76  C   UNL A   1      45.661  28.445  34.530  1.00  0.00     0.134 A 
ATOM     77  F   UNL A   1      43.223  25.831  35.178  1.00  0.00    -0.206 F 
ATOM     78  C   UNL A   1      45.391  26.124  36.032  1.00  0.00     0.040 A 
ATOM     79  C   UNL A   1      46.715  28.014  35.337  1.00  0.00     0.040 A 
ATOM     80  F   UNL A   1      45.831  29.572  33.821  1.00  0.00    -0.206 F 
ATOM     81  C   UNL A   1      46.579  26.851  36.094  1.00  0.00     0.006 A 
ENDBRANCH  57  74
ENDBRANCH  31  32
ENDBRANCH  24  26
ENDBRANCH  23  24
ENDBRANCH  22  23
ENDBRANCH   1  22
TORSDOF 15
ENDMDL
MODEL 3
REMARK VINA RESULT:     -10.3      4.295      8.875
REMARK SMILES CC[C@H](C)[C@@H](Nc1ncnc2ccccc12)C(=O)OCCOC(=O)c1ccc(-c2c3nc(c(-c4c(F)cccc4F)c4ccc([nH]4)c(-c4c(F)cccc4F)c4nc(c(-c5c(F)cccc5F)c5ccc2[nH]5)C=C4)C=C3)cc1
REMARK SMILES IDX 20 1 19 2 17 3 18 4 5 5 3 6 4 7 2 8 1 9 6 10 7 12 8 13 16 14
REMARK SMILES IDX 9 15 11 16 15 17 10 18 12 19 14 20 13 21 21 22 22 23 23 24
REMARK SMILES IDX 24 25 25 26 26 27 78 28 27 29 77 30 28 31 29 32 30 33 71 34
REMARK SMILES IDX 31 35 76 36 70 37 72 38 32 39 75 40 69 41 68 42 33 44 59 45
REMARK SMILES IDX 42 46 58 47 43 48 46 49 57 50 73 51 44 52 45 53 56 55 74 56
REMARK SMILES IDX 47 57 34 58 35 59 40 60 36 61 37 62 39 63 41 64 38 65 60 66
REMARK SMILES IDX 61 67 66 68 62 69 63 70 65 71 67 72 64 73 48 74 49 75 54 76
REMARK SMILES IDX 50 77 51 78 53 79 55 80 52 81
REMARK H PARENT 6 11 72 43 46 54
REMARK Flexibility Score: inf
ROOT
ATOM      1  C   UNL A   1      31.708  28.775  27.177  1.00  0.00     0.274 C 
ENDROOT
BRANCH   1   2
ATOM      2  O   UNL A   1      32.383  27.714  26.468  1.00  0.00    -0.461 OA
BRANCH   2   3
ATOM      3  C   UNL A   1      31.626  26.604  26.267  1.00  0.00     0.328 C 
ATOM      4  O   UNL A   1      30.558  26.398  26.834  1.00  0.00    -0.250 OA
BRANCH   3   5
ATOM      5  C   UNL A   1      32.231  25.583  25.281  1.00  0.00     0.194 C 
BRANCH   5   6
ATOM      6  C   UNL A   1      32.101  26.024  23.785  1.00  0.00     0.019 C 
ATOM      7  C   UNL A   1      33.481  26.029  23.099  1.00  0.00     0.010 C 
BRANCH   6   8
ATOM      8  C   UNL A   1      31.142  25.107  22.986  1.00  0.00     0.002 C 
ATOM      9  C   UNL A   1      30.988  23.704  23.562  1.00  0.00     0.004 C 
ENDBRANCH   6   8
ENDBRANCH   5   6
BRANCH   5  10
ATOM     10  N   UNL A   1      33.631  25.202  25.594  1.00  0.00    -0.356 N 
ATOM     11  H   UNL A   1      34.333  25.879  25.466  1.00  0.00     0.163 HD
BRANCH  10  12
ATOM     12  C   UNL A   1      34.009  23.954  26.053  1.00  0.00     0.137 A 
ATOM     13  N   UNL A   1      33.183  23.507  27.011  1.00  0.00    -0.219 NA
ATOM     14  C   UNL A   1      35.071  23.178  25.557  1.00  0.00     0.043 A 
ATOM     15  C   UNL A   1      33.342  22.238  27.392  1.00  0.00     0.224 A 
ATOM     16  C   UNL A   1      35.066  21.839  25.968  1.00  0.00     0.076 A 
ATOM     17  C   UNL A   1      36.100  23.624  24.688  1.00  0.00     0.014 A 
ATOM     18  N   UNL A   1      34.213  21.364  26.880  1.00  0.00    -0.236 NA
ATOM     19  C   UNL A   1      35.970  20.958  25.385  1.00  0.00     0.029 A 
ATOM     20  C   UNL A   1      36.997  22.723  24.116  1.00  0.00     0.001 A 
ATOM     21  C   UNL A   1      36.912  21.379  24.445  1.00  0.00     0.002 A 
ENDBRANCH  10  12
ENDBRANCH   5  10
ENDBRANCH   3   5
ENDBRANCH   2   3
ENDBRANCH   1   2
BRANCH   1  22
ATOM     22  C   UNL A   1      31.767  30.135  26.460  1.00  0.00     0.275 C 
BRANCH  22  23
ATOM     23  O   UNL A   1      33.123  30.606  26.319  1.00  0.00    -0.458 OA
BRANCH  23  24
ATOM     24  C   UNL A   1      33.524  31.569  27.180  1.00  0.00     0.338 C 
ATOM     25  O   UNL A   1      32.889  32.540  27.552  1.00  0.00    -0.246 OA
BRANCH  24  26
ATOM     26  C   UNL A   1      34.856  31.242  27.724  1.00  0.00     0.060 A 
ATOM     27  C   UNL A   1      35.136  29.918  28.077  1.00  0.00     0.016 A 
ATOM     28  C   UNL A   1      35.770  32.250  28.018  1.00  0.00     0.016 A 
ATOM     29  C   UNL A   1      36.328  29.587  28.715  1.00  0.00     0.010 A 
ATOM     30  C   UNL A   1      36.967  31.922  28.668  1.00  0.00     0.010 A 
ATOM     31  C   UNL A   1      37.245  30.591  29.033  1.00  0.00    -0.014 A 
BRANCH  31  32
ATOM     32  C   UNL A   1      38.438  30.267  29.848  1.00  0.00     0.031 A 
ATOM     33  C   UNL A   1      39.486  29.353  29.280  1.00  0.00     0.074 A 
ATOM     34  C   UNL A   1      38.600  30.800  31.071  1.00  0.00     0.049 A 
ATOM     35  N   UNL A   1      40.527  28.822  29.865  1.00  0.00    -0.248 NA
ATOM     36  C   UNL A   1      39.340  28.995  27.861  1.00  0.00     0.031 C 
ATOM     37  C   UNL A   1      37.703  31.768  31.699  1.00  0.00     0.029 A 
ATOM     38  N   UNL A   1      39.580  30.590  32.008  1.00  0.00    -0.354 N 
ATOM     39  C   UNL A   1      41.145  28.042  28.897  1.00  0.00     0.074 A 
ATOM     40  C   UNL A   1      40.365  28.172  27.685  1.00  0.00     0.031 C 
ATOM     41  C   UNL A   1      38.164  32.056  32.927  1.00  0.00     0.029 A 
ATOM     42  C   UNL A   1      39.359  31.256  33.189  1.00  0.00     0.049 A 
ATOM     43  H   UNL A   1      40.365  30.017  31.852  1.00  0.00     0.167 HD
ATOM     44  C   UNL A   1      42.258  27.280  29.012  1.00  0.00     0.037 A 
ATOM     45  C   UNL A   1      40.022  31.193  34.359  1.00  0.00     0.037 A 
ATOM     46  C   UNL A   1      43.040  27.164  30.214  1.00  0.00     0.049 A 
ATOM     47  C   UNL A   1      41.207  30.275  34.489  1.00  0.00     0.074 A 
ATOM     48  C   UNL A   1      44.184  26.415  30.432  1.00  0.00     0.029 A 
ATOM     49  N   UNL A   1      42.759  27.820  31.402  1.00  0.00    -0.354 N 
ATOM     50  N   UNL A   1      41.761  29.507  33.583  1.00  0.00    -0.248 NA
ATOM     51  C   UNL A   1      41.847  30.203  35.810  1.00  0.00     0.031 C 
ATOM     52  C   UNL A   1      44.575  26.593  31.764  1.00  0.00     0.029 A 
ATOM     53  C   UNL A   1      43.696  27.480  32.363  1.00  0.00     0.049 A 
ATOM     54  H   UNL A   1      42.005  28.438  31.542  1.00  0.00     0.167 HD
ATOM     55  C   UNL A   1      42.823  28.876  34.217  1.00  0.00     0.074 A 
ATOM     56  C   UNL A   1      42.843  29.358  35.582  1.00  0.00     0.031 C 
ATOM     57  C   UNL A   1      43.703  27.976  33.714  1.00  0.00     0.037 A 
BRANCH  44  58
ATOM     58  C   UNL A   1      42.668  26.477  27.817  1.00  0.00     0.057 A 
ATOM     59  C   UNL A   1      43.549  26.979  26.853  1.00  0.00     0.134 A 
ATOM     60  C   UNL A   1      42.187  25.173  27.642  1.00  0.00     0.134 A 
ATOM     61  F   UNL A   1      44.030  28.227  26.955  1.00  0.00    -0.206 F 
ATOM     62  C   UNL A   1      43.928  26.216  25.747  1.00  0.00     0.040 A 
ATOM     63  C   UNL A   1      42.573  24.394  26.551  1.00  0.00     0.040 A 
ATOM     64  F   UNL A   1      41.338  24.635  28.532  1.00  0.00    -0.206 F 
ATOM     65  C   UNL A   1      43.443  24.917  25.596  1.00  0.00     0.006 A 
ENDBRANCH  44  58
BRANCH  45  66
ATOM     66  C   UNL A   1      39.554  31.988  35.521  1.00  0.00     0.057 A 
ATOM     67  C   UNL A   1      38.558  31.503  36.375  1.00  0.00     0.134 A 
ATOM     68  C   UNL A   1      40.078  33.257  35.792  1.00  0.00     0.134 A 
ATOM     69  F   UNL A   1      37.999  30.305  36.150  1.00  0.00    -0.206 F 
ATOM     70  C   UNL A   1      38.089  32.258  37.452  1.00  0.00     0.040 A 
ATOM     71  C   UNL A   1      39.635  34.013  36.877  1.00  0.00     0.040 A 
ATOM     72  F   UNL A   1      41.032  33.778  35.007  1.00  0.00    -0.206 F 
ATOM     73  C   UNL A   1      38.634  33.516  37.709  1.00  0.00     0.006 A 
ENDBRANCH  45  66
BRANCH  57  74
ATOM     74  C   UNL A   1      44.777  27.482  34.635  1.00  0.00     0.057 A 
ATOM     75  C   UNL A   1      45.992  28.162  34.781  1.00  0.00     0.134 A 
ATOM     76  C   UNL A   1      44.577  26.335  35.413  1.00  0.00     0.134 A 
ATOM     77  F   UNL A   1      46.248  29.259  34.053  1.00  0.00    -0.206 F 
ATOM     78  C   UNL A   1      46.979  27.708  35.657  1.00  0.00     0.040 A 
ATOM     79  C   UNL A   1      45.548  25.881  36.307  1.00  0.00     0.040 A 
ATOM     80  F   UNL A   1      43.431  25.642  35.324  1.00  0.00    -0.206 F 
ATOM     81  C   UNL A   1      46.755  26.568  36.428  1.00  0.00     0.006 A 
ENDBRANCH  57  74
ENDBRANCH  31  32
ENDBRANCH  24  26
ENDBRANCH  23  24
ENDBRANCH  22  23
ENDBRANCH   1  22
TORSDOF 15
ENDMDL
