MODEL 1
REMARK VINA RESULT:     -14.8      0.000      0.000
REMARK SMILES Cc1ccc(NC(=O)C[C@@H](C(=O)OCCOC(=O)c2ccc(-c3c4nc(c(-c5c(F)cccc5F)c5ccc([nH]5)c(-c5c(F)cccc5F)c5nc(c(-c6c(F)cccc6F)c6ccc3[nH]6)C=C5)C=C4)cc2)[NH+]2CCOCC2)cc1
REMARK SMILES IDX 14 1 13 2 11 3 12 4 10 5 9 6 7 7 6 8 8 10 5 11 1 12 2 13
REMARK SMILES IDX 3 14 80 15 4 16 79 17 73 18 74 19 78 20 75 22 77 23 76 24
REMARK SMILES IDX 15 25 16 26 17 27 18 28 19 29 20 30 72 31 21 32 71 33 22 34
REMARK SMILES IDX 23 35 24 36 65 37 25 38 70 39 64 40 66 41 26 42 69 43 63 44
REMARK SMILES IDX 62 45 27 47 53 48 36 49 52 50 37 51 40 52 51 53 67 54 38 55
REMARK SMILES IDX 39 56 50 58 68 59 41 60 28 61 29 62 34 63 30 64 31 65 33 66
REMARK SMILES IDX 35 67 32 68 54 69 55 70 60 71 56 72 57 73 59 74 61 75 58 76
REMARK SMILES IDX 42 77 43 78 48 79 44 80 45 81 47 82 49 83 46 84
REMARK H PARENT 6 9 73 21 66 46 40 57
REMARK Flexibility Score: inf
ROOT
ATOM      1  C   UNL A   1      33.642  28.474  24.138  1.00  0.00     0.274 C 
ENDROOT
BRANCH   1   2
ATOM      2  O   UNL A   1      33.923  26.670  24.195  1.00  0.00    -0.458 OA
BRANCH   2   3
ATOM      3  C   UNL A   1      33.538  25.517  23.431  1.00  0.00     0.365 C 
ATOM      4  O   UNL A   1      34.026  25.114  22.370  1.00  0.00    -0.245 OA
BRANCH   3   5
ATOM      5  C   UNL A   1      32.812  24.407  24.121  1.00  0.00     0.304 C 
BRANCH   5   6
ATOM      6  C   UNL A   1      32.272  25.328  25.297  1.00  0.00     0.177 C 
BRANCH   6   7
ATOM      7  C   UNL A   1      30.779  25.154  25.736  1.00  0.00     0.231 C 
ATOM      8  N   UNL A   1      29.623  25.744  25.259  1.00  0.00    -0.326 N 
ATOM      9  H   UNL A   1      28.903  25.713  25.929  1.00  0.00     0.169 HD
ATOM     10  O   UNL A   1      30.573  24.381  26.690  1.00  0.00    -0.274 OA
BRANCH   8  11
ATOM     11  C   UNL A   1      29.185  26.386  24.058  1.00  0.00     0.041 A 
ATOM     12  C   UNL A   1      28.040  30.651  21.387  1.00  0.00     0.044 C 
ATOM     13  C   UNL A   1      28.527  29.583  22.353  1.00  0.00    -0.051 A 
ATOM     14  C   UNL A   1      27.240  28.645  23.059  1.00  0.00     0.005 A 
ATOM     15  C   UNL A   1      30.072  28.920  22.452  1.00  0.00     0.005 A 
ATOM     16  C   UNL A   1      27.516  26.946  23.891  1.00  0.00     0.026 A 
ATOM     17  C   UNL A   1      30.413  27.376  23.236  1.00  0.00     0.026 A 
ENDBRANCH   8  11
ENDBRANCH   6   7
ENDBRANCH   5   6
BRANCH   5  18
ATOM     18  N   UNL A   1      33.727  23.134  24.565  1.00  0.00    -0.319 N 
ATOM     19  C   UNL A   1      35.182  23.403  24.794  1.00  0.00     0.291 C 
ATOM     20  C   UNL A   1      33.320  22.299  25.744  1.00  0.00     0.291 C 
ATOM     21  H   UNL A   1      33.548  22.612  23.707  1.00  0.00     0.348 HD
ATOM     22  C   UNL A   1      36.113  22.191  25.065  1.00  0.00     0.221 C 
ATOM     23  C   UNL A   1      34.294  21.094  26.052  1.00  0.00     0.221 C 
ATOM     24  O   UNL A   1      35.661  21.486  26.225  1.00  0.00    -0.370 OA
ENDBRANCH   5  18
ENDBRANCH   3   5
ENDBRANCH   2   3
ENDBRANCH   1   2
BRANCH   1  25
ATOM     25  C   UNL A   1      33.409  29.739  25.948  1.00  0.00     0.275 C 
BRANCH  25  26
ATOM     26  O   UNL A   1      34.627  29.301  27.347  1.00  0.00    -0.458 OA
BRANCH  26  27
ATOM     27  C   UNL A   1      35.742  30.157  28.209  1.00  0.00     0.338 C 
ATOM     28  O   UNL A   1      35.405  31.291  28.551  1.00  0.00    -0.246 OA
BRANCH  27  29
ATOM     29  C   UNL A   1      37.343  29.620  28.683  1.00  0.00     0.060 A 
ATOM     30  C   UNL A   1      37.707  28.758  29.730  1.00  0.00     0.016 A 
ATOM     31  C   UNL A   1      38.437  29.796  27.862  1.00  0.00     0.016 A 
ATOM     32  C   UNL A   1      38.804  27.805  29.596  1.00  0.00     0.010 A 
ATOM     33  C   UNL A   1      39.100  28.624  27.477  1.00  0.00     0.010 A 
ATOM     34  C   UNL A   1      39.422  27.640  28.381  1.00  0.00    -0.014 A 
BRANCH  34  35
ATOM     35  C   UNL A   1      40.653  26.869  28.062  1.00  0.00     0.031 A 
ATOM     36  C   UNL A   1      40.642  25.369  27.878  1.00  0.00     0.074 A 
ATOM     37  C   UNL A   1      41.730  27.720  28.133  1.00  0.00     0.049 A 
ATOM     38  N   UNL A   1      41.339  24.546  28.593  1.00  0.00    -0.248 NA
ATOM     39  C   UNL A   1      39.796  24.607  26.928  1.00  0.00     0.031 C 
ATOM     40  C   UNL A   1      43.168  27.639  27.981  1.00  0.00     0.029 A 
ATOM     41  N   UNL A   1      41.610  29.078  28.550  1.00  0.00    -0.354 N 
ATOM     42  C   UNL A   1      41.411  23.343  27.890  1.00  0.00     0.074 A 
ATOM     43  C   UNL A   1      40.253  23.341  27.040  1.00  0.00     0.031 C 
ATOM     44  C   UNL A   1      43.725  28.664  28.683  1.00  0.00     0.029 A 
ATOM     45  C   UNL A   1      42.666  29.439  29.334  1.00  0.00     0.049 A 
ATOM     46  H   UNL A   1      40.865  29.674  28.305  1.00  0.00     0.167 HD
ATOM     47  C   UNL A   1      42.601  22.661  27.854  1.00  0.00     0.037 A 
ATOM     48  C   UNL A   1      42.369  29.650  30.648  1.00  0.00     0.037 A 
ATOM     49  C   UNL A   1      43.590  23.486  28.532  1.00  0.00     0.049 A 
ATOM     50  C   UNL A   1      42.934  28.511  31.429  1.00  0.00     0.074 A 
ATOM     51  C   UNL A   1      44.458  24.436  28.022  1.00  0.00     0.029 A 
ATOM     52  N   UNL A   1      43.453  23.755  29.883  1.00  0.00    -0.354 N 
ATOM     53  N   UNL A   1      43.100  27.305  30.962  1.00  0.00    -0.248 NA
ATOM     54  C   UNL A   1      43.444  28.699  32.772  1.00  0.00     0.031 C 
ATOM     55  C   UNL A   1      44.860  25.271  29.093  1.00  0.00     0.029 A 
ATOM     56  C   UNL A   1      44.194  24.864  30.236  1.00  0.00     0.049 A 
ATOM     57  H   UNL A   1      42.902  23.228  30.505  1.00  0.00     0.167 HD
ATOM     58  C   UNL A   1      43.828  26.582  31.866  1.00  0.00     0.074 A 
ATOM     59  C   UNL A   1      44.033  27.512  32.966  1.00  0.00     0.031 C 
ATOM     60  C   UNL A   1      44.229  25.297  31.625  1.00  0.00     0.037 A 
BRANCH  47  61
ATOM     61  C   UNL A   1      43.033  21.494  26.966  1.00  0.00     0.057 A 
ATOM     62  C   UNL A   1      42.414  20.221  27.087  1.00  0.00     0.134 A 
ATOM     63  C   UNL A   1      43.984  21.562  25.935  1.00  0.00     0.134 A 
ATOM     64  F   UNL A   1      41.453  19.983  27.988  1.00  0.00    -0.206 F 
ATOM     65  C   UNL A   1      42.737  19.110  26.294  1.00  0.00     0.040 A 
ATOM     66  C   UNL A   1      44.319  20.448  25.128  1.00  0.00     0.040 A 
ATOM     67  F   UNL A   1      44.605  22.715  25.646  1.00  0.00    -0.206 F 
ATOM     68  C   UNL A   1      43.699  19.216  25.308  1.00  0.00     0.006 A 
ENDBRANCH  47  61
BRANCH  48  69
ATOM     69  C   UNL A   1      41.067  30.348  30.984  1.00  0.00     0.057 A 
ATOM     70  C   UNL A   1      40.168  29.769  31.908  1.00  0.00     0.134 A 
ATOM     71  C   UNL A   1      40.754  31.653  30.581  1.00  0.00     0.134 A 
ATOM     72  F   UNL A   1      40.368  28.517  32.348  1.00  0.00    -0.206 F 
ATOM     73  C   UNL A   1      39.089  30.474  32.475  1.00  0.00     0.040 A 
ATOM     74  C   UNL A   1      39.654  32.359  31.114  1.00  0.00     0.040 A 
ATOM     75  F   UNL A   1      41.559  32.322  29.743  1.00  0.00    -0.206 F 
ATOM     76  C   UNL A   1      38.844  31.788  32.096  1.00  0.00     0.006 A 
ENDBRANCH  48  69
BRANCH  60  77
ATOM     77  C   UNL A   1      44.797  24.340  32.648  1.00  0.00     0.057 A 
ATOM     78  C   UNL A   1      44.149  23.187  33.102  1.00  0.00     0.134 A 
ATOM     79  C   UNL A   1      46.112  24.504  33.149  1.00  0.00     0.134 A 
ATOM     80  F   UNL A   1      42.999  22.754  32.576  1.00  0.00    -0.206 F 
ATOM     81  C   UNL A   1      44.694  22.352  34.080  1.00  0.00     0.040 A 
ATOM     82  C   UNL A   1      46.713  23.609  34.031  1.00  0.00     0.040 A 
ATOM     83  F   UNL A   1      46.906  25.525  32.796  1.00  0.00    -0.206 F 
ATOM     84  C   UNL A   1      45.985  22.552  34.538  1.00  0.00     0.006 A 
ENDBRANCH  60  77
ENDBRANCH  34  35
ENDBRANCH  27  29
ENDBRANCH  26  27
ENDBRANCH  25  26
ENDBRANCH   1  25
TORSDOF 15
ENDMDL
MODEL 2
REMARK VINA RESULT:     -14.4      3.921      7.926
REMARK SMILES Cc1ccc(NC(=O)C[C@@H](C(=O)OCCOC(=O)c2ccc(-c3c4nc(c(-c5c(F)cccc5F)c5ccc([nH]5)c(-c5c(F)cccc5F)c5nc(c(-c6c(F)cccc6F)c6ccc3[nH]6)C=C5)C=C4)cc2)[NH+]2CCOCC2)cc1
REMARK SMILES IDX 14 1 13 2 11 3 12 4 10 5 9 6 7 7 6 8 8 10 5 11 1 12 2 13
REMARK SMILES IDX 3 14 80 15 4 16 79 17 73 18 74 19 78 20 75 22 77 23 76 24
REMARK SMILES IDX 15 25 16 26 17 27 18 28 19 29 20 30 72 31 21 32 71 33 22 34
REMARK SMILES IDX 23 35 24 36 65 37 25 38 70 39 64 40 66 41 26 42 69 43 63 44
REMARK SMILES IDX 62 45 27 47 53 48 36 49 52 50 37 51 40 52 51 53 67 54 38 55
REMARK SMILES IDX 39 56 50 58 68 59 41 60 28 61 29 62 34 63 30 64 31 65 33 66
REMARK SMILES IDX 35 67 32 68 54 69 55 70 60 71 56 72 57 73 59 74 61 75 58 76
REMARK SMILES IDX 42 77 43 78 48 79 44 80 45 81 47 82 49 83 46 84
REMARK H PARENT 6 9 73 21 66 46 40 57
REMARK Flexibility Score: inf
ROOT
ATOM      1  C   UNL A   1      34.297  26.614  24.849  1.00  0.00     0.274 C 
ENDROOT
BRANCH   1   2
ATOM      2  O   UNL A   1      34.503  24.832  25.199  1.00  0.00    -0.458 OA
BRANCH   2   3
ATOM      3  C   UNL A   1      35.093  23.691  24.558  1.00  0.00     0.365 C 
ATOM      4  O   UNL A   1      35.636  23.642  23.450  1.00  0.00    -0.245 OA
BRANCH   3   5
ATOM      5  C   UNL A   1      35.540  22.543  25.404  1.00  0.00     0.304 C 
BRANCH   5   6
ATOM      6  C   UNL A   1      34.271  22.594  26.359  1.00  0.00     0.177 C 
BRANCH   6   7
ATOM      7  C   UNL A   1      33.134  21.544  26.125  1.00  0.00     0.231 C 
ATOM      8  N   UNL A   1      31.781  21.714  25.898  1.00  0.00    -0.326 N 
ATOM      9  H   UNL A   1      31.275  20.901  26.128  1.00  0.00     0.169 HD
ATOM     10  O   UNL A   1      33.474  20.347  26.170  1.00  0.00    -0.274 OA
BRANCH   8  11
ATOM     11  C   UNL A   1      30.912  22.746  25.422  1.00  0.00     0.041 A 
ATOM     12  C   UNL A   1      30.140  27.546  23.690  1.00  0.00     0.044 C 
ATOM     13  C   UNL A   1      30.654  26.182  24.124  1.00  0.00    -0.051 A 
ATOM     14  C   UNL A   1      30.315  25.810  25.792  1.00  0.00     0.005 A 
ATOM     15  C   UNL A   1      31.054  24.877  23.137  1.00  0.00     0.005 A 
ATOM     16  C   UNL A   1      30.363  24.035  26.500  1.00  0.00     0.026 A 
ATOM     17  C   UNL A   1      31.156  23.216  23.723  1.00  0.00     0.026 A 
ENDBRANCH   8  11
ENDBRANCH   6   7
ENDBRANCH   5   6
BRANCH   5  18
ATOM     18  N   UNL A   1      36.991  22.717  26.123  1.00  0.00    -0.319 N 
ATOM     19  C   UNL A   1      38.094  21.836  25.626  1.00  0.00     0.291 C 
ATOM     20  C   UNL A   1      37.620  24.077  26.210  1.00  0.00     0.291 C 
ATOM     21  H   UNL A   1      36.649  22.447  27.046  1.00  0.00     0.348 HD
ATOM     22  C   UNL A   1      39.447  21.863  26.388  1.00  0.00     0.221 C 
ATOM     23  C   UNL A   1      39.021  24.098  26.941  1.00  0.00     0.221 C 
ATOM     24  O   UNL A   1      39.978  23.191  26.382  1.00  0.00    -0.370 OA
ENDBRANCH   5  18
ENDBRANCH   3   5
ENDBRANCH   2   3
ENDBRANCH   1   2
BRANCH   1  25
ATOM     25  C   UNL A   1      33.216  28.014  26.191  1.00  0.00     0.275 C 
BRANCH  25  26
ATOM     26  O   UNL A   1      34.258  28.603  27.675  1.00  0.00    -0.458 OA
BRANCH  26  27
ATOM     27  C   UNL A   1      35.586  29.567  27.834  1.00  0.00     0.338 C 
ATOM     28  O   UNL A   1      35.540  30.650  27.251  1.00  0.00    -0.246 OA
BRANCH  27  29
ATOM     29  C   UNL A   1      37.042  29.207  28.743  1.00  0.00     0.060 A 
ATOM     30  C   UNL A   1      38.383  29.332  28.342  1.00  0.00     0.016 A 
ATOM     31  C   UNL A   1      37.013  29.004  30.107  1.00  0.00     0.016 A 
ATOM     32  C   UNL A   1      39.426  29.763  29.268  1.00  0.00     0.010 A 
ATOM     33  C   UNL A   1      37.790  29.884  30.868  1.00  0.00     0.010 A 
ATOM     34  C   UNL A   1      39.088  30.187  30.529  1.00  0.00    -0.014 A 
BRANCH  34  35
ATOM     35  C   UNL A   1      39.983  30.497  31.676  1.00  0.00     0.031 A 
ATOM     36  C   UNL A   1      40.488  29.428  32.618  1.00  0.00     0.074 A 
ATOM     37  C   UNL A   1      40.099  31.862  31.781  1.00  0.00     0.049 A 
ATOM     38  N   UNL A   1      40.268  29.423  33.893  1.00  0.00    -0.248 NA
ATOM     39  C   UNL A   1      41.231  28.202  32.238  1.00  0.00     0.031 C 
ATOM     40  C   UNL A   1      40.756  32.815  32.651  1.00  0.00     0.029 A 
ATOM     41  N   UNL A   1      39.368  32.761  30.950  1.00  0.00    -0.354 N 
ATOM     42  C   UNL A   1      41.207  28.569  34.472  1.00  0.00     0.074 A 
ATOM     43  C   UNL A   1      41.577  27.659  33.425  1.00  0.00     0.031 C 
ATOM     44  C   UNL A   1      40.078  33.994  32.576  1.00  0.00     0.029 A 
ATOM     45  C   UNL A   1      38.941  33.842  31.665  1.00  0.00     0.049 A 
ATOM     46  H   UNL A   1      39.195  32.621  29.991  1.00  0.00     0.167 HD
ATOM     47  C   UNL A   1      41.809  28.939  35.649  1.00  0.00     0.037 A 
ATOM     48  C   UNL A   1      37.595  33.906  31.871  1.00  0.00     0.037 A 
ATOM     49  C   UNL A   1      41.349  30.284  35.963  1.00  0.00     0.049 A 
ATOM     50  C   UNL A   1      37.341  33.594  33.308  1.00  0.00     0.074 A 
ATOM     51  C   UNL A   1      41.898  31.512  35.638  1.00  0.00     0.029 A 
ATOM     52  N   UNL A   1      40.012  30.505  36.242  1.00  0.00    -0.354 N 
ATOM     53  N   UNL A   1      38.098  32.828  34.043  1.00  0.00    -0.248 NA
ATOM     54  C   UNL A   1      36.255  34.220  34.034  1.00  0.00     0.031 C 
ATOM     55  C   UNL A   1      40.874  32.484  35.747  1.00  0.00     0.029 A 
ATOM     56  C   UNL A   1      39.696  31.839  36.080  1.00  0.00     0.049 A 
ATOM     57  H   UNL A   1      39.375  29.808  36.518  1.00  0.00     0.167 HD
ATOM     58  C   UNL A   1      37.695  32.933  35.345  1.00  0.00     0.074 A 
ATOM     59  C   UNL A   1      36.554  33.834  35.282  1.00  0.00     0.031 C 
ATOM     60  C   UNL A   1      38.346  32.302  36.368  1.00  0.00     0.037 A 
BRANCH  47  61
ATOM     61  C   UNL A   1      43.033  28.348  36.349  1.00  0.00     0.057 A 
ATOM     62  C   UNL A   1      42.938  27.130  37.074  1.00  0.00     0.134 A 
ATOM     63  C   UNL A   1      44.336  28.871  36.295  1.00  0.00     0.134 A 
ATOM     64  F   UNL A   1      41.782  26.465  37.195  1.00  0.00    -0.206 F 
ATOM     65  C   UNL A   1      44.019  26.513  37.721  1.00  0.00     0.040 A 
ATOM     66  C   UNL A   1      45.434  28.258  36.944  1.00  0.00     0.040 A 
ATOM     67  F   UNL A   1      44.604  29.978  35.587  1.00  0.00    -0.206 F 
ATOM     68  C   UNL A   1      45.278  27.077  37.664  1.00  0.00     0.006 A 
ENDBRANCH  47  61
BRANCH  48  69
ATOM     69  C   UNL A   1      36.676  33.497  30.738  1.00  0.00     0.057 A 
ATOM     70  C   UNL A   1      35.590  32.627  30.982  1.00  0.00     0.134 A 
ATOM     71  C   UNL A   1      36.706  34.075  29.461  1.00  0.00     0.134 A 
ATOM     72  F   UNL A   1      35.474  32.010  32.168  1.00  0.00    -0.206 F 
ATOM     73  C   UNL A   1      34.546  32.425  30.059  1.00  0.00     0.040 A 
ATOM     74  C   UNL A   1      35.685  33.851  28.513  1.00  0.00     0.040 A 
ATOM     75  F   UNL A   1      37.664  34.953  29.130  1.00  0.00    -0.206 F 
ATOM     76  C   UNL A   1      34.578  33.061  28.825  1.00  0.00     0.006 A 
ENDBRANCH  48  69
BRANCH  60  77
ATOM     77  C   UNL A   1      37.832  32.142  37.781  1.00  0.00     0.057 A 
ATOM     78  C   UNL A   1      37.819  33.158  38.741  1.00  0.00     0.134 A 
ATOM     79  C   UNL A   1      37.215  30.937  38.200  1.00  0.00     0.134 A 
ATOM     80  F   UNL A   1      38.157  34.420  38.458  1.00  0.00    -0.206 F 
ATOM     81  C   UNL A   1      37.373  32.952  40.049  1.00  0.00     0.040 A 
ATOM     82  C   UNL A   1      36.653  30.762  39.462  1.00  0.00     0.040 A 
ATOM     83  F   UNL A   1      37.093  29.864  37.404  1.00  0.00    -0.206 F 
ATOM     84  C   UNL A   1      36.774  31.758  40.410  1.00  0.00     0.006 A 
ENDBRANCH  60  77
ENDBRANCH  34  35
ENDBRANCH  27  29
ENDBRANCH  26  27
ENDBRANCH  25  26
ENDBRANCH   1  25
TORSDOF 15
ENDMDL
MODEL 3
REMARK VINA RESULT:     -14.3      1.852      2.739
REMARK SMILES Cc1ccc(NC(=O)C[C@@H](C(=O)OCCOC(=O)c2ccc(-c3c4nc(c(-c5c(F)cccc5F)c5ccc([nH]5)c(-c5c(F)cccc5F)c5nc(c(-c6c(F)cccc6F)c6ccc3[nH]6)C=C5)C=C4)cc2)[NH+]2CCOCC2)cc1
REMARK SMILES IDX 14 1 13 2 11 3 12 4 10 5 9 6 7 7 6 8 8 10 5 11 1 12 2 13
REMARK SMILES IDX 3 14 80 15 4 16 79 17 73 18 74 19 78 20 75 22 77 23 76 24
REMARK SMILES IDX 15 25 16 26 17 27 18 28 19 29 20 30 72 31 21 32 71 33 22 34
REMARK SMILES IDX 23 35 24 36 65 37 25 38 70 39 64 40 66 41 26 42 69 43 63 44
REMARK SMILES IDX 62 45 27 47 53 48 36 49 52 50 37 51 40 52 51 53 67 54 38 55
REMARK SMILES IDX 39 56 50 58 68 59 41 60 28 61 29 62 34 63 30 64 31 65 33 66
REMARK SMILES IDX 35 67 32 68 54 69 55 70 60 71 56 72 57 73 59 74 61 75 58 76
REMARK SMILES IDX 42 77 43 78 48 79 44 80 45 81 47 82 49 83 46 84
REMARK H PARENT 6 9 73 21 66 46 40 57
REMARK Flexibility Score: inf
ROOT
ATOM      1  C   UNL A   1      33.978  25.800  25.734  1.00  0.00     0.274 C 
ENDROOT
BRANCH   1   2
ATOM      2  O   UNL A   1      35.324  24.721  25.128  1.00  0.00    -0.458 OA
BRANCH   2   3
ATOM      3  C   UNL A   1      35.445  23.520  24.352  1.00  0.00     0.365 C 
ATOM      4  O   UNL A   1      35.777  23.413  23.167  1.00  0.00    -0.245 OA
BRANCH   3   5
ATOM      5  C   UNL A   1      35.651  22.222  25.065  1.00  0.00     0.304 C 
BRANCH   5   6
ATOM      6  C   UNL A   1      34.376  22.392  25.998  1.00  0.00     0.177 C 
BRANCH   6   7
ATOM      7  C   UNL A   1      33.194  21.381  25.815  1.00  0.00     0.231 C 
ATOM      8  N   UNL A   1      31.833  21.597  25.697  1.00  0.00    -0.326 N 
ATOM      9  H   UNL A   1      31.323  20.789  25.936  1.00  0.00     0.169 HD
ATOM     10  O   UNL A   1      33.501  20.175  25.793  1.00  0.00    -0.274 OA
BRANCH   8  11
ATOM     11  C   UNL A   1      30.963  22.667  25.323  1.00  0.00     0.041 A 
ATOM     12  C   UNL A   1      30.201  27.567  23.894  1.00  0.00     0.044 C 
ATOM     13  C   UNL A   1      30.708  26.173  24.226  1.00  0.00    -0.051 A 
ATOM     14  C   UNL A   1      30.448  25.717  25.887  1.00  0.00     0.005 A 
ATOM     15  C   UNL A   1      31.030  24.918  23.151  1.00  0.00     0.005 A 
ATOM     16  C   UNL A   1      30.497  23.906  26.497  1.00  0.00     0.026 A 
ATOM     17  C   UNL A   1      31.127  23.225  23.642  1.00  0.00     0.026 A 
ENDBRANCH   8  11
ENDBRANCH   6   7
ENDBRANCH   5   6
BRANCH   5  18
ATOM     18  N   UNL A   1      37.082  22.052  25.825  1.00  0.00    -0.319 N 
ATOM     19  C   UNL A   1      38.051  21.086  25.217  1.00  0.00     0.291 C 
ATOM     20  C   UNL A   1      37.915  23.265  26.124  1.00  0.00     0.291 C 
ATOM     21  H   UNL A   1      36.666  21.710  26.691  1.00  0.00     0.348 HD
ATOM     22  C   UNL A   1      39.360  20.781  25.995  1.00  0.00     0.221 C 
ATOM     23  C   UNL A   1      39.271  22.952  26.871  1.00  0.00     0.221 C 
ATOM     24  O   UNL A   1      40.094  21.992  26.197  1.00  0.00    -0.370 OA
ENDBRANCH   5  18
ENDBRANCH   3   5
ENDBRANCH   2   3
ENDBRANCH   1   2
BRANCH   1  25
ATOM     25  C   UNL A   1      34.063  28.018  25.681  1.00  0.00     0.275 C 
BRANCH  25  26
ATOM     26  O   UNL A   1      34.370  28.809  27.388  1.00  0.00    -0.458 OA
BRANCH  26  27
ATOM     27  C   UNL A   1      35.405  29.964  27.948  1.00  0.00     0.338 C 
ATOM     28  O   UNL A   1      35.009  31.127  27.875  1.00  0.00    -0.246 OA
BRANCH  27  29
ATOM     29  C   UNL A   1      36.999  29.703  28.632  1.00  0.00     0.060 A 
ATOM     30  C   UNL A   1      37.418  28.711  29.534  1.00  0.00     0.016 A 
ATOM     31  C   UNL A   1      38.118  30.324  28.117  1.00  0.00     0.016 A 
ATOM     32  C   UNL A   1      38.740  28.098  29.444  1.00  0.00     0.010 A 
ATOM     33  C   UNL A   1      39.124  29.470  27.650  1.00  0.00     0.010 A 
ATOM     34  C   UNL A   1      39.558  28.390  28.381  1.00  0.00    -0.014 A 
BRANCH  34  35
ATOM     35  C   UNL A   1      40.986  28.026  28.180  1.00  0.00     0.031 A 
ATOM     36  C   UNL A   1      41.406  26.705  27.577  1.00  0.00     0.074 A 
ATOM     37  C   UNL A   1      41.768  28.992  28.766  1.00  0.00     0.049 A 
ATOM     38  N   UNL A   1      42.154  25.838  28.179  1.00  0.00    -0.248 NA
ATOM     39  C   UNL A   1      40.977  26.164  26.264  1.00  0.00     0.031 C 
ATOM     40  C   UNL A   1      43.179  29.245  28.972  1.00  0.00     0.029 A 
ATOM     41  N   UNL A   1      41.220  30.077  29.511  1.00  0.00    -0.354 N 
ATOM     42  C   UNL A   1      42.668  24.984  27.203  1.00  0.00     0.074 A 
ATOM     43  C   UNL A   1      41.725  25.048  26.121  1.00  0.00     0.031 C 
ATOM     44  C   UNL A   1      43.309  30.058  30.057  1.00  0.00     0.029 A 
ATOM     45  C   UNL A   1      41.983  30.346  30.609  1.00  0.00     0.049 A 
ATOM     46  H   UNL A   1      40.401  30.566  29.266  1.00  0.00     0.167 HD
ATOM     47  C   UNL A   1      43.982  24.597  27.278  1.00  0.00     0.037 A 
ATOM     48  C   UNL A   1      41.409  30.036  31.806  1.00  0.00     0.037 A 
ATOM     49  C   UNL A   1      44.578  25.316  28.395  1.00  0.00     0.049 A 
ATOM     50  C   UNL A   1      42.104  28.831  32.344  1.00  0.00     0.074 A 
ATOM     51  C   UNL A   1      45.242  26.531  28.420  1.00  0.00     0.029 A 
ATOM     52  N   UNL A   1      44.133  25.078  29.683  1.00  0.00    -0.354 N 
ATOM     53  N   UNL A   1      42.665  27.911  31.609  1.00  0.00    -0.248 NA
ATOM     54  C   UNL A   1      42.295  28.646  33.768  1.00  0.00     0.031 C 
ATOM     55  C   UNL A   1      45.208  27.012  29.751  1.00  0.00     0.029 A 
ATOM     56  C   UNL A   1      44.478  26.121  30.518  1.00  0.00     0.049 A 
ATOM     57  H   UNL A   1      43.638  24.275  29.965  1.00  0.00     0.167 HD
ATOM     58  C   UNL A   1      43.383  27.078  32.422  1.00  0.00     0.074 A 
ATOM     59  C   UNL A   1      43.133  27.599  33.757  1.00  0.00     0.031 C 
ATOM     60  C   UNL A   1      44.146  26.055  31.933  1.00  0.00     0.037 A 
BRANCH  47  61
ATOM     61  C   UNL A   1      44.861  23.907  26.235  1.00  0.00     0.057 A 
ATOM     62  C   UNL A   1      44.801  22.500  26.050  1.00  0.00     0.134 A 
ATOM     63  C   UNL A   1      45.723  24.558  25.336  1.00  0.00     0.134 A 
ATOM     64  F   UNL A   1      44.000  21.721  26.788  1.00  0.00    -0.206 F 
ATOM     65  C   UNL A   1      45.555  21.798  25.097  1.00  0.00     0.040 A 
ATOM     66  C   UNL A   1      46.489  23.861  24.371  1.00  0.00     0.040 A 
ATOM     67  F   UNL A   1      45.835  25.893  25.334  1.00  0.00    -0.206 F 
ATOM     68  C   UNL A   1      46.411  22.476  24.252  1.00  0.00     0.006 A 
ENDBRANCH  47  61
BRANCH  48  69
ATOM     69  C   UNL A   1      39.930  30.314  31.983  1.00  0.00     0.057 A 
ATOM     70  C   UNL A   1      39.076  29.316  32.505  1.00  0.00     0.134 A 
ATOM     71  C   UNL A   1      39.351  31.582  31.841  1.00  0.00     0.134 A 
ATOM     72  F   UNL A   1      39.528  28.062  32.668  1.00  0.00    -0.206 F 
ATOM     73  C   UNL A   1      37.769  29.581  32.954  1.00  0.00     0.040 A 
ATOM     74  C   UNL A   1      38.029  31.854  32.253  1.00  0.00     0.040 A 
ATOM     75  F   UNL A   1      40.077  32.620  31.400  1.00  0.00    -0.206 F 
ATOM     76  C   UNL A   1      37.248  30.865  32.851  1.00  0.00     0.006 A 
ENDBRANCH  48  69
BRANCH  60  77
ATOM     77  C   UNL A   1      44.752  24.934  32.748  1.00  0.00     0.057 A 
ATOM     78  C   UNL A   1      44.274  23.621  32.770  1.00  0.00     0.134 A 
ATOM     79  C   UNL A   1      45.948  25.132  33.483  1.00  0.00     0.134 A 
ATOM     80  F   UNL A   1      43.292  23.199  31.968  1.00  0.00    -0.206 F 
ATOM     81  C   UNL A   1      44.842  22.627  33.571  1.00  0.00     0.040 A 
ATOM     82  C   UNL A   1      46.592  24.116  34.185  1.00  0.00     0.040 A 
ATOM     83  F   UNL A   1      46.580  26.312  33.546  1.00  0.00    -0.206 F 
ATOM     84  C   UNL A   1      46.012  22.867  34.270  1.00  0.00     0.006 A 
ENDBRANCH  60  77
ENDBRANCH  34  35
ENDBRANCH  27  29
ENDBRANCH  26  27
ENDBRANCH  25  26
ENDBRANCH   1  25
TORSDOF 15
ENDMDL
