MODEL 1
REMARK VINA RESULT:     -10.9      0.000      0.000
REMARK SMILES CCCCCCNC(=O)Oc1cccc(-c2ccc([C@@H](C)C(=O)OCCOC(=O)c3ccc(-c4c5nc(c(-c6c(F)cccc6F)c6ccc([nH]6)c(-c6c(F)cccc6F)c6nc(c(-c7c(F)cccc7F)c7ccc4[nH]7)C=C6)C=C5)cc3)cc2)c1
REMARK SMILES IDX 20 1 21 2 19 3 16 4 17 5 85 6 18 7 84 8 15 9 11 10 12 11
REMARK SMILES IDX 86 12 13 13 14 14 10 15 8 16 7 17 9 19 6 20 5 21 4 22 3 23
REMARK SMILES IDX 2 24 1 25 22 26 23 27 24 28 25 29 26 30 27 31 28 32 29 33
REMARK SMILES IDX 30 34 31 35 83 36 32 37 82 38 33 39 34 40 35 41 76 42 36 43
REMARK SMILES IDX 81 44 75 45 77 46 37 47 80 48 74 49 73 50 38 52 64 53 47 54
REMARK SMILES IDX 63 55 48 56 51 57 62 58 78 59 49 60 50 61 61 63 79 64 52 65
REMARK SMILES IDX 39 66 40 67 45 68 41 69 42 70 44 71 46 72 43 73 65 74 66 75
REMARK SMILES IDX 71 76 67 77 68 78 70 79 72 80 69 81 53 82 54 83 59 84 55 85
REMARK SMILES IDX 56 86 58 87 60 88 57 89
REMARK H PARENT 7 18 77 51 51 62
REMARK Flexibility Score: inf
ROOT
ATOM      1  C   UNL A   1      41.048  22.507  26.837  1.00  0.00     0.126 C 
ATOM      2  C   UNL A   1      41.156  22.332  28.350  1.00  0.00     0.025 C 
ENDROOT
BRANCH   1   3
ATOM      3  C   UNL A   1      39.605  22.573  26.361  1.00  0.00    -0.034 A 
ATOM      4  C   UNL A   1      36.943  22.684  25.362  1.00  0.00    -0.018 A 
ATOM      5  C   UNL A   1      37.521  23.781  26.017  1.00  0.00     0.009 A 
ATOM      6  C   UNL A   1      37.710  21.517  25.246  1.00  0.00     0.009 A 
ATOM      7  C   UNL A   1      38.831  23.731  26.504  1.00  0.00     0.005 A 
ATOM      8  C   UNL A   1      39.020  21.461  25.736  1.00  0.00     0.005 A 
BRANCH   4   9
ATOM      9  C   UNL A   1      35.596  22.777  24.769  1.00  0.00    -0.015 A 
ATOM     10  C   UNL A   1      33.723  24.054  23.906  1.00  0.00     0.133 A 
ATOM     11  C   UNL A   1      32.981  22.891  23.708  1.00  0.00     0.047 A 
ATOM     12  C   UNL A   1      35.013  24.012  24.440  1.00  0.00     0.056 A 
ATOM     13  C   UNL A   1      33.546  21.662  24.024  1.00  0.00     0.004 A 
ATOM     14  C   UNL A   1      34.839  21.608  24.551  1.00  0.00     0.009 A 
BRANCH  10  15
ATOM     15  O   UNL A   1      33.059  25.268  23.661  1.00  0.00    -0.410 OA
BRANCH  15  16
ATOM     16  C   UNL A   1      32.931  25.687  22.346  1.00  0.00     0.412 C 
ATOM     17  N   UNL A   1      31.752  26.342  22.108  1.00  0.00    -0.321 N 
ATOM     18  H   UNL A   1      31.619  26.690  21.196  1.00  0.00     0.167 HD
ATOM     19  O   UNL A   1      33.741  25.506  21.446  1.00  0.00    -0.224 OA
BRANCH  17  20
ATOM     20  C   UNL A   1      30.681  26.578  23.054  1.00  0.00     0.119 C 
BRANCH  20  21
ATOM     21  C   UNL A   1      30.492  28.064  23.354  1.00  0.00     0.021 C 
BRANCH  21  22
ATOM     22  C   UNL A   1      31.098  28.538  24.682  1.00  0.00     0.002 C 
BRANCH  22  23
ATOM     23  C   UNL A   1      31.309  27.450  25.740  1.00  0.00    -0.000 C 
BRANCH  23  24
ATOM     24  C   UNL A   1      31.930  27.922  27.058  1.00  0.00    -0.003 C 
ATOM     25  C   UNL A   1      31.907  29.432  27.229  1.00  0.00     0.004 C 
ENDBRANCH  23  24
ENDBRANCH  22  23
ENDBRANCH  21  22
ENDBRANCH  20  21
ENDBRANCH  17  20
ENDBRANCH  15  16
ENDBRANCH  10  15
ENDBRANCH   4   9
ENDBRANCH   1   3
BRANCH   1  26
ATOM     26  C   UNL A   1      41.940  21.492  26.132  1.00  0.00     0.313 C 
ATOM     27  O   UNL A   1      42.027  20.329  26.514  1.00  0.00    -0.252 OA
BRANCH  26  28
ATOM     28  O   UNL A   1      42.575  21.988  25.038  1.00  0.00    -0.462 OA
BRANCH  28  29
ATOM     29  C   UNL A   1      44.010  21.865  25.007  1.00  0.00     0.274 C 
BRANCH  29  30
ATOM     30  C   UNL A   1      44.664  23.156  24.513  1.00  0.00     0.275 C 
BRANCH  30  31
ATOM     31  O   UNL A   1      43.850  24.300  24.828  1.00  0.00    -0.458 OA
BRANCH  31  32
ATOM     32  C   UNL A   1      44.532  25.407  25.200  1.00  0.00     0.338 C 
ATOM     33  O   UNL A   1      45.537  25.871  24.694  1.00  0.00    -0.246 OA
BRANCH  32  34
ATOM     34  C   UNL A   1      43.810  26.079  26.288  1.00  0.00     0.060 A 
ATOM     35  C   UNL A   1      44.126  27.410  26.566  1.00  0.00     0.016 A 
ATOM     36  C   UNL A   1      42.902  25.380  27.084  1.00  0.00     0.016 A 
ATOM     37  C   UNL A   1      43.545  28.053  27.654  1.00  0.00     0.010 A 
ATOM     38  C   UNL A   1      42.310  26.029  28.172  1.00  0.00     0.010 A 
ATOM     39  C   UNL A   1      42.640  27.364  28.471  1.00  0.00    -0.014 A 
BRANCH  39  40
ATOM     40  C   UNL A   1      42.079  28.030  29.668  1.00  0.00     0.031 A 
ATOM     41  C   UNL A   1      40.816  28.833  29.555  1.00  0.00     0.074 A 
ATOM     42  C   UNL A   1      42.692  27.896  30.859  1.00  0.00     0.049 A 
ATOM     43  N   UNL A   1      40.213  29.559  30.461  1.00  0.00    -0.248 NA
ATOM     44  C   UNL A   1      40.142  28.817  28.247  1.00  0.00     0.031 C 
ATOM     45  C   UNL A   1      43.898  27.105  31.102  1.00  0.00     0.029 A 
ATOM     46  N   UNL A   1      42.385  28.427  32.085  1.00  0.00    -0.354 N 
ATOM     47  C   UNL A   1      39.102  30.101  29.830  1.00  0.00     0.074 A 
ATOM     48  C   UNL A   1      39.120  29.632  28.461  1.00  0.00     0.031 C 
ATOM     49  C   UNL A   1      44.229  27.203  32.401  1.00  0.00     0.029 A 
ATOM     50  C   UNL A   1      43.286  28.096  33.066  1.00  0.00     0.049 A 
ATOM     51  H   UNL A   1      41.594  28.991  32.245  1.00  0.00     0.167 HD
ATOM     52  C   UNL A   1      38.152  30.916  30.349  1.00  0.00     0.037 A 
ATOM     53  C   UNL A   1      43.358  28.494  34.350  1.00  0.00     0.037 A 
ATOM     54  C   UNL A   1      38.128  31.368  31.716  1.00  0.00     0.049 A 
ATOM     55  C   UNL A   1      42.323  29.443  34.886  1.00  0.00     0.074 A 
ATOM     56  C   UNL A   1      37.201  32.187  32.338  1.00  0.00     0.029 A 
ATOM     57  N   UNL A   1      39.076  31.037  32.671  1.00  0.00    -0.354 N 
ATOM     58  N   UNL A   1      41.282  29.961  34.279  1.00  0.00    -0.248 NA
ATOM     59  C   UNL A   1      42.477  29.870  36.284  1.00  0.00     0.031 C 
ATOM     60  C   UNL A   1      37.607  32.378  33.664  1.00  0.00     0.029 A 
ATOM     61  C   UNL A   1      38.767  31.648  33.875  1.00  0.00     0.049 A 
ATOM     62  H   UNL A   1      39.853  30.453  32.518  1.00  0.00     0.167 HD
ATOM     63  C   UNL A   1      40.652  30.762  35.221  1.00  0.00     0.074 A 
ATOM     64  C   UNL A   1      41.417  30.649  36.445  1.00  0.00     0.031 C 
ATOM     65  C   UNL A   1      39.540  31.525  35.083  1.00  0.00     0.037 A 
BRANCH  52  66
ATOM     66  C   UNL A   1      37.073  31.392  29.424  1.00  0.00     0.057 A 
ATOM     67  C   UNL A   1      37.098  32.672  28.856  1.00  0.00     0.134 A 
ATOM     68  C   UNL A   1      36.013  30.548  29.073  1.00  0.00     0.134 A 
ATOM     69  F   UNL A   1      38.079  33.533  29.164  1.00  0.00    -0.206 F 
ATOM     70  C   UNL A   1      36.095  33.101  27.985  1.00  0.00     0.040 A 
ATOM     71  C   UNL A   1      35.016  30.958  28.188  1.00  0.00     0.040 A 
ATOM     72  F   UNL A   1      35.933  29.308  29.582  1.00  0.00    -0.206 F 
ATOM     73  C   UNL A   1      35.053  32.240  27.644  1.00  0.00     0.006 A 
ENDBRANCH  52  66
BRANCH  53  74
ATOM     74  C   UNL A   1      44.466  28.016  35.212  1.00  0.00     0.057 A 
ATOM     75  C   UNL A   1      44.364  26.816  35.924  1.00  0.00     0.134 A 
ATOM     76  C   UNL A   1      45.649  28.752  35.348  1.00  0.00     0.134 A 
ATOM     77  F   UNL A   1      43.245  26.081  35.851  1.00  0.00    -0.206 F 
ATOM     78  C   UNL A   1      45.396  26.369  36.751  1.00  0.00     0.040 A 
ATOM     79  C   UNL A   1      46.698  28.306  36.154  1.00  0.00     0.040 A 
ATOM     80  F   UNL A   1      45.806  29.911  34.693  1.00  0.00    -0.206 F 
ATOM     81  C   UNL A   1      46.570  27.113  36.863  1.00  0.00     0.006 A 
ENDBRANCH  53  74
BRANCH  65  82
ATOM     82  C   UNL A   1      39.077  32.277  36.293  1.00  0.00     0.057 A 
ATOM     83  C   UNL A   1      39.506  33.583  36.555  1.00  0.00     0.134 A 
ATOM     84  C   UNL A   1      38.168  31.700  37.189  1.00  0.00     0.134 A 
ATOM     85  F   UNL A   1      40.388  34.185  35.742  1.00  0.00    -0.206 F 
ATOM     86  C   UNL A   1      39.061  34.285  37.676  1.00  0.00     0.040 A 
ATOM     87  C   UNL A   1      37.700  32.399  38.302  1.00  0.00     0.040 A 
ATOM     88  F   UNL A   1      37.715  30.453  36.991  1.00  0.00    -0.206 F 
ATOM     89  C   UNL A   1      38.150  33.694  38.550  1.00  0.00     0.006 A 
ENDBRANCH  65  82
ENDBRANCH  39  40
ENDBRANCH  32  34
ENDBRANCH  31  32
ENDBRANCH  30  31
ENDBRANCH  29  30
ENDBRANCH  28  29
ENDBRANCH  26  28
ENDBRANCH   1  26
TORSDOF 20
ENDMDL
MODEL 2
REMARK VINA RESULT:     -10.9      1.048      2.085
REMARK SMILES CCCCCCNC(=O)Oc1cccc(-c2ccc([C@@H](C)C(=O)OCCOC(=O)c3ccc(-c4c5nc(c(-c6c(F)cccc6F)c6ccc([nH]6)c(-c6c(F)cccc6F)c6nc(c(-c7c(F)cccc7F)c7ccc4[nH]7)C=C6)C=C5)cc3)cc2)c1
REMARK SMILES IDX 20 1 21 2 19 3 16 4 17 5 85 6 18 7 84 8 15 9 11 10 12 11
REMARK SMILES IDX 86 12 13 13 14 14 10 15 8 16 7 17 9 19 6 20 5 21 4 22 3 23
REMARK SMILES IDX 2 24 1 25 22 26 23 27 24 28 25 29 26 30 27 31 28 32 29 33
REMARK SMILES IDX 30 34 31 35 83 36 32 37 82 38 33 39 34 40 35 41 76 42 36 43
REMARK SMILES IDX 81 44 75 45 77 46 37 47 80 48 74 49 73 50 38 52 64 53 47 54
REMARK SMILES IDX 63 55 48 56 51 57 62 58 78 59 49 60 50 61 61 63 79 64 52 65
REMARK SMILES IDX 39 66 40 67 45 68 41 69 42 70 44 71 46 72 43 73 65 74 66 75
REMARK SMILES IDX 71 76 67 77 68 78 70 79 72 80 69 81 53 82 54 83 59 84 55 85
REMARK SMILES IDX 56 86 58 87 60 88 57 89
REMARK H PARENT 7 18 77 51 51 62
REMARK Flexibility Score: inf
ROOT
ATOM      1  C   UNL A   1      41.562  22.215  27.050  1.00  0.00     0.126 C 
ATOM      2  C   UNL A   1      41.671  22.104  28.570  1.00  0.00     0.025 C 
ENDROOT
BRANCH   1   3
ATOM      3  C   UNL A   1      40.146  22.523  26.590  1.00  0.00    -0.034 A 
ATOM      4  C   UNL A   1      37.528  23.077  25.620  1.00  0.00    -0.018 A 
ATOM      5  C   UNL A   1      38.301  24.070  26.240  1.00  0.00     0.009 A 
ATOM      6  C   UNL A   1      38.077  21.791  25.525  1.00  0.00     0.009 A 
ATOM      7  C   UNL A   1      39.589  23.802  26.712  1.00  0.00     0.005 A 
ATOM      8  C   UNL A   1      39.365  21.517  26.000  1.00  0.00     0.005 A 
BRANCH   4   9
ATOM      9  C   UNL A   1      36.209  23.391  25.041  1.00  0.00    -0.015 A 
ATOM     10  C   UNL A   1      34.001  24.389  25.165  1.00  0.00     0.133 A 
ATOM     11  C   UNL A   1      33.673  23.894  23.905  1.00  0.00     0.047 A 
ATOM     12  C   UNL A   1      35.248  24.138  25.742  1.00  0.00     0.056 A 
ATOM     13  C   UNL A   1      34.614  23.157  23.197  1.00  0.00     0.004 A 
ATOM     14  C   UNL A   1      35.868  22.908  23.761  1.00  0.00     0.009 A 
BRANCH  10  15
ATOM     15  O   UNL A   1      32.974  25.038  25.869  1.00  0.00    -0.410 OA
BRANCH  15  16
ATOM     16  C   UNL A   1      31.985  24.255  26.447  1.00  0.00     0.412 C 
ATOM     17  N   UNL A   1      30.745  24.832  26.388  1.00  0.00    -0.321 N 
ATOM     18  H   UNL A   1      29.998  24.308  26.756  1.00  0.00     0.167 HD
ATOM     19  O   UNL A   1      32.145  23.166  26.984  1.00  0.00    -0.224 OA
BRANCH  17  20
ATOM     20  C   UNL A   1      30.416  26.133  25.839  1.00  0.00     0.119 C 
BRANCH  20  21
ATOM     21  C   UNL A   1      29.856  26.037  24.421  1.00  0.00     0.021 C 
BRANCH  21  22
ATOM     22  C   UNL A   1      30.893  26.206  23.304  1.00  0.00     0.002 C 
BRANCH  22  23
ATOM     23  C   UNL A   1      31.802  27.435  23.422  1.00  0.00    -0.000 C 
BRANCH  23  24
ATOM     24  C   UNL A   1      31.085  28.764  23.676  1.00  0.00    -0.003 C 
ATOM     25  C   UNL A   1      30.138  29.162  22.555  1.00  0.00     0.004 C 
ENDBRANCH  23  24
ENDBRANCH  22  23
ENDBRANCH  21  22
ENDBRANCH  20  21
ENDBRANCH  17  20
ENDBRANCH  15  16
ENDBRANCH  10  15
ENDBRANCH   4   9
ENDBRANCH   1   3
BRANCH   1  26
ATOM     26  C   UNL A   1      42.235  21.017  26.393  1.00  0.00     0.313 C 
ATOM     27  O   UNL A   1      42.140  19.884  26.856  1.00  0.00    -0.252 OA
BRANCH  26  28
ATOM     28  O   UNL A   1      42.894  21.320  25.244  1.00  0.00    -0.462 OA
BRANCH  28  29
ATOM     29  C   UNL A   1      44.139  22.031  25.376  1.00  0.00     0.274 C 
BRANCH  29  30
ATOM     30  C   UNL A   1      44.280  23.104  24.295  1.00  0.00     0.275 C 
BRANCH  30  31
ATOM     31  O   UNL A   1      43.604  24.315  24.679  1.00  0.00    -0.458 OA
BRANCH  31  32
ATOM     32  C   UNL A   1      44.400  25.281  25.189  1.00  0.00     0.338 C 
ATOM     33  O   UNL A   1      45.499  25.630  24.798  1.00  0.00    -0.246 OA
BRANCH  32  34
ATOM     34  C   UNL A   1      43.690  25.971  26.275  1.00  0.00     0.060 A 
ATOM     35  C   UNL A   1      43.946  27.330  26.470  1.00  0.00     0.016 A 
ATOM     36  C   UNL A   1      42.857  25.269  27.146  1.00  0.00     0.016 A 
ATOM     37  C   UNL A   1      43.379  27.997  27.551  1.00  0.00     0.010 A 
ATOM     38  C   UNL A   1      42.279  25.943  28.225  1.00  0.00     0.010 A 
ATOM     39  C   UNL A   1      42.548  27.307  28.442  1.00  0.00    -0.014 A 
BRANCH  39  40
ATOM     40  C   UNL A   1      42.005  28.005  29.629  1.00  0.00     0.031 A 
ATOM     41  C   UNL A   1      40.746  28.813  29.510  1.00  0.00     0.074 A 
ATOM     42  C   UNL A   1      42.631  27.896  30.815  1.00  0.00     0.049 A 
ATOM     43  N   UNL A   1      40.157  29.564  30.405  1.00  0.00    -0.248 NA
ATOM     44  C   UNL A   1      40.057  28.770  28.210  1.00  0.00     0.031 C 
ATOM     45  C   UNL A   1      43.835  27.103  31.065  1.00  0.00     0.029 A 
ATOM     46  N   UNL A   1      42.340  28.459  32.031  1.00  0.00    -0.354 N 
ATOM     47  C   UNL A   1      39.042  30.099  29.773  1.00  0.00     0.074 A 
ATOM     48  C   UNL A   1      39.043  29.596  28.415  1.00  0.00     0.031 C 
ATOM     49  C   UNL A   1      44.180  27.230  32.357  1.00  0.00     0.029 A 
ATOM     50  C   UNL A   1      43.250  28.146  33.010  1.00  0.00     0.049 A 
ATOM     51  H   UNL A   1      41.555  29.031  32.187  1.00  0.00     0.167 HD
ATOM     52  C   UNL A   1      38.103  30.932  30.283  1.00  0.00     0.037 A 
ATOM     53  C   UNL A   1      43.339  28.573  34.284  1.00  0.00     0.037 A 
ATOM     54  C   UNL A   1      38.098  31.416  31.638  1.00  0.00     0.049 A 
ATOM     55  C   UNL A   1      42.315  29.542  34.807  1.00  0.00     0.074 A 
ATOM     56  C   UNL A   1      37.182  32.256  32.250  1.00  0.00     0.029 A 
ATOM     57  N   UNL A   1      39.053  31.102  32.591  1.00  0.00    -0.354 N 
ATOM     58  N   UNL A   1      41.271  30.051  34.200  1.00  0.00    -0.248 NA
ATOM     59  C   UNL A   1      42.488  30.002  36.193  1.00  0.00     0.031 C 
ATOM     60  C   UNL A   1      37.604  32.476  33.567  1.00  0.00     0.029 A 
ATOM     61  C   UNL A   1      38.762  31.745  33.783  1.00  0.00     0.049 A 
ATOM     62  H   UNL A   1      39.826  30.510  32.443  1.00  0.00     0.167 HD
ATOM     63  C   UNL A   1      40.656  30.878  35.129  1.00  0.00     0.074 A 
ATOM     64  C   UNL A   1      41.434  30.791  36.347  1.00  0.00     0.031 C 
ATOM     65  C   UNL A   1      39.548  31.645  34.985  1.00  0.00     0.037 A 
BRANCH  52  66
ATOM     66  C   UNL A   1      37.017  31.392  29.358  1.00  0.00     0.057 A 
ATOM     67  C   UNL A   1      35.938  30.568  29.016  1.00  0.00     0.134 A 
ATOM     68  C   UNL A   1      37.038  32.688  28.827  1.00  0.00     0.134 A 
ATOM     69  F   UNL A   1      35.869  29.312  29.480  1.00  0.00    -0.206 F 
ATOM     70  C   UNL A   1      34.926  31.011  28.163  1.00  0.00     0.040 A 
ATOM     71  C   UNL A   1      36.021  33.149  27.990  1.00  0.00     0.040 A 
ATOM     72  F   UNL A   1      38.044  33.527  29.118  1.00  0.00    -0.206 F 
ATOM     73  C   UNL A   1      34.963  32.309  27.653  1.00  0.00     0.006 A 
ENDBRANCH  52  66
BRANCH  53  74
ATOM     74  C   UNL A   1      44.453  28.109  35.144  1.00  0.00     0.057 A 
ATOM     75  C   UNL A   1      45.676  28.788  35.175  1.00  0.00     0.134 A 
ATOM     76  C   UNL A   1      44.324  26.971  35.950  1.00  0.00     0.134 A 
ATOM     77  F   UNL A   1      45.866  29.870  34.407  1.00  0.00    -0.206 F 
ATOM     78  C   UNL A   1      46.735  28.347  35.969  1.00  0.00     0.040 A 
ATOM     79  C   UNL A   1      45.367  26.531  36.766  1.00  0.00     0.040 A 
ATOM     80  F   UNL A   1      43.177  26.276  35.962  1.00  0.00    -0.206 F 
ATOM     81  C   UNL A   1      46.580  27.218  36.772  1.00  0.00     0.006 A 
ENDBRANCH  53  74
BRANCH  65  82
ATOM     82  C   UNL A   1      39.102  32.429  36.181  1.00  0.00     0.057 A 
ATOM     83  C   UNL A   1      38.252  31.876  37.147  1.00  0.00     0.134 A 
ATOM     84  C   UNL A   1      39.552  33.739  36.386  1.00  0.00     0.134 A 
ATOM     85  F   UNL A   1      37.775  30.631  37.000  1.00  0.00    -0.206 F 
ATOM     86  C   UNL A   1      37.850  32.606  38.267  1.00  0.00     0.040 A 
ATOM     87  C   UNL A   1      39.174  34.472  37.512  1.00  0.00     0.040 A 
ATOM     88  F   UNL A   1      40.373  34.323  35.500  1.00  0.00    -0.206 F 
ATOM     89  C   UNL A   1      38.317  33.906  38.454  1.00  0.00     0.006 A 
ENDBRANCH  65  82
ENDBRANCH  39  40
ENDBRANCH  32  34
ENDBRANCH  31  32
ENDBRANCH  30  31
ENDBRANCH  29  30
ENDBRANCH  28  29
ENDBRANCH  26  28
ENDBRANCH   1  26
TORSDOF 20
ENDMDL
MODEL 3
REMARK VINA RESULT:     -10.8      3.865      8.866
REMARK SMILES CCCCCCNC(=O)Oc1cccc(-c2ccc([C@@H](C)C(=O)OCCOC(=O)c3ccc(-c4c5nc(c(-c6c(F)cccc6F)c6ccc([nH]6)c(-c6c(F)cccc6F)c6nc(c(-c7c(F)cccc7F)c7ccc4[nH]7)C=C6)C=C5)cc3)cc2)c1
REMARK SMILES IDX 20 1 21 2 19 3 16 4 17 5 85 6 18 7 84 8 15 9 11 10 12 11
REMARK SMILES IDX 86 12 13 13 14 14 10 15 8 16 7 17 9 19 6 20 5 21 4 22 3 23
REMARK SMILES IDX 2 24 1 25 22 26 23 27 24 28 25 29 26 30 27 31 28 32 29 33
REMARK SMILES IDX 30 34 31 35 83 36 32 37 82 38 33 39 34 40 35 41 76 42 36 43
REMARK SMILES IDX 81 44 75 45 77 46 37 47 80 48 74 49 73 50 38 52 64 53 47 54
REMARK SMILES IDX 63 55 48 56 51 57 62 58 78 59 49 60 50 61 61 63 79 64 52 65
REMARK SMILES IDX 39 66 40 67 45 68 41 69 42 70 44 71 46 72 43 73 65 74 66 75
REMARK SMILES IDX 71 76 67 77 68 78 70 79 72 80 69 81 53 82 54 83 59 84 55 85
REMARK SMILES IDX 56 86 58 87 60 88 57 89
REMARK H PARENT 7 18 77 51 51 62
REMARK Flexibility Score: inf
ROOT
ATOM      1  C   UNL A   1      34.040  32.781  28.692  1.00  0.00     0.126 C 
ATOM      2  C   UNL A   1      34.756  32.033  29.815  1.00  0.00     0.025 C 
ENDROOT
BRANCH   1   3
ATOM      3  C   UNL A   1      33.363  31.840  27.708  1.00  0.00    -0.034 A 
ATOM      4  C   UNL A   1      32.008  30.067  25.940  1.00  0.00    -0.018 A 
ATOM      5  C   UNL A   1      33.259  29.739  26.484  1.00  0.00     0.009 A 
ATOM      6  C   UNL A   1      31.463  31.315  26.270  1.00  0.00     0.009 A 
ATOM      7  C   UNL A   1      33.924  30.606  27.357  1.00  0.00     0.005 A 
ATOM      8  C   UNL A   1      32.127  32.188  27.141  1.00  0.00     0.005 A 
BRANCH   4   9
ATOM      9  C   UNL A   1      31.272  29.108  25.097  1.00  0.00    -0.015 A 
ATOM     10  C   UNL A   1      30.539  26.860  24.555  1.00  0.00     0.133 A 
ATOM     11  C   UNL A   1      29.908  27.311  23.397  1.00  0.00     0.047 A 
ATOM     12  C   UNL A   1      31.226  27.737  25.398  1.00  0.00     0.056 A 
ATOM     13  C   UNL A   1      29.942  28.665  23.088  1.00  0.00     0.004 A 
ATOM     14  C   UNL A   1      30.618  29.553  23.930  1.00  0.00     0.009 A 
BRANCH  10  15
ATOM     15  O   UNL A   1      30.554  25.470  24.757  1.00  0.00    -0.410 OA
BRANCH  15  16
ATOM     16  C   UNL A   1      30.422  24.998  26.054  1.00  0.00     0.412 C 
ATOM     17  N   UNL A   1      31.532  24.328  26.494  1.00  0.00    -0.321 N 
ATOM     18  H   UNL A   1      31.507  23.997  27.420  1.00  0.00     0.167 HD
ATOM     19  O   UNL A   1      29.438  25.122  26.773  1.00  0.00    -0.224 OA
BRANCH  17  20
ATOM     20  C   UNL A   1      32.740  24.056  25.740  1.00  0.00     0.119 C 
BRANCH  20  21
ATOM     21  C   UNL A   1      33.787  25.155  25.909  1.00  0.00     0.021 C 
BRANCH  21  22
ATOM     22  C   UNL A   1      34.192  25.866  24.612  1.00  0.00     0.002 C 
BRANCH  22  23
ATOM     23  C   UNL A   1      33.620  25.269  23.321  1.00  0.00    -0.000 C 
BRANCH  23  24
ATOM     24  C   UNL A   1      33.439  26.252  22.162  1.00  0.00    -0.003 C 
ATOM     25  C   UNL A   1      33.646  27.704  22.564  1.00  0.00     0.004 C 
ENDBRANCH  23  24
ENDBRANCH  22  23
ENDBRANCH  21  22
ENDBRANCH  20  21
ENDBRANCH  17  20
ENDBRANCH  15  16
ENDBRANCH  10  15
ENDBRANCH   4   9
ENDBRANCH   1   3
BRANCH   1  26
ATOM     26  C   UNL A   1      34.970  33.826  28.089  1.00  0.00     0.313 C 
ATOM     27  O   UNL A   1      35.895  33.519  27.342  1.00  0.00    -0.252 OA
BRANCH  26  28
ATOM     28  O   UNL A   1      34.647  35.104  28.420  1.00  0.00    -0.462 OA
BRANCH  28  29
ATOM     29  C   UNL A   1      33.255  35.380  28.666  1.00  0.00     0.274 C 
BRANCH  29  30
ATOM     30  C   UNL A   1      33.067  36.153  29.972  1.00  0.00     0.275 C 
BRANCH  30  31
ATOM     31  O   UNL A   1      32.466  35.321  30.981  1.00  0.00    -0.458 OA
BRANCH  31  32
ATOM     32  C   UNL A   1      32.908  35.534  32.241  1.00  0.00     0.338 C 
ATOM     33  O   UNL A   1      32.352  36.142  33.136  1.00  0.00    -0.246 OA
BRANCH  32  34
ATOM     34  C   UNL A   1      34.171  34.810  32.440  1.00  0.00     0.060 A 
ATOM     35  C   UNL A   1      34.137  33.611  33.155  1.00  0.00     0.016 A 
ATOM     36  C   UNL A   1      35.383  35.352  32.013  1.00  0.00     0.016 A 
ATOM     37  C   UNL A   1      35.321  32.947  33.459  1.00  0.00     0.010 A 
ATOM     38  C   UNL A   1      36.572  34.680  32.310  1.00  0.00     0.010 A 
ATOM     39  C   UNL A   1      36.548  33.482  33.047  1.00  0.00    -0.014 A 
BRANCH  39  40
ATOM     40  C   UNL A   1      37.809  32.809  33.435  1.00  0.00     0.031 A 
ATOM     41  C   UNL A   1      38.392  31.745  32.551  1.00  0.00     0.074 A 
ATOM     42  C   UNL A   1      38.439  33.167  34.569  1.00  0.00     0.049 A 
ATOM     43  N   UNL A   1      39.435  30.982  32.752  1.00  0.00    -0.248 NA
ATOM     44  C   UNL A   1      37.709  31.510  31.268  1.00  0.00     0.031 C 
ATOM     45  C   UNL A   1      37.994  34.218  35.485  1.00  0.00     0.029 A 
ATOM     46  N   UNL A   1      39.585  32.683  35.143  1.00  0.00    -0.354 N 
ATOM     47  C   UNL A   1      39.523  30.163  31.635  1.00  0.00     0.074 A 
ATOM     48  C   UNL A   1      38.421  30.514  30.763  1.00  0.00     0.031 C 
ATOM     49  C   UNL A   1      38.860  34.298  36.509  1.00  0.00     0.029 A 
ATOM     50  C   UNL A   1      39.891  33.279  36.341  1.00  0.00     0.049 A 
ATOM     51  H   UNL A   1      40.136  31.976  34.735  1.00  0.00     0.167 HD
ATOM     52  C   UNL A   1      40.443  29.207  31.361  1.00  0.00     0.037 A 
ATOM     53  C   UNL A   1      40.875  33.011  37.219  1.00  0.00     0.037 A 
ATOM     54  C   UNL A   1      41.547  28.872  32.222  1.00  0.00     0.049 A 
ATOM     55  C   UNL A   1      41.850  31.906  36.918  1.00  0.00     0.074 A 
ATOM     56  C   UNL A   1      42.538  27.925  32.027  1.00  0.00     0.029 A 
ATOM     57  N   UNL A   1      41.805  29.476  33.443  1.00  0.00    -0.354 N 
ATOM     58  N   UNL A   1      41.919  31.129  35.865  1.00  0.00    -0.248 NA
ATOM     59  C   UNL A   1      42.879  31.637  37.933  1.00  0.00     0.031 C 
ATOM     60  C   UNL A   1      43.377  27.933  33.147  1.00  0.00     0.029 A 
ATOM     61  C   UNL A   1      42.929  28.911  34.022  1.00  0.00     0.049 A 
ATOM     62  H   UNL A   1      41.268  30.200  33.840  1.00  0.00     0.167 HD
ATOM     63  C   UNL A   1      43.002  30.289  36.082  1.00  0.00     0.074 A 
ATOM     64  C   UNL A   1      43.572  30.662  37.360  1.00  0.00     0.031 C 
ATOM     65  C   UNL A   1      43.481  29.296  35.294  1.00  0.00     0.037 A 
BRANCH  52  66
ATOM     66  C   UNL A   1      40.276  28.436  30.087  1.00  0.00     0.057 A 
ATOM     67  C   UNL A   1      40.993  28.758  28.928  1.00  0.00     0.134 A 
ATOM     68  C   UNL A   1      39.408  27.338  30.028  1.00  0.00     0.134 A 
ATOM     69  F   UNL A   1      41.827  29.808  28.915  1.00  0.00    -0.206 F 
ATOM     70  C   UNL A   1      40.839  28.026  27.749  1.00  0.00     0.040 A 
ATOM     71  C   UNL A   1      39.262  26.585  28.863  1.00  0.00     0.040 A 
ATOM     72  F   UNL A   1      38.695  26.976  31.106  1.00  0.00    -0.206 F 
ATOM     73  C   UNL A   1      39.975  26.931  27.717  1.00  0.00     0.006 A 
ENDBRANCH  52  66
BRANCH  53  74
ATOM     74  C   UNL A   1      40.973  33.785  38.480  1.00  0.00     0.057 A 
ATOM     75  C   UNL A   1      40.193  33.456  39.594  1.00  0.00     0.134 A 
ATOM     76  C   UNL A   1      41.844  34.876  38.598  1.00  0.00     0.134 A 
ATOM     77  F   UNL A   1      39.324  32.437  39.533  1.00  0.00    -0.206 F 
ATOM     78  C   UNL A   1      40.267  34.191  40.778  1.00  0.00     0.040 A 
ATOM     79  C   UNL A   1      41.945  35.605  39.783  1.00  0.00     0.040 A 
ATOM     80  F   UNL A   1      42.616  35.241  37.564  1.00  0.00    -0.206 F 
ATOM     81  C   UNL A   1      41.150  35.266  40.877  1.00  0.00     0.006 A 
ENDBRANCH  53  74
BRANCH  65  82
ATOM     82  C   UNL A   1      44.691  28.561  35.785  1.00  0.00     0.057 A 
ATOM     83  C   UNL A   1      45.987  28.997  35.485  1.00  0.00     0.134 A 
ATOM     84  C   UNL A   1      44.559  27.424  36.592  1.00  0.00     0.134 A 
ATOM     85  F   UNL A   1      46.180  30.071  34.704  1.00  0.00    -0.206 F 
ATOM     86  C   UNL A   1      47.111  28.316  35.956  1.00  0.00     0.040 A 
ATOM     87  C   UNL A   1      45.674  26.748  37.086  1.00  0.00     0.040 A 
ATOM     88  F   UNL A   1      43.343  26.960  36.920  1.00  0.00    -0.206 F 
ATOM     89  C   UNL A   1      46.955  27.192  36.764  1.00  0.00     0.006 A 
ENDBRANCH  65  82
ENDBRANCH  39  40
ENDBRANCH  32  34
ENDBRANCH  31  32
ENDBRANCH  30  31
ENDBRANCH  29  30
ENDBRANCH  28  29
ENDBRANCH  26  28
ENDBRANCH   1  26
TORSDOF 20
ENDMDL
