MODEL 1
REMARK VINA RESULT:     -10.2      0.000      0.000
REMARK SMILES CCCCCC[C@@H](C)N1C[C@H](C(=O)OCCOC(=O)c2ccc(-c3c4nc(c(-c5c(F)cccc5F)c5ccc([nH]5)c(-c5c(F)cccc5F)c5nc(c(-c6c(F)cccc6F)c6ccc3[nH]6)C=C5)C=C4)cc2)CC1=O
REMARK SMILES IDX 12 1 13 2 11 3 9 4 10 5 75 6 74 7 76 8 7 9 8 10 6 11 5 12
REMARK SMILES IDX 4 13 3 14 2 15 1 16 14 17 15 18 16 19 17 20 18 21 19 22
REMARK SMILES IDX 20 23 21 24 73 25 22 26 72 27 23 28 24 29 25 30 66 31 26 32
REMARK SMILES IDX 71 33 65 34 67 35 27 36 70 37 64 38 63 39 28 41 54 42 37 43
REMARK SMILES IDX 53 44 38 45 41 46 52 47 68 48 39 49 40 50 51 52 69 53 42 54
REMARK SMILES IDX 29 55 30 56 35 57 31 58 32 59 34 60 36 61 33 62 55 63 56 64
REMARK SMILES IDX 61 65 57 66 58 67 60 68 62 69 59 70 43 71 44 72 49 73 45 74
REMARK SMILES IDX 46 75 48 76 50 77 47 78
REMARK H PARENT 67 40 41 51
REMARK Flexibility Score: inf
ROOT
ATOM      1  C   UNL A   1      33.596  23.163  24.516  1.00  0.00     0.311 C 
ATOM      2  O   UNL A   1      32.681  23.174  23.703  1.00  0.00    -0.252 OA
ENDROOT
BRANCH   1   3
ATOM      3  C   UNL A   1      33.588  23.934  25.823  1.00  0.00     0.128 C 
ATOM      4  N   UNL A   1      31.599  25.160  25.873  1.00  0.00    -0.339 N 
ATOM      5  C   UNL A   1      33.005  25.316  25.581  1.00  0.00     0.135 C 
ATOM      6  C   UNL A   1      31.366  24.066  26.691  1.00  0.00     0.223 C 
ATOM      7  C   UNL A   1      32.671  23.322  26.876  1.00  0.00     0.117 C 
ATOM      8  O   UNL A   1      30.296  23.731  27.174  1.00  0.00    -0.275 OA
BRANCH   4   9
ATOM      9  C   UNL A   1      30.531  26.013  25.326  1.00  0.00     0.082 C 
ATOM     10  C   UNL A   1      29.991  25.413  24.024  1.00  0.00     0.031 C 
BRANCH   9  11
ATOM     11  C   UNL A   1      30.973  27.472  25.108  1.00  0.00     0.025 C 
BRANCH  11  12
ATOM     12  C   UNL A   1      30.998  27.929  23.644  1.00  0.00     0.002 C 
BRANCH  12  13
ATOM     13  C   UNL A   1      30.080  29.109  23.316  1.00  0.00     0.000 C 
BRANCH  13  14
ATOM     14  C   UNL A   1      28.612  28.738  23.083  1.00  0.00    -0.000 C 
BRANCH  14  15
ATOM     15  C   UNL A   1      27.731  29.877  22.561  1.00  0.00    -0.003 C 
ATOM     16  C   UNL A   1      27.604  31.034  23.538  1.00  0.00     0.004 C 
ENDBRANCH  14  15
ENDBRANCH  13  14
ENDBRANCH  12  13
ENDBRANCH  11  12
ENDBRANCH   9  11
ENDBRANCH   4   9
ENDBRANCH   1   3
BRANCH   1  17
ATOM     17  O   UNL A   1      34.777  22.512  24.332  1.00  0.00    -0.462 OA
BRANCH  17  18
ATOM     18  C   UNL A   1      34.770  21.113  24.688  1.00  0.00     0.274 C 
BRANCH  18  19
ATOM     19  C   UNL A   1      36.154  20.587  25.072  1.00  0.00     0.275 C 
BRANCH  19  20
ATOM     20  O   UNL A   1      37.014  21.638  25.545  1.00  0.00    -0.458 OA
BRANCH  20  21
ATOM     21  C   UNL A   1      38.290  21.263  25.792  1.00  0.00     0.338 C 
ATOM     22  O   UNL A   1      38.832  20.221  25.463  1.00  0.00    -0.246 OA
BRANCH  21  23
ATOM     23  C   UNL A   1      39.027  22.370  26.417  1.00  0.00     0.060 A 
ATOM     24  C   UNL A   1      38.572  23.656  26.153  1.00  0.00     0.016 A 
ATOM     25  C   UNL A   1      40.223  22.180  27.108  1.00  0.00     0.016 A 
ATOM     26  C   UNL A   1      39.323  24.762  26.522  1.00  0.00     0.010 A 
ATOM     27  C   UNL A   1      40.951  23.301  27.541  1.00  0.00     0.010 A 
ATOM     28  C   UNL A   1      40.508  24.601  27.240  1.00  0.00    -0.014 A 
BRANCH  28  29
ATOM     29  C   UNL A   1      41.280  25.814  27.607  1.00  0.00     0.031 A 
ATOM     30  C   UNL A   1      40.664  26.849  28.499  1.00  0.00     0.074 A 
ATOM     31  C   UNL A   1      42.564  25.943  27.217  1.00  0.00     0.049 A 
ATOM     32  N   UNL A   1      41.124  28.024  28.842  1.00  0.00    -0.248 NA
ATOM     33  C   UNL A   1      39.357  26.515  29.086  1.00  0.00     0.031 C 
ATOM     34  C   UNL A   1      43.315  24.956  26.439  1.00  0.00     0.029 A 
ATOM     35  N   UNL A   1      43.468  26.952  27.435  1.00  0.00    -0.354 N 
ATOM     36  C   UNL A   1      40.144  28.590  29.646  1.00  0.00     0.074 A 
ATOM     37  C   UNL A   1      39.070  27.626  29.752  1.00  0.00     0.031 C 
ATOM     38  C   UNL A   1      44.567  25.405  26.255  1.00  0.00     0.029 A 
ATOM     39  C   UNL A   1      44.688  26.736  26.840  1.00  0.00     0.049 A 
ATOM     40  H   UNL A   1      43.262  27.755  27.966  1.00  0.00     0.167 HD
ATOM     41  C   UNL A   1      40.141  29.811  30.232  1.00  0.00     0.037 A 
ATOM     42  C   UNL A   1      45.765  27.538  26.743  1.00  0.00     0.037 A 
ATOM     43  C   UNL A   1      41.232  30.747  30.163  1.00  0.00     0.049 A 
ATOM     44  C   UNL A   1      45.713  28.912  27.355  1.00  0.00     0.074 A 
ATOM     45  C   UNL A   1      41.320  32.013  30.718  1.00  0.00     0.029 A 
ATOM     46  N   UNL A   1      42.431  30.514  29.508  1.00  0.00    -0.354 N 
ATOM     47  N   UNL A   1      44.756  29.469  28.057  1.00  0.00    -0.248 NA
ATOM     48  C   UNL A   1      46.883  29.778  27.141  1.00  0.00     0.031 C 
ATOM     49  C   UNL A   1      42.557  32.560  30.366  1.00  0.00     0.029 A 
ATOM     50  C   UNL A   1      43.256  31.620  29.625  1.00  0.00     0.049 A 
ATOM     51  H   UNL A   1      42.662  29.685  29.029  1.00  0.00     0.167 HD
ATOM     52  C   UNL A   1      45.208  30.743  28.373  1.00  0.00     0.074 A 
ATOM     53  C   UNL A   1      46.536  30.869  27.809  1.00  0.00     0.031 C 
ATOM     54  C   UNL A   1      44.576  31.725  29.061  1.00  0.00     0.037 A 
BRANCH  41  55
ATOM     55  C   UNL A   1      38.894  30.229  30.948  1.00  0.00     0.057 A 
ATOM     56  C   UNL A   1      37.850  30.903  30.305  1.00  0.00     0.134 A 
ATOM     57  C   UNL A   1      38.728  29.918  32.304  1.00  0.00     0.134 A 
ATOM     58  F   UNL A   1      37.955  31.243  29.012  1.00  0.00    -0.206 F 
ATOM     59  C   UNL A   1      36.690  31.267  30.990  1.00  0.00     0.040 A 
ATOM     60  C   UNL A   1      37.564  30.258  32.995  1.00  0.00     0.040 A 
ATOM     61  F   UNL A   1      39.692  29.271  32.977  1.00  0.00    -0.206 F 
ATOM     62  C   UNL A   1      36.542  30.938  32.337  1.00  0.00     0.006 A 
ENDBRANCH  41  55
BRANCH  42  63
ATOM     63  C   UNL A   1      46.960  27.097  25.979  1.00  0.00     0.057 A 
ATOM     64  C   UNL A   1      48.028  26.447  26.606  1.00  0.00     0.134 A 
ATOM     65  C   UNL A   1      47.076  27.348  24.605  1.00  0.00     0.134 A 
ATOM     66  F   UNL A   1      47.992  26.203  27.924  1.00  0.00    -0.206 F 
ATOM     67  C   UNL A   1      49.174  26.075  25.900  1.00  0.00     0.040 A 
ATOM     68  C   UNL A   1      48.203  26.958  23.882  1.00  0.00     0.040 A 
ATOM     69  F   UNL A   1      46.090  27.974  23.946  1.00  0.00    -0.206 F 
ATOM     70  C   UNL A   1      49.261  26.325  24.532  1.00  0.00     0.006 A 
ENDBRANCH  42  63
BRANCH  54  71
ATOM     71  C   UNL A   1      45.320  33.012  29.254  1.00  0.00     0.057 A 
ATOM     72  C   UNL A   1      45.183  34.081  28.360  1.00  0.00     0.134 A 
ATOM     73  C   UNL A   1      46.148  33.199  30.367  1.00  0.00     0.134 A 
ATOM     74  F   UNL A   1      44.415  33.958  27.266  1.00  0.00    -0.206 F 
ATOM     75  C   UNL A   1      45.857  35.286  28.557  1.00  0.00     0.040 A 
ATOM     76  C   UNL A   1      46.811  34.407  30.587  1.00  0.00     0.040 A 
ATOM     77  F   UNL A   1      46.316  32.216  31.265  1.00  0.00    -0.206 F 
ATOM     78  C   UNL A   1      46.669  35.453  29.678  1.00  0.00     0.006 A 
ENDBRANCH  54  71
ENDBRANCH  28  29
ENDBRANCH  21  23
ENDBRANCH  20  21
ENDBRANCH  19  20
ENDBRANCH  18  19
ENDBRANCH  17  18
ENDBRANCH   1  17
TORSDOF 17
ENDMDL
MODEL 2
REMARK VINA RESULT:     -10.1      1.292      2.280
REMARK SMILES CCCCCC[C@@H](C)N1C[C@H](C(=O)OCCOC(=O)c2ccc(-c3c4nc(c(-c5c(F)cccc5F)c5ccc([nH]5)c(-c5c(F)cccc5F)c5nc(c(-c6c(F)cccc6F)c6ccc3[nH]6)C=C5)C=C4)cc2)CC1=O
REMARK SMILES IDX 12 1 13 2 11 3 9 4 10 5 75 6 74 7 76 8 7 9 8 10 6 11 5 12
REMARK SMILES IDX 4 13 3 14 2 15 1 16 14 17 15 18 16 19 17 20 18 21 19 22
REMARK SMILES IDX 20 23 21 24 73 25 22 26 72 27 23 28 24 29 25 30 66 31 26 32
REMARK SMILES IDX 71 33 65 34 67 35 27 36 70 37 64 38 63 39 28 41 54 42 37 43
REMARK SMILES IDX 53 44 38 45 41 46 52 47 68 48 39 49 40 50 51 52 69 53 42 54
REMARK SMILES IDX 29 55 30 56 35 57 31 58 32 59 34 60 36 61 33 62 55 63 56 64
REMARK SMILES IDX 61 65 57 66 58 67 60 68 62 69 59 70 43 71 44 72 49 73 45 74
REMARK SMILES IDX 46 75 48 76 50 77 47 78
REMARK H PARENT 67 40 41 51
REMARK Flexibility Score: inf
ROOT
ATOM      1  C   UNL A   1      34.584  23.663  24.432  1.00  0.00     0.311 C 
ATOM      2  O   UNL A   1      34.977  24.469  25.265  1.00  0.00    -0.252 OA
ENDROOT
BRANCH   1   3
ATOM      3  C   UNL A   1      33.199  23.682  23.811  1.00  0.00     0.128 C 
ATOM      4  N   UNL A   1      32.704  25.915  23.332  1.00  0.00    -0.339 N 
ATOM      5  C   UNL A   1      32.443  24.897  24.322  1.00  0.00     0.135 C 
ATOM      6  C   UNL A   1      33.076  25.362  22.117  1.00  0.00     0.223 C 
ATOM      7  C   UNL A   1      33.221  23.866  22.298  1.00  0.00     0.117 C 
ATOM      8  O   UNL A   1      33.276  25.962  21.073  1.00  0.00    -0.275 OA
BRANCH   4   9
ATOM      9  C   UNL A   1      32.646  27.364  23.585  1.00  0.00     0.082 C 
ATOM     10  C   UNL A   1      34.052  27.911  23.849  1.00  0.00     0.031 C 
BRANCH   9  11
ATOM     11  C   UNL A   1      31.694  27.739  24.736  1.00  0.00     0.025 C 
BRANCH  11  12
ATOM     12  C   UNL A   1      31.042  29.122  24.612  1.00  0.00     0.002 C 
BRANCH  12  13
ATOM     13  C   UNL A   1      31.458  30.135  25.681  1.00  0.00     0.000 C 
BRANCH  13  14
ATOM     14  C   UNL A   1      32.383  29.581  26.770  1.00  0.00    -0.000 C 
BRANCH  14  15
ATOM     15  C   UNL A   1      33.821  30.103  26.726  1.00  0.00    -0.003 C 
ATOM     16  C   UNL A   1      34.769  29.328  27.627  1.00  0.00     0.004 C 
ENDBRANCH  14  15
ENDBRANCH  13  14
ENDBRANCH  12  13
ENDBRANCH  11  12
ENDBRANCH   9  11
ENDBRANCH   4   9
ENDBRANCH   1   3
BRANCH   1  17
ATOM     17  O   UNL A   1      35.309  22.598  23.993  1.00  0.00    -0.462 OA
BRANCH  17  18
ATOM     18  C   UNL A   1      35.015  21.343  24.643  1.00  0.00     0.274 C 
BRANCH  18  19
ATOM     19  C   UNL A   1      36.233  20.725  25.330  1.00  0.00     0.275 C 
BRANCH  19  20
ATOM     20  O   UNL A   1      37.439  21.455  25.040  1.00  0.00    -0.458 OA
BRANCH  20  21
ATOM     21  C   UNL A   1      38.532  21.044  25.723  1.00  0.00     0.338 C 
ATOM     22  O   UNL A   1      39.001  19.918  25.761  1.00  0.00    -0.246 OA
BRANCH  21  23
ATOM     23  C   UNL A   1      39.205  22.197  26.336  1.00  0.00     0.060 A 
ATOM     24  C   UNL A   1      38.736  23.458  25.985  1.00  0.00     0.016 A 
ATOM     25  C   UNL A   1      40.361  22.071  27.103  1.00  0.00     0.016 A 
ATOM     26  C   UNL A   1      39.439  24.599  26.343  1.00  0.00     0.010 A 
ATOM     27  C   UNL A   1      41.036  23.229  27.524  1.00  0.00     0.010 A 
ATOM     28  C   UNL A   1      40.582  24.502  27.136  1.00  0.00    -0.014 A 
BRANCH  28  29
ATOM     29  C   UNL A   1      41.302  25.750  27.489  1.00  0.00     0.031 A 
ATOM     30  C   UNL A   1      40.630  26.784  28.340  1.00  0.00     0.074 A 
ATOM     31  C   UNL A   1      42.589  25.915  27.125  1.00  0.00     0.049 A 
ATOM     32  N   UNL A   1      41.040  27.983  28.663  1.00  0.00    -0.248 NA
ATOM     33  C   UNL A   1      39.322  26.419  28.906  1.00  0.00     0.031 C 
ATOM     34  C   UNL A   1      43.392  24.936  26.388  1.00  0.00     0.029 A 
ATOM     35  N   UNL A   1      43.452  26.961  27.336  1.00  0.00    -0.354 N 
ATOM     36  C   UNL A   1      40.023  28.534  29.430  1.00  0.00     0.074 A 
ATOM     37  C   UNL A   1      38.981  27.535  29.537  1.00  0.00     0.031 C 
ATOM     38  C   UNL A   1      44.632  25.424  26.221  1.00  0.00     0.029 A 
ATOM     39  C   UNL A   1      44.692  26.773  26.775  1.00  0.00     0.049 A 
ATOM     40  H   UNL A   1      43.206  27.769  27.842  1.00  0.00     0.167 HD
ATOM     41  C   UNL A   1      39.964  29.768  29.985  1.00  0.00     0.037 A 
ATOM     42  C   UNL A   1      45.743  27.611  26.681  1.00  0.00     0.037 A 
ATOM     43  C   UNL A   1      41.022  30.740  29.916  1.00  0.00     0.049 A 
ATOM     44  C   UNL A   1      45.629  28.997  27.256  1.00  0.00     0.074 A 
ATOM     45  C   UNL A   1      41.053  32.021  30.440  1.00  0.00     0.029 A 
ATOM     46  N   UNL A   1      42.244  30.534  29.293  1.00  0.00    -0.354 N 
ATOM     47  N   UNL A   1      44.637  29.537  27.922  1.00  0.00    -0.248 NA
ATOM     48  C   UNL A   1      46.773  29.898  27.047  1.00  0.00     0.031 C 
ATOM     49  C   UNL A   1      42.278  32.603  30.102  1.00  0.00     0.029 A 
ATOM     50  C   UNL A   1      43.026  31.671  29.401  1.00  0.00     0.049 A 
ATOM     51  H   UNL A   1      42.514  29.702  28.842  1.00  0.00     0.167 HD
ATOM     52  C   UNL A   1      45.037  30.834  28.216  1.00  0.00     0.074 A 
ATOM     53  C   UNL A   1      46.372  30.992  27.679  1.00  0.00     0.031 C 
ATOM     54  C   UNL A   1      44.355  31.809  28.864  1.00  0.00     0.037 A 
BRANCH  41  55
ATOM     55  C   UNL A   1      38.686  30.158  30.662  1.00  0.00     0.057 A 
ATOM     56  C   UNL A   1      37.635  30.779  29.978  1.00  0.00     0.134 A 
ATOM     57  C   UNL A   1      38.500  29.876  32.021  1.00  0.00     0.134 A 
ATOM     58  F   UNL A   1      37.757  31.091  28.680  1.00  0.00    -0.206 F 
ATOM     59  C   UNL A   1      36.447  31.119  30.628  1.00  0.00     0.040 A 
ATOM     60  C   UNL A   1      37.309  30.192  32.677  1.00  0.00     0.040 A 
ATOM     61  F   UNL A   1      39.470  29.280  32.732  1.00  0.00    -0.206 F 
ATOM     62  C   UNL A   1      36.280  30.818  31.980  1.00  0.00     0.006 A 
ENDBRANCH  41  55
BRANCH  42  63
ATOM     63  C   UNL A   1      46.970  27.193  25.955  1.00  0.00     0.057 A 
ATOM     64  C   UNL A   1      48.049  26.607  26.624  1.00  0.00     0.134 A 
ATOM     65  C   UNL A   1      47.104  27.406  24.577  1.00  0.00     0.134 A 
ATOM     66  F   UNL A   1      47.995  26.404  27.948  1.00  0.00    -0.206 F 
ATOM     67  C   UNL A   1      49.224  26.259  25.953  1.00  0.00     0.040 A 
ATOM     68  C   UNL A   1      48.261  27.037  23.888  1.00  0.00     0.040 A 
ATOM     69  F   UNL A   1      46.109  27.970  23.878  1.00  0.00    -0.206 F 
ATOM     70  C   UNL A   1      49.329  26.469  24.579  1.00  0.00     0.006 A 
ENDBRANCH  42  63
BRANCH  54  71
ATOM     71  C   UNL A   1      45.049  33.126  29.041  1.00  0.00     0.057 A 
ATOM     72  C   UNL A   1      45.885  33.374  30.135  1.00  0.00     0.134 A 
ATOM     73  C   UNL A   1      44.911  34.140  28.086  1.00  0.00     0.134 A 
ATOM     74  F   UNL A   1      46.046  32.447  31.093  1.00  0.00    -0.206 F 
ATOM     75  C   UNL A   1      46.549  34.592  30.283  1.00  0.00     0.040 A 
ATOM     76  C   UNL A   1      45.586  35.355  28.210  1.00  0.00     0.040 A 
ATOM     77  F   UNL A   1      44.129  33.962  27.010  1.00  0.00    -0.206 F 
ATOM     78  C   UNL A   1      46.405  35.584  29.314  1.00  0.00     0.006 A 
ENDBRANCH  54  71
ENDBRANCH  28  29
ENDBRANCH  21  23
ENDBRANCH  20  21
ENDBRANCH  19  20
ENDBRANCH  18  19
ENDBRANCH  17  18
ENDBRANCH   1  17
TORSDOF 17
ENDMDL
MODEL 3
REMARK VINA RESULT:     -10.1      3.884      8.854
REMARK SMILES CCCCCC[C@@H](C)N1C[C@H](C(=O)OCCOC(=O)c2ccc(-c3c4nc(c(-c5c(F)cccc5F)c5ccc([nH]5)c(-c5c(F)cccc5F)c5nc(c(-c6c(F)cccc6F)c6ccc3[nH]6)C=C5)C=C4)cc2)CC1=O
REMARK SMILES IDX 12 1 13 2 11 3 9 4 10 5 75 6 74 7 76 8 7 9 8 10 6 11 5 12
REMARK SMILES IDX 4 13 3 14 2 15 1 16 14 17 15 18 16 19 17 20 18 21 19 22
REMARK SMILES IDX 20 23 21 24 73 25 22 26 72 27 23 28 24 29 25 30 66 31 26 32
REMARK SMILES IDX 71 33 65 34 67 35 27 36 70 37 64 38 63 39 28 41 54 42 37 43
REMARK SMILES IDX 53 44 38 45 41 46 52 47 68 48 39 49 40 50 51 52 69 53 42 54
REMARK SMILES IDX 29 55 30 56 35 57 31 58 32 59 34 60 36 61 33 62 55 63 56 64
REMARK SMILES IDX 61 65 57 66 58 67 60 68 62 69 59 70 43 71 44 72 49 73 45 74
REMARK SMILES IDX 46 75 48 76 50 77 47 78
REMARK H PARENT 67 40 41 51
REMARK Flexibility Score: inf
ROOT
ATOM      1  C   UNL A   1      30.038  27.525  23.180  1.00  0.00     0.311 C 
ATOM      2  O   UNL A   1      30.367  27.771  22.027  1.00  0.00    -0.252 OA
ENDROOT
BRANCH   1   3
ATOM      3  C   UNL A   1      29.638  26.149  23.679  1.00  0.00     0.128 C 
ATOM      4  N   UNL A   1      31.582  25.131  24.486  1.00  0.00    -0.339 N 
ATOM      5  C   UNL A   1      30.729  25.154  23.320  1.00  0.00     0.135 C 
ATOM      6  C   UNL A   1      30.911  25.570  25.616  1.00  0.00     0.223 C 
ATOM      7  C   UNL A   1      29.543  26.065  25.198  1.00  0.00     0.117 C 
ATOM      8  O   UNL A   1      31.340  25.583  26.759  1.00  0.00    -0.275 OA
BRANCH   4   9
ATOM      9  C   UNL A   1      33.003  24.749  24.476  1.00  0.00     0.082 C 
ATOM     10  C   UNL A   1      33.663  25.206  23.171  1.00  0.00     0.031 C 
BRANCH   9  11
ATOM     11  C   UNL A   1      33.227  23.242  24.698  1.00  0.00     0.025 C 
BRANCH  11  12
ATOM     12  C   UNL A   1      33.826  22.870  26.060  1.00  0.00     0.002 C 
BRANCH  12  13
ATOM     13  C   UNL A   1      35.178  22.155  26.002  1.00  0.00     0.000 C 
BRANCH  13  14
ATOM     14  C   UNL A   1      36.399  23.081  26.010  1.00  0.00    -0.000 C 
BRANCH  14  15
ATOM     15  C   UNL A   1      36.778  23.666  24.647  1.00  0.00    -0.003 C 
ATOM     16  C   UNL A   1      36.652  22.667  23.509  1.00  0.00     0.004 C 
ENDBRANCH  14  15
ENDBRANCH  13  14
ENDBRANCH  12  13
ENDBRANCH  11  12
ENDBRANCH   9  11
ENDBRANCH   4   9
ENDBRANCH   1   3
BRANCH   1  17
ATOM     17  O   UNL A   1      29.922  28.461  24.161  1.00  0.00    -0.462 OA
BRANCH  17  18
ATOM     18  C   UNL A   1      31.023  29.388  24.260  1.00  0.00     0.274 C 
BRANCH  18  19
ATOM     19  C   UNL A   1      31.836  29.216  25.545  1.00  0.00     0.275 C 
BRANCH  19  20
ATOM     20  O   UNL A   1      32.986  30.080  25.571  1.00  0.00    -0.458 OA
BRANCH  20  21
ATOM     21  C   UNL A   1      33.091  30.856  26.674  1.00  0.00     0.338 C 
ATOM     22  O   UNL A   1      32.213  31.522  27.197  1.00  0.00    -0.246 OA
BRANCH  21  23
ATOM     23  C   UNL A   1      34.418  30.687  27.281  1.00  0.00     0.060 A 
ATOM     24  C   UNL A   1      34.786  29.396  27.641  1.00  0.00     0.016 A 
ATOM     25  C   UNL A   1      35.221  31.768  27.643  1.00  0.00     0.016 A 
ATOM     26  C   UNL A   1      35.920  29.171  28.407  1.00  0.00     0.010 A 
ATOM     27  C   UNL A   1      36.405  31.534  28.361  1.00  0.00     0.010 A 
ATOM     28  C   UNL A   1      36.756  30.231  28.757  1.00  0.00    -0.014 A 
BRANCH  28  29
ATOM     29  C   UNL A   1      37.955  29.941  29.582  1.00  0.00     0.031 A 
ATOM     30  C   UNL A   1      39.060  29.098  29.022  1.00  0.00     0.074 A 
ATOM     31  C   UNL A   1      38.093  30.508  30.797  1.00  0.00     0.049 A 
ATOM     32  N   UNL A   1      40.130  28.637  29.615  1.00  0.00    -0.248 NA
ATOM     33  C   UNL A   1      38.948  28.728  27.602  1.00  0.00     0.031 C 
ATOM     34  C   UNL A   1      37.140  31.434  31.412  1.00  0.00     0.029 A 
ATOM     35  N   UNL A   1      39.097  30.398  31.726  1.00  0.00    -0.354 N 
ATOM     36  C   UNL A   1      40.795  27.884  28.657  1.00  0.00     0.074 A 
ATOM     37  C   UNL A   1      40.017  27.960  27.439  1.00  0.00     0.031 C 
ATOM     38  C   UNL A   1      37.612  31.816  32.610  1.00  0.00     0.029 A 
ATOM     39  C   UNL A   1      38.862  31.112  32.877  1.00  0.00     0.049 A 
ATOM     40  H   UNL A   1      39.908  29.860  31.582  1.00  0.00     0.167 HD
ATOM     41  C   UNL A   1      41.947  27.184  28.791  1.00  0.00     0.037 A 
ATOM     42  C   UNL A   1      39.555  31.158  34.031  1.00  0.00     0.037 A 
ATOM     43  C   UNL A   1      42.741  27.151  29.990  1.00  0.00     0.049 A 
ATOM     44  C   UNL A   1      40.800  30.325  34.172  1.00  0.00     0.074 A 
ATOM     45  C   UNL A   1      43.921  26.464  30.225  1.00  0.00     0.029 A 
ATOM     46  N   UNL A   1      42.444  27.844  31.154  1.00  0.00    -0.354 N 
ATOM     47  N   UNL A   1      41.388  29.560  33.285  1.00  0.00    -0.248 NA
ATOM     48  C   UNL A   1      41.466  30.345  35.484  1.00  0.00     0.031 C 
ATOM     49  C   UNL A   1      44.316  26.712  31.543  1.00  0.00     0.029 A 
ATOM     50  C   UNL A   1      43.405  27.584  32.116  1.00  0.00     0.049 A 
ATOM     51  H   UNL A   1      41.666  28.433  31.277  1.00  0.00     0.167 HD
ATOM     52  C   UNL A   1      42.492  29.014  33.925  1.00  0.00     0.074 A 
ATOM     53  C   UNL A   1      42.508  29.555  35.268  1.00  0.00     0.031 C 
ATOM     54  C   UNL A   1      43.406  28.135  33.447  1.00  0.00     0.037 A 
BRANCH  41  55
ATOM     55  C   UNL A   1      42.383  26.348  27.629  1.00  0.00     0.057 A 
ATOM     56  C   UNL A   1      41.965  25.023  27.459  1.00  0.00     0.134 A 
ATOM     57  C   UNL A   1      43.216  26.897  26.645  1.00  0.00     0.134 A 
ATOM     58  F   UNL A   1      41.180  24.435  28.374  1.00  0.00    -0.206 F 
ATOM     59  C   UNL A   1      42.372  24.268  26.358  1.00  0.00     0.040 A 
ATOM     60  C   UNL A   1      43.613  26.159  25.529  1.00  0.00     0.040 A 
ATOM     61  F   UNL A   1      43.650  28.162  26.748  1.00  0.00    -0.206 F 
ATOM     62  C   UNL A   1      43.193  24.839  25.385  1.00  0.00     0.006 A 
ENDBRANCH  41  55
BRANCH  42  63
ATOM     63  C   UNL A   1      39.052  31.964  35.173  1.00  0.00     0.057 A 
ATOM     64  C   UNL A   1      38.292  31.387  36.195  1.00  0.00     0.134 A 
ATOM     65  C   UNL A   1      39.294  33.342  35.249  1.00  0.00     0.134 A 
ATOM     66  F   UNL A   1      38.001  30.078  36.166  1.00  0.00    -0.206 F 
ATOM     67  C   UNL A   1      37.776  32.152  37.244  1.00  0.00     0.040 A 
ATOM     68  C   UNL A   1      38.809  34.114  36.306  1.00  0.00     0.040 A 
ATOM     69  F   UNL A   1      40.010  33.958  34.297  1.00  0.00    -0.206 F 
ATOM     70  C   UNL A   1      38.040  33.519  37.304  1.00  0.00     0.006 A 
ENDBRANCH  42  63
BRANCH  54  71
ATOM     71  C   UNL A   1      44.506  27.718  34.376  1.00  0.00     0.057 A 
ATOM     72  C   UNL A   1      44.404  26.567  35.165  1.00  0.00     0.134 A 
ATOM     73  C   UNL A   1      45.695  28.454  34.451  1.00  0.00     0.134 A 
ATOM     74  F   UNL A   1      43.283  25.828  35.149  1.00  0.00    -0.206 F 
ATOM     75  C   UNL A   1      45.440  26.168  36.010  1.00  0.00     0.040 A 
ATOM     76  C   UNL A   1      46.748  28.054  35.276  1.00  0.00     0.040 A 
ATOM     77  F   UNL A   1      45.858  29.563  33.715  1.00  0.00    -0.206 F 
ATOM     78  C   UNL A   1      46.619  26.910  36.061  1.00  0.00     0.006 A 
ENDBRANCH  54  71
ENDBRANCH  28  29
ENDBRANCH  21  23
ENDBRANCH  20  21
ENDBRANCH  19  20
ENDBRANCH  18  19
ENDBRANCH  17  18
ENDBRANCH   1  17
TORSDOF 17
ENDMDL
