MODEL 1
REMARK VINA RESULT:     -10.3      0.000      0.000
REMARK SMILES O=C(CN(CC(F)(F)F)c1nc(-c2ccccc2)cs1)OCCOC(=O)c1ccc(-c2c3nc(c(-c4c(F)cccc4F)c4ccc([nH]4)c(-c4c(F)cccc4F)c4nc(c(-c5c(F)cccc5F)c5ccc2[nH]5)C=C4)C=C3)cc1
REMARK SMILES IDX 22 1 21 2 2 3 1 4 3 5 4 6 5 7 6 8 7 9 8 10 9 11 10 12 11 13
REMARK SMILES IDX 20 14 12 15 19 16 13 17 14 18 18 19 15 20 17 21 16 22 23 23
REMARK SMILES IDX 24 24 25 25 26 26 27 27 28 28 80 29 29 30 79 31 30 32 31 33
REMARK SMILES IDX 32 34 73 35 33 36 78 37 72 38 74 39 34 40 77 41 71 42 70 43
REMARK SMILES IDX 35 45 61 46 44 47 60 48 45 49 48 50 59 51 75 52 46 53 47 54
REMARK SMILES IDX 58 56 76 57 49 58 36 59 37 60 42 61 38 62 39 63 41 64 43 65
REMARK SMILES IDX 40 66 62 67 63 68 68 69 64 70 65 71 67 72 69 73 66 74 50 75
REMARK SMILES IDX 51 76 56 77 52 78 53 79 55 80 57 81 54 82
REMARK H PARENT 74 44 48 55
REMARK Flexibility Score: inf
ROOT
ATOM      1  C   UNL A   1      32.149  28.997  27.231  1.00  0.00     0.274 C 
ENDROOT
BRANCH   1   2
ATOM      2  O   UNL A   1      31.456  28.677  26.009  1.00  0.00    -0.461 OA
BRANCH   2   3
ATOM      3  C   UNL A   1      32.008  28.737  24.771  1.00  0.00     0.325 C 
ATOM      4  O   UNL A   1      31.395  29.290  23.858  1.00  0.00    -0.250 OA
BRANCH   3   5
ATOM      5  C   UNL A   1      33.333  28.017  24.506  1.00  0.00     0.241 C 
BRANCH   5   6
ATOM      6  N   UNL A   1      33.249  26.657  23.940  1.00  0.00    -0.328 N 
BRANCH   6   7
ATOM      7  C   UNL A   1      33.268  26.528  22.469  1.00  0.00     0.234 C 
BRANCH   7   8
ATOM      8  C   UNL A   1      31.970  26.073  21.784  1.00  0.00     0.406 C 
ATOM      9  F   UNL A   1      31.009  27.017  21.813  1.00  0.00    -0.169 F 
ATOM     10  F   UNL A   1      32.218  25.795  20.479  1.00  0.00    -0.169 F 
ATOM     11  F   UNL A   1      31.473  24.946  22.341  1.00  0.00    -0.169 F 
ENDBRANCH   7   8
ENDBRANCH   6   7
BRANCH   6  12
ATOM     12  C   UNL A   1      33.623  25.649  24.774  1.00  0.00     0.186 A 
ATOM     13  N   UNL A   1      34.767  25.027  24.626  1.00  0.00    -0.220 NA
ATOM     14  S   UNL A   1      32.651  25.013  26.053  1.00  0.00    -0.105 S 
ATOM     15  C   UNL A   1      34.870  23.948  25.479  1.00  0.00     0.083 A 
ATOM     16  C   UNL A   1      33.782  23.753  26.301  1.00  0.00     0.097 A 
BRANCH  15  17
ATOM     17  C   UNL A   1      36.074  23.136  25.507  1.00  0.00     0.001 A 
ATOM     18  C   UNL A   1      37.254  23.589  26.106  1.00  0.00     0.010 A 
ATOM     19  C   UNL A   1      36.044  21.861  24.926  1.00  0.00     0.010 A 
ATOM     20  C   UNL A   1      38.394  22.779  26.110  1.00  0.00     0.001 A 
ATOM     21  C   UNL A   1      37.185  21.059  24.919  1.00  0.00     0.001 A 
ATOM     22  C   UNL A   1      38.361  21.521  25.509  1.00  0.00     0.000 A 
ENDBRANCH  15  17
ENDBRANCH   6  12
ENDBRANCH   5   6
ENDBRANCH   3   5
ENDBRANCH   2   3
ENDBRANCH   1   2
BRANCH   1  23
ATOM     23  C   UNL A   1      32.788  30.387  27.167  1.00  0.00     0.275 C 
BRANCH  23  24
ATOM     24  O   UNL A   1      34.223  30.274  27.166  1.00  0.00    -0.458 OA
BRANCH  24  25
ATOM     25  C   UNL A   1      34.874  30.905  28.179  1.00  0.00     0.338 C 
ATOM     26  O   UNL A   1      34.420  31.746  28.932  1.00  0.00    -0.246 OA
BRANCH  25  27
ATOM     27  C   UNL A   1      36.193  30.257  28.353  1.00  0.00     0.060 A 
ATOM     28  C   UNL A   1      36.504  29.696  29.599  1.00  0.00     0.016 A 
ATOM     29  C   UNL A   1      37.097  30.160  27.291  1.00  0.00     0.016 A 
ATOM     30  C   UNL A   1      37.730  29.052  29.791  1.00  0.00     0.010 A 
ATOM     31  C   UNL A   1      38.326  29.528  27.488  1.00  0.00     0.010 A 
ATOM     32  C   UNL A   1      38.659  28.991  28.744  1.00  0.00    -0.014 A 
BRANCH  32  33
ATOM     33  C   UNL A   1      40.045  28.524  28.976  1.00  0.00     0.031 A 
ATOM     34  C   UNL A   1      41.052  29.507  29.499  1.00  0.00     0.074 A 
ATOM     35  C   UNL A   1      40.428  27.275  28.661  1.00  0.00     0.049 A 
ATOM     36  N   UNL A   1      42.346  29.379  29.642  1.00  0.00    -0.248 NA
ATOM     37  C   UNL A   1      40.525  30.821  29.899  1.00  0.00     0.031 C 
ATOM     38  C   UNL A   1      39.550  26.221  28.158  1.00  0.00     0.029 A 
ATOM     39  N   UNL A   1      41.674  26.697  28.689  1.00  0.00    -0.354 N 
ATOM     40  C   UNL A   1      42.790  30.600  30.132  1.00  0.00     0.074 A 
ATOM     41  C   UNL A   1      41.633  31.460  30.244  1.00  0.00     0.031 C 
ATOM     42  C   UNL A   1      40.292  25.130  27.894  1.00  0.00     0.029 A 
ATOM     43  C   UNL A   1      41.696  25.421  28.179  1.00  0.00     0.049 A 
ATOM     44  H   UNL A   1      42.473  27.152  29.040  1.00  0.00     0.167 HD
ATOM     45  C   UNL A   1      44.050  30.972  30.460  1.00  0.00     0.037 A 
ATOM     46  C   UNL A   1      42.737  24.600  27.939  1.00  0.00     0.037 A 
ATOM     47  C   UNL A   1      45.204  30.124  30.343  1.00  0.00     0.049 A 
ATOM     48  C   UNL A   1      44.138  25.049  28.262  1.00  0.00     0.074 A 
ATOM     49  C   UNL A   1      46.517  30.402  30.681  1.00  0.00     0.029 A 
ATOM     50  N   UNL A   1      45.185  28.834  29.835  1.00  0.00    -0.354 N 
ATOM     51  N   UNL A   1      44.546  26.190  28.763  1.00  0.00    -0.248 NA
ATOM     52  C   UNL A   1      45.224  24.097  27.982  1.00  0.00     0.031 C 
ATOM     53  C   UNL A   1      47.300  29.294  30.336  1.00  0.00     0.029 A 
ATOM     54  C   UNL A   1      46.467  28.312  29.825  1.00  0.00     0.049 A 
ATOM     55  H   UNL A   1      44.378  28.360  29.527  1.00  0.00     0.167 HD
ATOM     56  C   UNL A   1      45.927  26.083  28.884  1.00  0.00     0.074 A 
ATOM     57  C   UNL A   1      46.289  24.766  28.404  1.00  0.00     0.031 C 
ATOM     58  C   UNL A   1      46.814  26.995  29.355  1.00  0.00     0.037 A 
BRANCH  45  59
ATOM     59  C   UNL A   1      44.236  32.378  30.941  1.00  0.00     0.057 A 
ATOM     60  C   UNL A   1      44.156  32.713  32.298  1.00  0.00     0.134 A 
ATOM     61  C   UNL A   1      44.485  33.414  30.031  1.00  0.00     0.134 A 
ATOM     62  F   UNL A   1      43.901  31.769  33.217  1.00  0.00    -0.206 F 
ATOM     63  C   UNL A   1      44.284  34.033  32.732  1.00  0.00     0.040 A 
ATOM     64  C   UNL A   1      44.639  34.735  30.455  1.00  0.00     0.040 A 
ATOM     65  F   UNL A   1      44.574  33.160  28.717  1.00  0.00    -0.206 F 
ATOM     66  C   UNL A   1      44.529  35.048  31.808  1.00  0.00     0.006 A 
ENDBRANCH  45  59
BRANCH  46  67
ATOM     67  C   UNL A   1      42.494  23.265  27.338  1.00  0.00     0.057 A 
ATOM     68  C   UNL A   1      42.182  22.159  28.135  1.00  0.00     0.134 A 
ATOM     69  C   UNL A   1      42.567  23.067  25.954  1.00  0.00     0.134 A 
ATOM     70  F   UNL A   1      42.125  22.283  29.468  1.00  0.00    -0.206 F 
ATOM     71  C   UNL A   1      41.958  20.899  27.578  1.00  0.00     0.040 A 
ATOM     72  C   UNL A   1      42.325  21.818  25.381  1.00  0.00     0.040 A 
ATOM     73  F   UNL A   1      42.865  24.090  25.139  1.00  0.00    -0.206 F 
ATOM     74  C   UNL A   1      42.023  20.728  26.195  1.00  0.00     0.006 A 
ENDBRANCH  46  67
BRANCH  58  75
ATOM     75  C   UNL A   1      48.259  26.596  29.415  1.00  0.00     0.057 A 
ATOM     76  C   UNL A   1      49.156  26.909  28.387  1.00  0.00     0.134 A 
ATOM     77  C   UNL A   1      48.772  25.958  30.552  1.00  0.00     0.134 A 
ATOM     78  F   UNL A   1      48.725  27.510  27.268  1.00  0.00    -0.206 F 
ATOM     79  C   UNL A   1      50.513  26.594  28.484  1.00  0.00     0.040 A 
ATOM     80  C   UNL A   1      50.130  25.657  30.670  1.00  0.00     0.040 A 
ATOM     81  F   UNL A   1      47.967  25.639  31.576  1.00  0.00    -0.206 F 
ATOM     82  C   UNL A   1      51.004  25.975  29.633  1.00  0.00     0.006 A 
ENDBRANCH  58  75
ENDBRANCH  32  33
ENDBRANCH  25  27
ENDBRANCH  24  25
ENDBRANCH  23  24
ENDBRANCH   1  23
TORSDOF 16
ENDMDL
MODEL 2
REMARK VINA RESULT:     -10.3      3.140      7.511
REMARK SMILES O=C(CN(CC(F)(F)F)c1nc(-c2ccccc2)cs1)OCCOC(=O)c1ccc(-c2c3nc(c(-c4c(F)cccc4F)c4ccc([nH]4)c(-c4c(F)cccc4F)c4nc(c(-c5c(F)cccc5F)c5ccc2[nH]5)C=C4)C=C3)cc1
REMARK SMILES IDX 22 1 21 2 2 3 1 4 3 5 4 6 5 7 6 8 7 9 8 10 9 11 10 12 11 13
REMARK SMILES IDX 20 14 12 15 19 16 13 17 14 18 18 19 15 20 17 21 16 22 23 23
REMARK SMILES IDX 24 24 25 25 26 26 27 27 28 28 80 29 29 30 79 31 30 32 31 33
REMARK SMILES IDX 32 34 73 35 33 36 78 37 72 38 74 39 34 40 77 41 71 42 70 43
REMARK SMILES IDX 35 45 61 46 44 47 60 48 45 49 48 50 59 51 75 52 46 53 47 54
REMARK SMILES IDX 58 56 76 57 49 58 36 59 37 60 42 61 38 62 39 63 41 64 43 65
REMARK SMILES IDX 40 66 62 67 63 68 68 69 64 70 65 71 67 72 69 73 66 74 50 75
REMARK SMILES IDX 51 76 56 77 52 78 53 79 55 80 57 81 54 82
REMARK H PARENT 74 44 48 55
REMARK Flexibility Score: inf
ROOT
ATOM      1  C   UNL A   1      38.108  21.023  25.266  1.00  0.00     0.274 C 
ENDROOT
BRANCH   1   2
ATOM      2  O   UNL A   1      37.162  21.303  24.216  1.00  0.00    -0.461 OA
BRANCH   2   3
ATOM      3  C   UNL A   1      36.472  22.466  24.090  1.00  0.00     0.325 C 
ATOM      4  O   UNL A   1      36.560  23.113  23.047  1.00  0.00    -0.250 OA
BRANCH   3   5
ATOM      5  C   UNL A   1      35.687  23.005  25.289  1.00  0.00     0.241 C 
BRANCH   5   6
ATOM      6  N   UNL A   1      34.316  22.492  25.470  1.00  0.00    -0.328 N 
BRANCH   6   7
ATOM      7  C   UNL A   1      34.163  21.111  25.969  1.00  0.00     0.234 C 
BRANCH   7   8
ATOM      8  C   UNL A   1      33.801  20.026  24.943  1.00  0.00     0.406 C 
ATOM      9  F   UNL A   1      34.859  19.264  24.598  1.00  0.00    -0.169 F 
ATOM     10  F   UNL A   1      32.866  19.196  25.469  1.00  0.00    -0.169 F 
ATOM     11  F   UNL A   1      33.273  20.553  23.815  1.00  0.00    -0.169 F 
ENDBRANCH   7   8
ENDBRANCH   6   7
BRANCH   6  12
ATOM     12  C   UNL A   1      33.349  23.440  25.612  1.00  0.00     0.186 A 
ATOM     13  N   UNL A   1      33.649  24.697  25.830  1.00  0.00    -0.220 NA
ATOM     14  S   UNL A   1      31.650  23.126  25.606  1.00  0.00    -0.105 S 
ATOM     15  C   UNL A   1      32.523  25.448  26.094  1.00  0.00     0.083 A 
ATOM     16  C   UNL A   1      31.338  24.745  26.066  1.00  0.00     0.097 A 
BRANCH  15  17
ATOM     17  C   UNL A   1      32.622  26.877  26.330  1.00  0.00     0.001 A 
ATOM     18  C   UNL A   1      31.670  27.565  27.090  1.00  0.00     0.010 A 
ATOM     19  C   UNL A   1      33.708  27.579  25.790  1.00  0.00     0.010 A 
ATOM     20  C   UNL A   1      31.797  28.943  27.292  1.00  0.00     0.001 A 
ATOM     21  C   UNL A   1      33.827  28.955  25.982  1.00  0.00     0.001 A 
ATOM     22  C   UNL A   1      32.869  29.637  26.732  1.00  0.00     0.000 A 
ENDBRANCH  15  17
ENDBRANCH   6  12
ENDBRANCH   5   6
ENDBRANCH   3   5
ENDBRANCH   2   3
ENDBRANCH   1   2
BRANCH   1  23
ATOM     23  C   UNL A   1      38.927  19.764  24.964  1.00  0.00     0.275 C 
BRANCH  23  24
ATOM     24  O   UNL A   1      39.714  19.398  26.113  1.00  0.00    -0.458 OA
BRANCH  24  25
ATOM     25  C   UNL A   1      41.054  19.603  26.009  1.00  0.00     0.338 C 
ATOM     26  O   UNL A   1      41.858  18.913  25.412  1.00  0.00    -0.246 OA
BRANCH  25  27
ATOM     27  C   UNL A   1      41.363  20.930  26.586  1.00  0.00     0.060 A 
ATOM     28  C   UNL A   1      41.892  21.919  25.746  1.00  0.00     0.016 A 
ATOM     29  C   UNL A   1      41.092  21.217  27.928  1.00  0.00     0.016 A 
ATOM     30  C   UNL A   1      42.171  23.193  26.251  1.00  0.00     0.010 A 
ATOM     31  C   UNL A   1      41.382  22.486  28.433  1.00  0.00     0.010 A 
ATOM     32  C   UNL A   1      41.944  23.473  27.604  1.00  0.00    -0.014 A 
BRANCH  32  33
ATOM     33  C   UNL A   1      42.436  24.727  28.220  1.00  0.00     0.031 A 
ATOM     34  C   UNL A   1      41.452  25.834  28.467  1.00  0.00     0.074 A 
ATOM     35  C   UNL A   1      43.739  24.915  28.487  1.00  0.00     0.049 A 
ATOM     36  N   UNL A   1      41.664  27.067  28.853  1.00  0.00    -0.248 NA
ATOM     37  C   UNL A   1      40.038  25.509  28.228  1.00  0.00     0.031 C 
ATOM     38  C   UNL A   1      44.793  23.919  28.308  1.00  0.00     0.029 A 
ATOM     39  N   UNL A   1      44.399  26.031  28.940  1.00  0.00    -0.354 N 
ATOM     40  C   UNL A   1      40.413  27.667  28.887  1.00  0.00     0.074 A 
ATOM     41  C   UNL A   1      39.452  26.672  28.465  1.00  0.00     0.031 C 
ATOM     42  C   UNL A   1      45.976  24.481  28.617  1.00  0.00     0.029 A 
ATOM     43  C   UNL A   1      45.763  25.881  28.984  1.00  0.00     0.049 A 
ATOM     44  H   UNL A   1      43.938  26.860  29.206  1.00  0.00     0.167 HD
ATOM     45  C   UNL A   1      40.092  28.934  29.239  1.00  0.00     0.037 A 
ATOM     46  C   UNL A   1      46.729  26.780  29.258  1.00  0.00     0.037 A 
ATOM     47  C   UNL A   1      41.044  29.929  29.652  1.00  0.00     0.049 A 
ATOM     48  C   UNL A   1      46.357  28.200  29.597  1.00  0.00     0.074 A 
ATOM     49  C   UNL A   1      40.811  31.231  30.058  1.00  0.00     0.029 A 
ATOM     50  N   UNL A   1      42.416  29.734  29.697  1.00  0.00    -0.354 N 
ATOM     51  N   UNL A   1      45.170  28.750  29.666  1.00  0.00    -0.248 NA
ATOM     52  C   UNL A   1      47.462  29.125  29.893  1.00  0.00     0.031 C 
ATOM     53  C   UNL A   1      42.047  31.838  30.307  1.00  0.00     0.029 A 
ATOM     54  C   UNL A   1      43.045  30.900  30.099  1.00  0.00     0.049 A 
ATOM     55  H   UNL A   1      42.875  28.891  29.476  1.00  0.00     0.167 HD
ATOM     56  C   UNL A   1      45.382  30.073  30.039  1.00  0.00     0.074 A 
ATOM     57  C   UNL A   1      46.812  30.245  30.181  1.00  0.00     0.031 C 
ATOM     58  C   UNL A   1      44.470  31.055  30.247  1.00  0.00     0.037 A 
BRANCH  45  59
ATOM     59  C   UNL A   1      38.646  29.316  29.150  1.00  0.00     0.057 A 
ATOM     60  C   UNL A   1      37.802  29.281  30.267  1.00  0.00     0.134 A 
ATOM     61  C   UNL A   1      38.089  29.709  27.927  1.00  0.00     0.134 A 
ATOM     62  F   UNL A   1      38.272  28.895  31.463  1.00  0.00    -0.206 F 
ATOM     63  C   UNL A   1      36.445  29.592  30.165  1.00  0.00     0.040 A 
ATOM     64  C   UNL A   1      36.739  30.047  27.817  1.00  0.00     0.040 A 
ATOM     65  F   UNL A   1      38.843  29.764  26.820  1.00  0.00    -0.206 F 
ATOM     66  C   UNL A   1      35.912  29.979  28.936  1.00  0.00     0.006 A 
ENDBRANCH  45  59
BRANCH  46  67
ATOM     67  C   UNL A   1      48.153  26.367  29.200  1.00  0.00     0.057 A 
ATOM     68  C   UNL A   1      48.898  26.502  28.025  1.00  0.00     0.134 A 
ATOM     69  C   UNL A   1      48.799  25.828  30.320  1.00  0.00     0.134 A 
ATOM     70  F   UNL A   1      48.325  26.987  26.915  1.00  0.00    -0.206 F 
ATOM     71  C   UNL A   1      50.236  26.110  27.961  1.00  0.00     0.040 A 
ATOM     72  C   UNL A   1      50.141  25.451  30.276  1.00  0.00     0.040 A 
ATOM     73  F   UNL A   1      48.134  25.671  31.474  1.00  0.00    -0.206 F 
ATOM     74  C   UNL A   1      50.864  25.588  29.093  1.00  0.00     0.006 A 
ENDBRANCH  46  67
BRANCH  58  75
ATOM     75  C   UNL A   1      44.978  32.395  30.690  1.00  0.00     0.057 A 
ATOM     76  C   UNL A   1      45.282  32.666  32.030  1.00  0.00     0.134 A 
ATOM     77  C   UNL A   1      45.236  33.402  29.751  1.00  0.00     0.134 A 
ATOM     78  F   UNL A   1      45.046  31.748  32.979  1.00  0.00    -0.206 F 
ATOM     79  C   UNL A   1      45.818  33.895  32.421  1.00  0.00     0.040 A 
ATOM     80  C   UNL A   1      45.792  34.627  30.126  1.00  0.00     0.040 A 
ATOM     81  F   UNL A   1      44.976  33.203  28.450  1.00  0.00    -0.206 F 
ATOM     82  C   UNL A   1      46.083  34.875  31.465  1.00  0.00     0.006 A 
ENDBRANCH  58  75
ENDBRANCH  32  33
ENDBRANCH  25  27
ENDBRANCH  24  25
ENDBRANCH  23  24
ENDBRANCH   1  23
TORSDOF 16
ENDMDL
MODEL 3
REMARK VINA RESULT:     -10.2      4.162      8.568
REMARK SMILES O=C(CN(CC(F)(F)F)c1nc(-c2ccccc2)cs1)OCCOC(=O)c1ccc(-c2c3nc(c(-c4c(F)cccc4F)c4ccc([nH]4)c(-c4c(F)cccc4F)c4nc(c(-c5c(F)cccc5F)c5ccc2[nH]5)C=C4)C=C3)cc1
REMARK SMILES IDX 22 1 21 2 2 3 1 4 3 5 4 6 5 7 6 8 7 9 8 10 9 11 10 12 11 13
REMARK SMILES IDX 20 14 12 15 19 16 13 17 14 18 18 19 15 20 17 21 16 22 23 23
REMARK SMILES IDX 24 24 25 25 26 26 27 27 28 28 80 29 29 30 79 31 30 32 31 33
REMARK SMILES IDX 32 34 73 35 33 36 78 37 72 38 74 39 34 40 77 41 71 42 70 43
REMARK SMILES IDX 35 45 61 46 44 47 60 48 45 49 48 50 59 51 75 52 46 53 47 54
REMARK SMILES IDX 58 56 76 57 49 58 36 59 37 60 42 61 38 62 39 63 41 64 43 65
REMARK SMILES IDX 40 66 62 67 63 68 68 69 64 70 65 71 67 72 69 73 66 74 50 75
REMARK SMILES IDX 51 76 56 77 52 78 53 79 55 80 57 81 54 82
REMARK H PARENT 74 44 48 55
REMARK Flexibility Score: inf
ROOT
ATOM      1  C   UNL A   1      31.711  31.638  26.562  1.00  0.00     0.274 C 
ENDROOT
BRANCH   1   2
ATOM      2  O   UNL A   1      32.240  30.415  27.110  1.00  0.00    -0.461 OA
BRANCH   2   3
ATOM      3  C   UNL A   1      33.289  29.728  26.590  1.00  0.00     0.325 C 
ATOM      4  O   UNL A   1      34.354  29.691  27.206  1.00  0.00    -0.250 OA
BRANCH   3   5
ATOM      5  C   UNL A   1      33.161  29.107  25.197  1.00  0.00     0.241 C 
BRANCH   5   6
ATOM      6  N   UNL A   1      32.288  27.924  25.074  1.00  0.00    -0.328 N 
BRANCH   6   7
ATOM      7  C   UNL A   1      32.401  26.882  26.115  1.00  0.00     0.234 C 
BRANCH   7   8
ATOM      8  C   UNL A   1      33.248  25.644  25.785  1.00  0.00     0.406 C 
ATOM      9  F   UNL A   1      32.992  24.606  26.605  1.00  0.00    -0.169 F 
ATOM     10  F   UNL A   1      32.976  25.231  24.521  1.00  0.00    -0.169 F 
ATOM     11  F   UNL A   1      34.573  25.909  25.838  1.00  0.00    -0.169 F 
ENDBRANCH   7   8
ENDBRANCH   6   7
BRANCH   6  12
ATOM     12  C   UNL A   1      31.168  28.097  24.321  1.00  0.00     0.186 A 
ATOM     13  N   UNL A   1      30.834  29.273  23.849  1.00  0.00    -0.220 NA
ATOM     14  S   UNL A   1      30.025  26.855  23.954  1.00  0.00    -0.105 S 
ATOM     15  C   UNL A   1      29.593  29.245  23.249  1.00  0.00     0.083 A 
ATOM     16  C   UNL A   1      28.975  28.014  23.256  1.00  0.00     0.097 A 
BRANCH  15  17
ATOM     17  C   UNL A   1      29.042  30.435  22.627  1.00  0.00     0.001 A 
ATOM     18  C   UNL A   1      28.528  30.415  21.326  1.00  0.00     0.010 A 
ATOM     19  C   UNL A   1      29.015  31.631  23.357  1.00  0.00     0.010 A 
ATOM     20  C   UNL A   1      28.009  31.583  20.759  1.00  0.00     0.001 A 
ATOM     21  C   UNL A   1      28.508  32.797  22.787  1.00  0.00     0.001 A 
ATOM     22  C   UNL A   1      28.007  32.773  21.486  1.00  0.00     0.000 A 
ENDBRANCH  15  17
ENDBRANCH   6  12
ENDBRANCH   5   6
ENDBRANCH   3   5
ENDBRANCH   2   3
ENDBRANCH   1   2
BRANCH   1  23
ATOM     23  C   UNL A   1      32.634  32.827  26.845  1.00  0.00     0.275 C 
BRANCH  23  24
ATOM     24  O   UNL A   1      32.140  33.582  27.967  1.00  0.00    -0.458 OA
BRANCH  24  25
ATOM     25  C   UNL A   1      32.960  34.556  28.440  1.00  0.00     0.338 C 
ATOM     26  O   UNL A   1      32.695  35.735  28.583  1.00  0.00    -0.246 OA
BRANCH  25  27
ATOM     27  C   UNL A   1      34.192  33.914  28.950  1.00  0.00     0.060 A 
ATOM     28  C   UNL A   1      34.072  32.738  29.704  1.00  0.00     0.016 A 
ATOM     29  C   UNL A   1      35.456  34.434  28.652  1.00  0.00     0.016 A 
ATOM     30  C   UNL A   1      35.217  32.090  30.178  1.00  0.00     0.010 A 
ATOM     31  C   UNL A   1      36.596  33.791  29.136  1.00  0.00     0.010 A 
ATOM     32  C   UNL A   1      36.483  32.630  29.921  1.00  0.00    -0.014 A 
BRANCH  32  33
ATOM     33  C   UNL A   1      37.692  32.102  30.594  1.00  0.00     0.031 A 
ATOM     34  C   UNL A   1      38.464  31.006  29.919  1.00  0.00     0.074 A 
ATOM     35  C   UNL A   1      38.061  32.529  31.814  1.00  0.00     0.049 A 
ATOM     36  N   UNL A   1      39.459  30.286  30.371  1.00  0.00    -0.248 NA
ATOM     37  C   UNL A   1      38.041  30.665  28.552  1.00  0.00     0.031 C 
ATOM     38  C   UNL A   1      37.408  33.594  32.572  1.00  0.00     0.029 A 
ATOM     39  N   UNL A   1      39.064  32.087  32.642  1.00  0.00    -0.354 N 
ATOM     40  C   UNL A   1      39.769  29.397  29.351  1.00  0.00     0.074 A 
ATOM     41  C   UNL A   1      38.848  29.654  28.266  1.00  0.00     0.031 C 
ATOM     42  C   UNL A   1      38.009  33.702  33.771  1.00  0.00     0.029 A 
ATOM     43  C   UNL A   1      39.064  32.694  33.874  1.00  0.00     0.049 A 
ATOM     44  H   UNL A   1      39.719  31.401  32.377  1.00  0.00     0.167 HD
ATOM     45  C   UNL A   1      40.737  28.450  29.319  1.00  0.00     0.037 A 
ATOM     46  C   UNL A   1      39.810  32.441  34.967  1.00  0.00     0.037 A 
ATOM     47  C   UNL A   1      41.651  28.186  30.397  1.00  0.00     0.049 A 
ATOM     48  C   UNL A   1      40.847  31.349  34.932  1.00  0.00     0.074 A 
ATOM     49  C   UNL A   1      42.686  27.269  30.445  1.00  0.00     0.029 A 
ATOM     50  N   UNL A   1      41.628  28.832  31.624  1.00  0.00    -0.354 N 
ATOM     51  N   UNL A   1      41.163  30.540  33.951  1.00  0.00    -0.248 NA
ATOM     52  C   UNL A   1      41.629  31.134  36.159  1.00  0.00     0.031 C 
ATOM     53  C   UNL A   1      43.262  27.329  31.719  1.00  0.00     0.029 A 
ATOM     54  C   UNL A   1      42.615  28.314  32.447  1.00  0.00     0.049 A 
ATOM     55  H   UNL A   1      41.004  29.551  31.872  1.00  0.00     0.167 HD
ATOM     56  C   UNL A   1      42.195  29.741  34.430  1.00  0.00     0.074 A 
ATOM     57  C   UNL A   1      42.453  30.162  35.791  1.00  0.00     0.031 C 
ATOM     58  C   UNL A   1      42.869  28.750  33.797  1.00  0.00     0.037 A 
BRANCH  45  59
ATOM     59  C   UNL A   1      40.821  27.609  28.083  1.00  0.00     0.057 A 
ATOM     60  C   UNL A   1      40.143  26.389  27.970  1.00  0.00     0.134 A 
ATOM     61  C   UNL A   1      41.603  28.020  26.996  1.00  0.00     0.134 A 
ATOM     62  F   UNL A   1      39.392  25.932  28.984  1.00  0.00    -0.206 F 
ATOM     63  C   UNL A   1      40.265  25.590  26.832  1.00  0.00     0.040 A 
ATOM     64  C   UNL A   1      41.714  27.241  25.843  1.00  0.00     0.040 A 
ATOM     65  F   UNL A   1      42.277  29.178  27.040  1.00  0.00    -0.206 F 
ATOM     66  C   UNL A   1      41.051  26.018  25.763  1.00  0.00     0.006 A 
ENDBRANCH  45  59
BRANCH  46  67
ATOM     67  C   UNL A   1      39.585  33.227  36.205  1.00  0.00     0.057 A 
ATOM     68  C   UNL A   1      40.287  34.412  36.446  1.00  0.00     0.134 A 
ATOM     69  C   UNL A   1      38.664  32.811  37.174  1.00  0.00     0.134 A 
ATOM     70  F   UNL A   1      41.202  34.845  35.567  1.00  0.00    -0.206 F 
ATOM     71  C   UNL A   1      40.087  35.155  37.611  1.00  0.00     0.040 A 
ATOM     72  C   UNL A   1      38.438  33.554  38.333  1.00  0.00     0.040 A 
ATOM     73  F   UNL A   1      37.962  31.681  36.999  1.00  0.00    -0.206 F 
ATOM     74  C   UNL A   1      39.153  34.729  38.556  1.00  0.00     0.006 A 
ENDBRANCH  46  67
BRANCH  58  75
ATOM     75  C   UNL A   1      43.979  28.072  34.544  1.00  0.00     0.057 A 
ATOM     76  C   UNL A   1      43.779  26.875  35.242  1.00  0.00     0.134 A 
ATOM     77  C   UNL A   1      45.282  28.587  34.500  1.00  0.00     0.134 A 
ATOM     78  F   UNL A   1      42.553  26.337  35.331  1.00  0.00    -0.206 F 
ATOM     79  C   UNL A   1      44.834  26.217  35.877  1.00  0.00     0.040 A 
ATOM     80  C   UNL A   1      46.349  27.927  35.113  1.00  0.00     0.040 A 
ATOM     81  F   UNL A   1      45.542  29.725  33.840  1.00  0.00    -0.206 F 
ATOM     82  C   UNL A   1      46.126  26.739  35.805  1.00  0.00     0.006 A 
ENDBRANCH  58  75
ENDBRANCH  32  33
ENDBRANCH  25  27
ENDBRANCH  24  25
ENDBRANCH  23  24
ENDBRANCH   1  23
TORSDOF 16
ENDMDL
