MODEL 1
REMARK VINA RESULT:     -11.1      0.000      0.000
REMARK SMILES CNc1cc(C(=O)N2CCC[C@@](CCOC)(C(=O)OCCOC(=O)c3ccc(-c4c5nc(c(-c6c(F)cccc6F)c6ccc([nH]6)c(-c6c(F)cccc6F)c6nc(c(-c7c(F)cccc7F)c7ccc4[nH]7)C=C6)C=C5)cc3)C2)ccn1
REMARK SMILES IDX 20 1 19 2 17 3 18 4 12 5 8 6 9 7 79 8 10 9 11 10 6 11 7 12
REMARK SMILES IDX 5 13 3 14 4 15 82 16 81 17 80 18 2 19 1 20 13 22 14 23 15 24
REMARK SMILES IDX 16 25 21 26 22 27 23 28 24 29 25 30 26 31 78 32 27 33 77 34
REMARK SMILES IDX 28 35 29 36 30 37 71 38 31 39 76 40 70 41 72 42 32 43 75 44
REMARK SMILES IDX 69 45 68 46 33 48 59 49 42 50 58 51 43 52 46 53 57 54 73 55
REMARK SMILES IDX 44 56 45 57 56 59 74 60 47 61 34 62 35 63 40 64 36 65 37 66
REMARK SMILES IDX 39 67 41 68 38 69 60 70 61 71 66 72 62 73 63 74 65 75 67 76
REMARK SMILES IDX 64 77 48 78 49 79 54 80 50 81 51 82 53 83 55 84 52 85
REMARK H PARENT 2 21 72 47 46 58
REMARK Flexibility Score: inf
ROOT
ATOM      1  C   UNL A   1      32.361  29.267  24.671  1.00  0.00     0.274 C 
ENDROOT
BRANCH   1   2
ATOM      2  O   UNL A   1      32.004  27.926  25.067  1.00  0.00    -0.462 OA
BRANCH   2   3
ATOM      3  C   UNL A   1      33.018  27.088  25.417  1.00  0.00     0.314 C 
ATOM      4  O   UNL A   1      34.141  27.459  25.745  1.00  0.00    -0.252 OA
BRANCH   3   5
ATOM      5  C   UNL A   1      32.619  25.606  25.355  1.00  0.00     0.088 C 
ATOM      6  N   UNL A   1      33.424  23.371  26.168  1.00  0.00    -0.337 N 
ATOM      7  C   UNL A   1      32.149  23.039  26.788  1.00  0.00     0.120 C 
ATOM      8  C   UNL A   1      33.758  24.796  26.043  1.00  0.00     0.138 C 
ATOM      9  C   UNL A   1      30.994  23.818  26.184  1.00  0.00     0.023 C 
ATOM     10  C   UNL A   1      31.310  25.313  26.131  1.00  0.00     0.022 C 
BRANCH   6  11
ATOM     11  C   UNL A   1      34.265  22.332  25.790  1.00  0.00     0.254 C 
ATOM     12  O   UNL A   1      35.490  22.420  25.804  1.00  0.00    -0.269 OA
BRANCH  11  13
ATOM     13  C   UNL A   1      33.662  21.110  25.210  1.00  0.00     0.045 A 
ATOM     14  C   UNL A   1      32.846  18.880  25.518  1.00  0.00     0.126 A 
ATOM     15  C   UNL A   1      33.573  19.958  25.992  1.00  0.00     0.060 A 
ATOM     16  N   UNL A   1      32.274  18.897  24.300  1.00  0.00    -0.240 NA
ATOM     17  C   UNL A   1      32.344  20.034  23.573  1.00  0.00     0.114 A 
ATOM     18  C   UNL A   1      33.010  21.170  23.985  1.00  0.00     0.034 A 
BRANCH  14  19
ATOM     19  N   UNL A   1      32.626  17.750  26.265  1.00  0.00    -0.373 N 
ATOM     20  C   UNL A   1      32.727  16.431  25.691  1.00  0.00     0.141 C 
ATOM     21  H   UNL A   1      32.391  17.843  27.218  1.00  0.00     0.161 HD
ENDBRANCH  14  19
ENDBRANCH  11  13
ENDBRANCH   6  11
BRANCH   5  22
ATOM     22  C   UNL A   1      32.550  25.202  23.850  1.00  0.00     0.049 C 
BRANCH  22  23
ATOM     23  C   UNL A   1      33.901  25.048  23.151  1.00  0.00     0.161 C 
BRANCH  23  24
ATOM     24  O   UNL A   1      33.837  25.612  21.847  1.00  0.00    -0.385 OA
ATOM     25  C   UNL A   1      32.505  25.920  21.457  1.00  0.00     0.194 C 
ENDBRANCH  23  24
ENDBRANCH  22  23
ENDBRANCH   5  22
ENDBRANCH   3   5
ENDBRANCH   2   3
ENDBRANCH   1   2
BRANCH   1  26
ATOM     26  C   UNL A   1      31.549  30.288  25.464  1.00  0.00     0.275 C 
BRANCH  26  27
ATOM     27  O   UNL A   1      32.103  30.394  26.786  1.00  0.00    -0.458 OA
BRANCH  27  28
ATOM     28  C   UNL A   1      32.687  31.571  27.082  1.00  0.00     0.338 C 
ATOM     29  O   UNL A   1      32.193  32.691  27.062  1.00  0.00    -0.246 OA
BRANCH  28  30
ATOM     30  C   UNL A   1      34.019  31.295  27.623  1.00  0.00     0.060 A 
ATOM     31  C   UNL A   1      34.367  29.959  27.803  1.00  0.00     0.016 A 
ATOM     32  C   UNL A   1      34.867  32.313  28.049  1.00  0.00     0.016 A 
ATOM     33  C   UNL A   1      35.522  29.626  28.496  1.00  0.00     0.010 A 
ATOM     34  C   UNL A   1      36.074  31.975  28.673  1.00  0.00     0.010 A 
ATOM     35  C   UNL A   1      36.394  30.631  28.939  1.00  0.00    -0.014 A 
BRANCH  35  36
ATOM     36  C   UNL A   1      37.575  30.252  29.762  1.00  0.00     0.031 A 
ATOM     37  C   UNL A   1      38.736  29.543  29.113  1.00  0.00     0.074 A 
ATOM     38  C   UNL A   1      37.679  30.664  31.041  1.00  0.00     0.049 A 
ATOM     39  N   UNL A   1      39.842  29.101  29.656  1.00  0.00    -0.248 NA
ATOM     40  C   UNL A   1      38.661  29.329  27.658  1.00  0.00     0.031 C 
ATOM     41  C   UNL A   1      36.686  31.471  31.752  1.00  0.00     0.029 A 
ATOM     42  N   UNL A   1      38.701  30.526  31.950  1.00  0.00    -0.354 N 
ATOM     43  C   UNL A   1      40.556  28.499  28.630  1.00  0.00     0.074 A 
ATOM     44  C   UNL A   1      39.779  28.657  27.421  1.00  0.00     0.031 C 
ATOM     45  C   UNL A   1      37.188  31.838  32.941  1.00  0.00     0.029 A 
ATOM     46  C   UNL A   1      38.493  31.215  33.122  1.00  0.00     0.049 A 
ATOM     47  H   UNL A   1      39.506  29.985  31.777  1.00  0.00     0.167 HD
ATOM     48  C   UNL A   1      41.749  27.863  28.693  1.00  0.00     0.037 A 
ATOM     49  C   UNL A   1      39.262  31.321  34.224  1.00  0.00     0.037 A 
ATOM     50  C   UNL A   1      42.556  27.765  29.878  1.00  0.00     0.049 A 
ATOM     51  C   UNL A   1      40.560  30.564  34.279  1.00  0.00     0.074 A 
ATOM     52  C   UNL A   1      43.756  27.097  30.051  1.00  0.00     0.029 A 
ATOM     53  N   UNL A   1      42.259  28.374  31.087  1.00  0.00    -0.354 N 
ATOM     54  N   UNL A   1      41.173  29.900  33.330  1.00  0.00    -0.248 NA
ATOM     55  C   UNL A   1      41.254  30.539  35.575  1.00  0.00     0.031 C 
ATOM     56  C   UNL A   1      44.170  27.277  31.375  1.00  0.00     0.029 A 
ATOM     57  C   UNL A   1      43.245  28.085  32.014  1.00  0.00     0.049 A 
ATOM     58  H   UNL A   1      41.465  28.930  31.260  1.00  0.00     0.167 HD
ATOM     59  C   UNL A   1      42.317  29.372  33.915  1.00  0.00     0.074 A 
ATOM     60  C   UNL A   1      42.338  29.832  35.288  1.00  0.00     0.031 C 
ATOM     61  C   UNL A   1      43.252  28.556  33.374  1.00  0.00     0.037 A 
BRANCH  48  62
ATOM     62  C   UNL A   1      42.226  27.160  27.460  1.00  0.00     0.057 A 
ATOM     63  C   UNL A   1      41.910  25.826  27.187  1.00  0.00     0.134 A 
ATOM     64  C   UNL A   1      42.979  27.860  26.507  1.00  0.00     0.134 A 
ATOM     65  F   UNL A   1      41.212  25.098  28.071  1.00  0.00    -0.206 F 
ATOM     66  C   UNL A   1      42.328  25.209  26.005  1.00  0.00     0.040 A 
ATOM     67  C   UNL A   1      43.387  27.261  25.316  1.00  0.00     0.040 A 
ATOM     68  F   UNL A   1      43.314  29.142  26.715  1.00  0.00    -0.206 F 
ATOM     69  C   UNL A   1      43.062  25.930  25.062  1.00  0.00     0.006 A 
ENDBRANCH  48  62
BRANCH  49  70
ATOM     70  C   UNL A   1      38.816  32.130  35.388  1.00  0.00     0.057 A 
ATOM     71  C   UNL A   1      39.082  33.504  35.459  1.00  0.00     0.134 A 
ATOM     72  C   UNL A   1      38.158  31.549  36.480  1.00  0.00     0.134 A 
ATOM     73  F   UNL A   1      39.742  34.115  34.465  1.00  0.00    -0.206 F 
ATOM     74  C   UNL A   1      38.725  34.263  36.575  1.00  0.00     0.040 A 
ATOM     75  C   UNL A   1      37.766  32.302  37.588  1.00  0.00     0.040 A 
ATOM     76  F   UNL A   1      37.885  30.236  36.486  1.00  0.00    -0.206 F 
ATOM     77  C   UNL A   1      38.058  33.662  37.641  1.00  0.00     0.006 A 
ENDBRANCH  49  70
BRANCH  61  78
ATOM     78  C   UNL A   1      44.367  28.103  34.267  1.00  0.00     0.057 A 
ATOM     79  C   UNL A   1      44.302  26.883  34.951  1.00  0.00     0.134 A 
ATOM     80  C   UNL A   1      45.530  28.868  34.411  1.00  0.00     0.134 A 
ATOM     81  F   UNL A   1      43.208  26.110  34.861  1.00  0.00    -0.206 F 
ATOM     82  C   UNL A   1      45.350  26.446  35.763  1.00  0.00     0.040 A 
ATOM     83  C   UNL A   1      46.594  28.432  35.202  1.00  0.00     0.040 A 
ATOM     84  F   UNL A   1      45.658  30.042  33.775  1.00  0.00    -0.206 F 
ATOM     85  C   UNL A   1      46.503  27.219  35.884  1.00  0.00     0.006 A 
ENDBRANCH  61  78
ENDBRANCH  35  36
ENDBRANCH  28  30
ENDBRANCH  27  28
ENDBRANCH  26  27
ENDBRANCH   1  26
TORSDOF 17
ENDMDL
MODEL 2
REMARK VINA RESULT:     -11.0      3.829      7.114
REMARK SMILES CNc1cc(C(=O)N2CCC[C@@](CCOC)(C(=O)OCCOC(=O)c3ccc(-c4c5nc(c(-c6c(F)cccc6F)c6ccc([nH]6)c(-c6c(F)cccc6F)c6nc(c(-c7c(F)cccc7F)c7ccc4[nH]7)C=C6)C=C5)cc3)C2)ccn1
REMARK SMILES IDX 20 1 19 2 17 3 18 4 12 5 8 6 9 7 79 8 10 9 11 10 6 11 7 12
REMARK SMILES IDX 5 13 3 14 4 15 82 16 81 17 80 18 2 19 1 20 13 22 14 23 15 24
REMARK SMILES IDX 16 25 21 26 22 27 23 28 24 29 25 30 26 31 78 32 27 33 77 34
REMARK SMILES IDX 28 35 29 36 30 37 71 38 31 39 76 40 70 41 72 42 32 43 75 44
REMARK SMILES IDX 69 45 68 46 33 48 59 49 42 50 58 51 43 52 46 53 57 54 73 55
REMARK SMILES IDX 44 56 45 57 56 59 74 60 47 61 34 62 35 63 40 64 36 65 37 66
REMARK SMILES IDX 39 67 41 68 38 69 60 70 61 71 66 72 62 73 63 74 65 75 67 76
REMARK SMILES IDX 64 77 48 78 49 79 54 80 50 81 51 82 53 83 55 84 52 85
REMARK H PARENT 2 21 72 47 46 58
REMARK Flexibility Score: inf
ROOT
ATOM      1  C   UNL A   1      36.153  20.391  24.988  1.00  0.00     0.274 C 
ENDROOT
BRANCH   1   2
ATOM      2  O   UNL A   1      36.057  21.786  24.632  1.00  0.00    -0.462 OA
BRANCH   2   3
ATOM      3  C   UNL A   1      35.364  22.599  25.476  1.00  0.00     0.314 C 
ATOM      4  O   UNL A   1      35.678  22.814  26.642  1.00  0.00    -0.252 OA
BRANCH   3   5
ATOM      5  C   UNL A   1      34.126  23.228  24.819  1.00  0.00     0.088 C 
ATOM      6  N   UNL A   1      33.527  24.671  22.854  1.00  0.00    -0.337 N 
ATOM      7  C   UNL A   1      32.535  23.730  22.353  1.00  0.00     0.120 C 
ATOM      8  C   UNL A   1      34.633  24.121  23.648  1.00  0.00     0.138 C 
ATOM      9  C   UNL A   1      32.018  22.804  23.441  1.00  0.00     0.023 C 
ATOM     10  C   UNL A   1      33.174  22.167  24.213  1.00  0.00     0.022 C 
BRANCH   6  11
ATOM     11  C   UNL A   1      33.401  26.010  22.505  1.00  0.00     0.254 C 
ATOM     12  O   UNL A   1      33.811  26.468  21.442  1.00  0.00    -0.269 OA
BRANCH  11  13
ATOM     13  C   UNL A   1      32.879  26.957  23.516  1.00  0.00     0.045 A 
ATOM     14  C   UNL A   1      33.308  28.649  25.156  1.00  0.00     0.126 A 
ATOM     15  C   UNL A   1      33.777  27.631  24.344  1.00  0.00     0.060 A 
ATOM     16  N   UNL A   1      32.000  28.964  25.206  1.00  0.00    -0.240 NA
ATOM     17  C   UNL A   1      31.152  28.322  24.371  1.00  0.00     0.114 A 
ATOM     18  C   UNL A   1      31.540  27.325  23.499  1.00  0.00     0.034 A 
BRANCH  14  19
ATOM     19  N   UNL A   1      34.138  29.426  25.924  1.00  0.00    -0.373 N 
ATOM     20  C   UNL A   1      34.513  29.040  27.262  1.00  0.00     0.141 C 
ATOM     21  H   UNL A   1      34.486  30.269  25.552  1.00  0.00     0.161 HD
ENDBRANCH  14  19
ENDBRANCH  11  13
ENDBRANCH   6  11
BRANCH   5  22
ATOM     22  C   UNL A   1      33.441  24.136  25.886  1.00  0.00     0.049 C 
BRANCH  22  23
ATOM     23  C   UNL A   1      32.631  23.397  26.952  1.00  0.00     0.161 C 
BRANCH  23  24
ATOM     24  O   UNL A   1      31.433  24.112  27.231  1.00  0.00    -0.385 OA
ATOM     25  C   UNL A   1      31.186  25.142  26.282  1.00  0.00     0.194 C 
ENDBRANCH  23  24
ENDBRANCH  22  23
ENDBRANCH   5  22
ENDBRANCH   3   5
ENDBRANCH   2   3
ENDBRANCH   1   2
BRANCH   1  26
ATOM     26  C   UNL A   1      37.605  19.925  24.920  1.00  0.00     0.275 C 
BRANCH  26  27
ATOM     27  O   UNL A   1      38.460  21.027  25.268  1.00  0.00    -0.458 OA
BRANCH  27  28
ATOM     28  C   UNL A   1      39.501  20.728  26.068  1.00  0.00     0.338 C 
ATOM     29  O   UNL A   1      40.101  19.666  26.171  1.00  0.00    -0.246 OA
BRANCH  28  30
ATOM     30  C   UNL A   1      39.949  21.965  26.712  1.00  0.00     0.060 A 
ATOM     31  C   UNL A   1      39.332  23.147  26.314  1.00  0.00     0.016 A 
ATOM     32  C   UNL A   1      41.021  21.987  27.599  1.00  0.00     0.016 A 
ATOM     33  C   UNL A   1      39.839  24.372  26.725  1.00  0.00     0.010 A 
ATOM     34  C   UNL A   1      41.479  23.219  28.081  1.00  0.00     0.010 A 
ATOM     35  C   UNL A   1      40.919  24.425  27.617  1.00  0.00    -0.014 A 
BRANCH  35  36
ATOM     36  C   UNL A   1      41.504  25.748  27.967  1.00  0.00     0.031 A 
ATOM     37  C   UNL A   1      42.854  26.132  27.421  1.00  0.00     0.074 A 
ATOM     38  C   UNL A   1      40.777  26.660  28.644  1.00  0.00     0.049 A 
ATOM     39  N   UNL A   1      43.550  27.221  27.629  1.00  0.00    -0.248 NA
ATOM     40  C   UNL A   1      43.495  25.185  26.494  1.00  0.00     0.031 C 
ATOM     41  C   UNL A   1      39.405  26.465  29.117  1.00  0.00     0.029 A 
ATOM     42  N   UNL A   1      41.061  27.960  28.988  1.00  0.00    -0.354 N 
ATOM     43  C   UNL A   1      44.733  27.059  26.921  1.00  0.00     0.074 A 
ATOM     44  C   UNL A   1      44.654  25.782  26.247  1.00  0.00     0.031 C 
ATOM     45  C   UNL A   1      38.936  27.628  29.595  1.00  0.00     0.029 A 
ATOM     46  C   UNL A   1      39.999  28.624  29.557  1.00  0.00     0.049 A 
ATOM     47  H   UNL A   1      41.941  28.377  28.841  1.00  0.00     0.167 HD
ATOM     48  C   UNL A   1      45.794  27.896  26.847  1.00  0.00     0.037 A 
ATOM     49  C   UNL A   1      39.898  29.889  30.010  1.00  0.00     0.037 A 
ATOM     50  C   UNL A   1      45.847  29.196  27.458  1.00  0.00     0.049 A 
ATOM     51  C   UNL A   1      41.110  30.779  29.955  1.00  0.00     0.074 A 
ATOM     52  C   UNL A   1      46.898  30.096  27.480  1.00  0.00     0.029 A 
ATOM     53  N   UNL A   1      44.795  29.794  28.132  1.00  0.00    -0.354 N 
ATOM     54  N   UNL A   1      42.267  30.568  29.377  1.00  0.00    -0.248 NA
ATOM     55  C   UNL A   1      41.011  32.070  30.652  1.00  0.00     0.031 C 
ATOM     56  C   UNL A   1      46.492  31.226  28.195  1.00  0.00     0.029 A 
ATOM     57  C   UNL A   1      45.177  31.044  28.587  1.00  0.00     0.049 A 
ATOM     58  H   UNL A   1      43.907  29.389  28.268  1.00  0.00     0.167 HD
ATOM     59  C   UNL A   1      43.035  31.692  29.649  1.00  0.00     0.074 A 
ATOM     60  C   UNL A   1      42.198  32.603  30.401  1.00  0.00     0.031 C 
ATOM     61  C   UNL A   1      44.329  31.938  29.330  1.00  0.00     0.037 A 
BRANCH  48  62
ATOM     62  C   UNL A   1      47.016  27.406  26.135  1.00  0.00     0.057 A 
ATOM     63  C   UNL A   1      48.044  26.723  26.792  1.00  0.00     0.134 A 
ATOM     64  C   UNL A   1      47.134  27.585  24.750  1.00  0.00     0.134 A 
ATOM     65  F   UNL A   1      47.999  26.541  28.120  1.00  0.00    -0.206 F 
ATOM     66  C   UNL A   1      49.151  26.234  26.094  1.00  0.00     0.040 A 
ATOM     67  C   UNL A   1      48.224  27.085  24.040  1.00  0.00     0.040 A 
ATOM     68  F   UNL A   1      46.179  28.233  24.065  1.00  0.00    -0.206 F 
ATOM     69  C   UNL A   1      49.239  26.408  24.712  1.00  0.00     0.006 A 
ENDBRANCH  48  62
BRANCH  49  70
ATOM     70  C   UNL A   1      38.628  30.387  30.600  1.00  0.00     0.057 A 
ATOM     71  C   UNL A   1      38.328  30.179  31.953  1.00  0.00     0.134 A 
ATOM     72  C   UNL A   1      37.662  31.039  29.824  1.00  0.00     0.134 A 
ATOM     73  F   UNL A   1      39.193  29.527  32.743  1.00  0.00    -0.206 F 
ATOM     74  C   UNL A   1      37.112  30.586  32.505  1.00  0.00     0.040 A 
ATOM     75  C   UNL A   1      36.455  31.481  30.370  1.00  0.00     0.040 A 
ATOM     76  F   UNL A   1      37.876  31.259  28.518  1.00  0.00    -0.206 F 
ATOM     77  C   UNL A   1      36.174  31.246  31.713  1.00  0.00     0.006 A 
ENDBRANCH  49  70
BRANCH  61  78
ATOM     78  C   UNL A   1      44.916  33.235  29.799  1.00  0.00     0.057 A 
ATOM     79  C   UNL A   1      44.824  34.398  29.025  1.00  0.00     0.134 A 
ATOM     80  C   UNL A   1      45.537  33.334  31.050  1.00  0.00     0.134 A 
ATOM     81  F   UNL A   1      44.249  34.364  27.812  1.00  0.00    -0.206 F 
ATOM     82  C   UNL A   1      45.346  35.613  29.470  1.00  0.00     0.040 A 
ATOM     83  C   UNL A   1      46.043  34.548  31.516  1.00  0.00     0.040 A 
ATOM     84  F   UNL A   1      45.648  32.258  31.843  1.00  0.00    -0.206 F 
ATOM     85  C   UNL A   1      45.952  35.691  30.723  1.00  0.00     0.006 A 
ENDBRANCH  61  78
ENDBRANCH  35  36
ENDBRANCH  28  30
ENDBRANCH  27  28
ENDBRANCH  26  27
ENDBRANCH   1  26
TORSDOF 17
ENDMDL
MODEL 3
REMARK VINA RESULT:     -10.8      2.703      6.971
REMARK SMILES CNc1cc(C(=O)N2CCC[C@@](CCOC)(C(=O)OCCOC(=O)c3ccc(-c4c5nc(c(-c6c(F)cccc6F)c6ccc([nH]6)c(-c6c(F)cccc6F)c6nc(c(-c7c(F)cccc7F)c7ccc4[nH]7)C=C6)C=C5)cc3)C2)ccn1
REMARK SMILES IDX 20 1 19 2 17 3 18 4 12 5 8 6 9 7 79 8 10 9 11 10 6 11 7 12
REMARK SMILES IDX 5 13 3 14 4 15 82 16 81 17 80 18 2 19 1 20 13 22 14 23 15 24
REMARK SMILES IDX 16 25 21 26 22 27 23 28 24 29 25 30 26 31 78 32 27 33 77 34
REMARK SMILES IDX 28 35 29 36 30 37 71 38 31 39 76 40 70 41 72 42 32 43 75 44
REMARK SMILES IDX 69 45 68 46 33 48 59 49 42 50 58 51 43 52 46 53 57 54 73 55
REMARK SMILES IDX 44 56 45 57 56 59 74 60 47 61 34 62 35 63 40 64 36 65 37 66
REMARK SMILES IDX 39 67 41 68 38 69 60 70 61 71 66 72 62 73 63 74 65 75 67 76
REMARK SMILES IDX 64 77 48 78 49 79 54 80 50 81 51 82 53 83 55 84 52 85
REMARK H PARENT 2 21 72 47 46 58
REMARK Flexibility Score: inf
ROOT
ATOM      1  C   UNL A   1      38.297  21.855  25.360  1.00  0.00     0.274 C 
ENDROOT
BRANCH   1   2
ATOM      2  O   UNL A   1      37.487  23.035  25.178  1.00  0.00    -0.462 OA
BRANCH   2   3
ATOM      3  C   UNL A   1      36.630  23.047  24.121  1.00  0.00     0.314 C 
ATOM      4  O   UNL A   1      36.974  22.929  22.950  1.00  0.00    -0.252 OA
BRANCH   3   5
ATOM      5  C   UNL A   1      35.164  23.232  24.541  1.00  0.00     0.088 C 
ATOM      6  N   UNL A   1      33.283  21.915  25.556  1.00  0.00    -0.337 N 
ATOM      7  C   UNL A   1      33.050  22.891  26.610  1.00  0.00     0.120 C 
ATOM      8  C   UNL A   1      34.640  21.838  24.999  1.00  0.00     0.138 C 
ATOM      9  C   UNL A   1      33.566  24.272  26.240  1.00  0.00     0.023 C 
ATOM     10  C   UNL A   1      35.009  24.201  25.739  1.00  0.00     0.022 C 
BRANCH   6  11
ATOM     11  C   UNL A   1      32.235  21.081  25.185  1.00  0.00     0.254 C 
ATOM     12  O   UNL A   1      31.055  21.360  25.378  1.00  0.00    -0.269 OA
BRANCH  11  13
ATOM     13  C   UNL A   1      32.555  19.733  24.663  1.00  0.00     0.045 A 
ATOM     14  C   UNL A   1      32.970  17.414  25.091  1.00  0.00     0.126 A 
ATOM     15  C   UNL A   1      32.855  18.710  25.562  1.00  0.00     0.060 A 
ATOM     16  N   UNL A   1      32.854  17.128  23.780  1.00  0.00    -0.240 NA
ATOM     17  C   UNL A   1      32.531  18.129  22.931  1.00  0.00     0.114 A 
ATOM     18  C   UNL A   1      32.355  19.441  23.321  1.00  0.00     0.034 A 
BRANCH  14  19
ATOM     19  N   UNL A   1      33.163  16.338  25.921  1.00  0.00    -0.373 N 
ATOM     20  C   UNL A   1      32.480  15.085  25.707  1.00  0.00     0.141 C 
ATOM     21  H   UNL A   1      33.783  16.424  26.682  1.00  0.00     0.161 HD
ENDBRANCH  14  19
ENDBRANCH  11  13
ENDBRANCH   6  11
BRANCH   5  22
ATOM     22  C   UNL A   1      34.368  23.680  23.276  1.00  0.00     0.049 C 
BRANCH  22  23
ATOM     23  C   UNL A   1      34.199  25.190  23.110  1.00  0.00     0.161 C 
BRANCH  23  24
ATOM     24  O   UNL A   1      32.839  25.497  22.826  1.00  0.00    -0.385 OA
ATOM     25  C   UNL A   1      32.561  25.473  21.432  1.00  0.00     0.194 C 
ENDBRANCH  23  24
ENDBRANCH  22  23
ENDBRANCH   5  22
ENDBRANCH   3   5
ENDBRANCH   2   3
ENDBRANCH   1   2
BRANCH   1  26
ATOM     26  C   UNL A   1      39.550  22.191  26.164  1.00  0.00     0.275 C 
BRANCH  26  27
ATOM     27  O   UNL A   1      39.436  23.536  26.658  1.00  0.00    -0.458 OA
BRANCH  27  28
ATOM     28  C   UNL A   1      40.593  24.218  26.767  1.00  0.00     0.338 C 
ATOM     29  O   UNL A   1      41.643  24.035  26.166  1.00  0.00    -0.246 OA
BRANCH  28  30
ATOM     30  C   UNL A   1      40.355  25.380  27.626  1.00  0.00     0.060 A 
ATOM     31  C   UNL A   1      41.325  26.378  27.627  1.00  0.00     0.016 A 
ATOM     32  C   UNL A   1      39.269  25.444  28.495  1.00  0.00     0.016 A 
ATOM     33  C   UNL A   1      41.271  27.403  28.562  1.00  0.00     0.010 A 
ATOM     34  C   UNL A   1      39.170  26.524  29.380  1.00  0.00     0.010 A 
ATOM     35  C   UNL A   1      40.190  27.491  29.450  1.00  0.00    -0.014 A 
BRANCH  35  36
ATOM     36  C   UNL A   1      40.204  28.544  30.503  1.00  0.00     0.031 A 
ATOM     37  C   UNL A   1      39.173  29.642  30.469  1.00  0.00     0.074 A 
ATOM     38  C   UNL A   1      41.032  28.441  31.562  1.00  0.00     0.049 A 
ATOM     39  N   UNL A   1      39.031  30.666  31.272  1.00  0.00    -0.248 NA
ATOM     40  C   UNL A   1      38.147  29.565  29.417  1.00  0.00     0.031 C 
ATOM     41  C   UNL A   1      41.989  27.356  31.784  1.00  0.00     0.029 A 
ATOM     42  N   UNL A   1      41.153  29.221  32.687  1.00  0.00    -0.354 N 
ATOM     43  C   UNL A   1      37.952  31.388  30.782  1.00  0.00     0.074 A 
ATOM     44  C   UNL A   1      37.449  30.673  29.630  1.00  0.00     0.031 C 
ATOM     45  C   UNL A   1      42.521  27.484  33.010  1.00  0.00     0.029 A 
ATOM     46  C   UNL A   1      42.022  28.709  33.622  1.00  0.00     0.049 A 
ATOM     47  H   UNL A   1      40.663  30.067  32.812  1.00  0.00     0.167 HD
ATOM     48  C   UNL A   1      37.433  32.549  31.245  1.00  0.00     0.037 A 
ATOM     49  C   UNL A   1      42.388  29.182  34.829  1.00  0.00     0.037 A 
ATOM     50  C   UNL A   1      37.886  33.226  32.429  1.00  0.00     0.049 A 
ATOM     51  C   UNL A   1      41.827  30.498  35.294  1.00  0.00     0.074 A 
ATOM     52  C   UNL A   1      37.455  34.434  32.950  1.00  0.00     0.029 A 
ATOM     53  N   UNL A   1      38.855  32.741  33.293  1.00  0.00    -0.354 N 
ATOM     54  N   UNL A   1      40.882  31.231  34.759  1.00  0.00    -0.248 NA
ATOM     55  C   UNL A   1      42.416  31.072  36.513  1.00  0.00     0.031 C 
ATOM     56  C   UNL A   1      38.186  34.695  34.113  1.00  0.00     0.029 A 
ATOM     57  C   UNL A   1      39.046  33.632  34.335  1.00  0.00     0.049 A 
ATOM     58  H   UNL A   1      39.336  31.889  33.182  1.00  0.00     0.167 HD
ATOM     59  C   UNL A   1      40.770  32.353  35.569  1.00  0.00     0.074 A 
ATOM     60  C   UNL A   1      41.709  32.183  36.658  1.00  0.00     0.031 C 
ATOM     61  C   UNL A   1      39.981  33.443  35.411  1.00  0.00     0.037 A 
BRANCH  48  62
ATOM     62  C   UNL A   1      36.360  33.203  30.431  1.00  0.00     0.057 A 
ATOM     63  C   UNL A   1      36.634  33.918  29.262  1.00  0.00     0.134 A 
ATOM     64  C   UNL A   1      35.017  33.066  30.812  1.00  0.00     0.134 A 
ATOM     65  F   UNL A   1      37.900  34.102  28.859  1.00  0.00    -0.206 F 
ATOM     66  C   UNL A   1      35.608  34.476  28.496  1.00  0.00     0.040 A 
ATOM     67  C   UNL A   1      33.984  33.603  30.046  1.00  0.00     0.040 A 
ATOM     68  F   UNL A   1      34.693  32.391  31.925  1.00  0.00    -0.206 F 
ATOM     69  C   UNL A   1      34.278  34.312  28.884  1.00  0.00     0.006 A 
ENDBRANCH  48  62
BRANCH  49  70
ATOM     70  C   UNL A   1      43.366  28.444  35.672  1.00  0.00     0.057 A 
ATOM     71  C   UNL A   1      44.742  28.673  35.551  1.00  0.00     0.134 A 
ATOM     72  C   UNL A   1      42.958  27.459  36.581  1.00  0.00     0.134 A 
ATOM     73  F   UNL A   1      45.201  29.575  34.672  1.00  0.00    -0.206 F 
ATOM     74  C   UNL A   1      45.675  27.943  36.291  1.00  0.00     0.040 A 
ATOM     75  C   UNL A   1      43.877  26.744  37.350  1.00  0.00     0.040 A 
ATOM     76  F   UNL A   1      41.656  27.177  36.736  1.00  0.00    -0.206 F 
ATOM     77  C   UNL A   1      45.241  26.979  37.199  1.00  0.00     0.006 A 
ENDBRANCH  49  70
BRANCH  61  78
ATOM     78  C   UNL A   1      40.106  34.534  36.432  1.00  0.00     0.057 A 
ATOM     79  C   UNL A   1      41.052  35.556  36.292  1.00  0.00     0.134 A 
ATOM     80  C   UNL A   1      39.248  34.589  37.536  1.00  0.00     0.134 A 
ATOM     81  F   UNL A   1      41.910  35.552  35.260  1.00  0.00    -0.206 F 
ATOM     82  C   UNL A   1      41.154  36.588  37.226  1.00  0.00     0.040 A 
ATOM     83  C   UNL A   1      39.324  35.628  38.465  1.00  0.00     0.040 A 
ATOM     84  F   UNL A   1      38.313  33.645  37.721  1.00  0.00    -0.206 F 
ATOM     85  C   UNL A   1      40.283  36.628  38.313  1.00  0.00     0.006 A 
ENDBRANCH  61  78
ENDBRANCH  35  36
ENDBRANCH  28  30
ENDBRANCH  27  28
ENDBRANCH  26  27
ENDBRANCH   1  26
TORSDOF 17
ENDMDL
