MODEL 1
REMARK VINA RESULT:     -14.0      0.000      0.000
REMARK SMILES Cc1ccc([C@@]23C[C@@H]4C[C@@H](C[C@@](C(=O)N5CCC(C(=O)OCCOC(=O)c6ccc(-c7c8nc(c(-c9c(F)cccc9F)c9ccc([nH]9)c(-c9c(F)cccc9F)c9nc(c(-c%10c(F)cccc%10F)c%10ccc7[nH]%10)C=C9)C=C8)cc6)CC5)(C4)C2)C3)cc1
REMARK SMILES IDX 22 1 21 2 19 3 20 4 18 5 13 6 14 7 15 8 16 9 82 10 17 11
REMARK SMILES IDX 81 12 12 13 6 14 7 15 84 16 85 17 8 18 10 19 9 20 83 21
REMARK SMILES IDX 11 22 5 23 1 24 2 25 3 26 87 27 4 28 86 29 23 30 24 31 25 32
REMARK SMILES IDX 26 33 27 34 28 35 80 36 29 37 79 38 30 39 31 40 32 41 73 42
REMARK SMILES IDX 33 43 78 44 72 45 74 46 34 47 77 48 71 49 70 50 35 52 61 53
REMARK SMILES IDX 44 54 60 55 45 56 48 57 59 58 75 59 46 60 47 61 58 63 76 64
REMARK SMILES IDX 49 65 36 66 37 67 42 68 38 69 39 70 41 71 43 72 40 73 62 74
REMARK SMILES IDX 63 75 68 76 64 77 65 78 67 79 69 80 66 81 50 82 51 83 56 84
REMARK SMILES IDX 52 85 53 86 55 87 57 88 54 89
REMARK H PARENT 74 51 48 62
REMARK Flexibility Score: inf
ROOT
ATOM      1  C   UNL A   1      32.725  29.239  26.770  1.00  0.00     0.274 C 
ENDROOT
BRANCH   1   2
ATOM      2  O   UNL A   1      32.504  28.279  25.742  1.00  0.00    -0.462 OA
BRANCH   2   3
ATOM      3  C   UNL A   1      31.855  28.776  24.655  1.00  0.00     0.309 C 
ATOM      4  O   UNL A   1      31.032  29.680  24.698  1.00  0.00    -0.252 OA
BRANCH   3   5
ATOM      5  C   UNL A   1      32.288  28.023  23.417  1.00  0.00     0.103 C 
ATOM      6  C   UNL A   1      32.622  24.316  23.577  1.00  0.00     0.228 C 
ATOM      7  O   UNL A   1      31.474  23.891  23.738  1.00  0.00    -0.274 OA
ATOM      8  N   UNL A   1      32.877  25.382  22.705  1.00  0.00    -0.342 N 
ATOM      9  C   UNL A   1      31.739  25.964  22.022  1.00  0.00     0.120 C 
ATOM     10  C   UNL A   1      34.004  26.308  22.763  1.00  0.00     0.120 C 
ATOM     11  C   UNL A   1      31.190  27.056  22.922  1.00  0.00     0.037 C 
ATOM     12  C   UNL A   1      33.644  27.408  23.741  1.00  0.00     0.037 C 
BRANCH   6  13
ATOM     13  C   UNL A   1      33.799  23.628  24.285  1.00  0.00     0.051 C 
ATOM     14  C   UNL A   1      34.528  21.285  25.018  1.00  0.00    -0.003 C 
ATOM     15  C   UNL A   1      35.845  21.549  24.226  1.00  0.00     0.015 C 
ATOM     16  C   UNL A   1      33.422  22.149  24.395  1.00  0.00     0.028 C 
ATOM     17  C   UNL A   1      34.718  21.805  26.467  1.00  0.00     0.015 C 
ATOM     18  C   UNL A   1      36.252  23.035  24.277  1.00  0.00    -0.009 C 
ATOM     19  C   UNL A   1      35.068  23.313  26.465  1.00  0.00    -0.009 C 
ATOM     20  C   UNL A   1      36.399  23.507  25.725  1.00  0.00     0.007 C 
ATOM     21  C   UNL A   1      35.159  23.860  23.600  1.00  0.00     0.020 C 
ATOM     22  C   UNL A   1      33.965  24.126  25.749  1.00  0.00     0.020 C 
BRANCH  14  23
ATOM     23  C   UNL A   1      34.131  19.800  24.955  1.00  0.00    -0.042 A 
ATOM     24  C   UNL A   1      33.095  15.585  25.030  1.00  0.00     0.044 C 
ATOM     25  C   UNL A   1      33.430  17.044  24.996  1.00  0.00    -0.051 A 
ATOM     26  C   UNL A   1      34.702  17.439  24.593  1.00  0.00     0.004 A 
ATOM     27  C   UNL A   1      32.505  18.025  25.362  1.00  0.00     0.004 A 
ATOM     28  C   UNL A   1      35.038  18.792  24.563  1.00  0.00     0.004 A 
ATOM     29  C   UNL A   1      32.848  19.384  25.339  1.00  0.00     0.004 A 
ENDBRANCH  14  23
ENDBRANCH   6  13
ENDBRANCH   3   5
ENDBRANCH   2   3
ENDBRANCH   1   2
BRANCH   1  30
ATOM     30  C   UNL A   1      34.164  29.165  27.292  1.00  0.00     0.275 C 
BRANCH  30  31
ATOM     31  O   UNL A   1      34.867  30.405  27.617  1.00  0.00    -0.458 OA
BRANCH  31  32
ATOM     32  C   UNL A   1      35.965  30.662  28.372  1.00  0.00     0.338 C 
ATOM     33  O   UNL A   1      36.008  31.620  29.136  1.00  0.00    -0.246 OA
BRANCH  32  34
ATOM     34  C   UNL A   1      37.101  29.725  28.329  1.00  0.00     0.060 A 
ATOM     35  C   UNL A   1      37.955  29.728  27.213  1.00  0.00     0.016 A 
ATOM     36  C   UNL A   1      37.387  28.926  29.425  1.00  0.00     0.016 A 
ATOM     37  C   UNL A   1      39.191  29.079  27.279  1.00  0.00     0.010 A 
ATOM     38  C   UNL A   1      38.648  28.383  29.539  1.00  0.00     0.010 A 
ATOM     39  C   UNL A   1      39.563  28.471  28.478  1.00  0.00    -0.014 A 
BRANCH  39  40
ATOM     40  C   UNL A   1      40.732  27.615  28.630  1.00  0.00     0.031 A 
ATOM     41  C   UNL A   1      40.807  26.187  28.267  1.00  0.00     0.074 A 
ATOM     42  C   UNL A   1      41.808  28.307  29.047  1.00  0.00     0.049 A 
ATOM     43  N   UNL A   1      41.528  25.319  28.899  1.00  0.00    -0.248 NA
ATOM     44  C   UNL A   1      40.055  25.596  27.167  1.00  0.00     0.031 C 
ATOM     45  C   UNL A   1      43.207  27.943  29.048  1.00  0.00     0.029 A 
ATOM     46  N   UNL A   1      41.760  29.534  29.715  1.00  0.00    -0.354 N 
ATOM     47  C   UNL A   1      41.549  24.170  28.129  1.00  0.00     0.074 A 
ATOM     48  C   UNL A   1      40.489  24.330  27.166  1.00  0.00     0.031 C 
ATOM     49  C   UNL A   1      43.855  28.769  29.892  1.00  0.00     0.029 A 
ATOM     50  C   UNL A   1      42.846  29.566  30.583  1.00  0.00     0.049 A 
ATOM     51  H   UNL A   1      41.086  30.241  29.594  1.00  0.00     0.167 HD
ATOM     52  C   UNL A   1      42.600  23.301  28.202  1.00  0.00     0.037 A 
ATOM     53  C   UNL A   1      42.610  29.556  31.928  1.00  0.00     0.037 A 
ATOM     54  C   UNL A   1      43.640  23.858  29.048  1.00  0.00     0.049 A 
ATOM     55  C   UNL A   1      43.220  28.340  32.568  1.00  0.00     0.074 A 
ATOM     56  C   UNL A   1      44.722  24.659  28.720  1.00  0.00     0.029 A 
ATOM     57  N   UNL A   1      43.463  23.957  30.419  1.00  0.00    -0.354 N 
ATOM     58  N   UNL A   1      43.289  27.168  31.995  1.00  0.00    -0.248 NA
ATOM     59  C   UNL A   1      43.881  28.382  33.867  1.00  0.00     0.031 C 
ATOM     60  C   UNL A   1      45.168  25.292  29.898  1.00  0.00     0.029 A 
ATOM     61  C   UNL A   1      44.371  24.856  30.942  1.00  0.00     0.049 A 
ATOM     62  H   UNL A   1      42.792  23.460  30.940  1.00  0.00     0.167 HD
ATOM     63  C   UNL A   1      44.067  26.346  32.769  1.00  0.00     0.074 A 
ATOM     64  C   UNL A   1      44.385  27.139  33.942  1.00  0.00     0.031 C 
ATOM     65  C   UNL A   1      44.448  25.098  32.367  1.00  0.00     0.037 A 
BRANCH  52  66
ATOM     66  C   UNL A   1      42.851  22.181  27.219  1.00  0.00     0.057 A 
ATOM     67  C   UNL A   1      42.097  20.989  27.252  1.00  0.00     0.134 A 
ATOM     68  C   UNL A   1      43.827  22.226  26.208  1.00  0.00     0.134 A 
ATOM     69  F   UNL A   1      41.073  20.822  28.099  1.00  0.00    -0.206 F 
ATOM     70  C   UNL A   1      42.358  19.892  26.420  1.00  0.00     0.040 A 
ATOM     71  C   UNL A   1      44.115  21.125  25.383  1.00  0.00     0.040 A 
ATOM     72  F   UNL A   1      44.522  23.347  25.969  1.00  0.00    -0.206 F 
ATOM     73  C   UNL A   1      43.388  19.946  25.498  1.00  0.00     0.006 A 
ENDBRANCH  52  66
BRANCH  53  74
ATOM     74  C   UNL A   1      41.312  30.188  32.333  1.00  0.00     0.057 A 
ATOM     75  C   UNL A   1      40.222  29.355  32.665  1.00  0.00     0.134 A 
ATOM     76  C   UNL A   1      41.195  31.534  32.691  1.00  0.00     0.134 A 
ATOM     77  F   UNL A   1      40.257  28.048  32.360  1.00  0.00    -0.206 F 
ATOM     78  C   UNL A   1      39.123  29.813  33.398  1.00  0.00     0.040 A 
ATOM     79  C   UNL A   1      40.086  32.011  33.412  1.00  0.00     0.040 A 
ATOM     80  F   UNL A   1      42.179  32.404  32.425  1.00  0.00    -0.206 F 
ATOM     81  C   UNL A   1      39.063  31.144  33.795  1.00  0.00     0.006 A 
ENDBRANCH  53  74
BRANCH  65  82
ATOM     82  C   UNL A   1      45.065  24.027  33.228  1.00  0.00     0.057 A 
ATOM     83  C   UNL A   1      46.376  24.084  33.716  1.00  0.00     0.134 A 
ATOM     84  C   UNL A   1      44.274  22.975  33.752  1.00  0.00     0.134 A 
ATOM     85  F   UNL A   1      47.205  25.085  33.389  1.00  0.00    -0.206 F 
ATOM     86  C   UNL A   1      46.880  23.141  34.619  1.00  0.00     0.040 A 
ATOM     87  C   UNL A   1      44.749  22.067  34.698  1.00  0.00     0.040 A 
ATOM     88  F   UNL A   1      42.994  22.800  33.396  1.00  0.00    -0.206 F 
ATOM     89  C   UNL A   1      46.062  22.139  35.127  1.00  0.00     0.006 A 
ENDBRANCH  65  82
ENDBRANCH  39  40
ENDBRANCH  32  34
ENDBRANCH  31  32
ENDBRANCH  30  31
ENDBRANCH   1  30
TORSDOF 13
ENDMDL
MODEL 2
REMARK VINA RESULT:     -13.9      1.533      2.585
REMARK SMILES Cc1ccc([C@@]23C[C@@H]4C[C@@H](C[C@@](C(=O)N5CCC(C(=O)OCCOC(=O)c6ccc(-c7c8nc(c(-c9c(F)cccc9F)c9ccc([nH]9)c(-c9c(F)cccc9F)c9nc(c(-c%10c(F)cccc%10F)c%10ccc7[nH]%10)C=C9)C=C8)cc6)CC5)(C4)C2)C3)cc1
REMARK SMILES IDX 22 1 21 2 19 3 20 4 18 5 13 6 14 7 15 8 16 9 82 10 17 11
REMARK SMILES IDX 81 12 12 13 6 14 7 15 84 16 85 17 8 18 10 19 9 20 83 21
REMARK SMILES IDX 11 22 5 23 1 24 2 25 3 26 87 27 4 28 86 29 23 30 24 31 25 32
REMARK SMILES IDX 26 33 27 34 28 35 80 36 29 37 79 38 30 39 31 40 32 41 73 42
REMARK SMILES IDX 33 43 78 44 72 45 74 46 34 47 77 48 71 49 70 50 35 52 61 53
REMARK SMILES IDX 44 54 60 55 45 56 48 57 59 58 75 59 46 60 47 61 58 63 76 64
REMARK SMILES IDX 49 65 36 66 37 67 42 68 38 69 39 70 41 71 43 72 40 73 62 74
REMARK SMILES IDX 63 75 68 76 64 77 65 78 67 79 69 80 66 81 50 82 51 83 56 84
REMARK SMILES IDX 52 85 53 86 55 87 57 88 54 89
REMARK H PARENT 74 51 48 62
REMARK Flexibility Score: inf
ROOT
ATOM      1  C   UNL A   1      32.030  30.848  26.891  1.00  0.00     0.274 C 
ENDROOT
BRANCH   1   2
ATOM      2  O   UNL A   1      31.832  29.552  26.337  1.00  0.00    -0.462 OA
BRANCH   2   3
ATOM      3  C   UNL A   1      31.612  29.555  24.994  1.00  0.00     0.309 C 
ATOM      4  O   UNL A   1      30.593  29.979  24.465  1.00  0.00    -0.252 OA
BRANCH   3   5
ATOM      5  C   UNL A   1      32.794  28.936  24.284  1.00  0.00     0.103 C 
ATOM      6  C   UNL A   1      32.505  25.458  22.980  1.00  0.00     0.228 C 
ATOM      7  O   UNL A   1      31.671  25.518  22.071  1.00  0.00    -0.274 OA
ATOM      8  N   UNL A   1      33.460  26.468  23.146  1.00  0.00    -0.342 N 
ATOM      9  C   UNL A   1      33.414  27.580  22.218  1.00  0.00     0.120 C 
ATOM     10  C   UNL A   1      34.151  26.823  24.382  1.00  0.00     0.120 C 
ATOM     11  C   UNL A   1      32.471  28.613  22.809  1.00  0.00     0.037 C 
ATOM     12  C   UNL A   1      33.255  27.771  25.152  1.00  0.00     0.037 C 
BRANCH   6  13
ATOM     13  C   UNL A   1      32.543  24.230  23.903  1.00  0.00     0.051 C 
ATOM     14  C   UNL A   1      34.256  22.701  25.037  1.00  0.00    -0.003 C 
ATOM     15  C   UNL A   1      33.523  23.026  26.374  1.00  0.00     0.015 C 
ATOM     16  C   UNL A   1      34.021  23.873  24.073  1.00  0.00     0.028 C 
ATOM     17  C   UNL A   1      33.570  21.468  24.393  1.00  0.00     0.015 C 
ATOM     18  C   UNL A   1      32.010  23.230  26.158  1.00  0.00    -0.009 C 
ATOM     19  C   UNL A   1      32.068  21.744  24.145  1.00  0.00    -0.009 C 
ATOM     20  C   UNL A   1      31.386  22.001  25.496  1.00  0.00     0.007 C 
ATOM     21  C   UNL A   1      31.810  24.436  25.243  1.00  0.00     0.020 C 
ATOM     22  C   UNL A   1      31.886  22.987  23.241  1.00  0.00     0.020 C 
BRANCH  14  23
ATOM     23  C   UNL A   1      35.765  22.504  25.264  1.00  0.00    -0.042 A 
ATOM     24  C   UNL A   1      39.966  21.867  26.156  1.00  0.00     0.044 C 
ATOM     25  C   UNL A   1      38.519  22.074  25.828  1.00  0.00    -0.051 A 
ATOM     26  C   UNL A   1      37.932  23.306  26.097  1.00  0.00     0.004 A 
ATOM     27  C   UNL A   1      37.735  21.064  25.263  1.00  0.00     0.004 A 
ATOM     28  C   UNL A   1      36.584  23.517  25.809  1.00  0.00     0.004 A 
ATOM     29  C   UNL A   1      36.379  21.277  24.982  1.00  0.00     0.004 A 
ENDBRANCH  14  23
ENDBRANCH   6  13
ENDBRANCH   3   5
ENDBRANCH   2   3
ENDBRANCH   1   2
BRANCH   1  30
ATOM     30  C   UNL A   1      33.523  31.168  27.022  1.00  0.00     0.275 C 
BRANCH  30  31
ATOM     31  O   UNL A   1      34.358  30.330  27.881  1.00  0.00    -0.458 OA
BRANCH  31  32
ATOM     32  C   UNL A   1      35.371  30.620  28.736  1.00  0.00     0.338 C 
ATOM     33  O   UNL A   1      35.234  31.438  29.638  1.00  0.00    -0.246 OA
BRANCH  32  34
ATOM     34  C   UNL A   1      36.640  29.879  28.623  1.00  0.00     0.060 A 
ATOM     35  C   UNL A   1      37.524  30.182  27.573  1.00  0.00     0.016 A 
ATOM     36  C   UNL A   1      37.005  28.970  29.604  1.00  0.00     0.016 A 
ATOM     37  C   UNL A   1      38.842  29.720  27.617  1.00  0.00     0.010 A 
ATOM     38  C   UNL A   1      38.330  28.608  29.712  1.00  0.00     0.010 A 
ATOM     39  C   UNL A   1      39.258  28.994  28.733  1.00  0.00    -0.014 A 
BRANCH  39  40
ATOM     40  C   UNL A   1      40.539  28.307  28.826  1.00  0.00     0.031 A 
ATOM     41  C   UNL A   1      40.872  27.014  28.196  1.00  0.00     0.074 A 
ATOM     42  C   UNL A   1      41.458  29.045  29.475  1.00  0.00     0.049 A 
ATOM     43  N   UNL A   1      41.682  26.148  28.711  1.00  0.00    -0.248 NA
ATOM     44  C   UNL A   1      40.301  26.565  26.932  1.00  0.00     0.031 C 
ATOM     45  C   UNL A   1      42.894  28.898  29.542  1.00  0.00     0.029 A 
ATOM     46  N   UNL A   1      41.165  30.082  30.366  1.00  0.00    -0.354 N 
ATOM     47  C   UNL A   1      41.942  25.203  27.734  1.00  0.00     0.074 A 
ATOM     48  C   UNL A   1      40.936  25.405  26.722  1.00  0.00     0.031 C 
ATOM     49  C   UNL A   1      43.341  29.613  30.593  1.00  0.00     0.029 A 
ATOM     50  C   UNL A   1      42.172  30.089  31.326  1.00  0.00     0.049 A 
ATOM     51  H   UNL A   1      40.394  30.691  30.322  1.00  0.00     0.167 HD
ATOM     52  C   UNL A   1      43.114  24.503  27.737  1.00  0.00     0.037 A 
ATOM     53  C   UNL A   1      41.852  29.761  32.612  1.00  0.00     0.037 A 
ATOM     54  C   UNL A   1      43.991  25.015  28.775  1.00  0.00     0.049 A 
ATOM     55  C   UNL A   1      42.610  28.539  33.055  1.00  0.00     0.074 A 
ATOM     56  C   UNL A   1      44.946  26.017  28.720  1.00  0.00     0.029 A 
ATOM     57  N   UNL A   1      43.710  24.794  30.114  1.00  0.00    -0.354 N 
ATOM     58  N   UNL A   1      42.908  27.539  32.270  1.00  0.00    -0.248 NA
ATOM     59  C   UNL A   1      43.167  28.403  34.395  1.00  0.00     0.031 C 
ATOM     60  C   UNL A   1      45.204  26.445  30.038  1.00  0.00     0.029 A 
ATOM     61  C   UNL A   1      44.421  25.686  30.891  1.00  0.00     0.049 A 
ATOM     62  H   UNL A   1      43.097  24.105  30.457  1.00  0.00     0.167 HD
ATOM     63  C   UNL A   1      43.757  26.695  32.939  1.00  0.00     0.074 A 
ATOM     64  C   UNL A   1      43.863  27.259  34.271  1.00  0.00     0.031 C 
ATOM     65  C   UNL A   1      44.363  25.630  32.337  1.00  0.00     0.037 A 
BRANCH  52  66
ATOM     66  C   UNL A   1      43.610  23.665  26.580  1.00  0.00     0.057 A 
ATOM     67  C   UNL A   1      43.514  22.257  26.596  1.00  0.00     0.134 A 
ATOM     68  C   UNL A   1      44.191  24.197  25.416  1.00  0.00     0.134 A 
ATOM     69  F   UNL A   1      42.909  21.600  27.593  1.00  0.00    -0.206 F 
ATOM     70  C   UNL A   1      44.043  21.440  25.587  1.00  0.00     0.040 A 
ATOM     71  C   UNL A   1      44.748  23.389  24.409  1.00  0.00     0.040 A 
ATOM     72  F   UNL A   1      44.221  25.520  25.202  1.00  0.00    -0.206 F 
ATOM     73  C   UNL A   1      44.687  22.004  24.500  1.00  0.00     0.006 A 
ENDBRANCH  52  66
BRANCH  53  74
ATOM     74  C   UNL A   1      40.444  30.095  33.005  1.00  0.00     0.057 A 
ATOM     75  C   UNL A   1      40.072  31.451  33.119  1.00  0.00     0.134 A 
ATOM     76  C   UNL A   1      39.400  29.166  32.976  1.00  0.00     0.134 A 
ATOM     77  F   UNL A   1      41.015  32.407  33.148  1.00  0.00    -0.206 F 
ATOM     78  C   UNL A   1      38.737  31.868  33.105  1.00  0.00     0.040 A 
ATOM     79  C   UNL A   1      38.054  29.571  32.981  1.00  0.00     0.040 A 
ATOM     80  F   UNL A   1      39.651  27.855  32.865  1.00  0.00    -0.206 F 
ATOM     81  C   UNL A   1      37.721  30.925  33.012  1.00  0.00     0.006 A 
ENDBRANCH  53  74
BRANCH  65  82
ATOM     82  C   UNL A   1      45.090  24.504  33.025  1.00  0.00     0.057 A 
ATOM     83  C   UNL A   1      46.351  24.642  33.617  1.00  0.00     0.134 A 
ATOM     84  C   UNL A   1      44.440  23.270  33.274  1.00  0.00     0.134 A 
ATOM     85  F   UNL A   1      47.035  25.792  33.553  1.00  0.00    -0.206 F 
ATOM     86  C   UNL A   1      46.944  23.616  34.362  1.00  0.00     0.040 A 
ATOM     87  C   UNL A   1      44.997  22.265  34.065  1.00  0.00     0.040 A 
ATOM     88  F   UNL A   1      43.221  22.995  32.790  1.00  0.00    -0.206 F 
ATOM     89  C   UNL A   1      46.261  22.430  34.603  1.00  0.00     0.006 A 
ENDBRANCH  65  82
ENDBRANCH  39  40
ENDBRANCH  32  34
ENDBRANCH  31  32
ENDBRANCH  30  31
ENDBRANCH   1  30
TORSDOF 13
ENDMDL
MODEL 3
REMARK VINA RESULT:     -13.9      0.960      1.531
REMARK SMILES Cc1ccc([C@@]23C[C@@H]4C[C@@H](C[C@@](C(=O)N5CCC(C(=O)OCCOC(=O)c6ccc(-c7c8nc(c(-c9c(F)cccc9F)c9ccc([nH]9)c(-c9c(F)cccc9F)c9nc(c(-c%10c(F)cccc%10F)c%10ccc7[nH]%10)C=C9)C=C8)cc6)CC5)(C4)C2)C3)cc1
REMARK SMILES IDX 22 1 21 2 19 3 20 4 18 5 13 6 14 7 15 8 16 9 82 10 17 11
REMARK SMILES IDX 81 12 12 13 6 14 7 15 84 16 85 17 8 18 10 19 9 20 83 21
REMARK SMILES IDX 11 22 5 23 1 24 2 25 3 26 87 27 4 28 86 29 23 30 24 31 25 32
REMARK SMILES IDX 26 33 27 34 28 35 80 36 29 37 79 38 30 39 31 40 32 41 73 42
REMARK SMILES IDX 33 43 78 44 72 45 74 46 34 47 77 48 71 49 70 50 35 52 61 53
REMARK SMILES IDX 44 54 60 55 45 56 48 57 59 58 75 59 46 60 47 61 58 63 76 64
REMARK SMILES IDX 49 65 36 66 37 67 42 68 38 69 39 70 41 71 43 72 40 73 62 74
REMARK SMILES IDX 63 75 68 76 64 77 65 78 67 79 69 80 66 81 50 82 51 83 56 84
REMARK SMILES IDX 52 85 53 86 55 87 57 88 54 89
REMARK H PARENT 74 51 48 62
REMARK Flexibility Score: inf
ROOT
ATOM      1  C   UNL A   1      32.095  30.397  26.453  1.00  0.00     0.274 C 
ENDROOT
BRANCH   1   2
ATOM      2  O   UNL A   1      31.504  29.789  25.310  1.00  0.00    -0.462 OA
BRANCH   2   3
ATOM      3  C   UNL A   1      31.484  28.430  25.357  1.00  0.00     0.309 C 
ATOM      4  O   UNL A   1      31.139  27.780  26.334  1.00  0.00    -0.252 OA
BRANCH   3   5
ATOM      5  C   UNL A   1      31.977  27.869  24.042  1.00  0.00     0.103 C 
ATOM      6  C   UNL A   1      32.559  24.201  23.742  1.00  0.00     0.228 C 
ATOM      7  O   UNL A   1      31.441  23.684  23.830  1.00  0.00    -0.274 OA
ATOM      8  N   UNL A   1      32.748  25.383  23.015  1.00  0.00    -0.342 N 
ATOM      9  C   UNL A   1      31.579  25.970  22.391  1.00  0.00     0.120 C 
ATOM     10  C   UNL A   1      33.809  26.366  23.207  1.00  0.00     0.120 C 
ATOM     11  C   UNL A   1      30.951  26.901  23.412  1.00  0.00     0.037 C 
ATOM     12  C   UNL A   1      33.368  27.308  24.308  1.00  0.00     0.037 C 
BRANCH   6  13
ATOM     13  C   UNL A   1      33.774  23.509  24.378  1.00  0.00     0.051 C 
ATOM     14  C   UNL A   1      34.547  21.160  25.044  1.00  0.00    -0.003 C 
ATOM     15  C   UNL A   1      35.819  21.436  24.185  1.00  0.00     0.015 C 
ATOM     16  C   UNL A   1      33.407  22.028  24.491  1.00  0.00     0.028 C 
ATOM     17  C   UNL A   1      34.814  21.664  26.486  1.00  0.00     0.015 C 
ATOM     18  C   UNL A   1      36.224  22.923  24.231  1.00  0.00    -0.009 C 
ATOM     19  C   UNL A   1      35.160  23.173  26.483  1.00  0.00    -0.009 C 
ATOM     20  C   UNL A   1      36.448  23.379  25.673  1.00  0.00     0.007 C 
ATOM     21  C   UNL A   1      35.095  23.752  23.623  1.00  0.00     0.020 C 
ATOM     22  C   UNL A   1      34.018  23.991  25.836  1.00  0.00     0.020 C 
BRANCH  14  23
ATOM     23  C   UNL A   1      34.150  19.675  24.986  1.00  0.00    -0.042 A 
ATOM     24  C   UNL A   1      33.127  15.456  25.070  1.00  0.00     0.044 C 
ATOM     25  C   UNL A   1      33.458  16.916  25.034  1.00  0.00    -0.051 A 
ATOM     26  C   UNL A   1      34.709  17.319  24.576  1.00  0.00     0.004 A 
ATOM     27  C   UNL A   1      32.548  17.893  25.450  1.00  0.00     0.004 A 
ATOM     28  C   UNL A   1      35.040  18.672  24.544  1.00  0.00     0.004 A 
ATOM     29  C   UNL A   1      32.887  19.252  25.424  1.00  0.00     0.004 A 
ENDBRANCH  14  23
ENDBRANCH   6  13
ENDBRANCH   3   5
ENDBRANCH   2   3
ENDBRANCH   1   2
BRANCH   1  30
ATOM     30  C   UNL A   1      33.608  30.153  26.485  1.00  0.00     0.275 C 
BRANCH  30  31
ATOM     31  O   UNL A   1      34.278  30.010  27.776  1.00  0.00    -0.458 OA
BRANCH  31  32
ATOM     32  C   UNL A   1      35.193  30.778  28.422  1.00  0.00     0.338 C 
ATOM     33  O   UNL A   1      34.906  31.888  28.856  1.00  0.00    -0.246 OA
BRANCH  32  34
ATOM     34  C   UNL A   1      36.538  30.231  28.675  1.00  0.00     0.060 A 
ATOM     35  C   UNL A   1      36.728  29.335  29.740  1.00  0.00     0.016 A 
ATOM     36  C   UNL A   1      37.579  30.513  27.804  1.00  0.00     0.016 A 
ATOM     37  C   UNL A   1      37.901  28.580  29.815  1.00  0.00     0.010 A 
ATOM     38  C   UNL A   1      38.685  29.691  27.806  1.00  0.00     0.010 A 
ATOM     39  C   UNL A   1      38.845  28.710  28.796  1.00  0.00    -0.014 A 
BRANCH  39  40
ATOM     40  C   UNL A   1      40.177  28.123  28.840  1.00  0.00     0.031 A 
ATOM     41  C   UNL A   1      40.572  26.834  28.240  1.00  0.00     0.074 A 
ATOM     42  C   UNL A   1      41.072  28.953  29.408  1.00  0.00     0.049 A 
ATOM     43  N   UNL A   1      41.472  26.051  28.739  1.00  0.00    -0.248 NA
ATOM     44  C   UNL A   1      39.967  26.293  27.029  1.00  0.00     0.031 C 
ATOM     45  C   UNL A   1      42.516  28.915  29.397  1.00  0.00     0.029 A 
ATOM     46  N   UNL A   1      40.751  30.001  30.276  1.00  0.00    -0.354 N 
ATOM     47  C   UNL A   1      41.748  25.089  27.783  1.00  0.00     0.074 A 
ATOM     48  C   UNL A   1      40.676  25.176  26.825  1.00  0.00     0.031 C 
ATOM     49  C   UNL A   1      42.965  29.702  30.393  1.00  0.00     0.029 A 
ATOM     50  C   UNL A   1      41.806  30.121  31.175  1.00  0.00     0.049 A 
ATOM     51  H   UNL A   1      39.935  30.550  30.254  1.00  0.00     0.167 HD
ATOM     52  C   UNL A   1      42.968  24.477  27.744  1.00  0.00     0.037 A 
ATOM     53  C   UNL A   1      41.583  29.822  32.489  1.00  0.00     0.037 A 
ATOM     54  C   UNL A   1      43.859  25.094  28.710  1.00  0.00     0.049 A 
ATOM     55  C   UNL A   1      42.454  28.679  32.931  1.00  0.00     0.074 A 
ATOM     56  C   UNL A   1      44.731  26.161  28.563  1.00  0.00     0.029 A 
ATOM     57  N   UNL A   1      43.670  24.908  30.070  1.00  0.00    -0.354 N 
ATOM     58  N   UNL A   1      42.783  27.672  32.168  1.00  0.00    -0.248 NA
ATOM     59  C   UNL A   1      43.093  28.639  34.241  1.00  0.00     0.031 C 
ATOM     60  C   UNL A   1      45.028  26.659  29.848  1.00  0.00     0.029 A 
ATOM     61  C   UNL A   1      44.354  25.880  30.772  1.00  0.00     0.049 A 
ATOM     62  H   UNL A   1      43.130  24.191  30.473  1.00  0.00     0.167 HD
ATOM     63  C   UNL A   1      43.729  26.920  32.817  1.00  0.00     0.074 A 
ATOM     64  C   UNL A   1      43.865  27.545  34.119  1.00  0.00     0.031 C 
ATOM     65  C   UNL A   1      44.380  25.880  32.220  1.00  0.00     0.037 A 
BRANCH  52  66
ATOM     66  C   UNL A   1      43.462  23.632  26.592  1.00  0.00     0.057 A 
ATOM     67  C   UNL A   1      43.366  22.224  26.618  1.00  0.00     0.134 A 
ATOM     68  C   UNL A   1      44.039  24.156  25.423  1.00  0.00     0.134 A 
ATOM     69  F   UNL A   1      42.764  21.574  27.621  1.00  0.00    -0.206 F 
ATOM     70  C   UNL A   1      43.893  21.400  25.613  1.00  0.00     0.040 A 
ATOM     71  C   UNL A   1      44.594  23.341  24.420  1.00  0.00     0.040 A 
ATOM     72  F   UNL A   1      44.068  25.477  25.199  1.00  0.00    -0.206 F 
ATOM     73  C   UNL A   1      44.534  21.957  24.521  1.00  0.00     0.006 A 
ENDBRANCH  52  66
BRANCH  53  74
ATOM     74  C   UNL A   1      40.178  30.069  32.950  1.00  0.00     0.057 A 
ATOM     75  C   UNL A   1      39.721  31.399  33.063  1.00  0.00     0.134 A 
ATOM     76  C   UNL A   1      39.199  29.071  32.990  1.00  0.00     0.134 A 
ATOM     77  F   UNL A   1      40.596  32.416  33.029  1.00  0.00    -0.206 F 
ATOM     78  C   UNL A   1      38.361  31.724  33.113  1.00  0.00     0.040 A 
ATOM     79  C   UNL A   1      37.831  29.385  33.059  1.00  0.00     0.040 A 
ATOM     80  F   UNL A   1      39.532  27.778  32.884  1.00  0.00    -0.206 F 
ATOM     81  C   UNL A   1      37.408  30.713  33.088  1.00  0.00     0.006 A 
ENDBRANCH  53  74
BRANCH  65  82
ATOM     82  C   UNL A   1      45.226  24.838  32.905  1.00  0.00     0.057 A 
ATOM     83  C   UNL A   1      46.531  25.072  33.352  1.00  0.00     0.134 A 
ATOM     84  C   UNL A   1      44.666  23.600  33.305  1.00  0.00     0.134 A 
ATOM     85  F   UNL A   1      47.149  26.242  33.139  1.00  0.00    -0.206 F 
ATOM     86  C   UNL A   1      47.246  24.130  34.101  1.00  0.00     0.040 A 
ATOM     87  C   UNL A   1      45.348  22.680  34.102  1.00  0.00     0.040 A 
ATOM     88  F   UNL A   1      43.419  23.240  32.970  1.00  0.00    -0.206 F 
ATOM     89  C   UNL A   1      46.650  22.937  34.493  1.00  0.00     0.006 A 
ENDBRANCH  65  82
ENDBRANCH  39  40
ENDBRANCH  32  34
ENDBRANCH  31  32
ENDBRANCH  30  31
ENDBRANCH   1  30
TORSDOF 13
ENDMDL
