MODEL 1
REMARK VINA RESULT:     -10.7      0.000      0.000
REMARK SMILES C[NH2+][C@@]1(C(=O)OCCOC(=O)c2ccc(-c3c4nc(c(-c5c(F)cccc5F)c5ccc([nH]5)c(-c5c(F)cccc5F)c5nc(c(-c6c(F)cccc6F)c6ccc3[nH]6)C=C5)C=C4)cc2)CC[C@H](Sc2ccc(C)c(C)c2)C1
REMARK SMILES IDX 7 1 6 2 4 3 5 4 3 5 66 6 78 7 67 8 68 9 2 10 1 11 69 14
REMARK SMILES IDX 70 15 71 16 77 17 72 18 75 19 73 20 76 21 74 22 8 23 9 24
REMARK SMILES IDX 10 25 11 26 12 27 13 28 65 29 14 30 64 31 15 32 16 33 17 34
REMARK SMILES IDX 58 35 18 36 63 37 57 38 59 39 19 40 62 41 56 42 55 43 20 45
REMARK SMILES IDX 46 46 29 47 45 48 30 49 33 50 44 51 60 52 31 53 32 54 43 56
REMARK SMILES IDX 61 57 34 58 21 59 22 60 27 61 23 62 24 63 26 64 28 65 25 66
REMARK SMILES IDX 47 67 48 68 53 69 49 70 50 71 52 72 54 73 51 74 35 75 36 76
REMARK SMILES IDX 41 77 37 78 38 79 40 80 42 81 39 82
REMARK H PARENT 2 12 2 13 59 44 33 55
REMARK Flexibility Score: inf
ROOT
ATOM      1  C   UNL A   1      32.693  29.151  24.416  1.00  0.00     0.274 C 
ENDROOT
BRANCH   1   2
ATOM      2  O   UNL A   1      31.958  28.052  23.842  1.00  0.00    -0.457 OA
BRANCH   2   3
ATOM      3  C   UNL A   1      32.617  26.878  23.651  1.00  0.00     0.368 C 
ATOM      4  O   UNL A   1      33.503  26.714  22.817  1.00  0.00    -0.245 OA
BRANCH   3   5
ATOM      5  C   UNL A   1      32.060  25.730  24.568  1.00  0.00     0.195 C 
ATOM      6  C   UNL A   1      32.699  25.913  25.949  1.00  0.00     0.082 C 
ATOM      7  C   UNL A   1      32.542  24.316  24.173  1.00  0.00     0.096 C 
ATOM      8  C   UNL A   1      34.103  25.346  25.755  1.00  0.00     0.022 C 
ATOM      9  C   UNL A   1      33.882  24.086  24.910  1.00  0.00     0.059 C 
BRANCH   5  10
ATOM     10  N   UNL A   1      30.579  25.760  24.507  1.00  0.00    -0.335 N 
ATOM     11  C   UNL A   1      29.888  25.576  25.771  1.00  0.00     0.331 C 
ATOM     12  H   UNL A   1      30.300  26.665  24.128  1.00  0.00     0.347 HD
ATOM     13  H   UNL A   1      30.312  24.965  23.928  1.00  0.00     0.347 HD
ENDBRANCH   5  10
BRANCH   9  14
ATOM     14  S   UNL A   1      35.176  23.685  23.684  1.00  0.00    -0.122 SA
BRANCH  14  15
ATOM     15  C   UNL A   1      36.570  23.105  24.626  1.00  0.00     0.008 A 
ATOM     16  C   UNL A   1      37.350  23.883  25.475  1.00  0.00     0.015 A 
ATOM     17  C   UNL A   1      36.875  21.744  24.499  1.00  0.00     0.018 A 
ATOM     18  C   UNL A   1      38.456  23.328  26.125  1.00  0.00     0.005 A 
ATOM     19  C   UNL A   1      37.964  21.160  25.169  1.00  0.00    -0.047 A 
ATOM     20  C   UNL A   1      38.776  21.968  25.983  1.00  0.00    -0.048 A 
ATOM     21  C   UNL A   1      38.209  19.687  25.000  1.00  0.00     0.044 C 
ATOM     22  C   UNL A   1      40.006  21.454  26.677  1.00  0.00     0.044 C 
ENDBRANCH  14  15
ENDBRANCH   9  14
ENDBRANCH   3   5
ENDBRANCH   2   3
ENDBRANCH   1   2
BRANCH   1  23
ATOM     23  C   UNL A   1      31.742  30.070  25.175  1.00  0.00     0.275 C 
BRANCH  23  24
ATOM     24  O   UNL A   1      32.156  30.130  26.550  1.00  0.00    -0.458 OA
BRANCH  24  25
ATOM     25  C   UNL A   1      32.676  31.310  26.953  1.00  0.00     0.338 C 
ATOM     26  O   UNL A   1      32.164  32.413  26.919  1.00  0.00    -0.246 OA
BRANCH  25  27
ATOM     27  C   UNL A   1      34.009  31.061  27.515  1.00  0.00     0.060 A 
ATOM     28  C   UNL A   1      34.394  29.746  27.769  1.00  0.00     0.016 A 
ATOM     29  C   UNL A   1      34.826  32.123  27.893  1.00  0.00     0.016 A 
ATOM     30  C   UNL A   1      35.568  29.482  28.463  1.00  0.00     0.010 A 
ATOM     31  C   UNL A   1      36.043  31.855  28.526  1.00  0.00     0.010 A 
ATOM     32  C   UNL A   1      36.410  30.534  28.845  1.00  0.00    -0.014 A 
BRANCH  32  33
ATOM     33  C   UNL A   1      37.642  30.258  29.629  1.00  0.00     0.031 A 
ATOM     34  C   UNL A   1      38.744  29.435  29.023  1.00  0.00     0.074 A 
ATOM     35  C   UNL A   1      37.785  30.755  30.872  1.00  0.00     0.049 A 
ATOM     36  N   UNL A   1      39.810  28.932  29.590  1.00  0.00    -0.248 NA
ATOM     37  C   UNL A   1      38.625  29.128  27.589  1.00  0.00     0.031 C 
ATOM     38  C   UNL A   1      36.822  31.617  31.558  1.00  0.00     0.029 A 
ATOM     39  N   UNL A   1      38.804  30.607  31.780  1.00  0.00    -0.354 N 
ATOM     40  C   UNL A   1      40.458  28.205  28.600  1.00  0.00     0.074 A 
ATOM     41  C   UNL A   1      39.669  28.336  27.394  1.00  0.00     0.031 C 
ATOM     42  C   UNL A   1      37.306  31.941  32.768  1.00  0.00     0.029 A 
ATOM     43  C   UNL A   1      38.576  31.251  32.971  1.00  0.00     0.049 A 
ATOM     44  H   UNL A   1      39.620  30.088  31.595  1.00  0.00     0.167 HD
ATOM     45  C   UNL A   1      41.605  27.491  28.691  1.00  0.00     0.037 A 
ATOM     46  C   UNL A   1      39.289  31.255  34.112  1.00  0.00     0.037 A 
ATOM     47  C   UNL A   1      42.415  27.406  29.877  1.00  0.00     0.049 A 
ATOM     48  C   UNL A   1      40.546  30.437  34.197  1.00  0.00     0.074 A 
ATOM     49  C   UNL A   1      43.597  26.710  30.070  1.00  0.00     0.029 A 
ATOM     50  N   UNL A   1      42.135  28.056  31.070  1.00  0.00    -0.354 N 
ATOM     51  N   UNL A   1      41.113  29.698  33.277  1.00  0.00    -0.248 NA
ATOM     52  C   UNL A   1      41.248  30.437  35.489  1.00  0.00     0.031 C 
ATOM     53  C   UNL A   1      44.020  26.922  31.387  1.00  0.00     0.029 A 
ATOM     54  C   UNL A   1      43.118  27.774  32.003  1.00  0.00     0.049 A 
ATOM     55  H   UNL A   1      41.353  28.633  31.228  1.00  0.00     0.167 HD
ATOM     56  C   UNL A   1      42.239  29.148  33.872  1.00  0.00     0.074 A 
ATOM     57  C   UNL A   1      42.287  29.656  35.228  1.00  0.00     0.031 C 
ATOM     58  C   UNL A   1      43.147  28.291  33.347  1.00  0.00     0.037 A 
BRANCH  45  59
ATOM     59  C   UNL A   1      42.031  26.715  27.483  1.00  0.00     0.057 A 
ATOM     60  C   UNL A   1      42.884  27.255  26.514  1.00  0.00     0.134 A 
ATOM     61  C   UNL A   1      41.598  25.394  27.301  1.00  0.00     0.134 A 
ATOM     62  F   UNL A   1      43.320  28.520  26.621  1.00  0.00    -0.206 F 
ATOM     63  C   UNL A   1      43.277  26.517  25.396  1.00  0.00     0.040 A 
ATOM     64  C   UNL A   1      42.001  24.638  26.200  1.00  0.00     0.040 A 
ATOM     65  F   UNL A   1      40.781  24.816  28.196  1.00  0.00    -0.206 F 
ATOM     66  C   UNL A   1      42.840  25.201  25.240  1.00  0.00     0.006 A 
ENDBRANCH  45  59
BRANCH  46  67
ATOM     67  C   UNL A   1      38.807  32.031  35.281  1.00  0.00     0.057 A 
ATOM     68  C   UNL A   1      38.981  33.416  35.350  1.00  0.00     0.134 A 
ATOM     69  C   UNL A   1      38.154  31.406  36.351  1.00  0.00     0.134 A 
ATOM     70  F   UNL A   1      39.620  34.066  34.366  1.00  0.00    -0.206 F 
ATOM     71  C   UNL A   1      38.527  34.155  36.444  1.00  0.00     0.040 A 
ATOM     72  C   UNL A   1      37.674  32.135  37.439  1.00  0.00     0.040 A 
ATOM     73  F   UNL A   1      37.957  30.080  36.343  1.00  0.00    -0.206 F 
ATOM     74  C   UNL A   1      37.865  33.515  37.490  1.00  0.00     0.006 A 
ENDBRANCH  46  67
BRANCH  58  75
ATOM     75  C   UNL A   1      44.276  27.869  34.236  1.00  0.00     0.057 A 
ATOM     76  C   UNL A   1      45.458  28.614  34.323  1.00  0.00     0.134 A 
ATOM     77  C   UNL A   1      44.168  26.723  35.033  1.00  0.00     0.134 A 
ATOM     78  F   UNL A   1      45.625  29.713  33.573  1.00  0.00    -0.206 F 
ATOM     79  C   UNL A   1      46.502  28.224  35.162  1.00  0.00     0.040 A 
ATOM     80  C   UNL A   1      45.198  26.333  35.889  1.00  0.00     0.040 A 
ATOM     81  F   UNL A   1      43.058  25.971  34.997  1.00  0.00    -0.206 F 
ATOM     82  C   UNL A   1      46.372  27.083  35.951  1.00  0.00     0.006 A 
ENDBRANCH  58  75
ENDBRANCH  32  33
ENDBRANCH  25  27
ENDBRANCH  24  25
ENDBRANCH  23  24
ENDBRANCH   1  23
TORSDOF 14
ENDMDL
MODEL 2
REMARK VINA RESULT:     -10.7      0.723      1.943
REMARK SMILES C[NH2+][C@@]1(C(=O)OCCOC(=O)c2ccc(-c3c4nc(c(-c5c(F)cccc5F)c5ccc([nH]5)c(-c5c(F)cccc5F)c5nc(c(-c6c(F)cccc6F)c6ccc3[nH]6)C=C5)C=C4)cc2)CC[C@H](Sc2ccc(C)c(C)c2)C1
REMARK SMILES IDX 7 1 6 2 4 3 5 4 3 5 66 6 78 7 67 8 68 9 2 10 1 11 69 14
REMARK SMILES IDX 70 15 71 16 77 17 72 18 75 19 73 20 76 21 74 22 8 23 9 24
REMARK SMILES IDX 10 25 11 26 12 27 13 28 65 29 14 30 64 31 15 32 16 33 17 34
REMARK SMILES IDX 58 35 18 36 63 37 57 38 59 39 19 40 62 41 56 42 55 43 20 45
REMARK SMILES IDX 46 46 29 47 45 48 30 49 33 50 44 51 60 52 31 53 32 54 43 56
REMARK SMILES IDX 61 57 34 58 21 59 22 60 27 61 23 62 24 63 26 64 28 65 25 66
REMARK SMILES IDX 47 67 48 68 53 69 49 70 50 71 52 72 54 73 51 74 35 75 36 76
REMARK SMILES IDX 41 77 37 78 38 79 40 80 42 81 39 82
REMARK H PARENT 2 12 2 13 59 44 33 55
REMARK Flexibility Score: inf
ROOT
ATOM      1  C   UNL A   1      31.407  28.969  24.089  1.00  0.00     0.274 C 
ENDROOT
BRANCH   1   2
ATOM      2  O   UNL A   1      30.835  27.919  24.892  1.00  0.00    -0.457 OA
BRANCH   2   3
ATOM      3  C   UNL A   1      31.042  26.634  24.499  1.00  0.00     0.368 C 
ATOM      4  O   UNL A   1      31.089  26.272  23.328  1.00  0.00    -0.245 OA
BRANCH   3   5
ATOM      5  C   UNL A   1      31.136  25.648  25.720  1.00  0.00     0.195 C 
ATOM      6  C   UNL A   1      32.112  26.273  26.723  1.00  0.00     0.082 C 
ATOM      7  C   UNL A   1      31.824  24.303  25.394  1.00  0.00     0.096 C 
ATOM      8  C   UNL A   1      33.476  25.962  26.113  1.00  0.00     0.022 C 
ATOM      9  C   UNL A   1      33.340  24.520  25.611  1.00  0.00     0.059 C 
BRANCH   5  10
ATOM     10  N   UNL A   1      29.763  25.373  26.206  1.00  0.00    -0.335 N 
ATOM     11  C   UNL A   1      29.545  24.057  26.781  1.00  0.00     0.331 C 
ATOM     12  H   UNL A   1      29.539  26.067  26.919  1.00  0.00     0.347 HD
ATOM     13  H   UNL A   1      29.165  25.415  25.380  1.00  0.00     0.347 HD
ENDBRANCH   5  10
BRANCH   9  14
ATOM     14  S   UNL A   1      34.228  24.102  24.070  1.00  0.00    -0.122 SA
BRANCH  14  15
ATOM     15  C   UNL A   1      35.750  23.335  24.584  1.00  0.00     0.008 A 
ATOM     16  C   UNL A   1      36.205  22.088  24.169  1.00  0.00     0.015 A 
ATOM     17  C   UNL A   1      36.545  24.077  25.466  1.00  0.00     0.018 A 
ATOM     18  C   UNL A   1      37.396  21.564  24.682  1.00  0.00     0.005 A 
ATOM     19  C   UNL A   1      37.761  23.582  25.968  1.00  0.00    -0.047 A 
ATOM     20  C   UNL A   1      38.184  22.299  25.582  1.00  0.00    -0.048 A 
ATOM     21  C   UNL A   1      38.568  24.451  26.890  1.00  0.00     0.044 C 
ATOM     22  C   UNL A   1      39.427  21.651  26.125  1.00  0.00     0.044 C 
ENDBRANCH  14  15
ENDBRANCH   9  14
ENDBRANCH   3   5
ENDBRANCH   2   3
ENDBRANCH   1   2
BRANCH   1  23
ATOM     23  C   UNL A   1      32.656  29.520  24.768  1.00  0.00     0.275 C 
BRANCH  23  24
ATOM     24  O   UNL A   1      32.410  29.616  26.181  1.00  0.00    -0.458 OA
BRANCH  24  25
ATOM     25  C   UNL A   1      32.780  30.778  26.762  1.00  0.00     0.338 C 
ATOM     26  O   UNL A   1      32.148  31.814  26.853  1.00  0.00    -0.246 OA
BRANCH  25  27
ATOM     27  C   UNL A   1      34.116  30.600  27.343  1.00  0.00     0.060 A 
ATOM     28  C   UNL A   1      34.546  29.311  27.653  1.00  0.00     0.016 A 
ATOM     29  C   UNL A   1      34.891  31.705  27.684  1.00  0.00     0.016 A 
ATOM     30  C   UNL A   1      35.723  29.118  28.366  1.00  0.00     0.010 A 
ATOM     31  C   UNL A   1      36.111  31.507  28.337  1.00  0.00     0.010 A 
ATOM     32  C   UNL A   1      36.523  30.213  28.712  1.00  0.00    -0.014 A 
BRANCH  32  33
ATOM     33  C   UNL A   1      37.756  30.013  29.516  1.00  0.00     0.031 A 
ATOM     34  C   UNL A   1      38.892  29.206  28.953  1.00  0.00     0.074 A 
ATOM     35  C   UNL A   1      37.870  30.566  30.739  1.00  0.00     0.049 A 
ATOM     36  N   UNL A   1      39.970  28.765  29.548  1.00  0.00    -0.248 NA
ATOM     37  C   UNL A   1      38.797  28.838  27.531  1.00  0.00     0.031 C 
ATOM     38  C   UNL A   1      36.871  31.419  31.382  1.00  0.00     0.029 A 
ATOM     39  N   UNL A   1      38.885  30.491  31.660  1.00  0.00    -0.354 N 
ATOM     40  C   UNL A   1      40.652  28.022  28.593  1.00  0.00     0.074 A 
ATOM     41  C   UNL A   1      39.870  28.076  27.376  1.00  0.00     0.031 C 
ATOM     42  C   UNL A   1      37.333  31.809  32.581  1.00  0.00     0.029 A 
ATOM     43  C   UNL A   1      38.624  31.174  32.822  1.00  0.00     0.049 A 
ATOM     44  H   UNL A   1      39.721  29.994  31.502  1.00  0.00     0.167 HD
ATOM     45  C   UNL A   1      41.823  27.354  28.722  1.00  0.00     0.037 A 
ATOM     46  C   UNL A   1      39.326  31.249  33.967  1.00  0.00     0.037 A 
ATOM     47  C   UNL A   1      42.625  27.346  29.917  1.00  0.00     0.049 A 
ATOM     48  C   UNL A   1      40.610  30.481  34.095  1.00  0.00     0.074 A 
ATOM     49  C   UNL A   1      43.828  26.701  30.147  1.00  0.00     0.029 A 
ATOM     50  N   UNL A   1      42.311  28.034  31.079  1.00  0.00    -0.354 N 
ATOM     51  N   UNL A   1      41.212  29.726  33.210  1.00  0.00    -0.248 NA
ATOM     52  C   UNL A   1      41.300  30.558  35.391  1.00  0.00     0.031 C 
ATOM     53  C   UNL A   1      44.232  26.982  31.457  1.00  0.00     0.029 A 
ATOM     54  C   UNL A   1      43.295  27.825  32.031  1.00  0.00     0.049 A 
ATOM     55  H   UNL A   1      41.508  28.588  31.209  1.00  0.00     0.167 HD
ATOM     56  C   UNL A   1      42.351  29.241  33.836  1.00  0.00     0.074 A 
ATOM     57  C   UNL A   1      42.369  29.805  35.170  1.00  0.00     0.031 C 
ATOM     58  C   UNL A   1      43.294  28.397  33.353  1.00  0.00     0.037 A 
BRANCH  45  59
ATOM     59  C   UNL A   1      42.287  26.545  27.549  1.00  0.00     0.057 A 
ATOM     60  C   UNL A   1      42.035  25.173  27.445  1.00  0.00     0.134 A 
ATOM     61  C   UNL A   1      42.979  27.160  26.497  1.00  0.00     0.134 A 
ATOM     62  F   UNL A   1      41.392  24.523  28.427  1.00  0.00    -0.206 F 
ATOM     63  C   UNL A   1      42.470  24.434  26.342  1.00  0.00     0.040 A 
ATOM     64  C   UNL A   1      43.401  26.437  25.380  1.00  0.00     0.040 A 
ATOM     65  F   UNL A   1      43.251  28.473  26.535  1.00  0.00    -0.206 F 
ATOM     66  C   UNL A   1      43.150  25.069  25.303  1.00  0.00     0.006 A 
ENDBRANCH  45  59
BRANCH  46  67
ATOM     67  C   UNL A   1      38.806  32.054  35.100  1.00  0.00     0.057 A 
ATOM     68  C   UNL A   1      38.153  31.447  36.177  1.00  0.00     0.134 A 
ATOM     69  C   UNL A   1      38.956  33.446  35.135  1.00  0.00     0.134 A 
ATOM     70  F   UNL A   1      37.958  30.120  36.188  1.00  0.00    -0.206 F 
ATOM     71  C   UNL A   1      37.663  32.196  37.249  1.00  0.00     0.040 A 
ATOM     72  C   UNL A   1      38.493  34.203  36.210  1.00  0.00     0.040 A 
ATOM     73  F   UNL A   1      39.573  34.086  34.131  1.00  0.00    -0.206 F 
ATOM     74  C   UNL A   1      37.839  33.578  37.270  1.00  0.00     0.006 A 
ENDBRANCH  46  67
BRANCH  58  75
ATOM     75  C   UNL A   1      44.428  28.052  34.267  1.00  0.00     0.057 A 
ATOM     76  C   UNL A   1      44.381  26.929  35.102  1.00  0.00     0.134 A 
ATOM     77  C   UNL A   1      45.590  28.833  34.291  1.00  0.00     0.134 A 
ATOM     78  F   UNL A   1      43.290  26.150  35.133  1.00  0.00    -0.206 F 
ATOM     79  C   UNL A   1      45.446  26.604  35.943  1.00  0.00     0.040 A 
ATOM     80  C   UNL A   1      46.668  28.508  35.115  1.00  0.00     0.040 A 
ATOM     81  F   UNL A   1      45.697  29.919  33.510  1.00  0.00    -0.206 F 
ATOM     82  C   UNL A   1      46.595  27.393  35.948  1.00  0.00     0.006 A 
ENDBRANCH  58  75
ENDBRANCH  32  33
ENDBRANCH  25  27
ENDBRANCH  24  25
ENDBRANCH  23  24
ENDBRANCH   1  23
TORSDOF 14
ENDMDL
MODEL 3
REMARK VINA RESULT:     -10.5      1.465      2.554
REMARK SMILES C[NH2+][C@@]1(C(=O)OCCOC(=O)c2ccc(-c3c4nc(c(-c5c(F)cccc5F)c5ccc([nH]5)c(-c5c(F)cccc5F)c5nc(c(-c6c(F)cccc6F)c6ccc3[nH]6)C=C5)C=C4)cc2)CC[C@H](Sc2ccc(C)c(C)c2)C1
REMARK SMILES IDX 7 1 6 2 4 3 5 4 3 5 66 6 78 7 67 8 68 9 2 10 1 11 69 14
REMARK SMILES IDX 70 15 71 16 77 17 72 18 75 19 73 20 76 21 74 22 8 23 9 24
REMARK SMILES IDX 10 25 11 26 12 27 13 28 65 29 14 30 64 31 15 32 16 33 17 34
REMARK SMILES IDX 58 35 18 36 63 37 57 38 59 39 19 40 62 41 56 42 55 43 20 45
REMARK SMILES IDX 46 46 29 47 45 48 30 49 33 50 44 51 60 52 31 53 32 54 43 56
REMARK SMILES IDX 61 57 34 58 21 59 22 60 27 61 23 62 24 63 26 64 28 65 25 66
REMARK SMILES IDX 47 67 48 68 53 69 49 70 50 71 52 72 54 73 51 74 35 75 36 76
REMARK SMILES IDX 41 77 37 78 38 79 40 80 42 81 39 82
REMARK H PARENT 2 12 2 13 59 44 33 55
REMARK Flexibility Score: inf
ROOT
ATOM      1  C   UNL A   1      31.793  28.523  27.203  1.00  0.00     0.274 C 
ENDROOT
BRANCH   1   2
ATOM      2  O   UNL A   1      31.157  27.623  26.274  1.00  0.00    -0.457 OA
BRANCH   2   3
ATOM      3  C   UNL A   1      31.786  27.381  25.093  1.00  0.00     0.368 C 
ATOM      4  O   UNL A   1      33.005  27.333  24.960  1.00  0.00    -0.245 OA
BRANCH   3   5
ATOM      5  C   UNL A   1      30.773  27.246  23.899  1.00  0.00     0.195 C 
ATOM      6  C   UNL A   1      29.831  26.086  24.242  1.00  0.00     0.082 C 
ATOM      7  C   UNL A   1      31.414  26.764  22.578  1.00  0.00     0.096 C 
ATOM      8  C   UNL A   1      30.676  24.855  23.923  1.00  0.00     0.022 C 
ATOM      9  C   UNL A   1      31.386  25.218  22.614  1.00  0.00     0.059 C 
BRANCH   5  10
ATOM     10  N   UNL A   1      30.146  28.569  23.666  1.00  0.00    -0.335 N 
ATOM     11  C   UNL A   1      30.441  29.195  22.388  1.00  0.00     0.331 C 
ATOM     12  H   UNL A   1      29.135  28.452  23.730  1.00  0.00     0.347 HD
ATOM     13  H   UNL A   1      30.540  29.189  24.373  1.00  0.00     0.347 HD
ENDBRANCH   5  10
BRANCH   9  14
ATOM     14  S   UNL A   1      33.087  24.585  22.402  1.00  0.00    -0.122 SA
BRANCH  14  15
ATOM     15  C   UNL A   1      33.066  22.923  23.038  1.00  0.00     0.008 A 
ATOM     16  C   UNL A   1      32.228  21.902  22.601  1.00  0.00     0.015 A 
ATOM     17  C   UNL A   1      33.993  22.640  24.049  1.00  0.00     0.018 A 
ATOM     18  C   UNL A   1      32.267  20.647  23.214  1.00  0.00     0.005 A 
ATOM     19  C   UNL A   1      34.069  21.375  24.656  1.00  0.00    -0.047 A 
ATOM     20  C   UNL A   1      33.182  20.367  24.242  1.00  0.00    -0.048 A 
ATOM     21  C   UNL A   1      35.109  21.144  25.716  1.00  0.00     0.044 C 
ATOM     22  C   UNL A   1      33.132  19.008  24.882  1.00  0.00     0.044 C 
ENDBRANCH  14  15
ENDBRANCH   9  14
ENDBRANCH   3   5
ENDBRANCH   2   3
ENDBRANCH   1   2
BRANCH   1  23
ATOM     23  C   UNL A   1      31.564  29.965  26.768  1.00  0.00     0.275 C 
BRANCH  23  24
ATOM     24  O   UNL A   1      32.820  30.530  26.357  1.00  0.00    -0.458 OA
BRANCH  24  25
ATOM     25  C   UNL A   1      33.240  31.601  27.065  1.00  0.00     0.338 C 
ATOM     26  O   UNL A   1      32.658  32.650  27.266  1.00  0.00    -0.246 OA
BRANCH  25  27
ATOM     27  C   UNL A   1      34.559  31.293  27.632  1.00  0.00     0.060 A 
ATOM     28  C   UNL A   1      34.855  29.972  27.960  1.00  0.00     0.016 A 
ATOM     29  C   UNL A   1      35.451  32.316  27.941  1.00  0.00     0.016 A 
ATOM     30  C   UNL A   1      36.016  29.668  28.660  1.00  0.00     0.010 A 
ATOM     31  C   UNL A   1      36.653  32.001  28.581  1.00  0.00     0.010 A 
ATOM     32  C   UNL A   1      36.932  30.679  28.974  1.00  0.00    -0.014 A 
BRANCH  32  33
ATOM     33  C   UNL A   1      38.150  30.364  29.765  1.00  0.00     0.031 A 
ATOM     34  C   UNL A   1      39.235  29.517  29.161  1.00  0.00     0.074 A 
ATOM     35  C   UNL A   1      38.297  30.847  31.014  1.00  0.00     0.049 A 
ATOM     36  N   UNL A   1      40.283  28.981  29.732  1.00  0.00    -0.248 NA
ATOM     37  C   UNL A   1      39.119  29.225  27.723  1.00  0.00     0.031 C 
ATOM     38  C   UNL A   1      37.351  31.728  31.700  1.00  0.00     0.029 A 
ATOM     39  N   UNL A   1      39.304  30.665  31.928  1.00  0.00    -0.354 N 
ATOM     40  C   UNL A   1      40.919  28.246  28.740  1.00  0.00     0.074 A 
ATOM     41  C   UNL A   1      40.143  28.407  27.529  1.00  0.00     0.031 C 
ATOM     42  C   UNL A   1      37.834  32.029  32.916  1.00  0.00     0.029 A 
ATOM     43  C   UNL A   1      39.084  31.305  33.123  1.00  0.00     0.049 A 
ATOM     44  H   UNL A   1      40.107  30.125  31.745  1.00  0.00     0.167 HD
ATOM     45  C   UNL A   1      42.046  27.501  28.834  1.00  0.00     0.037 A 
ATOM     46  C   UNL A   1      39.788  31.280  34.269  1.00  0.00     0.037 A 
ATOM     47  C   UNL A   1      42.845  27.385  30.026  1.00  0.00     0.049 A 
ATOM     48  C   UNL A   1      41.022  30.429  34.357  1.00  0.00     0.074 A 
ATOM     49  C   UNL A   1      44.006  26.657  30.221  1.00  0.00     0.029 A 
ATOM     50  N   UNL A   1      42.572  28.033  31.221  1.00  0.00    -0.354 N 
ATOM     51  N   UNL A   1      41.577  29.683  33.434  1.00  0.00    -0.248 NA
ATOM     52  C   UNL A   1      41.713  30.400  35.654  1.00  0.00     0.031 C 
ATOM     53  C   UNL A   1      44.424  26.847  31.543  1.00  0.00     0.029 A 
ATOM     54  C   UNL A   1      43.541  27.717  32.160  1.00  0.00     0.049 A 
ATOM     55  H   UNL A   1      41.805  28.628  31.379  1.00  0.00     0.167 HD
ATOM     56  C   UNL A   1      42.683  29.098  34.034  1.00  0.00     0.074 A 
ATOM     57  C   UNL A   1      42.734  29.594  35.394  1.00  0.00     0.031 C 
ATOM     58  C   UNL A   1      43.573  28.223  33.508  1.00  0.00     0.037 A 
BRANCH  45  59
ATOM     59  C   UNL A   1      42.461  26.724  27.623  1.00  0.00     0.057 A 
ATOM     60  C   UNL A   1      42.023  25.416  27.391  1.00  0.00     0.134 A 
ATOM     61  C   UNL A   1      43.296  27.308  26.660  1.00  0.00     0.134 A 
ATOM     62  F   UNL A   1      41.236  24.794  28.283  1.00  0.00    -0.206 F 
ATOM     63  C   UNL A   1      42.415  24.707  26.253  1.00  0.00     0.040 A 
ATOM     64  C   UNL A   1      43.678  26.618  25.509  1.00  0.00     0.040 A 
ATOM     65  F   UNL A   1      43.749  28.561  26.822  1.00  0.00    -0.206 F 
ATOM     66  C   UNL A   1      43.240  25.311  25.305  1.00  0.00     0.006 A 
ENDBRANCH  45  59
BRANCH  46  67
ATOM     67  C   UNL A   1      39.317  32.059  35.441  1.00  0.00     0.057 A 
ATOM     68  C   UNL A   1      38.449  31.495  36.381  1.00  0.00     0.134 A 
ATOM     69  C   UNL A   1      39.729  33.380  35.651  1.00  0.00     0.134 A 
ATOM     70  F   UNL A   1      38.001  30.241  36.219  1.00  0.00    -0.206 F 
ATOM     71  C   UNL A   1      38.003  32.219  37.489  1.00  0.00     0.040 A 
ATOM     72  C   UNL A   1      39.310  34.107  36.766  1.00  0.00     0.040 A 
ATOM     73  F   UNL A   1      40.561  33.977  34.785  1.00  0.00    -0.206 F 
ATOM     74  C   UNL A   1      38.439  33.527  37.687  1.00  0.00     0.006 A 
ENDBRANCH  46  67
BRANCH  58  75
ATOM     75  C   UNL A   1      44.683  27.764  34.402  1.00  0.00     0.057 A 
ATOM     76  C   UNL A   1      45.883  28.477  34.505  1.00  0.00     0.134 A 
ATOM     77  C   UNL A   1      44.539  26.614  35.188  1.00  0.00     0.134 A 
ATOM     78  F   UNL A   1      46.084  29.578  33.767  1.00  0.00    -0.206 F 
ATOM     79  C   UNL A   1      46.910  28.053  35.349  1.00  0.00     0.040 A 
ATOM     80  C   UNL A   1      45.552  26.190  36.048  1.00  0.00     0.040 A 
ATOM     81  F   UNL A   1      43.410  25.891  35.137  1.00  0.00    -0.206 F 
ATOM     82  C   UNL A   1      46.744  26.908  36.127  1.00  0.00     0.006 A 
ENDBRANCH  58  75
ENDBRANCH  32  33
ENDBRANCH  25  27
ENDBRANCH  24  25
ENDBRANCH  23  24
ENDBRANCH   1  23
TORSDOF 14
ENDMDL
