MODEL 1
REMARK VINA RESULT:     -12.2      0.000      0.000
REMARK SMILES CS(=O)(=O)c1ccc(/C=C(/C(=O)OCCOC(=O)c2ccc(-c3c4nc(c(-c5c(F)cccc5F)c5ccc([nH]5)c(-c5c(F)cccc5F)c5nc(c(-c6c(F)cccc6F)c6ccc3[nH]6)C=C5)C=C4)cc2)c2ccccc2)cc1
REMARK SMILES IDX 14 1 13 2 11 3 12 4 10 5 9 6 8 7 5 8 6 9 80 10 7 11 79 12
REMARK SMILES IDX 2 13 1 14 3 15 4 16 73 17 74 18 78 19 75 20 77 21 76 22
REMARK SMILES IDX 15 23 16 24 17 25 18 26 19 27 20 28 72 29 21 30 71 31 22 32
REMARK SMILES IDX 23 33 24 34 65 35 25 36 70 37 64 38 66 39 26 40 69 41 63 42
REMARK SMILES IDX 62 43 27 45 53 46 36 47 52 48 37 49 40 50 51 51 67 52 38 53
REMARK SMILES IDX 39 54 50 56 68 57 41 58 28 59 29 60 34 61 30 62 31 63 33 64
REMARK SMILES IDX 35 65 32 66 54 67 55 68 60 69 56 70 57 71 59 72 61 73 58 74
REMARK SMILES IDX 42 75 43 76 48 77 44 78 45 79 47 80 49 81 46 82
REMARK H PARENT 66 44 40 55
REMARK Flexibility Score: inf
ROOT
ATOM      1  C   UNL A   1      32.633  28.498  24.377  1.00  0.00     0.275 C 
ENDROOT
BRANCH   1   2
ATOM      2  O   UNL A   1      32.769  27.087  24.649  1.00  0.00    -0.458 OA
BRANCH   2   3
ATOM      3  C   UNL A   1      33.269  26.345  23.628  1.00  0.00     0.338 C 
ATOM      4  O   UNL A   1      33.646  26.785  22.549  1.00  0.00    -0.246 OA
BRANCH   3   5
ATOM      5  C   UNL A   1      33.372  24.898  23.982  1.00  0.00     0.067 C 
ATOM      6  C   UNL A   1      32.258  24.128  23.935  1.00  0.00     0.024 C 
BRANCH   6   7
ATOM      7  C   UNL A   1      32.174  22.644  23.965  1.00  0.00    -0.025 A 
ATOM      8  C   UNL A   1      32.420  19.842  23.870  1.00  0.00     0.067 A 
ATOM      9  C   UNL A   1      32.480  20.499  25.090  1.00  0.00     0.021 A 
ATOM     10  C   UNL A   1      32.153  20.555  22.701  1.00  0.00     0.021 A 
ATOM     11  C   UNL A   1      32.295  21.877  25.130  1.00  0.00     0.009 A 
ATOM     12  C   UNL A   1      32.042  21.952  22.751  1.00  0.00     0.009 A 
BRANCH   8  13
ATOM     13  S   UNL A   1      32.689  18.090  23.825  1.00  0.00     0.175 S 
ATOM     14  C   UNL A   1      34.401  17.887  24.251  1.00  0.00     0.163 C 
ATOM     15  O   UNL A   1      32.514  17.680  22.442  1.00  0.00    -0.224 OA
ATOM     16  O   UNL A   1      31.904  17.503  24.889  1.00  0.00    -0.224 OA
ENDBRANCH   8  13
ENDBRANCH   6   7
BRANCH   5  17
ATOM     17  C   UNL A   1      34.721  24.341  24.207  1.00  0.00    -0.011 A 
ATOM     18  C   UNL A   1      35.308  24.452  25.480  1.00  0.00     0.009 A 
ATOM     19  C   UNL A   1      35.376  23.604  23.213  1.00  0.00     0.009 A 
ATOM     20  C   UNL A   1      36.502  23.786  25.768  1.00  0.00     0.001 A 
ATOM     21  C   UNL A   1      36.578  22.953  23.501  1.00  0.00     0.001 A 
ATOM     22  C   UNL A   1      37.133  23.034  24.779  1.00  0.00     0.000 A 
ENDBRANCH   5  17
ENDBRANCH   3   5
ENDBRANCH   2   3
ENDBRANCH   1   2
BRANCH   1  23
ATOM     23  C   UNL A   1      31.626  29.143  25.328  1.00  0.00     0.275 C 
BRANCH  23  24
ATOM     24  O   UNL A   1      32.211  29.319  26.633  1.00  0.00    -0.458 OA
BRANCH  24  25
ATOM     25  C   UNL A   1      32.710  30.550  26.883  1.00  0.00     0.338 C 
ATOM     26  O   UNL A   1      32.111  31.612  26.876  1.00  0.00    -0.246 OA
BRANCH  25  27
ATOM     27  C   UNL A   1      34.137  30.465  27.239  1.00  0.00     0.060 A 
ATOM     28  C   UNL A   1      34.744  29.218  27.297  1.00  0.00     0.016 A 
ATOM     29  C   UNL A   1      34.801  31.584  27.740  1.00  0.00     0.016 A 
ATOM     30  C   UNL A   1      35.935  29.068  28.003  1.00  0.00     0.010 A 
ATOM     31  C   UNL A   1      36.068  31.441  28.326  1.00  0.00     0.010 A 
ATOM     32  C   UNL A   1      36.626  30.168  28.534  1.00  0.00    -0.014 A 
BRANCH  32  33
ATOM     33  C   UNL A   1      37.876  29.975  29.344  1.00  0.00     0.031 A 
ATOM     34  C   UNL A   1      39.029  29.145  28.814  1.00  0.00     0.074 A 
ATOM     35  C   UNL A   1      38.021  30.562  30.551  1.00  0.00     0.049 A 
ATOM     36  N   UNL A   1      40.077  28.678  29.448  1.00  0.00    -0.248 NA
ATOM     37  C   UNL A   1      38.992  28.781  27.388  1.00  0.00     0.031 C 
ATOM     38  C   UNL A   1      37.045  31.443  31.194  1.00  0.00     0.029 A 
ATOM     39  N   UNL A   1      39.060  30.520  31.454  1.00  0.00    -0.354 N 
ATOM     40  C   UNL A   1      40.771  27.897  28.528  1.00  0.00     0.074 A 
ATOM     41  C   UNL A   1      40.033  27.964  27.285  1.00  0.00     0.031 C 
ATOM     42  C   UNL A   1      37.555  31.914  32.339  1.00  0.00     0.029 A 
ATOM     43  C   UNL A   1      38.830  31.257  32.591  1.00  0.00     0.049 A 
ATOM     44  H   UNL A   1      39.888  30.009  31.300  1.00  0.00     0.167 HD
ATOM     45  C   UNL A   1      41.913  27.185  28.705  1.00  0.00     0.037 A 
ATOM     46  C   UNL A   1      39.516  31.353  33.744  1.00  0.00     0.037 A 
ATOM     47  C   UNL A   1      42.696  27.188  29.917  1.00  0.00     0.049 A 
ATOM     48  C   UNL A   1      40.756  30.531  33.935  1.00  0.00     0.074 A 
ATOM     49  C   UNL A   1      43.881  26.519  30.178  1.00  0.00     0.029 A 
ATOM     50  N   UNL A   1      42.388  27.910  31.059  1.00  0.00    -0.354 N 
ATOM     51  N   UNL A   1      41.346  29.721  33.091  1.00  0.00    -0.248 NA
ATOM     52  C   UNL A   1      41.405  30.611  35.249  1.00  0.00     0.031 C 
ATOM     53  C   UNL A   1      44.267  26.804  31.493  1.00  0.00     0.029 A 
ATOM     54  C   UNL A   1      43.351  27.691  32.032  1.00  0.00     0.049 A 
ATOM     55  H   UNL A   1      41.601  28.493  31.164  1.00  0.00     0.167 HD
ATOM     56  C   UNL A   1      42.439  29.199  33.769  1.00  0.00     0.074 A 
ATOM     57  C   UNL A   1      42.444  29.804  35.085  1.00  0.00     0.031 C 
ATOM     58  C   UNL A   1      43.350  28.294  33.340  1.00  0.00     0.037 A 
BRANCH  45  59
ATOM     59  C   UNL A   1      42.376  26.301  27.579  1.00  0.00     0.057 A 
ATOM     60  C   UNL A   1      41.967  24.969  27.444  1.00  0.00     0.134 A 
ATOM     61  C   UNL A   1      43.203  26.823  26.573  1.00  0.00     0.134 A 
ATOM     62  F   UNL A   1      41.183  24.402  28.374  1.00  0.00    -0.206 F 
ATOM     63  C   UNL A   1      42.378  24.184  26.364  1.00  0.00     0.040 A 
ATOM     64  C   UNL A   1      43.598  26.057  25.474  1.00  0.00     0.040 A 
ATOM     65  F   UNL A   1      43.625  28.096  26.630  1.00  0.00    -0.206 F 
ATOM     66  C   UNL A   1      43.189  24.730  25.371  1.00  0.00     0.006 A 
ENDBRANCH  45  59
BRANCH  46  67
ATOM     67  C   UNL A   1      38.996  32.211  34.840  1.00  0.00     0.057 A 
ATOM     68  C   UNL A   1      38.247  31.670  35.890  1.00  0.00     0.134 A 
ATOM     69  C   UNL A   1      39.255  33.588  34.874  1.00  0.00     0.134 A 
ATOM     70  F   UNL A   1      37.940  30.365  35.900  1.00  0.00    -0.206 F 
ATOM     71  C   UNL A   1      37.778  32.467  36.937  1.00  0.00     0.040 A 
ATOM     72  C   UNL A   1      38.823  34.388  35.930  1.00  0.00     0.040 A 
ATOM     73  F   UNL A   1      39.966  34.168  33.896  1.00  0.00    -0.206 F 
ATOM     74  C   UNL A   1      38.077  33.828  36.964  1.00  0.00     0.006 A 
ENDBRANCH  46  67
BRANCH  58  75
ATOM     75  C   UNL A   1      44.451  27.933  34.292  1.00  0.00     0.057 A 
ATOM     76  C   UNL A   1      45.643  28.666  34.356  1.00  0.00     0.134 A 
ATOM     77  C   UNL A   1      44.312  26.846  35.164  1.00  0.00     0.134 A 
ATOM     78  F   UNL A   1      45.846  29.709  33.537  1.00  0.00    -0.206 F 
ATOM     79  C   UNL A   1      46.670  28.313  35.235  1.00  0.00     0.040 A 
ATOM     80  C   UNL A   1      45.321  26.499  36.064  1.00  0.00     0.040 A 
ATOM     81  F   UNL A   1      43.193  26.106  35.157  1.00  0.00    -0.206 F 
ATOM     82  C   UNL A   1      46.506  27.229  36.095  1.00  0.00     0.006 A 
ENDBRANCH  58  75
ENDBRANCH  32  33
ENDBRANCH  25  27
ENDBRANCH  24  25
ENDBRANCH  23  24
ENDBRANCH   1  23
TORSDOF 14
ENDMDL
MODEL 2
REMARK VINA RESULT:     -11.9      4.083      8.868
REMARK SMILES CS(=O)(=O)c1ccc(/C=C(/C(=O)OCCOC(=O)c2ccc(-c3c4nc(c(-c5c(F)cccc5F)c5ccc([nH]5)c(-c5c(F)cccc5F)c5nc(c(-c6c(F)cccc6F)c6ccc3[nH]6)C=C5)C=C4)cc2)c2ccccc2)cc1
REMARK SMILES IDX 14 1 13 2 11 3 12 4 10 5 9 6 8 7 5 8 6 9 80 10 7 11 79 12
REMARK SMILES IDX 2 13 1 14 3 15 4 16 73 17 74 18 78 19 75 20 77 21 76 22
REMARK SMILES IDX 15 23 16 24 17 25 18 26 19 27 20 28 72 29 21 30 71 31 22 32
REMARK SMILES IDX 23 33 24 34 65 35 25 36 70 37 64 38 66 39 26 40 69 41 63 42
REMARK SMILES IDX 62 43 27 45 53 46 36 47 52 48 37 49 40 50 51 51 67 52 38 53
REMARK SMILES IDX 39 54 50 56 68 57 41 58 28 59 29 60 34 61 30 62 31 63 33 64
REMARK SMILES IDX 35 65 32 66 54 67 55 68 60 69 56 70 57 71 59 72 61 73 58 74
REMARK SMILES IDX 42 75 43 76 48 77 44 78 45 79 47 80 49 81 46 82
REMARK H PARENT 66 44 40 55
REMARK Flexibility Score: inf
ROOT
ATOM      1  C   UNL A   1      35.344  21.381  25.154  1.00  0.00     0.275 C 
ENDROOT
BRANCH   1   2
ATOM      2  O   UNL A   1      35.663  22.781  25.010  1.00  0.00    -0.458 OA
BRANCH   2   3
ATOM      3  C   UNL A   1      35.176  23.376  23.891  1.00  0.00     0.338 C 
ATOM      4  O   UNL A   1      35.584  23.186  22.752  1.00  0.00    -0.246 OA
BRANCH   3   5
ATOM      5  C   UNL A   1      34.017  24.270  24.187  1.00  0.00     0.067 C 
ATOM      6  C   UNL A   1      33.923  25.460  23.546  1.00  0.00     0.024 C 
BRANCH   6   7
ATOM      7  C   UNL A   1      32.744  26.362  23.467  1.00  0.00    -0.025 A 
ATOM      8  C   UNL A   1      30.766  28.326  23.080  1.00  0.00     0.067 A 
ATOM      9  C   UNL A   1      30.698  27.131  22.379  1.00  0.00     0.021 A 
ATOM     10  C   UNL A   1      31.763  28.524  24.036  1.00  0.00     0.021 A 
ATOM     11  C   UNL A   1      31.647  26.144  22.626  1.00  0.00     0.009 A 
ATOM     12  C   UNL A   1      32.753  27.547  24.219  1.00  0.00     0.009 A 
BRANCH   8  13
ATOM     13  S   UNL A   1      29.573  29.591  22.736  1.00  0.00     0.175 S 
ATOM     14  C   UNL A   1      28.004  28.762  22.810  1.00  0.00     0.163 C 
ATOM     15  O   UNL A   1      29.799  30.013  21.363  1.00  0.00    -0.224 OA
ATOM     16  O   UNL A   1      29.616  30.537  23.830  1.00  0.00    -0.224 OA
ENDBRANCH   8  13
ENDBRANCH   6   7
BRANCH   5  17
ATOM     17  C   UNL A   1      32.940  23.735  25.045  1.00  0.00    -0.011 A 
ATOM     18  C   UNL A   1      32.831  24.185  26.373  1.00  0.00     0.009 A 
ATOM     19  C   UNL A   1      31.959  22.881  24.528  1.00  0.00     0.009 A 
ATOM     20  C   UNL A   1      31.725  23.832  27.150  1.00  0.00     0.001 A 
ATOM     21  C   UNL A   1      30.863  22.517  25.315  1.00  0.00     0.001 A 
ATOM     22  C   UNL A   1      30.741  23.001  26.618  1.00  0.00     0.000 A 
ENDBRANCH   5  17
ENDBRANCH   3   5
ENDBRANCH   2   3
ENDBRANCH   1   2
BRANCH   1  23
ATOM     23  C   UNL A   1      36.591  20.516  24.981  1.00  0.00     0.275 C 
BRANCH  23  24
ATOM     24  O   UNL A   1      37.764  21.345  24.865  1.00  0.00    -0.458 OA
BRANCH  24  25
ATOM     25  C   UNL A   1      38.797  21.003  25.667  1.00  0.00     0.338 C 
ATOM     26  O   UNL A   1      39.346  19.918  25.752  1.00  0.00    -0.246 OA
BRANCH  25  27
ATOM     27  C   UNL A   1      39.254  22.169  26.442  1.00  0.00     0.060 A 
ATOM     28  C   UNL A   1      38.713  23.417  26.167  1.00  0.00     0.016 A 
ATOM     29  C   UNL A   1      40.375  22.065  27.266  1.00  0.00     0.016 A 
ATOM     30  C   UNL A   1      39.389  24.563  26.576  1.00  0.00     0.010 A 
ATOM     31  C   UNL A   1      40.968  23.225  27.789  1.00  0.00     0.010 A 
ATOM     32  C   UNL A   1      40.529  24.501  27.393  1.00  0.00    -0.014 A 
BRANCH  32  33
ATOM     33  C   UNL A   1      41.276  25.747  27.771  1.00  0.00     0.031 A 
ATOM     34  C   UNL A   1      40.636  26.805  28.646  1.00  0.00     0.074 A 
ATOM     35  C   UNL A   1      42.550  25.943  27.369  1.00  0.00     0.049 A 
ATOM     36  N   UNL A   1      41.027  28.034  28.885  1.00  0.00    -0.248 NA
ATOM     37  C   UNL A   1      39.385  26.442  29.332  1.00  0.00     0.031 C 
ATOM     38  C   UNL A   1      43.348  25.007  26.575  1.00  0.00     0.029 A 
ATOM     39  N   UNL A   1      43.411  26.995  27.589  1.00  0.00    -0.354 N 
ATOM     40  C   UNL A   1      40.032  28.612  29.669  1.00  0.00     0.074 A 
ATOM     41  C   UNL A   1      39.024  27.595  29.879  1.00  0.00     0.031 C 
ATOM     42  C   UNL A   1      44.591  25.485  26.438  1.00  0.00     0.029 A 
ATOM     43  C   UNL A   1      44.644  26.826  27.004  1.00  0.00     0.049 A 
ATOM     44  H   UNL A   1      43.167  27.792  28.113  1.00  0.00     0.167 HD
ATOM     45  C   UNL A   1      39.963  29.875  30.162  1.00  0.00     0.037 A 
ATOM     46  C   UNL A   1      45.685  27.667  26.863  1.00  0.00     0.037 A 
ATOM     47  C   UNL A   1      41.007  30.861  30.028  1.00  0.00     0.049 A 
ATOM     48  C   UNL A   1      45.576  29.069  27.382  1.00  0.00     0.074 A 
ATOM     49  C   UNL A   1      41.036  32.157  30.517  1.00  0.00     0.029 A 
ATOM     50  N   UNL A   1      42.213  30.656  29.377  1.00  0.00    -0.354 N 
ATOM     51  N   UNL A   1      44.589  29.632  28.035  1.00  0.00    -0.248 NA
ATOM     52  C   UNL A   1      46.710  29.962  27.115  1.00  0.00     0.031 C 
ATOM     53  C   UNL A   1      42.243  32.749  30.127  1.00  0.00     0.029 A 
ATOM     54  C   UNL A   1      42.987  31.806  29.439  1.00  0.00     0.049 A 
ATOM     55  H   UNL A   1      42.482  29.818  28.935  1.00  0.00     0.167 HD
ATOM     56  C   UNL A   1      44.986  30.943  28.263  1.00  0.00     0.074 A 
ATOM     57  C   UNL A   1      46.313  31.083  27.700  1.00  0.00     0.031 C 
ATOM     58  C   UNL A   1      44.306  31.940  28.876  1.00  0.00     0.037 A 
BRANCH  45  59
ATOM     59  C   UNL A   1      38.698  30.291  30.862  1.00  0.00     0.057 A 
ATOM     60  C   UNL A   1      38.507  30.131  32.240  1.00  0.00     0.134 A 
ATOM     61  C   UNL A   1      37.674  30.926  30.143  1.00  0.00     0.134 A 
ATOM     62  F   UNL A   1      39.441  29.524  32.988  1.00  0.00    -0.206 F 
ATOM     63  C   UNL A   1      37.339  30.565  32.871  1.00  0.00     0.040 A 
ATOM     64  C   UNL A   1      36.515  31.391  30.767  1.00  0.00     0.040 A 
ATOM     65  F   UNL A   1      37.793  31.125  28.821  1.00  0.00    -0.206 F 
ATOM     66  C   UNL A   1      36.343  31.205  32.136  1.00  0.00     0.006 A 
ENDBRANCH  45  59
BRANCH  46  67
ATOM     67  C   UNL A   1      46.897  27.218  26.130  1.00  0.00     0.057 A 
ATOM     68  C   UNL A   1      47.017  27.398  24.748  1.00  0.00     0.134 A 
ATOM     69  C   UNL A   1      47.975  26.621  26.798  1.00  0.00     0.134 A 
ATOM     70  F   UNL A   1      46.008  27.937  24.047  1.00  0.00    -0.206 F 
ATOM     71  C   UNL A   1      48.165  27.004  24.058  1.00  0.00     0.040 A 
ATOM     72  C   UNL A   1      49.141  26.255  26.127  1.00  0.00     0.040 A 
ATOM     73  F   UNL A   1      47.923  26.419  28.124  1.00  0.00    -0.206 F 
ATOM     74  C   UNL A   1      49.236  26.441  24.750  1.00  0.00     0.006 A 
ENDBRANCH  46  67
BRANCH  58  75
ATOM     75  C   UNL A   1      45.003  33.262  29.004  1.00  0.00     0.057 A 
ATOM     76  C   UNL A   1      44.841  34.278  28.054  1.00  0.00     0.134 A 
ATOM     77  C   UNL A   1      45.839  33.524  30.096  1.00  0.00     0.134 A 
ATOM     78  F   UNL A   1      44.066  34.084  26.975  1.00  0.00    -0.206 F 
ATOM     79  C   UNL A   1      45.506  35.500  28.172  1.00  0.00     0.040 A 
ATOM     80  C   UNL A   1      46.489  34.751  30.239  1.00  0.00     0.040 A 
ATOM     81  F   UNL A   1      46.032  32.596  31.045  1.00  0.00    -0.206 F 
ATOM     82  C   UNL A   1      46.330  35.740  29.271  1.00  0.00     0.006 A 
ENDBRANCH  58  75
ENDBRANCH  32  33
ENDBRANCH  25  27
ENDBRANCH  24  25
ENDBRANCH  23  24
ENDBRANCH   1  23
TORSDOF 14
ENDMDL
MODEL 3
REMARK VINA RESULT:     -11.9      1.244      2.294
REMARK SMILES CS(=O)(=O)c1ccc(/C=C(/C(=O)OCCOC(=O)c2ccc(-c3c4nc(c(-c5c(F)cccc5F)c5ccc([nH]5)c(-c5c(F)cccc5F)c5nc(c(-c6c(F)cccc6F)c6ccc3[nH]6)C=C5)C=C4)cc2)c2ccccc2)cc1
REMARK SMILES IDX 14 1 13 2 11 3 12 4 10 5 9 6 8 7 5 8 6 9 80 10 7 11 79 12
REMARK SMILES IDX 2 13 1 14 3 15 4 16 73 17 74 18 78 19 75 20 77 21 76 22
REMARK SMILES IDX 15 23 16 24 17 25 18 26 19 27 20 28 72 29 21 30 71 31 22 32
REMARK SMILES IDX 23 33 24 34 65 35 25 36 70 37 64 38 66 39 26 40 69 41 63 42
REMARK SMILES IDX 62 43 27 45 53 46 36 47 52 48 37 49 40 50 51 51 67 52 38 53
REMARK SMILES IDX 39 54 50 56 68 57 41 58 28 59 29 60 34 61 30 62 31 63 33 64
REMARK SMILES IDX 35 65 32 66 54 67 55 68 60 69 56 70 57 71 59 72 61 73 58 74
REMARK SMILES IDX 42 75 43 76 48 77 44 78 45 79 47 80 49 81 46 82
REMARK H PARENT 66 44 40 55
REMARK Flexibility Score: inf
ROOT
ATOM      1  C   UNL A   1      31.444  29.128  25.242  1.00  0.00     0.275 C 
ENDROOT
BRANCH   1   2
ATOM      2  O   UNL A   1      32.482  28.280  25.778  1.00  0.00    -0.458 OA
BRANCH   2   3
ATOM      3  C   UNL A   1      32.050  27.144  26.382  1.00  0.00     0.338 C 
ATOM      4  O   UNL A   1      31.385  27.096  27.409  1.00  0.00    -0.246 OA
BRANCH   3   5
ATOM      5  C   UNL A   1      32.429  25.920  25.615  1.00  0.00     0.067 C 
ATOM      6  C   UNL A   1      32.633  24.760  26.287  1.00  0.00     0.024 C 
BRANCH   6   7
ATOM      7  C   UNL A   1      32.734  23.388  25.725  1.00  0.00    -0.025 A 
ATOM      8  C   UNL A   1      33.017  20.666  25.065  1.00  0.00     0.067 A 
ATOM      9  C   UNL A   1      31.752  21.230  25.140  1.00  0.00     0.021 A 
ATOM     10  C   UNL A   1      34.152  21.462  25.231  1.00  0.00     0.021 A 
ATOM     11  C   UNL A   1      31.629  22.589  25.406  1.00  0.00     0.009 A 
ATOM     12  C   UNL A   1      34.006  22.815  25.571  1.00  0.00     0.009 A 
BRANCH   8  13
ATOM     13  S   UNL A   1      33.165  18.927  24.758  1.00  0.00     0.175 S 
ATOM     14  C   UNL A   1      32.396  18.682  23.176  1.00  0.00     0.163 C 
ATOM     15  O   UNL A   1      32.357  18.258  25.764  1.00  0.00    -0.224 OA
ATOM     16  O   UNL A   1      34.573  18.631  24.606  1.00  0.00    -0.224 OA
ENDBRANCH   8  13
ENDBRANCH   6   7
BRANCH   5  17
ATOM     17  C   UNL A   1      32.400  25.997  24.141  1.00  0.00    -0.011 A 
ATOM     18  C   UNL A   1      33.612  26.015  23.429  1.00  0.00     0.009 A 
ATOM     19  C   UNL A   1      31.192  25.934  23.436  1.00  0.00     0.009 A 
ATOM     20  C   UNL A   1      33.614  25.911  22.035  1.00  0.00     0.001 A 
ATOM     21  C   UNL A   1      31.199  25.848  22.041  1.00  0.00     0.001 A 
ATOM     22  C   UNL A   1      32.408  25.824  21.345  1.00  0.00     0.000 A 
ENDBRANCH   5  17
ENDBRANCH   3   5
ENDBRANCH   2   3
ENDBRANCH   1   2
BRANCH   1  23
ATOM     23  C   UNL A   1      31.558  30.548  25.796  1.00  0.00     0.275 C 
BRANCH  23  24
ATOM     24  O   UNL A   1      32.275  30.541  27.046  1.00  0.00    -0.458 OA
BRANCH  24  25
ATOM     25  C   UNL A   1      32.976  31.665  27.318  1.00  0.00     0.338 C 
ATOM     26  O   UNL A   1      32.559  32.810  27.360  1.00  0.00    -0.246 OA
BRANCH  25  27
ATOM     27  C   UNL A   1      34.377  31.335  27.631  1.00  0.00     0.060 A 
ATOM     28  C   UNL A   1      34.727  30.008  27.840  1.00  0.00     0.016 A 
ATOM     29  C   UNL A   1      35.281  32.349  27.945  1.00  0.00     0.016 A 
ATOM     30  C   UNL A   1      35.907  29.709  28.516  1.00  0.00     0.010 A 
ATOM     31  C   UNL A   1      36.529  32.026  28.499  1.00  0.00     0.010 A 
ATOM     32  C   UNL A   1      36.836  30.703  28.863  1.00  0.00    -0.014 A 
BRANCH  32  33
ATOM     33  C   UNL A   1      38.072  30.364  29.645  1.00  0.00     0.031 A 
ATOM     34  C   UNL A   1      39.169  29.512  29.039  1.00  0.00     0.074 A 
ATOM     35  C   UNL A   1      38.254  30.836  30.897  1.00  0.00     0.049 A 
ATOM     36  N   UNL A   1      40.187  28.928  29.625  1.00  0.00    -0.248 NA
ATOM     37  C   UNL A   1      39.109  29.274  27.588  1.00  0.00     0.031 C 
ATOM     38  C   UNL A   1      37.335  31.718  31.619  1.00  0.00     0.029 A 
ATOM     39  N   UNL A   1      39.289  30.651  31.786  1.00  0.00    -0.354 N 
ATOM     40  C   UNL A   1      40.830  28.187  28.637  1.00  0.00     0.074 A 
ATOM     41  C   UNL A   1      40.096  28.406  27.408  1.00  0.00     0.031 C 
ATOM     42  C   UNL A   1      37.874  32.056  32.796  1.00  0.00     0.029 A 
ATOM     43  C   UNL A   1      39.107  31.302  32.984  1.00  0.00     0.049 A 
ATOM     44  H   UNL A   1      40.083  30.105  31.584  1.00  0.00     0.167 HD
ATOM     45  C   UNL A   1      41.925  27.393  28.746  1.00  0.00     0.037 A 
ATOM     46  C   UNL A   1      39.798  31.255  34.137  1.00  0.00     0.037 A 
ATOM     47  C   UNL A   1      42.708  27.243  29.948  1.00  0.00     0.049 A 
ATOM     48  C   UNL A   1      40.984  30.344  34.249  1.00  0.00     0.074 A 
ATOM     49  C   UNL A   1      43.848  26.482  30.145  1.00  0.00     0.029 A 
ATOM     50  N   UNL A   1      42.446  27.883  31.150  1.00  0.00    -0.354 N 
ATOM     51  N   UNL A   1      41.521  29.574  33.335  1.00  0.00    -0.248 NA
ATOM     52  C   UNL A   1      41.638  30.271  35.561  1.00  0.00     0.031 C 
ATOM     53  C   UNL A   1      44.253  26.629  31.476  1.00  0.00     0.029 A 
ATOM     54  C   UNL A   1      43.395  27.521  32.095  1.00  0.00     0.049 A 
ATOM     55  H   UNL A   1      41.698  28.502  31.309  1.00  0.00     0.167 HD
ATOM     56  C   UNL A   1      42.580  28.929  33.960  1.00  0.00     0.074 A 
ATOM     57  C   UNL A   1      42.624  29.418  35.323  1.00  0.00     0.031 C 
ATOM     58  C   UNL A   1      43.432  28.009  33.449  1.00  0.00     0.037 A 
BRANCH  45  59
ATOM     59  C   UNL A   1      42.331  26.581  27.545  1.00  0.00     0.057 A 
ATOM     60  C   UNL A   1      43.214  27.062  26.571  1.00  0.00     0.134 A 
ATOM     61  C   UNL A   1      41.872  25.263  27.401  1.00  0.00     0.134 A 
ATOM     62  F   UNL A   1      43.685  28.316  26.640  1.00  0.00    -0.206 F 
ATOM     63  C   UNL A   1      43.607  26.271  25.488  1.00  0.00     0.040 A 
ATOM     64  C   UNL A   1      42.280  24.454  26.340  1.00  0.00     0.040 A 
ATOM     65  F   UNL A   1      41.033  24.733  28.304  1.00  0.00    -0.206 F 
ATOM     66  C   UNL A   1      43.147  24.960  25.376  1.00  0.00     0.006 A 
ENDBRANCH  45  59
BRANCH  46  67
ATOM     67  C   UNL A   1      39.333  32.047  35.305  1.00  0.00     0.057 A 
ATOM     68  C   UNL A   1      39.733  33.375  35.486  1.00  0.00     0.134 A 
ATOM     69  C   UNL A   1      38.459  31.502  36.255  1.00  0.00     0.134 A 
ATOM     70  F   UNL A   1      40.592  33.945  34.628  1.00  0.00    -0.206 F 
ATOM     71  C   UNL A   1      39.278  34.133  36.567  1.00  0.00     0.040 A 
ATOM     72  C   UNL A   1      37.969  32.258  37.319  1.00  0.00     0.040 A 
ATOM     73  F   UNL A   1      38.039  30.233  36.139  1.00  0.00    -0.206 F 
ATOM     74  C   UNL A   1      38.384  33.578  37.480  1.00  0.00     0.006 A 
ENDBRANCH  46  67
BRANCH  58  75
ATOM     75  C   UNL A   1      44.509  27.500  34.360  1.00  0.00     0.057 A 
ATOM     76  C   UNL A   1      45.736  28.162  34.499  1.00  0.00     0.134 A 
ATOM     77  C   UNL A   1      44.313  26.338  35.118  1.00  0.00     0.134 A 
ATOM     78  F   UNL A   1      45.993  29.272  33.788  1.00  0.00    -0.206 F 
ATOM     79  C   UNL A   1      46.739  27.673  35.337  1.00  0.00     0.040 A 
ATOM     80  C   UNL A   1      45.298  25.853  35.979  1.00  0.00     0.040 A 
ATOM     81  F   UNL A   1      43.158  25.660  35.037  1.00  0.00    -0.206 F 
ATOM     82  C   UNL A   1      46.518  26.517  36.084  1.00  0.00     0.006 A 
ENDBRANCH  58  75
ENDBRANCH  32  33
ENDBRANCH  25  27
ENDBRANCH  24  25
ENDBRANCH  23  24
ENDBRANCH   1  23
TORSDOF 14
ENDMDL
