MODEL 1
REMARK VINA RESULT:     -10.6      0.000      0.000
REMARK SMILES Cc1nsc(N(C)C(=O)[C@@H](C)CCC[C@H](C)[NH3+])c1C(=O)OCCOC(=O)c1ccc(-c2c3nc(c(-c4c(F)cccc4F)c4ccc([nH]4)c(-c4c(F)cccc4F)c4nc(c(-c5c(F)cccc5F)c5ccc2[nH]5)C=C4)C=C3)cc1
REMARK SMILES IDX 1 1 2 2 3 3 4 4 5 5 18 6 19 7 20 8 21 9 22 10 23 11 24 12
REMARK SMILES IDX 25 13 26 14 27 15 28 16 80 17 29 18 79 19 30 20 31 21 32 22
REMARK SMILES IDX 73 23 33 24 78 25 72 26 74 27 34 28 77 29 71 30 70 31 35 33
REMARK SMILES IDX 61 34 44 35 60 36 45 37 48 38 59 39 75 40 46 41 47 42 58 44
REMARK SMILES IDX 76 45 49 46 36 47 37 48 42 49 38 50 39 51 41 52 43 53 40 54
REMARK SMILES IDX 62 55 63 56 68 57 64 58 65 59 67 60 69 61 66 62 50 63 51 64
REMARK SMILES IDX 56 65 52 66 53 67 55 68 57 69 54 70 6 71 7 72 8 73 9 74
REMARK SMILES IDX 10 75 11 76 12 77 13 78 14 79 15 80 16 81 17 82
REMARK H PARENT 74 32 48 43 17 83 17 84 17 85
REMARK Flexibility Score: inf
ROOT
ATOM      1  C   UNL A   1      31.222  28.206  27.637  1.00  0.00     0.069 C 
ATOM      2  C   UNL A   1      31.608  27.216  26.585  1.00  0.00     0.068 A 
ATOM      3  N   UNL A   1      30.935  26.071  26.571  1.00  0.00    -0.195 NA
ATOM      4  S   UNL A   1      31.535  25.119  25.391  1.00  0.00    -0.017 S 
ATOM      5  C   UNL A   1      32.769  26.194  24.825  1.00  0.00     0.133 A 
ATOM      6  C   UNL A   1      32.622  27.388  25.548  1.00  0.00     0.117 A 
ENDROOT
BRANCH   6   7
ATOM      7  C   UNL A   1      33.340  28.647  25.366  1.00  0.00     0.343 C 
ATOM      8  O   UNL A   1      32.895  29.617  24.755  1.00  0.00    -0.246 OA
BRANCH   7   9
ATOM      9  O   UNL A   1      34.535  28.644  26.024  1.00  0.00    -0.458 OA
BRANCH   9  10
ATOM     10  C   UNL A   1      34.558  29.031  27.406  1.00  0.00     0.275 C 
BRANCH  10  11
ATOM     11  C   UNL A   1      34.803  30.533  27.478  1.00  0.00     0.275 C 
BRANCH  11  12
ATOM     12  O   UNL A   1      36.184  30.779  27.714  1.00  0.00    -0.458 OA
BRANCH  12  13
ATOM     13  C   UNL A   1      36.692  30.332  28.886  1.00  0.00     0.338 C 
ATOM     14  O   UNL A   1      36.451  30.736  30.010  1.00  0.00    -0.246 OA
BRANCH  13  15
ATOM     15  C   UNL A   1      37.752  29.365  28.574  1.00  0.00     0.060 A 
ATOM     16  C   UNL A   1      38.085  28.410  29.543  1.00  0.00     0.016 A 
ATOM     17  C   UNL A   1      38.530  29.569  27.426  1.00  0.00     0.016 A 
ATOM     18  C   UNL A   1      39.320  27.806  29.466  1.00  0.00     0.010 A 
ATOM     19  C   UNL A   1      39.769  29.002  27.369  1.00  0.00     0.010 A 
ATOM     20  C   UNL A   1      40.170  28.196  28.431  1.00  0.00    -0.014 A 
BRANCH  20  21
ATOM     21  C   UNL A   1      41.563  27.837  28.486  1.00  0.00     0.031 A 
ATOM     22  C   UNL A   1      41.916  26.599  27.751  1.00  0.00     0.074 A 
ATOM     23  C   UNL A   1      42.423  28.739  28.998  1.00  0.00     0.049 A 
ATOM     24  N   UNL A   1      42.480  25.532  28.209  1.00  0.00    -0.248 NA
ATOM     25  C   UNL A   1      41.456  26.469  26.355  1.00  0.00     0.031 C 
ATOM     26  C   UNL A   1      42.154  30.117  29.435  1.00  0.00     0.029 A 
ATOM     27  N   UNL A   1      43.771  28.648  29.097  1.00  0.00    -0.354 N 
ATOM     28  C   UNL A   1      42.623  24.672  27.122  1.00  0.00     0.074 A 
ATOM     29  C   UNL A   1      41.833  25.227  26.058  1.00  0.00     0.031 C 
ATOM     30  C   UNL A   1      43.321  30.796  29.516  1.00  0.00     0.029 A 
ATOM     31  C   UNL A   1      44.408  29.872  29.266  1.00  0.00     0.049 A 
ATOM     32  H   UNL A   1      44.256  27.793  29.053  1.00  0.00     0.167 HD
ATOM     33  C   UNL A   1      43.556  23.680  27.120  1.00  0.00     0.037 A 
ATOM     34  C   UNL A   1      45.733  30.068  29.055  1.00  0.00     0.037 A 
ATOM     35  C   UNL A   1      44.005  23.403  28.460  1.00  0.00     0.049 A 
ATOM     36  C   UNL A   1      46.374  28.719  29.103  1.00  0.00     0.074 A 
ATOM     37  C   UNL A   1      43.381  22.951  29.607  1.00  0.00     0.029 A 
ATOM     38  N   UNL A   1      45.186  23.973  28.874  1.00  0.00    -0.354 N 
ATOM     39  N   UNL A   1      46.408  27.980  30.184  1.00  0.00    -0.248 NA
ATOM     40  C   UNL A   1      46.479  27.984  27.846  1.00  0.00     0.031 C 
ATOM     41  C   UNL A   1      43.953  23.724  30.658  1.00  0.00     0.029 A 
ATOM     42  C   UNL A   1      44.943  24.536  30.101  1.00  0.00     0.049 A 
ATOM     43  H   UNL A   1      46.040  23.977  28.384  1.00  0.00     0.167 HD
ATOM     44  C   UNL A   1      46.147  26.685  29.749  1.00  0.00     0.074 A 
ATOM     45  C   UNL A   1      46.240  26.746  28.290  1.00  0.00     0.031 C 
ATOM     46  C   UNL A   1      45.582  25.746  30.566  1.00  0.00     0.037 A 
BRANCH  33  47
ATOM     47  C   UNL A   1      44.329  23.222  25.909  1.00  0.00     0.057 A 
ATOM     48  C   UNL A   1      44.363  21.845  25.614  1.00  0.00     0.134 A 
ATOM     49  C   UNL A   1      45.277  24.002  25.218  1.00  0.00     0.134 A 
ATOM     50  F   UNL A   1      43.496  20.994  26.184  1.00  0.00    -0.206 F 
ATOM     51  C   UNL A   1      45.345  21.276  24.795  1.00  0.00     0.040 A 
ATOM     52  C   UNL A   1      46.231  23.449  24.361  1.00  0.00     0.040 A 
ATOM     53  F   UNL A   1      45.399  25.322  25.399  1.00  0.00    -0.206 F 
ATOM     54  C   UNL A   1      46.296  22.078  24.181  1.00  0.00     0.006 A 
ENDBRANCH  33  47
BRANCH  34  55
ATOM     55  C   UNL A   1      46.346  31.254  28.410  1.00  0.00     0.057 A 
ATOM     56  C   UNL A   1      46.119  31.561  27.064  1.00  0.00     0.134 A 
ATOM     57  C   UNL A   1      47.002  32.248  29.165  1.00  0.00     0.134 A 
ATOM     58  F   UNL A   1      45.456  30.703  26.276  1.00  0.00    -0.206 F 
ATOM     59  C   UNL A   1      46.524  32.781  26.500  1.00  0.00     0.040 A 
ATOM     60  C   UNL A   1      47.419  33.463  28.613  1.00  0.00     0.040 A 
ATOM     61  F   UNL A   1      47.189  32.109  30.485  1.00  0.00    -0.206 F 
ATOM     62  C   UNL A   1      47.174  33.738  27.276  1.00  0.00     0.006 A 
ENDBRANCH  34  55
BRANCH  46  63
ATOM     63  C   UNL A   1      45.359  26.078  32.016  1.00  0.00     0.057 A 
ATOM     64  C   UNL A   1      44.139  26.554  32.520  1.00  0.00     0.134 A 
ATOM     65  C   UNL A   1      46.306  25.657  32.955  1.00  0.00     0.134 A 
ATOM     66  F   UNL A   1      43.133  26.878  31.701  1.00  0.00    -0.206 F 
ATOM     67  C   UNL A   1      43.879  26.624  33.893  1.00  0.00     0.040 A 
ATOM     68  C   UNL A   1      46.048  25.692  34.328  1.00  0.00     0.040 A 
ATOM     69  F   UNL A   1      47.468  25.125  32.547  1.00  0.00    -0.206 F 
ATOM     70  C   UNL A   1      44.832  26.179  34.802  1.00  0.00     0.006 A 
ENDBRANCH  46  63
ENDBRANCH  20  21
ENDBRANCH  13  15
ENDBRANCH  12  13
ENDBRANCH  11  12
ENDBRANCH  10  11
ENDBRANCH   9  10
ENDBRANCH   7   9
ENDBRANCH   6   7
BRANCH   5  71
ATOM     71  N   UNL A   1      33.659  25.658  23.835  1.00  0.00    -0.305 N 
ATOM     72  C   UNL A   1      33.462  25.965  22.413  1.00  0.00     0.154 C 
BRANCH  71  73
ATOM     73  C   UNL A   1      34.579  24.682  24.229  1.00  0.00     0.230 C 
ATOM     74  O   UNL A   1      35.258  24.773  25.257  1.00  0.00    -0.274 OA
BRANCH  73  75
ATOM     75  C   UNL A   1      34.797  23.383  23.420  1.00  0.00     0.076 C 
ATOM     76  C   UNL A   1      36.186  22.752  23.519  1.00  0.00     0.018 C 
BRANCH  75  77
ATOM     77  C   UNL A   1      33.664  22.355  23.550  1.00  0.00     0.013 C 
BRANCH  77  78
ATOM     78  C   UNL A   1      33.516  21.749  24.947  1.00  0.00     0.007 C 
BRANCH  78  79
ATOM     79  C   UNL A   1      32.482  20.627  25.103  1.00  0.00     0.064 C 
BRANCH  79  80
ATOM     80  C   UNL A   1      33.072  19.201  25.104  1.00  0.00     0.177 C 
ATOM     81  C   UNL A   1      32.473  18.308  24.013  1.00  0.00     0.075 C 
BRANCH  80  82
ATOM     82  N   UNL A   1      32.812  18.562  26.399  1.00  0.00    -0.355 N 
ATOM     83  H   UNL A   1      33.448  17.775  26.523  1.00  0.00     0.344 HD
ATOM     84  H   UNL A   1      31.848  18.228  26.426  1.00  0.00     0.344 HD
ATOM     85  H   UNL A   1      32.959  19.239  27.148  1.00  0.00     0.344 HD
ENDBRANCH  80  82
ENDBRANCH  79  80
ENDBRANCH  78  79
ENDBRANCH  77  78
ENDBRANCH  75  77
ENDBRANCH  73  75
ENDBRANCH  71  73
ENDBRANCH   5  71
TORSDOF 19
ENDMDL
MODEL 2
REMARK VINA RESULT:      -9.9      2.038      6.282
REMARK SMILES Cc1nsc(N(C)C(=O)[C@@H](C)CCC[C@H](C)[NH3+])c1C(=O)OCCOC(=O)c1ccc(-c2c3nc(c(-c4c(F)cccc4F)c4ccc([nH]4)c(-c4c(F)cccc4F)c4nc(c(-c5c(F)cccc5F)c5ccc2[nH]5)C=C4)C=C3)cc1
REMARK SMILES IDX 1 1 2 2 3 3 4 4 5 5 18 6 19 7 20 8 21 9 22 10 23 11 24 12
REMARK SMILES IDX 25 13 26 14 27 15 28 16 80 17 29 18 79 19 30 20 31 21 32 22
REMARK SMILES IDX 73 23 33 24 78 25 72 26 74 27 34 28 77 29 71 30 70 31 35 33
REMARK SMILES IDX 61 34 44 35 60 36 45 37 48 38 59 39 75 40 46 41 47 42 58 44
REMARK SMILES IDX 76 45 49 46 36 47 37 48 42 49 38 50 39 51 41 52 43 53 40 54
REMARK SMILES IDX 62 55 63 56 68 57 64 58 65 59 67 60 69 61 66 62 50 63 51 64
REMARK SMILES IDX 56 65 52 66 53 67 55 68 57 69 54 70 6 71 7 72 8 73 9 74
REMARK SMILES IDX 10 75 11 76 12 77 13 78 14 79 15 80 16 81 17 82
REMARK H PARENT 74 32 48 43 17 83 17 84 17 85
REMARK Flexibility Score: inf
ROOT
ATOM      1  C   UNL A   1      30.235  29.651  23.832  1.00  0.00     0.069 C 
ATOM      2  C   UNL A   1      30.666  28.222  23.890  1.00  0.00     0.068 A 
ATOM      3  N   UNL A   1      29.722  27.308  23.686  1.00  0.00    -0.195 NA
ATOM      4  S   UNL A   1      30.381  25.824  23.837  1.00  0.00    -0.017 S 
ATOM      5  C   UNL A   1      31.997  26.321  24.209  1.00  0.00     0.133 A 
ATOM      6  C   UNL A   1      32.019  27.721  24.111  1.00  0.00     0.117 A 
ENDROOT
BRANCH   6   7
ATOM      7  C   UNL A   1      33.171  28.615  24.215  1.00  0.00     0.343 C 
ATOM      8  O   UNL A   1      33.600  29.302  23.291  1.00  0.00    -0.246 OA
BRANCH   7   9
ATOM      9  O   UNL A   1      33.664  28.653  25.486  1.00  0.00    -0.458 OA
BRANCH   9  10
ATOM     10  C   UNL A   1      32.871  29.270  26.511  1.00  0.00     0.275 C 
BRANCH  10  11
ATOM     11  C   UNL A   1      33.518  30.599  26.881  1.00  0.00     0.275 C 
BRANCH  11  12
ATOM     12  O   UNL A   1      34.778  30.361  27.496  1.00  0.00    -0.458 OA
BRANCH  12  13
ATOM     13  C   UNL A   1      35.447  31.443  27.955  1.00  0.00     0.338 C 
ATOM     14  O   UNL A   1      35.294  32.609  27.638  1.00  0.00    -0.246 OA
BRANCH  13  15
ATOM     15  C   UNL A   1      36.551  30.962  28.796  1.00  0.00     0.060 A 
ATOM     16  C   UNL A   1      37.607  31.840  29.070  1.00  0.00     0.016 A 
ATOM     17  C   UNL A   1      36.614  29.596  29.105  1.00  0.00     0.016 A 
ATOM     18  C   UNL A   1      38.815  31.306  29.459  1.00  0.00     0.010 A 
ATOM     19  C   UNL A   1      37.819  29.061  29.452  1.00  0.00     0.010 A 
ATOM     20  C   UNL A   1      38.913  29.916  29.544  1.00  0.00    -0.014 A 
BRANCH  20  21
ATOM     21  C   UNL A   1      40.213  29.304  29.636  1.00  0.00     0.031 A 
ATOM     22  C   UNL A   1      40.736  29.159  31.016  1.00  0.00     0.074 A 
ATOM     23  C   UNL A   1      40.722  28.742  28.523  1.00  0.00     0.049 A 
ATOM     24  N   UNL A   1      41.837  29.621  31.504  1.00  0.00    -0.248 NA
ATOM     25  C   UNL A   1      39.856  28.542  32.027  1.00  0.00     0.031 C 
ATOM     26  C   UNL A   1      40.086  28.572  27.208  1.00  0.00     0.029 A 
ATOM     27  N   UNL A   1      41.887  28.065  28.385  1.00  0.00    -0.354 N 
ATOM     28  C   UNL A   1      41.884  29.191  32.830  1.00  0.00     0.074 A 
ATOM     29  C   UNL A   1      40.577  28.682  33.137  1.00  0.00     0.031 C 
ATOM     30  C   UNL A   1      40.764  27.641  26.499  1.00  0.00     0.029 A 
ATOM     31  C   UNL A   1      41.939  27.255  27.255  1.00  0.00     0.049 A 
ATOM     32  H   UNL A   1      42.630  28.138  29.026  1.00  0.00     0.167 HD
ATOM     33  C   UNL A   1      43.064  29.094  33.502  1.00  0.00     0.037 A 
ATOM     34  C   UNL A   1      42.834  26.251  27.086  1.00  0.00     0.037 A 
ATOM     35  C   UNL A   1      44.089  29.863  32.844  1.00  0.00     0.049 A 
ATOM     36  C   UNL A   1      43.954  26.520  28.039  1.00  0.00     0.074 A 
ATOM     37  C   UNL A   1      44.246  31.206  32.559  1.00  0.00     0.029 A 
ATOM     38  N   UNL A   1      44.960  29.197  32.014  1.00  0.00    -0.354 N 
ATOM     39  N   UNL A   1      44.740  27.563  27.947  1.00  0.00    -0.248 NA
ATOM     40  C   UNL A   1      43.848  25.940  29.375  1.00  0.00     0.031 C 
ATOM     41  C   UNL A   1      44.799  31.234  31.246  1.00  0.00     0.029 A 
ATOM     42  C   UNL A   1      45.018  29.914  30.846  1.00  0.00     0.049 A 
ATOM     43  H   UNL A   1      45.448  28.367  32.219  1.00  0.00     0.167 HD
ATOM     44  C   UNL A   1      44.914  28.006  29.253  1.00  0.00     0.074 A 
ATOM     45  C   UNL A   1      44.372  26.938  30.094  1.00  0.00     0.031 C 
ATOM     46  C   UNL A   1      45.197  29.310  29.546  1.00  0.00     0.037 A 
BRANCH  33  47
ATOM     47  C   UNL A   1      43.394  28.032  34.520  1.00  0.00     0.057 A 
ATOM     48  C   UNL A   1      43.683  28.430  35.839  1.00  0.00     0.134 A 
ATOM     49  C   UNL A   1      43.746  26.703  34.210  1.00  0.00     0.134 A 
ATOM     50  F   UNL A   1      43.374  29.663  36.272  1.00  0.00    -0.206 F 
ATOM     51  C   UNL A   1      44.380  27.613  36.736  1.00  0.00     0.040 A 
ATOM     52  C   UNL A   1      44.400  25.863  35.114  1.00  0.00     0.040 A 
ATOM     53  F   UNL A   1      43.566  26.170  32.997  1.00  0.00    -0.206 F 
ATOM     54  C   UNL A   1      44.759  26.331  36.367  1.00  0.00     0.006 A 
ENDBRANCH  33  47
BRANCH  34  55
ATOM     55  C   UNL A   1      42.553  24.923  26.490  1.00  0.00     0.057 A 
ATOM     56  C   UNL A   1      43.328  24.405  25.448  1.00  0.00     0.134 A 
ATOM     57  C   UNL A   1      41.641  24.026  27.083  1.00  0.00     0.134 A 
ATOM     58  F   UNL A   1      44.261  25.163  24.854  1.00  0.00    -0.206 F 
ATOM     59  C   UNL A   1      43.201  23.075  25.015  1.00  0.00     0.040 A 
ATOM     60  C   UNL A   1      41.498  22.703  26.656  1.00  0.00     0.040 A 
ATOM     61  F   UNL A   1      40.913  24.380  28.151  1.00  0.00    -0.206 F 
ATOM     62  C   UNL A   1      42.285  22.219  25.622  1.00  0.00     0.006 A 
ENDBRANCH  34  55
BRANCH  46  63
ATOM     63  C   UNL A   1      45.461  30.271  28.419  1.00  0.00     0.057 A 
ATOM     64  C   UNL A   1      44.463  31.059  27.826  1.00  0.00     0.134 A 
ATOM     65  C   UNL A   1      46.786  30.598  28.111  1.00  0.00     0.134 A 
ATOM     66  F   UNL A   1      43.174  30.893  28.142  1.00  0.00    -0.206 F 
ATOM     67  C   UNL A   1      44.766  32.111  26.955  1.00  0.00     0.040 A 
ATOM     68  C   UNL A   1      47.104  31.666  27.268  1.00  0.00     0.040 A 
ATOM     69  F   UNL A   1      47.795  29.934  28.694  1.00  0.00    -0.206 F 
ATOM     70  C   UNL A   1      46.093  32.426  26.685  1.00  0.00     0.006 A 
ENDBRANCH  46  63
ENDBRANCH  20  21
ENDBRANCH  13  15
ENDBRANCH  12  13
ENDBRANCH  11  12
ENDBRANCH  10  11
ENDBRANCH   9  10
ENDBRANCH   7   9
ENDBRANCH   6   7
BRANCH   5  71
ATOM     71  N   UNL A   1      32.907  25.270  24.567  1.00  0.00    -0.305 N 
ATOM     72  C   UNL A   1      33.587  25.284  25.869  1.00  0.00     0.154 C 
BRANCH  71  73
ATOM     73  C   UNL A   1      33.288  24.358  23.578  1.00  0.00     0.230 C 
ATOM     74  O   UNL A   1      34.064  24.645  22.661  1.00  0.00    -0.274 OA
BRANCH  73  75
ATOM     75  C   UNL A   1      32.791  22.894  23.574  1.00  0.00     0.076 C 
ATOM     76  C   UNL A   1      32.551  22.267  22.200  1.00  0.00     0.018 C 
BRANCH  75  77
ATOM     77  C   UNL A   1      33.548  21.963  24.531  1.00  0.00     0.013 C 
BRANCH  77  78
ATOM     78  C   UNL A   1      33.081  20.506  24.499  1.00  0.00     0.007 C 
BRANCH  78  79
ATOM     79  C   UNL A   1      34.163  19.433  24.675  1.00  0.00     0.064 C 
BRANCH  79  80
ATOM     80  C   UNL A   1      33.627  17.995  24.826  1.00  0.00     0.177 C 
ATOM     81  C   UNL A   1      32.642  17.607  23.717  1.00  0.00     0.075 C 
BRANCH  80  82
ATOM     82  N   UNL A   1      32.930  17.861  26.110  1.00  0.00    -0.355 N 
ATOM     83  H   UNL A   1      32.705  18.787  26.472  1.00  0.00     0.344 HD
ATOM     84  H   UNL A   1      33.531  17.373  26.774  1.00  0.00     0.344 HD
ATOM     85  H   UNL A   1      32.069  17.330  25.976  1.00  0.00     0.344 HD
ENDBRANCH  80  82
ENDBRANCH  79  80
ENDBRANCH  78  79
ENDBRANCH  77  78
ENDBRANCH  75  77
ENDBRANCH  73  75
ENDBRANCH  71  73
ENDBRANCH   5  71
TORSDOF 19
ENDMDL
MODEL 3
REMARK VINA RESULT:      -9.7      3.455      6.913
REMARK SMILES Cc1nsc(N(C)C(=O)[C@@H](C)CCC[C@H](C)[NH3+])c1C(=O)OCCOC(=O)c1ccc(-c2c3nc(c(-c4c(F)cccc4F)c4ccc([nH]4)c(-c4c(F)cccc4F)c4nc(c(-c5c(F)cccc5F)c5ccc2[nH]5)C=C4)C=C3)cc1
REMARK SMILES IDX 1 1 2 2 3 3 4 4 5 5 18 6 19 7 20 8 21 9 22 10 23 11 24 12
REMARK SMILES IDX 25 13 26 14 27 15 28 16 80 17 29 18 79 19 30 20 31 21 32 22
REMARK SMILES IDX 73 23 33 24 78 25 72 26 74 27 34 28 77 29 71 30 70 31 35 33
REMARK SMILES IDX 61 34 44 35 60 36 45 37 48 38 59 39 75 40 46 41 47 42 58 44
REMARK SMILES IDX 76 45 49 46 36 47 37 48 42 49 38 50 39 51 41 52 43 53 40 54
REMARK SMILES IDX 62 55 63 56 68 57 64 58 65 59 67 60 69 61 66 62 50 63 51 64
REMARK SMILES IDX 56 65 52 66 53 67 55 68 57 69 54 70 6 71 7 72 8 73 9 74
REMARK SMILES IDX 10 75 11 76 12 77 13 78 14 79 15 80 16 81 17 82
REMARK H PARENT 74 32 48 43 17 83 17 84 17 85
REMARK Flexibility Score: inf
ROOT
ATOM      1  C   UNL A   1      34.056  27.449  24.848  1.00  0.00     0.069 C 
ATOM      2  C   UNL A   1      33.249  26.297  25.351  1.00  0.00     0.068 A 
ATOM      3  N   UNL A   1      32.085  26.590  25.922  1.00  0.00    -0.195 NA
ATOM      4  S   UNL A   1      31.387  25.210  26.441  1.00  0.00    -0.017 S 
ATOM      5  C   UNL A   1      32.631  24.115  25.940  1.00  0.00     0.133 A 
ATOM      6  C   UNL A   1      33.585  24.879  25.250  1.00  0.00     0.117 A 
ENDROOT
BRANCH   6   7
ATOM      7  C   UNL A   1      34.766  24.411  24.529  1.00  0.00     0.343 C 
ATOM      8  O   UNL A   1      34.821  24.265  23.309  1.00  0.00    -0.246 OA
BRANCH   7   9
ATOM      9  O   UNL A   1      35.828  24.231  25.366  1.00  0.00    -0.458 OA
BRANCH   9  10
ATOM     10  C   UNL A   1      36.250  22.891  25.660  1.00  0.00     0.275 C 
BRANCH  10  11
ATOM     11  C   UNL A   1      37.763  22.817  25.486  1.00  0.00     0.275 C 
BRANCH  11  12
ATOM     12  O   UNL A   1      38.394  23.629  26.468  1.00  0.00    -0.458 OA
BRANCH  12  13
ATOM     13  C   UNL A   1      39.629  23.249  26.872  1.00  0.00     0.338 C 
ATOM     14  O   UNL A   1      40.021  22.124  27.123  1.00  0.00    -0.246 OA
BRANCH  13  15
ATOM     15  C   UNL A   1      40.404  24.466  27.143  1.00  0.00     0.060 A 
ATOM     16  C   UNL A   1      41.298  24.456  28.222  1.00  0.00     0.016 A 
ATOM     17  C   UNL A   1      40.066  25.644  26.463  1.00  0.00     0.016 A 
ATOM     18  C   UNL A   1      41.688  25.663  28.757  1.00  0.00     0.010 A 
ATOM     19  C   UNL A   1      40.419  26.840  27.014  1.00  0.00     0.010 A 
ATOM     20  C   UNL A   1      41.156  26.824  28.195  1.00  0.00    -0.014 A 
BRANCH  20  21
ATOM     21  C   UNL A   1      41.280  28.072  28.902  1.00  0.00     0.031 A 
ATOM     22  C   UNL A   1      42.446  28.899  28.507  1.00  0.00     0.074 A 
ATOM     23  C   UNL A   1      40.246  28.461  29.674  1.00  0.00     0.049 A 
ATOM     24  N   UNL A   1      43.402  29.337  29.253  1.00  0.00    -0.248 NA
ATOM     25  C   UNL A   1      42.655  29.154  27.069  1.00  0.00     0.031 C 
ATOM     26  C   UNL A   1      38.929  27.826  29.831  1.00  0.00     0.029 A 
ATOM     27  N   UNL A   1      40.113  29.611  30.378  1.00  0.00    -0.354 N 
ATOM     28  C   UNL A   1      44.232  30.086  28.420  1.00  0.00     0.074 A 
ATOM     29  C   UNL A   1      43.819  29.800  27.074  1.00  0.00     0.031 C 
ATOM     30  C   UNL A   1      38.066  28.713  30.376  1.00  0.00     0.029 A 
ATOM     31  C   UNL A   1      38.799  29.915  30.719  1.00  0.00     0.049 A 
ATOM     32  H   UNL A   1      40.876  30.180  30.626  1.00  0.00     0.167 HD
ATOM     33  C   UNL A   1      45.056  31.047  28.919  1.00  0.00     0.037 A 
ATOM     34  C   UNL A   1      38.388  31.146  31.113  1.00  0.00     0.037 A 
ATOM     35  C   UNL A   1      45.250  30.867  30.334  1.00  0.00     0.049 A 
ATOM     36  C   UNL A   1      39.613  31.880  31.552  1.00  0.00     0.074 A 
ATOM     37  C   UNL A   1      45.793  29.860  31.108  1.00  0.00     0.029 A 
ATOM     38  N   UNL A   1      44.490  31.631  31.189  1.00  0.00    -0.354 N 
ATOM     39  N   UNL A   1      40.331  31.522  32.588  1.00  0.00    -0.248 NA
ATOM     40  C   UNL A   1      40.326  32.655  30.541  1.00  0.00     0.031 C 
ATOM     41  C   UNL A   1      44.932  29.768  32.238  1.00  0.00     0.029 A 
ATOM     42  C   UNL A   1      43.970  30.774  32.126  1.00  0.00     0.049 A 
ATOM     43  H   UNL A   1      44.348  32.603  31.140  1.00  0.00     0.167 HD
ATOM     44  C   UNL A   1      41.653  31.680  32.186  1.00  0.00     0.074 A 
ATOM     45  C   UNL A   1      41.585  32.422  30.927  1.00  0.00     0.031 C 
ATOM     46  C   UNL A   1      42.669  30.946  32.732  1.00  0.00     0.037 A 
BRANCH  33  47
ATOM     47  C   UNL A   1      45.386  32.347  28.227  1.00  0.00     0.057 A 
ATOM     48  C   UNL A   1      46.733  32.625  27.925  1.00  0.00     0.134 A 
ATOM     49  C   UNL A   1      44.515  33.450  28.132  1.00  0.00     0.134 A 
ATOM     50  F   UNL A   1      47.662  31.657  27.952  1.00  0.00    -0.206 F 
ATOM     51  C   UNL A   1      47.194  33.922  27.673  1.00  0.00     0.040 A 
ATOM     52  C   UNL A   1      44.958  34.741  27.834  1.00  0.00     0.040 A 
ATOM     53  F   UNL A   1      43.209  33.369  28.410  1.00  0.00    -0.206 F 
ATOM     54  C   UNL A   1      46.308  34.989  27.647  1.00  0.00     0.006 A 
ENDBRANCH  33  47
BRANCH  34  55
ATOM     55  C   UNL A   1      37.120  31.807  30.722  1.00  0.00     0.057 A 
ATOM     56  C   UNL A   1      36.843  32.142  29.393  1.00  0.00     0.134 A 
ATOM     57  C   UNL A   1      36.043  31.930  31.624  1.00  0.00     0.134 A 
ATOM     58  F   UNL A   1      37.786  32.009  28.450  1.00  0.00    -0.206 F 
ATOM     59  C   UNL A   1      35.573  32.579  28.984  1.00  0.00     0.040 A 
ATOM     60  C   UNL A   1      34.776  32.372  31.233  1.00  0.00     0.040 A 
ATOM     61  F   UNL A   1      36.161  31.548  32.904  1.00  0.00    -0.206 F 
ATOM     62  C   UNL A   1      34.534  32.693  29.905  1.00  0.00     0.006 A 
ENDBRANCH  34  55
BRANCH  46  63
ATOM     63  C   UNL A   1      42.373  30.037  33.893  1.00  0.00     0.057 A 
ATOM     64  C   UNL A   1      42.029  28.685  33.747  1.00  0.00     0.134 A 
ATOM     65  C   UNL A   1      42.700  30.467  35.183  1.00  0.00     0.134 A 
ATOM     66  F   UNL A   1      41.805  28.156  32.539  1.00  0.00    -0.206 F 
ATOM     67  C   UNL A   1      41.995  27.805  34.834  1.00  0.00     0.040 A 
ATOM     68  C   UNL A   1      42.701  29.592  36.273  1.00  0.00     0.040 A 
ATOM     69  F   UNL A   1      43.105  31.729  35.389  1.00  0.00    -0.206 F 
ATOM     70  C   UNL A   1      42.346  28.257  36.101  1.00  0.00     0.006 A 
ENDBRANCH  46  63
ENDBRANCH  20  21
ENDBRANCH  13  15
ENDBRANCH  12  13
ENDBRANCH  11  12
ENDBRANCH  10  11
ENDBRANCH   9  10
ENDBRANCH   7   9
ENDBRANCH   6   7
BRANCH   5  71
ATOM     71  N   UNL A   1      32.465  22.750  26.351  1.00  0.00    -0.305 N 
ATOM     72  C   UNL A   1      33.227  22.215  27.486  1.00  0.00     0.154 C 
BRANCH  71  73
ATOM     73  C   UNL A   1      31.728  21.894  25.526  1.00  0.00     0.230 C 
ATOM     74  O   UNL A   1      30.548  21.601  25.744  1.00  0.00    -0.274 OA
BRANCH  73  75
ATOM     75  C   UNL A   1      32.327  21.268  24.246  1.00  0.00     0.076 C 
ATOM     76  C   UNL A   1      32.130  22.060  22.953  1.00  0.00     0.018 C 
BRANCH  75  77
ATOM     77  C   UNL A   1      33.758  20.737  24.407  1.00  0.00     0.013 C 
BRANCH  77  78
ATOM     78  C   UNL A   1      33.844  19.271  24.836  1.00  0.00     0.007 C 
BRANCH  78  79
ATOM     79  C   UNL A   1      32.622  18.394  24.537  1.00  0.00     0.064 C 
BRANCH  79  80
ATOM     80  C   UNL A   1      32.954  16.945  24.123  1.00  0.00     0.177 C 
ATOM     81  C   UNL A   1      33.417  16.080  25.301  1.00  0.00     0.075 C 
BRANCH  80  82
ATOM     82  N   UNL A   1      34.027  16.952  23.124  1.00  0.00    -0.355 N 
ATOM     83  H   UNL A   1      33.658  17.280  22.231  1.00  0.00     0.344 HD
ATOM     84  H   UNL A   1      34.396  16.007  23.013  1.00  0.00     0.344 HD
ATOM     85  H   UNL A   1      34.775  17.574  23.432  1.00  0.00     0.344 HD
ENDBRANCH  80  82
ENDBRANCH  79  80
ENDBRANCH  78  79
ENDBRANCH  77  78
ENDBRANCH  75  77
ENDBRANCH  73  75
ENDBRANCH  71  73
ENDBRANCH   5  71
TORSDOF 19
ENDMDL
