MODEL 1
REMARK VINA RESULT:     -13.7      0.000      0.000
REMARK SMILES O=C(CCc1cn(-c2ccc(Br)cc2)nc1-c1ccccc1)OCCOC(=O)c1ccc(-c2c3nc(c(-c4c(F)cccc4F)c4ccc([nH]4)c(-c4c(F)cccc4F)c4nc(c(-c5c(F)cccc5F)c5ccc2[nH]5)C=C4)C=C3)cc1
REMARK SMILES IDX 24 1 23 2 2 3 1 4 3 5 4 6 5 7 6 8 16 9 7 10 15 11 17 12
REMARK SMILES IDX 18 13 22 14 19 15 21 16 20 17 8 18 9 19 14 20 10 21 13 22
REMARK SMILES IDX 11 23 12 24 25 25 26 26 27 27 28 28 29 29 30 30 82 31 31 32
REMARK SMILES IDX 81 33 32 34 33 35 34 36 75 37 35 38 80 39 74 40 76 41 36 42
REMARK SMILES IDX 79 43 73 44 72 45 37 47 63 48 46 49 62 50 47 51 50 52 61 53
REMARK SMILES IDX 77 54 48 55 49 56 60 58 78 59 51 60 38 61 39 62 44 63 40 64
REMARK SMILES IDX 41 65 43 66 45 67 42 68 64 69 65 70 70 71 66 72 67 73 69 74
REMARK SMILES IDX 71 75 68 76 52 77 53 78 58 79 54 80 55 81 57 82 59 83 56 84
REMARK H PARENT 76 46 50 57
REMARK Flexibility Score: inf
ROOT
ATOM      1  C   UNL A   1      32.622  29.863  27.292  1.00  0.00     0.274 C 
ENDROOT
BRANCH   1   2
ATOM      2  O   UNL A   1      32.011  28.380  26.870  1.00  0.00    -0.462 OA
BRANCH   2   3
ATOM      3  C   UNL A   1      31.829  27.043  26.604  1.00  0.00     0.306 C 
ATOM      4  O   UNL A   1      30.736  26.557  26.933  1.00  0.00    -0.252 OA
BRANCH   3   5
ATOM      5  C   UNL A   1      32.853  25.967  25.961  1.00  0.00     0.127 C 
BRANCH   5   6
ATOM      6  C   UNL A   1      33.885  26.401  24.912  1.00  0.00     0.051 C 
BRANCH   6   7
ATOM      7  C   UNL A   1      33.723  25.458  23.828  1.00  0.00    -0.001 A 
ATOM      8  C   UNL A   1      34.463  24.280  23.771  1.00  0.00     0.119 A 
ATOM      9  C   UNL A   1      32.517  25.319  23.076  1.00  0.00     0.096 A 
ATOM     10  N   UNL A   1      33.564  23.344  23.340  1.00  0.00    -0.240 N 
ATOM     11  N   UNL A   1      32.550  24.007  22.724  1.00  0.00    -0.168 NA
BRANCH   9  12
ATOM     12  C   UNL A   1      31.165  26.263  23.032  1.00  0.00     0.002 A 
ATOM     13  C   UNL A   1      31.102  27.616  22.624  1.00  0.00     0.010 A 
ATOM     14  C   UNL A   1      29.936  25.940  23.623  1.00  0.00     0.010 A 
ATOM     15  C   UNL A   1      29.973  28.479  22.709  1.00  0.00     0.001 A 
ATOM     16  C   UNL A   1      28.796  26.770  23.774  1.00  0.00     0.001 A 
ATOM     17  C   UNL A   1      28.806  28.053  23.293  1.00  0.00     0.000 A 
ENDBRANCH   9  12
BRANCH  10  18
ATOM     18  C   UNL A   1      33.519  21.929  23.702  1.00  0.00     0.065 A 
ATOM     19  C   UNL A   1      34.490  21.368  24.561  1.00  0.00     0.029 A 
ATOM     20  C   UNL A   1      32.477  21.082  23.291  1.00  0.00     0.029 A 
ATOM     21  C   UNL A   1      34.391  20.033  25.014  1.00  0.00     0.018 A 
ATOM     22  C   UNL A   1      32.369  19.751  23.751  1.00  0.00     0.018 A 
ATOM     23  C   UNL A   1      33.325  19.234  24.616  1.00  0.00     0.018 A 
ATOM     24  Br  UNL A   1      33.182  17.450  25.238  1.00  0.00    -0.051 Br
ENDBRANCH  10  18
ENDBRANCH   6   7
ENDBRANCH   5   6
ENDBRANCH   3   5
ENDBRANCH   2   3
ENDBRANCH   1   2
BRANCH   1  25
ATOM     25  C   UNL A   1      34.170  30.642  27.299  1.00  0.00     0.275 C 
BRANCH  25  26
ATOM     26  O   UNL A   1      35.551  30.030  27.468  1.00  0.00    -0.458 OA
BRANCH  26  27
ATOM     27  C   UNL A   1      36.476  30.257  28.492  1.00  0.00     0.338 C 
ATOM     28  O   UNL A   1      36.346  30.969  29.454  1.00  0.00    -0.246 OA
BRANCH  27  29
ATOM     29  C   UNL A   1      37.699  29.345  28.399  1.00  0.00     0.060 A 
ATOM     30  C   UNL A   1      37.996  28.193  29.168  1.00  0.00     0.016 A 
ATOM     31  C   UNL A   1      38.615  29.707  27.422  1.00  0.00     0.016 A 
ATOM     32  C   UNL A   1      39.292  27.657  29.216  1.00  0.00     0.010 A 
ATOM     33  C   UNL A   1      39.857  29.082  27.361  1.00  0.00     0.010 A 
ATOM     34  C   UNL A   1      40.244  28.140  28.330  1.00  0.00    -0.014 A 
BRANCH  34  35
ATOM     35  C   UNL A   1      41.618  27.598  28.293  1.00  0.00     0.031 A 
ATOM     36  C   UNL A   1      42.483  27.805  29.510  1.00  0.00     0.074 A 
ATOM     37  C   UNL A   1      41.896  26.649  27.368  1.00  0.00     0.049 A 
ATOM     38  N   UNL A   1      43.779  27.860  29.613  1.00  0.00    -0.248 NA
ATOM     39  C   UNL A   1      41.791  27.976  30.802  1.00  0.00     0.031 C 
ATOM     40  C   UNL A   1      41.002  26.180  26.298  1.00  0.00     0.029 A 
ATOM     41  N   UNL A   1      42.917  25.745  27.323  1.00  0.00    -0.354 N 
ATOM     42  C   UNL A   1      44.063  27.906  30.983  1.00  0.00     0.074 A 
ATOM     43  C   UNL A   1      42.804  28.066  31.660  1.00  0.00     0.031 C 
ATOM     44  C   UNL A   1      41.364  24.934  25.932  1.00  0.00     0.029 A 
ATOM     45  C   UNL A   1      42.578  24.579  26.642  1.00  0.00     0.049 A 
ATOM     46  H   UNL A   1      43.800  25.900  27.729  1.00  0.00     0.167 HD
ATOM     47  C   UNL A   1      45.289  27.650  31.519  1.00  0.00     0.037 A 
ATOM     48  C   UNL A   1      43.177  23.367  26.736  1.00  0.00     0.037 A 
ATOM     49  C   UNL A   1      46.353  27.826  30.579  1.00  0.00     0.049 A 
ATOM     50  C   UNL A   1      44.502  23.556  27.366  1.00  0.00     0.074 A 
ATOM     51  C   UNL A   1      46.851  28.899  29.866  1.00  0.00     0.029 A 
ATOM     52  N   UNL A   1      46.943  26.718  30.030  1.00  0.00    -0.354 N 
ATOM     53  N   UNL A   1      45.502  24.179  26.810  1.00  0.00    -0.248 NA
ATOM     54  C   UNL A   1      44.599  23.379  28.807  1.00  0.00     0.031 C 
ATOM     55  C   UNL A   1      47.297  28.346  28.632  1.00  0.00     0.029 A 
ATOM     56  C   UNL A   1      47.065  26.972  28.688  1.00  0.00     0.049 A 
ATOM     57  H   UNL A   1      47.222  25.902  30.504  1.00  0.00     0.167 HD
ATOM     58  C   UNL A   1      46.140  24.827  27.857  1.00  0.00     0.074 A 
ATOM     59  C   UNL A   1      45.614  24.205  29.067  1.00  0.00     0.031 C 
ATOM     60  C   UNL A   1      46.823  25.991  27.656  1.00  0.00     0.037 A 
BRANCH  47  61
ATOM     61  C   UNL A   1      45.491  26.990  32.861  1.00  0.00     0.057 A 
ATOM     62  C   UNL A   1      45.084  25.663  33.081  1.00  0.00     0.134 A 
ATOM     63  C   UNL A   1      45.843  27.709  34.022  1.00  0.00     0.134 A 
ATOM     64  F   UNL A   1      44.682  24.889  32.063  1.00  0.00    -0.206 F 
ATOM     65  C   UNL A   1      45.014  25.102  34.365  1.00  0.00     0.040 A 
ATOM     66  C   UNL A   1      45.823  27.147  35.301  1.00  0.00     0.040 A 
ATOM     67  F   UNL A   1      46.133  29.017  33.981  1.00  0.00    -0.206 F 
ATOM     68  C   UNL A   1      45.387  25.843  35.480  1.00  0.00     0.006 A 
ENDBRANCH  47  61
BRANCH  48  69
ATOM     69  C   UNL A   1      42.547  22.036  26.583  1.00  0.00     0.057 A 
ATOM     70  C   UNL A   1      43.127  21.041  25.785  1.00  0.00     0.134 A 
ATOM     71  C   UNL A   1      41.470  21.628  27.393  1.00  0.00     0.134 A 
ATOM     72  F   UNL A   1      44.193  21.319  25.022  1.00  0.00    -0.206 F 
ATOM     73  C   UNL A   1      42.656  19.720  25.786  1.00  0.00     0.040 A 
ATOM     74  C   UNL A   1      40.981  20.319  27.392  1.00  0.00     0.040 A 
ATOM     75  F   UNL A   1      40.904  22.471  28.269  1.00  0.00    -0.206 F 
ATOM     76  C   UNL A   1      41.581  19.356  26.592  1.00  0.00     0.006 A 
ENDBRANCH  48  69
BRANCH  60  77
ATOM     77  C   UNL A   1      47.062  26.432  26.238  1.00  0.00     0.057 A 
ATOM     78  C   UNL A   1      46.190  27.277  25.534  1.00  0.00     0.134 A 
ATOM     79  C   UNL A   1      48.279  26.132  25.620  1.00  0.00     0.134 A 
ATOM     80  F   UNL A   1      45.058  27.720  26.090  1.00  0.00    -0.206 F 
ATOM     81  C   UNL A   1      46.487  27.757  24.257  1.00  0.00     0.040 A 
ATOM     82  C   UNL A   1      48.606  26.635  24.357  1.00  0.00     0.040 A 
ATOM     83  F   UNL A   1      49.197  25.389  26.259  1.00  0.00    -0.206 F 
ATOM     84  C   UNL A   1      47.704  27.439  23.666  1.00  0.00     0.006 A 
ENDBRANCH  60  77
ENDBRANCH  34  35
ENDBRANCH  27  29
ENDBRANCH  26  27
ENDBRANCH  25  26
ENDBRANCH   1  25
TORSDOF 15
ENDMDL
MODEL 2
REMARK VINA RESULT:     -13.5      2.639      7.105
REMARK SMILES O=C(CCc1cn(-c2ccc(Br)cc2)nc1-c1ccccc1)OCCOC(=O)c1ccc(-c2c3nc(c(-c4c(F)cccc4F)c4ccc([nH]4)c(-c4c(F)cccc4F)c4nc(c(-c5c(F)cccc5F)c5ccc2[nH]5)C=C4)C=C3)cc1
REMARK SMILES IDX 24 1 23 2 2 3 1 4 3 5 4 6 5 7 6 8 16 9 7 10 15 11 17 12
REMARK SMILES IDX 18 13 22 14 19 15 21 16 20 17 8 18 9 19 14 20 10 21 13 22
REMARK SMILES IDX 11 23 12 24 25 25 26 26 27 27 28 28 29 29 30 30 82 31 31 32
REMARK SMILES IDX 81 33 32 34 33 35 34 36 75 37 35 38 80 39 74 40 76 41 36 42
REMARK SMILES IDX 79 43 73 44 72 45 37 47 63 48 46 49 62 50 47 51 50 52 61 53
REMARK SMILES IDX 77 54 48 55 49 56 60 58 78 59 51 60 38 61 39 62 44 63 40 64
REMARK SMILES IDX 41 65 43 66 45 67 42 68 64 69 65 70 70 71 66 72 67 73 69 74
REMARK SMILES IDX 71 75 68 76 52 77 53 78 58 79 54 80 55 81 57 82 59 83 56 84
REMARK H PARENT 76 46 50 57
REMARK Flexibility Score: inf
ROOT
ATOM      1  C   UNL A   1      32.134  27.165  26.675  1.00  0.00     0.274 C 
ENDROOT
BRANCH   1   2
ATOM      2  O   UNL A   1      32.123  25.508  26.726  1.00  0.00    -0.462 OA
BRANCH   2   3
ATOM      3  C   UNL A   1      31.766  24.181  26.784  1.00  0.00     0.306 C 
ATOM      4  O   UNL A   1      30.586  23.938  27.081  1.00  0.00    -0.252 OA
BRANCH   3   5
ATOM      5  C   UNL A   1      32.670  22.856  26.573  1.00  0.00     0.127 C 
BRANCH   5   6
ATOM      6  C   UNL A   1      32.292  21.813  25.512  1.00  0.00     0.051 C 
BRANCH   6   7
ATOM      7  C   UNL A   1      32.415  22.511  24.253  1.00  0.00    -0.001 A 
ATOM      8  C   UNL A   1      31.322  23.130  23.653  1.00  0.00     0.119 A 
ATOM      9  C   UNL A   1      33.630  23.107  23.796  1.00  0.00     0.096 A 
ATOM     10  N   UNL A   1      31.830  24.302  23.166  1.00  0.00    -0.240 N 
ATOM     11  N   UNL A   1      33.174  24.144  23.045  1.00  0.00    -0.168 NA
BRANCH   9  12
ATOM     12  C   UNL A   1      35.171  22.977  24.369  1.00  0.00     0.002 A 
ATOM     13  C   UNL A   1      35.937  21.790  24.449  1.00  0.00     0.010 A 
ATOM     14  C   UNL A   1      35.852  23.971  25.085  1.00  0.00     0.010 A 
ATOM     15  C   UNL A   1      37.212  21.640  25.064  1.00  0.00     0.001 A 
ATOM     16  C   UNL A   1      37.099  23.865  25.752  1.00  0.00     0.001 A 
ATOM     17  C   UNL A   1      37.800  22.688  25.726  1.00  0.00     0.000 A 
ENDBRANCH   9  12
BRANCH  10  18
ATOM     18  C   UNL A   1      31.141  25.586  23.056  1.00  0.00     0.065 A 
ATOM     19  C   UNL A   1      29.944  25.831  23.765  1.00  0.00     0.029 A 
ATOM     20  C   UNL A   1      31.667  26.660  22.320  1.00  0.00     0.029 A 
ATOM     21  C   UNL A   1      29.333  27.105  23.764  1.00  0.00     0.018 A 
ATOM     22  C   UNL A   1      31.066  27.938  22.326  1.00  0.00     0.018 A 
ATOM     23  C   UNL A   1      29.903  28.156  23.053  1.00  0.00     0.018 A 
ATOM     24  Br  UNL A   1      29.094  29.868  23.065  1.00  0.00    -0.051 Br
ENDBRANCH  10  18
ENDBRANCH   6   7
ENDBRANCH   5   6
ENDBRANCH   3   5
ENDBRANCH   2   3
ENDBRANCH   1   2
BRANCH   1  25
ATOM     25  C   UNL A   1      33.321  28.422  26.555  1.00  0.00     0.275 C 
BRANCH  25  26
ATOM     26  O   UNL A   1      34.669  28.538  27.248  1.00  0.00    -0.458 OA
BRANCH  26  27
ATOM     27  C   UNL A   1      35.280  29.687  27.760  1.00  0.00     0.338 C 
ATOM     28  O   UNL A   1      34.745  30.706  28.116  1.00  0.00    -0.246 OA
BRANCH  27  29
ATOM     29  C   UNL A   1      36.774  29.499  28.021  1.00  0.00     0.060 A 
ATOM     30  C   UNL A   1      37.862  29.842  27.182  1.00  0.00     0.016 A 
ATOM     31  C   UNL A   1      37.078  28.929  29.249  1.00  0.00     0.016 A 
ATOM     32  C   UNL A   1      39.144  29.310  27.389  1.00  0.00     0.010 A 
ATOM     33  C   UNL A   1      38.379  28.526  29.531  1.00  0.00     0.010 A 
ATOM     34  C   UNL A   1      39.391  28.606  28.558  1.00  0.00    -0.014 A 
BRANCH  34  35
ATOM     35  C   UNL A   1      40.725  28.051  28.865  1.00  0.00     0.031 A 
ATOM     36  C   UNL A   1      41.075  26.708  28.277  1.00  0.00     0.074 A 
ATOM     37  C   UNL A   1      41.673  28.904  29.319  1.00  0.00     0.049 A 
ATOM     38  N   UNL A   1      41.910  25.804  28.699  1.00  0.00    -0.248 NA
ATOM     39  C   UNL A   1      40.382  26.322  27.032  1.00  0.00     0.031 C 
ATOM     40  C   UNL A   1      41.483  30.322  29.662  1.00  0.00     0.029 A 
ATOM     41  N   UNL A   1      43.031  28.768  29.344  1.00  0.00    -0.354 N 
ATOM     42  C   UNL A   1      41.969  24.826  27.698  1.00  0.00     0.074 A 
ATOM     43  C   UNL A   1      40.945  25.151  26.743  1.00  0.00     0.031 C 
ATOM     44  C   UNL A   1      42.664  30.965  29.558  1.00  0.00     0.029 A 
ATOM     45  C   UNL A   1      43.698  29.988  29.274  1.00  0.00     0.049 A 
ATOM     46  H   UNL A   1      43.490  27.900  29.406  1.00  0.00     0.167 HD
ATOM     47  C   UNL A   1      42.952  23.888  27.603  1.00  0.00     0.037 A 
ATOM     48  C   UNL A   1      44.981  30.203  28.895  1.00  0.00     0.037 A 
ATOM     49  C   UNL A   1      43.619  23.655  28.848  1.00  0.00     0.049 A 
ATOM     50  C   UNL A   1      45.701  28.912  28.953  1.00  0.00     0.074 A 
ATOM     51  C   UNL A   1      43.231  23.173  30.083  1.00  0.00     0.029 A 
ATOM     52  N   UNL A   1      44.868  24.185  29.040  1.00  0.00    -0.354 N 
ATOM     53  N   UNL A   1      45.971  28.265  30.051  1.00  0.00    -0.248 NA
ATOM     54  C   UNL A   1      45.790  28.131  27.729  1.00  0.00     0.031 C 
ATOM     55  C   UNL A   1      44.029  23.885  31.023  1.00  0.00     0.029 A 
ATOM     56  C   UNL A   1      44.866  24.731  30.297  1.00  0.00     0.049 A 
ATOM     57  H   UNL A   1      45.617  24.175  28.401  1.00  0.00     0.167 HD
ATOM     58  C   UNL A   1      45.858  26.926  29.708  1.00  0.00     0.074 A 
ATOM     59  C   UNL A   1      45.862  26.904  28.250  1.00  0.00     0.031 C 
ATOM     60  C   UNL A   1      45.491  25.989  30.630  1.00  0.00     0.037 A 
BRANCH  47  61
ATOM     61  C   UNL A   1      43.471  23.353  26.291  1.00  0.00     0.057 A 
ATOM     62  C   UNL A   1      43.420  21.979  26.001  1.00  0.00     0.134 A 
ATOM     63  C   UNL A   1      44.257  24.123  25.409  1.00  0.00     0.134 A 
ATOM     64  F   UNL A   1      42.743  21.134  26.792  1.00  0.00    -0.206 F 
ATOM     65  C   UNL A   1      44.116  21.412  24.923  1.00  0.00     0.040 A 
ATOM     66  C   UNL A   1      44.916  23.577  24.303  1.00  0.00     0.040 A 
ATOM     67  F   UNL A   1      44.497  25.423  25.629  1.00  0.00    -0.206 F 
ATOM     68  C   UNL A   1      44.865  22.213  24.068  1.00  0.00     0.006 A 
ENDBRANCH  47  61
BRANCH  48  69
ATOM     69  C   UNL A   1      45.532  31.396  28.212  1.00  0.00     0.057 A 
ATOM     70  C   UNL A   1      46.730  31.989  28.629  1.00  0.00     0.134 A 
ATOM     71  C   UNL A   1      45.008  31.856  26.988  1.00  0.00     0.134 A 
ATOM     72  F   UNL A   1      47.335  31.580  29.752  1.00  0.00    -0.206 F 
ATOM     73  C   UNL A   1      47.365  32.988  27.878  1.00  0.00     0.040 A 
ATOM     74  C   UNL A   1      45.623  32.861  26.237  1.00  0.00     0.040 A 
ATOM     75  F   UNL A   1      43.921  31.290  26.443  1.00  0.00    -0.206 F 
ATOM     76  C   UNL A   1      46.812  33.426  26.678  1.00  0.00     0.006 A 
ENDBRANCH  48  69
BRANCH  60  77
ATOM     77  C   UNL A   1      45.438  26.406  32.075  1.00  0.00     0.057 A 
ATOM     78  C   UNL A   1      44.293  26.942  32.683  1.00  0.00     0.134 A 
ATOM     79  C   UNL A   1      46.514  26.110  32.916  1.00  0.00     0.134 A 
ATOM     80  F   UNL A   1      43.170  27.145  31.985  1.00  0.00    -0.206 F 
ATOM     81  C   UNL A   1      44.237  27.222  34.050  1.00  0.00     0.040 A 
ATOM     82  C   UNL A   1      46.460  26.351  34.292  1.00  0.00     0.040 A 
ATOM     83  F   UNL A   1      47.619  25.529  32.422  1.00  0.00    -0.206 F 
ATOM     84  C   UNL A   1      45.323  26.920  34.862  1.00  0.00     0.006 A 
ENDBRANCH  60  77
ENDBRANCH  34  35
ENDBRANCH  27  29
ENDBRANCH  26  27
ENDBRANCH  25  26
ENDBRANCH   1  25
TORSDOF 15
ENDMDL
MODEL 3
REMARK VINA RESULT:     -13.5      1.923      3.901
REMARK SMILES O=C(CCc1cn(-c2ccc(Br)cc2)nc1-c1ccccc1)OCCOC(=O)c1ccc(-c2c3nc(c(-c4c(F)cccc4F)c4ccc([nH]4)c(-c4c(F)cccc4F)c4nc(c(-c5c(F)cccc5F)c5ccc2[nH]5)C=C4)C=C3)cc1
REMARK SMILES IDX 24 1 23 2 2 3 1 4 3 5 4 6 5 7 6 8 16 9 7 10 15 11 17 12
REMARK SMILES IDX 18 13 22 14 19 15 21 16 20 17 8 18 9 19 14 20 10 21 13 22
REMARK SMILES IDX 11 23 12 24 25 25 26 26 27 27 28 28 29 29 30 30 82 31 31 32
REMARK SMILES IDX 81 33 32 34 33 35 34 36 75 37 35 38 80 39 74 40 76 41 36 42
REMARK SMILES IDX 79 43 73 44 72 45 37 47 63 48 46 49 62 50 47 51 50 52 61 53
REMARK SMILES IDX 77 54 48 55 49 56 60 58 78 59 51 60 38 61 39 62 44 63 40 64
REMARK SMILES IDX 41 65 43 66 45 67 42 68 64 69 65 70 70 71 66 72 67 73 69 74
REMARK SMILES IDX 71 75 68 76 52 77 53 78 58 79 54 80 55 81 57 82 59 83 56 84
REMARK H PARENT 76 46 50 57
REMARK Flexibility Score: inf
ROOT
ATOM      1  C   UNL A   1      32.440  27.389  26.504  1.00  0.00     0.274 C 
ENDROOT
BRANCH   1   2
ATOM      2  O   UNL A   1      32.272  25.740  26.532  1.00  0.00    -0.462 OA
BRANCH   2   3
ATOM      3  C   UNL A   1      31.795  24.452  26.608  1.00  0.00     0.306 C 
ATOM      4  O   UNL A   1      30.591  24.323  26.878  1.00  0.00    -0.252 OA
BRANCH   3   5
ATOM      5  C   UNL A   1      32.581  23.046  26.448  1.00  0.00     0.127 C 
BRANCH   5   6
ATOM      6  C   UNL A   1      32.244  22.090  25.296  1.00  0.00     0.051 C 
BRANCH   6   7
ATOM      7  C   UNL A   1      32.394  22.888  24.101  1.00  0.00    -0.001 A 
ATOM      8  C   UNL A   1      31.316  23.565  23.537  1.00  0.00     0.119 A 
ATOM      9  C   UNL A   1      33.622  23.509  23.716  1.00  0.00     0.096 A 
ATOM     10  N   UNL A   1      31.842  24.769  23.157  1.00  0.00    -0.240 N 
ATOM     11  N   UNL A   1      33.187  24.609  23.047  1.00  0.00    -0.168 NA
BRANCH   9  12
ATOM     12  C   UNL A   1      35.151  23.317  24.302  1.00  0.00     0.002 A 
ATOM     13  C   UNL A   1      36.016  22.227  24.044  1.00  0.00     0.010 A 
ATOM     14  C   UNL A   1      35.722  24.077  25.332  1.00  0.00     0.010 A 
ATOM     15  C   UNL A   1      37.281  21.983  24.649  1.00  0.00     0.001 A 
ATOM     16  C   UNL A   1      36.954  23.857  25.999  1.00  0.00     0.001 A 
ATOM     17  C   UNL A   1      37.756  22.805  25.640  1.00  0.00     0.000 A 
ENDBRANCH   9  12
BRANCH  10  18
ATOM     18  C   UNL A   1      31.166  26.065  23.143  1.00  0.00     0.065 A 
ATOM     19  C   UNL A   1      31.748  27.181  22.502  1.00  0.00     0.029 A 
ATOM     20  C   UNL A   1      29.884  26.248  23.684  1.00  0.00     0.029 A 
ATOM     21  C   UNL A   1      31.054  28.405  22.377  1.00  0.00     0.018 A 
ATOM     22  C   UNL A   1      29.182  27.467  23.551  1.00  0.00     0.018 A 
ATOM     23  C   UNL A   1      29.770  28.539  22.893  1.00  0.00     0.018 A 
ATOM     24  Br  UNL A   1      28.833  30.175  22.709  1.00  0.00    -0.051 Br
ENDBRANCH  10  18
ENDBRANCH   6   7
ENDBRANCH   5   6
ENDBRANCH   3   5
ENDBRANCH   2   3
ENDBRANCH   1   2
BRANCH   1  25
ATOM     25  C   UNL A   1      33.743  28.531  26.472  1.00  0.00     0.275 C 
BRANCH  25  26
ATOM     26  O   UNL A   1      35.056  28.510  27.239  1.00  0.00    -0.458 OA
BRANCH  26  27
ATOM     27  C   UNL A   1      35.707  29.579  27.864  1.00  0.00     0.338 C 
ATOM     28  O   UNL A   1      35.204  30.542  28.384  1.00  0.00    -0.246 OA
BRANCH  27  29
ATOM     29  C   UNL A   1      37.211  29.354  28.009  1.00  0.00     0.060 A 
ATOM     30  C   UNL A   1      38.259  29.880  27.214  1.00  0.00     0.016 A 
ATOM     31  C   UNL A   1      37.572  28.537  29.071  1.00  0.00     0.016 A 
ATOM     32  C   UNL A   1      39.549  29.328  27.243  1.00  0.00     0.010 A 
ATOM     33  C   UNL A   1      38.885  28.096  29.199  1.00  0.00     0.010 A 
ATOM     34  C   UNL A   1      39.850  28.392  28.221  1.00  0.00    -0.014 A 
BRANCH  34  35
ATOM     35  C   UNL A   1      41.197  27.798  28.340  1.00  0.00     0.031 A 
ATOM     36  C   UNL A   1      41.907  27.935  29.663  1.00  0.00     0.074 A 
ATOM     37  C   UNL A   1      41.558  26.866  27.426  1.00  0.00     0.049 A 
ATOM     38  N   UNL A   1      43.180  27.937  29.931  1.00  0.00    -0.248 NA
ATOM     39  C   UNL A   1      41.062  28.097  30.862  1.00  0.00     0.031 C 
ATOM     40  C   UNL A   1      40.791  26.464  26.237  1.00  0.00     0.029 A 
ATOM     41  N   UNL A   1      42.544  25.924  27.481  1.00  0.00    -0.354 N 
ATOM     42  C   UNL A   1      43.288  27.932  31.327  1.00  0.00     0.074 A 
ATOM     43  C   UNL A   1      41.960  28.122  31.844  1.00  0.00     0.031 C 
ATOM     44  C   UNL A   1      41.153  25.215  25.879  1.00  0.00     0.029 A 
ATOM     45  C   UNL A   1      42.254  24.792  26.724  1.00  0.00     0.049 A 
ATOM     46  H   UNL A   1      43.372  26.033  28.001  1.00  0.00     0.167 HD
ATOM     47  C   UNL A   1      44.426  27.613  32.005  1.00  0.00     0.037 A 
ATOM     48  C   UNL A   1      42.792  23.556  26.853  1.00  0.00     0.037 A 
ATOM     49  C   UNL A   1      45.607  27.774  31.213  1.00  0.00     0.049 A 
ATOM     50  C   UNL A   1      44.032  23.675  27.651  1.00  0.00     0.074 A 
ATOM     51  C   UNL A   1      46.229  28.847  30.605  1.00  0.00     0.029 A 
ATOM     52  N   UNL A   1      46.223  26.661  30.706  1.00  0.00    -0.354 N 
ATOM     53  N   UNL A   1      45.116  24.274  27.247  1.00  0.00    -0.248 NA
ATOM     54  C   UNL A   1      43.938  23.452  29.085  1.00  0.00     0.031 C 
ATOM     55  C   UNL A   1      46.810  28.313  29.420  1.00  0.00     0.029 A 
ATOM     56  C   UNL A   1      46.524  26.948  29.400  1.00  0.00     0.049 A 
ATOM     57  H   UNL A   1      46.410  25.821  31.185  1.00  0.00     0.167 HD
ATOM     58  C   UNL A   1      45.638  24.865  28.387  1.00  0.00     0.074 A 
ATOM     59  C   UNL A   1      44.940  24.230  29.500  1.00  0.00     0.031 C 
ATOM     60  C   UNL A   1      46.382  26.008  28.314  1.00  0.00     0.037 A 
BRANCH  47  61
ATOM     61  C   UNL A   1      44.432  26.908  33.338  1.00  0.00     0.057 A 
ATOM     62  C   UNL A   1      44.884  27.560  34.498  1.00  0.00     0.134 A 
ATOM     63  C   UNL A   1      44.246  25.515  33.468  1.00  0.00     0.134 A 
ATOM     64  F   UNL A   1      45.143  28.876  34.490  1.00  0.00    -0.206 F 
ATOM     65  C   UNL A   1      45.150  26.873  35.691  1.00  0.00     0.040 A 
ATOM     66  C   UNL A   1      44.461  24.827  34.666  1.00  0.00     0.040 A 
ATOM     67  F   UNL A   1      43.935  24.744  32.417  1.00  0.00    -0.206 F 
ATOM     68  C   UNL A   1      44.935  25.502  35.779  1.00  0.00     0.006 A 
ENDBRANCH  47  61
BRANCH  48  69
ATOM     69  C   UNL A   1      42.141  22.255  26.576  1.00  0.00     0.057 A 
ATOM     70  C   UNL A   1      42.795  21.249  25.854  1.00  0.00     0.134 A 
ATOM     71  C   UNL A   1      40.937  21.881  27.204  1.00  0.00     0.134 A 
ATOM     72  F   UNL A   1      43.975  21.493  25.267  1.00  0.00    -0.206 F 
ATOM     73  C   UNL A   1      42.278  19.950  25.754  1.00  0.00     0.040 A 
ATOM     74  C   UNL A   1      40.403  20.594  27.101  1.00  0.00     0.040 A 
ATOM     75  F   UNL A   1      40.278  22.734  28.003  1.00  0.00    -0.206 F 
ATOM     76  C   UNL A   1      41.078  19.619  26.379  1.00  0.00     0.006 A 
ENDBRANCH  48  69
BRANCH  60  77
ATOM     77  C   UNL A   1      46.814  26.479  26.953  1.00  0.00     0.057 A 
ATOM     78  C   UNL A   1      47.970  26.016  26.305  1.00  0.00     0.134 A 
ATOM     79  C   UNL A   1      45.962  27.296  26.204  1.00  0.00     0.134 A 
ATOM     80  F   UNL A   1      48.784  25.133  26.892  1.00  0.00    -0.206 F 
ATOM     81  C   UNL A   1      48.292  26.389  24.999  1.00  0.00     0.040 A 
ATOM     82  C   UNL A   1      46.253  27.649  24.884  1.00  0.00     0.040 A 
ATOM     83  F   UNL A   1      44.801  27.722  26.728  1.00  0.00    -0.206 F 
ATOM     84  C   UNL A   1      47.427  27.205  24.280  1.00  0.00     0.006 A 
ENDBRANCH  60  77
ENDBRANCH  34  35
ENDBRANCH  27  29
ENDBRANCH  26  27
ENDBRANCH  25  26
ENDBRANCH   1  25
TORSDOF 15
ENDMDL
