MODEL 1
REMARK VINA RESULT:     -11.6      0.000      0.000
REMARK SMILES CC[C@]1(C(=O)OCCOC(=O)c2ccc(-c3c4nc(c(-c5c(F)cccc5F)c5ccc([nH]5)c(-c5c(F)cccc5F)c5nc(c(-c6c(F)cccc6F)c6ccc3[nH]6)C=C5)C=C4)cc2)CCC[N@@H+]([C@@H]2CCC[C@H](S(C)(=O)=O)C2)C1
REMARK SMILES IDX 7 1 6 2 4 3 5 4 3 5 66 6 80 7 67 8 69 9 68 10 2 12 1 13
REMARK SMILES IDX 70 14 71 15 79 16 72 17 74 18 73 19 75 20 76 21 77 22 78 23
REMARK SMILES IDX 8 24 9 25 10 26 11 27 12 28 13 29 65 30 14 31 64 32 15 33
REMARK SMILES IDX 16 34 17 35 58 36 18 37 63 38 57 39 59 40 19 41 62 42 56 43
REMARK SMILES IDX 55 44 20 46 46 47 29 48 45 49 30 50 33 51 44 52 60 53 31 54
REMARK SMILES IDX 32 55 43 57 61 58 34 59 21 60 22 61 27 62 23 63 24 64 26 65
REMARK SMILES IDX 28 66 25 67 47 68 48 69 53 70 49 71 50 72 52 73 54 74 51 75
REMARK SMILES IDX 35 76 36 77 41 78 37 79 38 80 40 81 42 82 39 83
REMARK H PARENT 69 11 59 45 33 56
REMARK Flexibility Score: inf
ROOT
ATOM      1  C   UNL A   1      32.336  29.356  24.576  1.00  0.00     0.274 C 
ENDROOT
BRANCH   1   2
ATOM      2  O   UNL A   1      31.755  28.035  24.568  1.00  0.00    -0.461 OA
BRANCH   2   3
ATOM      3  C   UNL A   1      32.558  27.003  24.943  1.00  0.00     0.317 C 
ATOM      4  O   UNL A   1      33.372  27.065  25.859  1.00  0.00    -0.251 OA
BRANCH   3   5
ATOM      5  C   UNL A   1      32.312  25.719  24.126  1.00  0.00     0.117 C 
ATOM      6  C   UNL A   1      32.646  25.924  22.630  1.00  0.00     0.030 C 
ATOM      7  C   UNL A   1      33.273  24.674  24.739  1.00  0.00     0.281 C 
ATOM      8  C   UNL A   1      32.901  24.630  21.860  1.00  0.00     0.063 C 
ATOM      9  N   UNL A   1      33.293  23.430  23.962  1.00  0.00    -0.332 N 
ATOM     10  C   UNL A   1      33.821  23.675  22.618  1.00  0.00     0.262 C 
ATOM     11  H   UNL A   1      32.335  23.112  23.819  1.00  0.00     0.348 HD
BRANCH   5  12
ATOM     12  C   UNL A   1      30.820  25.354  24.366  1.00  0.00     0.021 C 
ATOM     13  C   UNL A   1      30.278  25.172  25.775  1.00  0.00     0.005 C 
ENDBRANCH   5  12
BRANCH   9  14
ATOM     14  C   UNL A   1      33.888  22.305  24.699  1.00  0.00     0.185 C 
ATOM     15  C   UNL A   1      35.416  22.197  24.592  1.00  0.00     0.065 C 
ATOM     16  C   UNL A   1      33.190  20.999  24.284  1.00  0.00     0.084 C 
ATOM     17  C   UNL A   1      35.934  20.989  25.366  1.00  0.00     0.007 C 
ATOM     18  C   UNL A   1      33.750  19.766  25.004  1.00  0.00     0.114 C 
ATOM     19  C   UNL A   1      35.275  19.699  24.888  1.00  0.00     0.020 C 
BRANCH  18  20
ATOM     20  S   UNL A   1      32.952  18.292  24.327  1.00  0.00     0.150 S 
ATOM     21  C   UNL A   1      34.278  17.160  23.993  1.00  0.00     0.158 C 
ATOM     22  O   UNL A   1      32.153  17.703  25.384  1.00  0.00    -0.229 OA
ATOM     23  O   UNL A   1      32.353  18.637  23.051  1.00  0.00    -0.229 OA
ENDBRANCH  18  20
ENDBRANCH   9  14
ENDBRANCH   3   5
ENDBRANCH   2   3
ENDBRANCH   1   2
BRANCH   1  24
ATOM     24  C   UNL A   1      31.468  30.292  25.408  1.00  0.00     0.275 C 
BRANCH  24  25
ATOM     25  O   UNL A   1      32.010  30.355  26.739  1.00  0.00    -0.458 OA
BRANCH  25  26
ATOM     26  C   UNL A   1      32.597  31.521  27.088  1.00  0.00     0.338 C 
ATOM     27  O   UNL A   1      32.117  32.643  27.020  1.00  0.00    -0.246 OA
BRANCH  26  28
ATOM     28  C   UNL A   1      33.948  31.256  27.612  1.00  0.00     0.060 A 
ATOM     29  C   UNL A   1      34.385  29.944  27.792  1.00  0.00     0.016 A 
ATOM     30  C   UNL A   1      34.736  32.317  28.052  1.00  0.00     0.016 A 
ATOM     31  C   UNL A   1      35.540  29.689  28.529  1.00  0.00     0.010 A 
ATOM     32  C   UNL A   1      35.964  32.058  28.669  1.00  0.00     0.010 A 
ATOM     33  C   UNL A   1      36.364  30.741  28.955  1.00  0.00    -0.014 A 
BRANCH  33  34
ATOM     34  C   UNL A   1      37.625  30.476  29.710  1.00  0.00     0.031 A 
ATOM     35  C   UNL A   1      38.734  29.669  29.082  1.00  0.00     0.074 A 
ATOM     36  C   UNL A   1      37.786  30.940  30.965  1.00  0.00     0.049 A 
ATOM     37  N   UNL A   1      39.776  29.113  29.647  1.00  0.00    -0.248 NA
ATOM     38  C   UNL A   1      38.646  29.437  27.632  1.00  0.00     0.031 C 
ATOM     39  C   UNL A   1      36.827  31.769  31.698  1.00  0.00     0.029 A 
ATOM     40  N   UNL A   1      38.824  30.776  31.852  1.00  0.00    -0.354 N 
ATOM     41  C   UNL A   1      40.419  28.401  28.642  1.00  0.00     0.074 A 
ATOM     42  C   UNL A   1      39.659  28.607  27.427  1.00  0.00     0.031 C 
ATOM     43  C   UNL A   1      37.339  32.083  32.897  1.00  0.00     0.029 A 
ATOM     44  C   UNL A   1      38.611  31.391  33.063  1.00  0.00     0.049 A 
ATOM     45  H   UNL A   1      39.639  30.269  31.640  1.00  0.00     0.167 HD
ATOM     46  C   UNL A   1      41.536  27.637  28.728  1.00  0.00     0.037 A 
ATOM     47  C   UNL A   1      39.327  31.364  34.202  1.00  0.00     0.037 A 
ATOM     48  C   UNL A   1      42.337  27.501  29.917  1.00  0.00     0.049 A 
ATOM     49  C   UNL A   1      40.566  30.523  34.274  1.00  0.00     0.074 A 
ATOM     50  C   UNL A   1      43.498  26.767  30.098  1.00  0.00     0.029 A 
ATOM     51  N   UNL A   1      42.076  28.137  31.121  1.00  0.00    -0.354 N 
ATOM     52  N   UNL A   1      41.111  29.778  33.345  1.00  0.00    -0.248 NA
ATOM     53  C   UNL A   1      41.271  30.493  35.563  1.00  0.00     0.031 C 
ATOM     54  C   UNL A   1      43.929  26.944  31.418  1.00  0.00     0.029 A 
ATOM     55  C   UNL A   1      43.053  27.811  32.049  1.00  0.00     0.049 A 
ATOM     56  H   UNL A   1      41.311  28.732  31.291  1.00  0.00     0.167 HD
ATOM     57  C   UNL A   1      42.219  29.188  33.934  1.00  0.00     0.074 A 
ATOM     58  C   UNL A   1      42.283  29.681  35.295  1.00  0.00     0.031 C 
ATOM     59  C   UNL A   1      43.099  28.308  33.398  1.00  0.00     0.037 A 
BRANCH  46  60
ATOM     60  C   UNL A   1      41.938  26.857  27.511  1.00  0.00     0.057 A 
ATOM     61  C   UNL A   1      42.740  27.403  26.503  1.00  0.00     0.134 A 
ATOM     62  C   UNL A   1      41.539  25.522  27.368  1.00  0.00     0.134 A 
ATOM     63  F   UNL A   1      43.145  28.680  26.573  1.00  0.00    -0.206 F 
ATOM     64  C   UNL A   1      43.114  26.656  25.383  1.00  0.00     0.040 A 
ATOM     65  C   UNL A   1      41.923  24.757  26.265  1.00  0.00     0.040 A 
ATOM     66  F   UNL A   1      40.774  24.935  28.302  1.00  0.00    -0.206 F 
ATOM     67  C   UNL A   1      42.709  25.326  25.266  1.00  0.00     0.006 A 
ENDBRANCH  46  60
BRANCH  47  68
ATOM     68  C   UNL A   1      38.851  32.126  35.382  1.00  0.00     0.057 A 
ATOM     69  C   UNL A   1      38.163  31.489  36.420  1.00  0.00     0.134 A 
ATOM     70  C   UNL A   1      39.105  33.495  35.518  1.00  0.00     0.134 A 
ATOM     71  F   UNL A   1      37.871  30.182  36.336  1.00  0.00    -0.206 F 
ATOM     72  C   UNL A   1      37.747  32.187  37.554  1.00  0.00     0.040 A 
ATOM     73  C   UNL A   1      38.717  34.201  36.656  1.00  0.00     0.040 A 
ATOM     74  F   UNL A   1      39.764  34.161  34.557  1.00  0.00    -0.206 F 
ATOM     75  C   UNL A   1      38.035  33.546  37.679  1.00  0.00     0.006 A 
ENDBRANCH  47  68
BRANCH  59  76
ATOM     76  C   UNL A   1      44.210  27.838  34.285  1.00  0.00     0.057 A 
ATOM     77  C   UNL A   1      44.129  26.625  34.980  1.00  0.00     0.134 A 
ATOM     78  C   UNL A   1      45.379  28.595  34.428  1.00  0.00     0.134 A 
ATOM     79  F   UNL A   1      43.028  25.865  34.894  1.00  0.00    -0.206 F 
ATOM     80  C   UNL A   1      45.168  26.189  35.802  1.00  0.00     0.040 A 
ATOM     81  C   UNL A   1      46.431  28.161  35.235  1.00  0.00     0.040 A 
ATOM     82  F   UNL A   1      45.516  29.764  33.786  1.00  0.00    -0.206 F 
ATOM     83  C   UNL A   1      46.326  26.956  35.928  1.00  0.00     0.006 A 
ENDBRANCH  59  76
ENDBRANCH  33  34
ENDBRANCH  26  28
ENDBRANCH  25  26
ENDBRANCH  24  25
ENDBRANCH   1  24
TORSDOF 14
ENDMDL
MODEL 2
REMARK VINA RESULT:     -11.5      4.073      9.194
REMARK SMILES CC[C@]1(C(=O)OCCOC(=O)c2ccc(-c3c4nc(c(-c5c(F)cccc5F)c5ccc([nH]5)c(-c5c(F)cccc5F)c5nc(c(-c6c(F)cccc6F)c6ccc3[nH]6)C=C5)C=C4)cc2)CCC[N@@H+]([C@@H]2CCC[C@H](S(C)(=O)=O)C2)C1
REMARK SMILES IDX 7 1 6 2 4 3 5 4 3 5 66 6 80 7 67 8 69 9 68 10 2 12 1 13
REMARK SMILES IDX 70 14 71 15 79 16 72 17 74 18 73 19 75 20 76 21 77 22 78 23
REMARK SMILES IDX 8 24 9 25 10 26 11 27 12 28 13 29 65 30 14 31 64 32 15 33
REMARK SMILES IDX 16 34 17 35 58 36 18 37 63 38 57 39 59 40 19 41 62 42 56 43
REMARK SMILES IDX 55 44 20 46 46 47 29 48 45 49 30 50 33 51 44 52 60 53 31 54
REMARK SMILES IDX 32 55 43 57 61 58 34 59 21 60 22 61 27 62 23 63 24 64 26 65
REMARK SMILES IDX 28 66 25 67 47 68 48 69 53 70 49 71 50 72 52 73 54 74 51 75
REMARK SMILES IDX 35 76 36 77 41 78 37 79 38 80 40 81 42 82 39 83
REMARK H PARENT 69 11 59 45 33 56
REMARK Flexibility Score: inf
ROOT
ATOM      1  C   UNL A   1      35.143  20.816  25.620  1.00  0.00     0.274 C 
ENDROOT
BRANCH   1   2
ATOM      2  O   UNL A   1      34.518  21.769  24.734  1.00  0.00    -0.461 OA
BRANCH   2   3
ATOM      3  C   UNL A   1      34.344  23.032  25.207  1.00  0.00     0.317 C 
ATOM      4  O   UNL A   1      35.224  23.683  25.763  1.00  0.00    -0.251 OA
BRANCH   3   5
ATOM      5  C   UNL A   1      32.933  23.591  24.935  1.00  0.00     0.117 C 
ATOM      6  C   UNL A   1      31.912  23.097  25.986  1.00  0.00     0.030 C 
ATOM      7  C   UNL A   1      33.092  25.126  25.040  1.00  0.00     0.281 C 
ATOM      8  C   UNL A   1      30.653  23.953  26.090  1.00  0.00     0.063 C 
ATOM      9  N   UNL A   1      31.798  25.813  24.976  1.00  0.00    -0.332 N 
ATOM     10  C   UNL A   1      30.967  25.447  26.126  1.00  0.00     0.262 C 
ATOM     11  H   UNL A   1      31.285  25.481  24.159  1.00  0.00     0.348 HD
BRANCH   5  12
ATOM     12  C   UNL A   1      32.579  23.137  23.491  1.00  0.00     0.021 C 
ATOM     13  C   UNL A   1      33.160  23.854  22.283  1.00  0.00     0.005 C 
ENDBRANCH   5  12
BRANCH   9  14
ATOM     14  C   UNL A   1      31.928  27.251  24.699  1.00  0.00     0.185 C 
ATOM     15  C   UNL A   1      32.199  28.126  25.932  1.00  0.00     0.065 C 
ATOM     16  C   UNL A   1      30.696  27.731  23.914  1.00  0.00     0.084 C 
ATOM     17  C   UNL A   1      32.291  29.600  25.548  1.00  0.00     0.007 C 
ATOM     18  C   UNL A   1      30.743  29.228  23.583  1.00  0.00     0.114 C 
ATOM     19  C   UNL A   1      31.028  30.067  24.831  1.00  0.00     0.020 C 
BRANCH  18  20
ATOM     20  S   UNL A   1      29.185  29.693  22.794  1.00  0.00     0.150 S 
ATOM     21  C   UNL A   1      28.078  28.345  23.126  1.00  0.00     0.158 C 
ATOM     22  O   UNL A   1      28.664  30.848  23.500  1.00  0.00    -0.229 OA
ATOM     23  O   UNL A   1      29.389  29.734  21.358  1.00  0.00    -0.229 OA
ENDBRANCH  18  20
ENDBRANCH   9  14
ENDBRANCH   3   5
ENDBRANCH   2   3
ENDBRANCH   1   2
BRANCH   1  24
ATOM     24  C   UNL A   1      36.444  20.321  25.001  1.00  0.00     0.275 C 
BRANCH  24  25
ATOM     25  O   UNL A   1      37.431  21.361  25.119  1.00  0.00    -0.458 OA
BRANCH  25  26
ATOM     26  C   UNL A   1      38.591  21.016  25.718  1.00  0.00     0.338 C 
ATOM     27  O   UNL A   1      39.109  19.909  25.751  1.00  0.00    -0.246 OA
BRANCH  26  28
ATOM     28  C   UNL A   1      39.202  22.206  26.335  1.00  0.00     0.060 A 
ATOM     29  C   UNL A   1      38.667  23.472  26.096  1.00  0.00     0.016 A 
ATOM     30  C   UNL A   1      40.391  22.078  27.049  1.00  0.00     0.016 A 
ATOM     31  C   UNL A   1      39.387  24.611  26.450  1.00  0.00     0.010 A 
ATOM     32  C   UNL A   1      41.040  23.222  27.524  1.00  0.00     0.010 A 
ATOM     33  C   UNL A   1      40.571  24.507  27.195  1.00  0.00    -0.014 A 
BRANCH  33  34
ATOM     34  C   UNL A   1      41.328  25.723  27.615  1.00  0.00     0.031 A 
ATOM     35  C   UNL A   1      40.677  26.759  28.497  1.00  0.00     0.074 A 
ATOM     36  C   UNL A   1      42.596  25.922  27.202  1.00  0.00     0.049 A 
ATOM     37  N   UNL A   1      41.058  27.985  28.755  1.00  0.00    -0.248 NA
ATOM     38  C   UNL A   1      39.421  26.373  29.158  1.00  0.00     0.031 C 
ATOM     39  C   UNL A   1      43.380  24.997  26.381  1.00  0.00     0.029 A 
ATOM     40  N   UNL A   1      43.452  26.975  27.419  1.00  0.00    -0.354 N 
ATOM     41  C   UNL A   1      40.051  28.540  29.536  1.00  0.00     0.074 A 
ATOM     42  C   UNL A   1      39.050  27.512  29.725  1.00  0.00     0.031 C 
ATOM     43  C   UNL A   1      44.612  25.497  26.205  1.00  0.00     0.029 A 
ATOM     44  C   UNL A   1      44.673  26.823  26.807  1.00  0.00     0.049 A 
ATOM     45  H   UNL A   1      43.213  27.762  27.959  1.00  0.00     0.167 HD
ATOM     46  C   UNL A   1      39.967  29.796  30.040  1.00  0.00     0.037 A 
ATOM     47  C   UNL A   1      45.712  27.670  26.694  1.00  0.00     0.037 A 
ATOM     48  C   UNL A   1      41.002  30.790  29.922  1.00  0.00     0.049 A 
ATOM     49  C   UNL A   1      45.606  29.050  27.269  1.00  0.00     0.074 A 
ATOM     50  C   UNL A   1      41.019  32.083  30.417  1.00  0.00     0.029 A 
ATOM     51  N   UNL A   1      42.218  30.590  29.287  1.00  0.00    -0.354 N 
ATOM     52  N   UNL A   1      44.610  29.595  27.922  1.00  0.00    -0.248 NA
ATOM     53  C   UNL A   1      46.753  29.944  27.062  1.00  0.00     0.031 C 
ATOM     54  C   UNL A   1      42.239  32.673  30.064  1.00  0.00     0.029 A 
ATOM     55  C   UNL A   1      42.992  31.737  29.375  1.00  0.00     0.049 A 
ATOM     56  H   UNL A   1      42.491  29.758  28.838  1.00  0.00     0.167 HD
ATOM     57  C   UNL A   1      45.007  30.894  28.203  1.00  0.00     0.074 A 
ATOM     58  C   UNL A   1      46.344  31.049  27.669  1.00  0.00     0.031 C 
ATOM     59  C   UNL A   1      44.318  31.874  28.836  1.00  0.00     0.037 A 
BRANCH  46  60
ATOM     60  C   UNL A   1      38.695  30.179  30.736  1.00  0.00     0.057 A 
ATOM     61  C   UNL A   1      37.618  30.764  30.060  1.00  0.00     0.134 A 
ATOM     62  C   UNL A   1      38.538  29.926  32.105  1.00  0.00     0.134 A 
ATOM     63  F   UNL A   1      37.709  31.045  28.751  1.00  0.00    -0.206 F 
ATOM     64  C   UNL A   1      36.437  31.103  30.724  1.00  0.00     0.040 A 
ATOM     65  C   UNL A   1      37.355  30.240  32.776  1.00  0.00     0.040 A 
ATOM     66  F   UNL A   1      39.529  29.362  32.812  1.00  0.00    -0.206 F 
ATOM     67  C   UNL A   1      36.302  30.835  32.087  1.00  0.00     0.006 A 
ENDBRANCH  46  60
BRANCH  47  68
ATOM     68  C   UNL A   1      46.927  27.241  25.956  1.00  0.00     0.057 A 
ATOM     69  C   UNL A   1      47.975  26.590  26.613  1.00  0.00     0.134 A 
ATOM     70  C   UNL A   1      47.049  27.437  24.576  1.00  0.00     0.134 A 
ATOM     71  F   UNL A   1      47.924  26.395  27.939  1.00  0.00    -0.206 F 
ATOM     72  C   UNL A   1      49.103  26.144  25.922  1.00  0.00     0.040 A 
ATOM     73  C   UNL A   1      48.158  26.975  23.868  1.00  0.00     0.040 A 
ATOM     74  F   UNL A   1      46.073  28.052  23.889  1.00  0.00    -0.206 F 
ATOM     75  C   UNL A   1      49.190  26.327  24.543  1.00  0.00     0.006 A 
ENDBRANCH  47  68
BRANCH  59  76
ATOM     76  C   UNL A   1      45.012  33.191  28.996  1.00  0.00     0.057 A 
ATOM     77  C   UNL A   1      45.839  33.455  30.095  1.00  0.00     0.134 A 
ATOM     78  C   UNL A   1      44.868  34.197  28.032  1.00  0.00     0.134 A 
ATOM     79  F   UNL A   1      46.003  32.536  31.057  1.00  0.00    -0.206 F 
ATOM     80  C   UNL A   1      46.487  34.682  30.239  1.00  0.00     0.040 A 
ATOM     81  C   UNL A   1      45.524  35.422  28.157  1.00  0.00     0.040 A 
ATOM     82  F   UNL A   1      44.093  34.003  26.956  1.00  0.00    -0.206 F 
ATOM     83  C   UNL A   1      46.333  35.668  29.266  1.00  0.00     0.006 A 
ENDBRANCH  59  76
ENDBRANCH  33  34
ENDBRANCH  26  28
ENDBRANCH  25  26
ENDBRANCH  24  25
ENDBRANCH   1  24
TORSDOF 14
ENDMDL
MODEL 3
REMARK VINA RESULT:     -11.3      6.210     11.426
REMARK SMILES CC[C@]1(C(=O)OCCOC(=O)c2ccc(-c3c4nc(c(-c5c(F)cccc5F)c5ccc([nH]5)c(-c5c(F)cccc5F)c5nc(c(-c6c(F)cccc6F)c6ccc3[nH]6)C=C5)C=C4)cc2)CCC[N@@H+]([C@@H]2CCC[C@H](S(C)(=O)=O)C2)C1
REMARK SMILES IDX 7 1 6 2 4 3 5 4 3 5 66 6 80 7 67 8 69 9 68 10 2 12 1 13
REMARK SMILES IDX 70 14 71 15 79 16 72 17 74 18 73 19 75 20 76 21 77 22 78 23
REMARK SMILES IDX 8 24 9 25 10 26 11 27 12 28 13 29 65 30 14 31 64 32 15 33
REMARK SMILES IDX 16 34 17 35 58 36 18 37 63 38 57 39 59 40 19 41 62 42 56 43
REMARK SMILES IDX 55 44 20 46 46 47 29 48 45 49 30 50 33 51 44 52 60 53 31 54
REMARK SMILES IDX 32 55 43 57 61 58 34 59 21 60 22 61 27 62 23 63 24 64 26 65
REMARK SMILES IDX 28 66 25 67 47 68 48 69 53 70 49 71 50 72 52 73 54 74 51 75
REMARK SMILES IDX 35 76 36 77 41 78 37 79 38 80 40 81 42 82 39 83
REMARK H PARENT 69 11 59 45 33 56
REMARK Flexibility Score: inf
ROOT
ATOM      1  C   UNL A   1      39.925  36.139  36.124  1.00  0.00     0.274 C 
ENDROOT
BRANCH   1   2
ATOM      2  O   UNL A   1      39.423  35.486  34.939  1.00  0.00    -0.461 OA
BRANCH   2   3
ATOM      3  C   UNL A   1      38.601  34.418  35.122  1.00  0.00     0.317 C 
ATOM      4  O   UNL A   1      37.946  34.223  36.141  1.00  0.00    -0.251 OA
BRANCH   3   5
ATOM      5  C   UNL A   1      38.536  33.488  33.893  1.00  0.00     0.117 C 
ATOM      6  C   UNL A   1      38.742  32.007  34.289  1.00  0.00     0.030 C 
ATOM      7  C   UNL A   1      37.111  33.686  33.327  1.00  0.00     0.281 C 
ATOM      8  C   UNL A   1      38.222  31.005  33.261  1.00  0.00     0.063 C 
ATOM      9  N   UNL A   1      36.819  32.740  32.245  1.00  0.00    -0.332 N 
ATOM     10  C   UNL A   1      36.828  31.365  32.752  1.00  0.00     0.262 C 
ATOM     11  H   UNL A   1      37.572  32.777  31.558  1.00  0.00     0.348 HD
BRANCH   5  12
ATOM     12  C   UNL A   1      39.631  34.010  32.921  1.00  0.00     0.021 C 
ATOM     13  C   UNL A   1      39.261  34.565  31.555  1.00  0.00     0.005 C 
ENDBRANCH   5  12
BRANCH   9  14
ATOM     14  C   UNL A   1      35.648  33.130  31.445  1.00  0.00     0.185 C 
ATOM     15  C   UNL A   1      35.894  33.202  29.931  1.00  0.00     0.065 C 
ATOM     16  C   UNL A   1      35.071  34.445  31.995  1.00  0.00     0.084 C 
ATOM     17  C   UNL A   1      34.633  33.638  29.191  1.00  0.00     0.007 C 
ATOM     18  C   UNL A   1      33.843  34.932  31.216  1.00  0.00     0.114 C 
ATOM     19  C   UNL A   1      34.120  34.978  29.712  1.00  0.00     0.020 C 
BRANCH  18  20
ATOM     20  S   UNL A   1      33.352  36.546  31.866  1.00  0.00     0.150 S 
ATOM     21  C   UNL A   1      31.849  36.246  32.761  1.00  0.00     0.158 C 
ATOM     22  O   UNL A   1      34.348  36.946  32.841  1.00  0.00    -0.229 OA
ATOM     23  O   UNL A   1      33.020  37.411  30.749  1.00  0.00    -0.229 OA
ENDBRANCH  18  20
ENDBRANCH   9  14
ENDBRANCH   3   5
ENDBRANCH   2   3
ENDBRANCH   1   2
BRANCH   1  24
ATOM     24  C   UNL A   1      41.404  35.817  36.297  1.00  0.00     0.275 C 
BRANCH  24  25
ATOM     25  O   UNL A   1      42.026  35.818  35.000  1.00  0.00    -0.458 OA
BRANCH  25  26
ATOM     26  C   UNL A   1      43.335  35.485  34.967  1.00  0.00     0.338 C 
ATOM     27  O   UNL A   1      44.258  36.043  35.542  1.00  0.00    -0.246 OA
BRANCH  26  28
ATOM     28  C   UNL A   1      43.519  34.287  34.129  1.00  0.00     0.060 A 
ATOM     29  C   UNL A   1      43.938  34.415  32.805  1.00  0.00     0.016 A 
ATOM     30  C   UNL A   1      43.145  33.038  34.621  1.00  0.00     0.016 A 
ATOM     31  C   UNL A   1      43.856  33.327  31.939  1.00  0.00     0.010 A 
ATOM     32  C   UNL A   1      43.197  31.920  33.783  1.00  0.00     0.010 A 
ATOM     33  C   UNL A   1      43.512  32.055  32.419  1.00  0.00    -0.014 A 
BRANCH  33  34
ATOM     34  C   UNL A   1      43.461  30.874  31.507  1.00  0.00     0.031 A 
ATOM     35  C   UNL A   1      42.191  30.539  30.766  1.00  0.00     0.074 A 
ATOM     36  C   UNL A   1      44.540  30.083  31.344  1.00  0.00     0.049 A 
ATOM     37  N   UNL A   1      41.861  29.433  30.145  1.00  0.00    -0.248 NA
ATOM     38  C   UNL A   1      41.146  31.573  30.738  1.00  0.00     0.031 C 
ATOM     39  C   UNL A   1      45.853  30.294  31.956  1.00  0.00     0.029 A 
ATOM     40  N   UNL A   1      44.702  28.933  30.608  1.00  0.00    -0.354 N 
ATOM     41  C   UNL A   1      40.548  29.609  29.728  1.00  0.00     0.074 A 
ATOM     42  C   UNL A   1      40.144  30.933  30.151  1.00  0.00     0.031 C 
ATOM     43  C   UNL A   1      46.697  29.341  31.534  1.00  0.00     0.029 A 
ATOM     44  C   UNL A   1      45.961  28.391  30.709  1.00  0.00     0.049 A 
ATOM     45  H   UNL A   1      43.986  28.537  30.061  1.00  0.00     0.167 HD
ATOM     46  C   UNL A   1      39.749  28.740  29.061  1.00  0.00     0.037 A 
ATOM     47  C   UNL A   1      46.462  27.234  30.239  1.00  0.00     0.037 A 
ATOM     48  C   UNL A   1      40.177  27.457  28.568  1.00  0.00     0.049 A 
ATOM     49  C   UNL A   1      45.566  26.291  29.493  1.00  0.00     0.074 A 
ATOM     50  C   UNL A   1      39.447  26.514  27.863  1.00  0.00     0.029 A 
ATOM     51  N   UNL A   1      41.460  26.949  28.702  1.00  0.00    -0.354 N 
ATOM     52  N   UNL A   1      44.299  26.427  29.189  1.00  0.00    -0.248 NA
ATOM     53  C   UNL A   1      46.160  25.021  29.056  1.00  0.00     0.031 C 
ATOM     54  C   UNL A   1      40.285  25.426  27.587  1.00  0.00     0.029 A 
ATOM     55  C   UNL A   1      41.542  25.705  28.096  1.00  0.00     0.049 A 
ATOM     56  H   UNL A   1      42.202  27.403  29.162  1.00  0.00     0.167 HD
ATOM     57  C   UNL A   1      43.943  25.261  28.527  1.00  0.00     0.074 A 
ATOM     58  C   UNL A   1      45.133  24.438  28.453  1.00  0.00     0.031 C 
ATOM     59  C   UNL A   1      42.733  24.900  28.035  1.00  0.00     0.037 A 
BRANCH  46  60
ATOM     60  C   UNL A   1      38.315  29.132  28.858  1.00  0.00     0.057 A 
ATOM     61  C   UNL A   1      37.364  29.053  29.882  1.00  0.00     0.134 A 
ATOM     62  C   UNL A   1      37.891  29.629  27.619  1.00  0.00     0.134 A 
ATOM     63  F   UNL A   1      37.703  28.573  31.088  1.00  0.00    -0.206 F 
ATOM     64  C   UNL A   1      36.036  29.435  29.676  1.00  0.00     0.040 A 
ATOM     65  C   UNL A   1      36.572  30.035  27.406  1.00  0.00     0.040 A 
ATOM     66  F   UNL A   1      38.753  29.738  26.596  1.00  0.00    -0.206 F 
ATOM     67  C   UNL A   1      35.639  29.933  28.435  1.00  0.00     0.006 A 
ENDBRANCH  46  60
BRANCH  47  68
ATOM     68  C   UNL A   1      47.879  26.887  30.511  1.00  0.00     0.057 A 
ATOM     69  C   UNL A   1      48.223  26.043  31.571  1.00  0.00     0.134 A 
ATOM     70  C   UNL A   1      48.914  27.359  29.696  1.00  0.00     0.134 A 
ATOM     71  F   UNL A   1      47.275  25.578  32.400  1.00  0.00    -0.206 F 
ATOM     72  C   UNL A   1      49.547  25.677  31.811  1.00  0.00     0.040 A 
ATOM     73  C   UNL A   1      50.240  26.982  29.908  1.00  0.00     0.040 A 
ATOM     74  F   UNL A   1      48.647  28.169  28.661  1.00  0.00    -0.206 F 
ATOM     75  C   UNL A   1      50.560  26.138  30.970  1.00  0.00     0.006 A 
ENDBRANCH  47  68
BRANCH  59  76
ATOM     76  C   UNL A   1      42.648  23.566  27.362  1.00  0.00     0.057 A 
ATOM     77  C   UNL A   1      42.921  23.416  25.997  1.00  0.00     0.134 A 
ATOM     78  C   UNL A   1      42.312  22.418  28.089  1.00  0.00     0.134 A 
ATOM     79  F   UNL A   1      43.233  24.481  25.245  1.00  0.00    -0.206 F 
ATOM     80  C   UNL A   1      42.845  22.170  25.373  1.00  0.00     0.040 A 
ATOM     81  C   UNL A   1      42.249  21.164  27.480  1.00  0.00     0.040 A 
ATOM     82  F   UNL A   1      42.043  22.497  29.400  1.00  0.00    -0.206 F 
ATOM     83  C   UNL A   1      42.512  21.039  26.117  1.00  0.00     0.006 A 
ENDBRANCH  59  76
ENDBRANCH  33  34
ENDBRANCH  26  28
ENDBRANCH  25  26
ENDBRANCH  24  25
ENDBRANCH   1  24
TORSDOF 14
ENDMDL
