MODEL 1
REMARK VINA RESULT:     -12.1      0.000      0.000
REMARK SMILES O=C(OCCOC(=O)[C@H]1[C@@H](C(=O)NNC(=O)c2ccccc2Cl)[C@H]2C=C[C@@H]1C2)c1ccc(-c2c3nc(c(-c4c(F)cccc4F)c4ccc([nH]4)c(-c4c(F)cccc4F)c4nc(c(-c5c(F)cccc5F)c5ccc2[nH]5)C=C4)C=C3)cc1
REMARK SMILES IDX 5 1 4 2 3 3 2 4 1 5 29 6 30 7 82 8 31 9 81 10 32 11 33 12
REMARK SMILES IDX 34 13 75 14 35 15 80 16 74 17 76 18 36 19 79 20 73 21 72 22
REMARK SMILES IDX 37 24 63 25 46 26 62 27 47 28 50 29 61 30 77 31 48 32 49 33
REMARK SMILES IDX 60 35 78 36 51 37 38 38 39 39 44 40 40 41 41 42 43 43 45 44
REMARK SMILES IDX 42 45 64 46 65 47 70 48 66 49 67 50 69 51 71 52 68 53 52 54
REMARK SMILES IDX 53 55 58 56 54 57 55 58 57 59 59 60 56 61 6 62 7 63 8 64
REMARK SMILES IDX 9 65 10 66 27 67 24 68 26 69 28 70 25 71 11 72 12 73 13 74
REMARK SMILES IDX 14 76 15 77 16 79 17 80 18 81 22 82 19 83 21 84 23 85 20 86
REMARK H PARENT 76 23 50 34 13 75 14 78
REMARK Flexibility Score: inf
ROOT
ATOM      1  C   UNL A   1      31.820  31.390  26.281  1.00  0.00     0.274 C 
ENDROOT
BRANCH   1   2
ATOM      2  C   UNL A   1      31.686  32.533  27.292  1.00  0.00     0.275 C 
BRANCH   2   3
ATOM      3  O   UNL A   1      32.728  33.510  27.205  1.00  0.00    -0.458 OA
BRANCH   3   4
ATOM      4  C   UNL A   1      33.088  34.174  28.328  1.00  0.00     0.338 C 
ATOM      5  O   UNL A   1      32.613  35.256  28.649  1.00  0.00    -0.246 OA
BRANCH   4   6
ATOM      6  C   UNL A   1      34.358  33.693  28.902  1.00  0.00     0.060 A 
ATOM      7  C   UNL A   1      35.610  34.190  28.529  1.00  0.00     0.016 A 
ATOM      8  C   UNL A   1      34.265  32.667  29.835  1.00  0.00     0.016 A 
ATOM      9  C   UNL A   1      36.773  33.692  29.138  1.00  0.00     0.010 A 
ATOM     10  C   UNL A   1      35.416  32.196  30.458  1.00  0.00     0.010 A 
ATOM     11  C   UNL A   1      36.686  32.698  30.121  1.00  0.00    -0.014 A 
BRANCH  11  12
ATOM     12  C   UNL A   1      37.879  32.090  30.774  1.00  0.00     0.031 A 
ATOM     13  C   UNL A   1      38.540  30.903  30.122  1.00  0.00     0.074 A 
ATOM     14  C   UNL A   1      38.279  32.469  32.005  1.00  0.00     0.049 A 
ATOM     15  N   UNL A   1      39.486  30.121  30.579  1.00  0.00    -0.248 NA
ATOM     16  C   UNL A   1      38.044  30.528  28.787  1.00  0.00     0.031 C 
ATOM     17  C   UNL A   1      37.712  33.558  32.797  1.00  0.00     0.029 A 
ATOM     18  N   UNL A   1      39.215  31.909  32.845  1.00  0.00    -0.354 N 
ATOM     19  C   UNL A   1      39.699  29.175  29.585  1.00  0.00     0.074 A 
ATOM     20  C   UNL A   1      38.702  29.403  28.561  1.00  0.00     0.031 C 
ATOM     21  C   UNL A   1      38.210  33.505  34.045  1.00  0.00     0.029 A 
ATOM     22  C   UNL A   1      39.179  32.419  34.122  1.00  0.00     0.049 A 
ATOM     23  H   UNL A   1      39.848  31.212  32.559  1.00  0.00     0.167 HD
ATOM     24  C   UNL A   1      40.686  28.254  29.484  1.00  0.00     0.037 A 
ATOM     25  C   UNL A   1      39.853  32.053  35.228  1.00  0.00     0.037 A 
ATOM     26  C   UNL A   1      41.713  28.062  30.467  1.00  0.00     0.049 A 
ATOM     27  C   UNL A   1      40.937  31.019  35.122  1.00  0.00     0.074 A 
ATOM     28  C   UNL A   1      42.848  27.275  30.398  1.00  0.00     0.029 A 
ATOM     29  N   UNL A   1      41.722  28.674  31.710  1.00  0.00    -0.354 N 
ATOM     30  N   UNL A   1      41.250  30.254  34.107  1.00  0.00    -0.248 NA
ATOM     31  C   UNL A   1      41.815  30.858  36.291  1.00  0.00     0.031 C 
ATOM     32  C   UNL A   1      43.547  27.413  31.603  1.00  0.00     0.029 A 
ATOM     33  C   UNL A   1      42.849  28.292  32.415  1.00  0.00     0.049 A 
ATOM     34  H   UNL A   1      41.029  29.289  32.043  1.00  0.00     0.167 HD
ATOM     35  C   UNL A   1      42.411  29.591  34.477  1.00  0.00     0.074 A 
ATOM     36  C   UNL A   1      42.719  30.003  35.831  1.00  0.00     0.031 C 
ATOM     37  C   UNL A   1      43.174  28.748  33.741  1.00  0.00     0.037 A 
BRANCH  24  38
ATOM     38  C   UNL A   1      40.730  27.465  28.211  1.00  0.00     0.057 A 
ATOM     39  C   UNL A   1      40.080  26.225  28.111  1.00  0.00     0.134 A 
ATOM     40  C   UNL A   1      41.455  27.907  27.101  1.00  0.00     0.134 A 
ATOM     41  F   UNL A   1      39.378  25.741  29.147  1.00  0.00    -0.206 F 
ATOM     42  C   UNL A   1      40.197  25.429  26.973  1.00  0.00     0.040 A 
ATOM     43  C   UNL A   1      41.558  27.129  25.945  1.00  0.00     0.040 A 
ATOM     44  F   UNL A   1      42.094  29.087  27.127  1.00  0.00    -0.206 F 
ATOM     45  C   UNL A   1      40.940  25.880  25.885  1.00  0.00     0.006 A 
ENDBRANCH  24  38
BRANCH  25  46
ATOM     46  C   UNL A   1      39.589  32.728  36.521  1.00  0.00     0.057 A 
ATOM     47  C   UNL A   1      38.585  32.274  37.381  1.00  0.00     0.134 A 
ATOM     48  C   UNL A   1      40.317  33.857  36.909  1.00  0.00     0.134 A 
ATOM     49  F   UNL A   1      37.846  31.204  37.050  1.00  0.00    -0.206 F 
ATOM     50  C   UNL A   1      38.295  32.932  38.577  1.00  0.00     0.040 A 
ATOM     51  C   UNL A   1      40.045  34.521  38.107  1.00  0.00     0.040 A 
ATOM     52  F   UNL A   1      41.292  34.338  36.125  1.00  0.00    -0.206 F 
ATOM     53  C   UNL A   1      39.026  34.062  38.942  1.00  0.00     0.006 A 
ENDBRANCH  25  46
BRANCH  37  54
ATOM     54  C   UNL A   1      44.479  28.312  34.328  1.00  0.00     0.057 A 
ATOM     55  C   UNL A   1      44.614  27.122  35.050  1.00  0.00     0.134 A 
ATOM     56  C   UNL A   1      45.630  29.084  34.122  1.00  0.00     0.134 A 
ATOM     57  F   UNL A   1      43.545  26.351  35.295  1.00  0.00    -0.206 F 
ATOM     58  C   UNL A   1      45.850  26.718  35.556  1.00  0.00     0.040 A 
ATOM     59  C   UNL A   1      46.874  28.683  34.607  1.00  0.00     0.040 A 
ATOM     60  F   UNL A   1      45.563  30.238  33.438  1.00  0.00    -0.206 F 
ATOM     61  C   UNL A   1      46.986  27.495  35.327  1.00  0.00     0.006 A 
ENDBRANCH  37  54
ENDBRANCH  11  12
ENDBRANCH   4   6
ENDBRANCH   3   4
ENDBRANCH   2   3
ENDBRANCH   1   2
BRANCH   1  62
ATOM     62  O   UNL A   1      30.677  31.195  25.435  1.00  0.00    -0.462 OA
BRANCH  62  63
ATOM     63  C   UNL A   1      30.756  30.125  24.609  1.00  0.00     0.310 C 
ATOM     64  O   UNL A   1      31.347  29.089  24.896  1.00  0.00    -0.252 OA
BRANCH  63  65
ATOM     65  C   UNL A   1      30.158  30.348  23.234  1.00  0.00     0.119 C 
ATOM     66  C   UNL A   1      29.674  29.160  22.344  1.00  0.00     0.102 C 
ATOM     67  C   UNL A   1      28.976  31.343  23.161  1.00  0.00     0.027 C 
ATOM     68  C   UNL A   1      28.325  29.715  21.769  1.00  0.00     0.025 C 
ATOM     69  C   UNL A   1      27.725  30.729  23.727  1.00  0.00    -0.027 C 
ATOM     70  C   UNL A   1      28.613  31.219  21.673  1.00  0.00     0.017 C 
ATOM     71  C   UNL A   1      27.303  29.793  22.869  1.00  0.00    -0.027 C 
BRANCH  66  72
ATOM     72  C   UNL A   1      29.535  27.781  22.979  1.00  0.00     0.242 C 
ATOM     73  O   UNL A   1      28.498  27.408  23.531  1.00  0.00    -0.273 OA
ATOM     74  N   UNL A   1      30.552  26.874  22.857  1.00  0.00    -0.267 N 
ATOM     75  H   UNL A   1      30.548  26.094  23.459  1.00  0.00     0.191 HD
BRANCH  74  76
ATOM     76  N   UNL A   1      31.592  26.976  21.942  1.00  0.00    -0.263 N 
ATOM     77  C   UNL A   1      32.872  26.505  22.145  1.00  0.00     0.271 C 
ATOM     78  H   UNL A   1      31.400  27.420  21.084  1.00  0.00     0.191 HD
ATOM     79  O   UNL A   1      33.745  26.696  21.299  1.00  0.00    -0.267 OA
BRANCH  77  80
ATOM     80  C   UNL A   1      33.237  25.794  23.386  1.00  0.00     0.060 A 
ATOM     81  C   UNL A   1      33.588  26.588  24.487  1.00  0.00     0.015 A 
ATOM     82  C   UNL A   1      33.360  24.403  23.467  1.00  0.00     0.053 A 
ATOM     83  C   UNL A   1      34.023  25.995  25.673  1.00  0.00     0.001 A 
ATOM     84  C   UNL A   1      33.787  23.813  24.662  1.00  0.00     0.021 A 
ATOM     85  Cl  UNL A   1      33.051  23.355  22.129  1.00  0.00    -0.083 Cl
ATOM     86  C   UNL A   1      34.117  24.607  25.762  1.00  0.00     0.002 A 
ENDBRANCH  77  80
ENDBRANCH  74  76
ENDBRANCH  66  72
ENDBRANCH  63  65
ENDBRANCH  62  63
ENDBRANCH   1  62
TORSDOF 14
ENDMDL
MODEL 2
REMARK VINA RESULT:     -12.0      5.092     10.016
REMARK SMILES O=C(OCCOC(=O)[C@H]1[C@@H](C(=O)NNC(=O)c2ccccc2Cl)[C@H]2C=C[C@@H]1C2)c1ccc(-c2c3nc(c(-c4c(F)cccc4F)c4ccc([nH]4)c(-c4c(F)cccc4F)c4nc(c(-c5c(F)cccc5F)c5ccc2[nH]5)C=C4)C=C3)cc1
REMARK SMILES IDX 5 1 4 2 3 3 2 4 1 5 29 6 30 7 82 8 31 9 81 10 32 11 33 12
REMARK SMILES IDX 34 13 75 14 35 15 80 16 74 17 76 18 36 19 79 20 73 21 72 22
REMARK SMILES IDX 37 24 63 25 46 26 62 27 47 28 50 29 61 30 77 31 48 32 49 33
REMARK SMILES IDX 60 35 78 36 51 37 38 38 39 39 44 40 40 41 41 42 43 43 45 44
REMARK SMILES IDX 42 45 64 46 65 47 70 48 66 49 67 50 69 51 71 52 68 53 52 54
REMARK SMILES IDX 53 55 58 56 54 57 55 58 57 59 59 60 56 61 6 62 7 63 8 64
REMARK SMILES IDX 9 65 10 66 27 67 24 68 26 69 28 70 25 71 11 72 12 73 13 74
REMARK SMILES IDX 14 76 15 77 16 79 17 80 18 81 22 82 19 83 21 84 23 85 20 86
REMARK H PARENT 76 23 50 34 13 75 14 78
REMARK Flexibility Score: inf
ROOT
ATOM      1  C   UNL A   1      37.575  20.352  24.544  1.00  0.00     0.274 C 
ENDROOT
BRANCH   1   2
ATOM      2  C   UNL A   1      38.692  20.596  25.562  1.00  0.00     0.275 C 
BRANCH   2   3
ATOM      3  O   UNL A   1      39.492  19.441  25.834  1.00  0.00    -0.458 OA
BRANCH   3   4
ATOM      4  C   UNL A   1      40.839  19.578  25.864  1.00  0.00     0.338 C 
ATOM      5  O   UNL A   1      41.613  18.650  25.670  1.00  0.00    -0.246 OA
BRANCH   4   6
ATOM      6  C   UNL A   1      41.278  20.817  26.534  1.00  0.00     0.060 A 
ATOM      7  C   UNL A   1      41.116  21.052  27.903  1.00  0.00     0.016 A 
ATOM      8  C   UNL A   1      41.848  21.790  25.722  1.00  0.00     0.016 A 
ATOM      9  C   UNL A   1      41.580  22.250  28.468  1.00  0.00     0.010 A 
ATOM     10  C   UNL A   1      42.333  22.963  26.290  1.00  0.00     0.010 A 
ATOM     11  C   UNL A   1      42.207  23.214  27.668  1.00  0.00    -0.014 A 
BRANCH  11  12
ATOM     12  C   UNL A   1      42.680  24.526  28.191  1.00  0.00     0.031 A 
ATOM     13  C   UNL A   1      41.692  25.657  28.319  1.00  0.00     0.074 A 
ATOM     14  C   UNL A   1      43.990  24.773  28.397  1.00  0.00     0.049 A 
ATOM     15  N   UNL A   1      41.903  26.919  28.600  1.00  0.00    -0.248 NA
ATOM     16  C   UNL A   1      40.280  25.327  28.062  1.00  0.00     0.031 C 
ATOM     17  C   UNL A   1      45.079  23.807  28.262  1.00  0.00     0.029 A 
ATOM     18  N   UNL A   1      44.635  25.954  28.682  1.00  0.00    -0.354 N 
ATOM     19  C   UNL A   1      40.652  27.521  28.564  1.00  0.00     0.074 A 
ATOM     20  C   UNL A   1      39.712  26.520  28.110  1.00  0.00     0.031 C 
ATOM     21  C   UNL A   1      46.256  24.454  28.331  1.00  0.00     0.029 A 
ATOM     22  C   UNL A   1      46.004  25.869  28.579  1.00  0.00     0.049 A 
ATOM     23  H   UNL A   1      44.164  26.780  28.936  1.00  0.00     0.167 HD
ATOM     24  C   UNL A   1      40.297  28.768  28.953  1.00  0.00     0.037 A 
ATOM     25  C   UNL A   1      46.949  26.823  28.674  1.00  0.00     0.037 A 
ATOM     26  C   UNL A   1      41.215  29.747  29.460  1.00  0.00     0.049 A 
ATOM     27  C   UNL A   1      46.555  28.211  29.090  1.00  0.00     0.074 A 
ATOM     28  C   UNL A   1      40.947  30.978  30.031  1.00  0.00     0.029 A 
ATOM     29  N   UNL A   1      42.592  29.597  29.453  1.00  0.00    -0.354 N 
ATOM     30  N   UNL A   1      45.357  28.720  29.230  1.00  0.00    -0.248 NA
ATOM     31  C   UNL A   1      47.647  29.132  29.441  1.00  0.00     0.031 C 
ATOM     32  C   UNL A   1      42.168  31.574  30.371  1.00  0.00     0.029 A 
ATOM     33  C   UNL A   1      43.190  30.708  30.019  1.00  0.00     0.049 A 
ATOM     34  H   UNL A   1      43.074  28.815  29.097  1.00  0.00     0.167 HD
ATOM     35  C   UNL A   1      45.545  29.984  29.772  1.00  0.00     0.074 A 
ATOM     36  C   UNL A   1      46.975  30.186  29.886  1.00  0.00     0.031 C 
ATOM     37  C   UNL A   1      44.611  30.877  30.177  1.00  0.00     0.037 A 
BRANCH  24  38
ATOM     38  C   UNL A   1      38.831  29.080  28.925  1.00  0.00     0.057 A 
ATOM     39  C   UNL A   1      38.221  29.561  27.756  1.00  0.00     0.134 A 
ATOM     40  C   UNL A   1      38.033  28.951  30.065  1.00  0.00     0.134 A 
ATOM     41  F   UNL A   1      38.937  29.718  26.631  1.00  0.00    -0.206 F 
ATOM     42  C   UNL A   1      36.885  29.956  27.737  1.00  0.00     0.040 A 
ATOM     43  C   UNL A   1      36.686  29.319  30.052  1.00  0.00     0.040 A 
ATOM     44  F   UNL A   1      38.552  28.490  31.213  1.00  0.00    -0.206 F 
ATOM     45  C   UNL A   1      36.112  29.837  28.890  1.00  0.00     0.006 A 
ENDBRANCH  24  38
BRANCH  25  46
ATOM     46  C   UNL A   1      48.376  26.485  28.459  1.00  0.00     0.057 A 
ATOM     47  C   UNL A   1      48.974  26.640  27.205  1.00  0.00     0.134 A 
ATOM     48  C   UNL A   1      49.163  25.974  29.496  1.00  0.00     0.134 A 
ATOM     49  F   UNL A   1      48.260  27.111  26.171  1.00  0.00    -0.206 F 
ATOM     50  C   UNL A   1      50.302  26.278  26.980  1.00  0.00     0.040 A 
ATOM     51  C   UNL A   1      50.497  25.616  29.288  1.00  0.00     0.040 A 
ATOM     52  F   UNL A   1      48.644  25.804  30.720  1.00  0.00    -0.206 F 
ATOM     53  C   UNL A   1      51.068  25.762  28.024  1.00  0.00     0.006 A 
ENDBRANCH  25  46
BRANCH  37  54
ATOM     54  C   UNL A   1      45.092  32.098  30.895  1.00  0.00     0.057 A 
ATOM     55  C   UNL A   1      45.374  33.295  30.229  1.00  0.00     0.134 A 
ATOM     56  C   UNL A   1      45.232  32.078  32.289  1.00  0.00     0.134 A 
ATOM     57  F   UNL A   1      45.276  33.369  28.893  1.00  0.00    -0.206 F 
ATOM     58  C   UNL A   1      45.785  34.432  30.926  1.00  0.00     0.040 A 
ATOM     59  C   UNL A   1      45.625  33.212  32.998  1.00  0.00     0.040 A 
ATOM     60  F   UNL A   1      44.978  30.958  32.983  1.00  0.00    -0.206 F 
ATOM     61  C   UNL A   1      45.904  34.395  32.315  1.00  0.00     0.006 A 
ENDBRANCH  37  54
ENDBRANCH  11  12
ENDBRANCH   4   6
ENDBRANCH   3   4
ENDBRANCH   2   3
ENDBRANCH   1   2
BRANCH   1  62
ATOM     62  O   UNL A   1      36.590  19.388  24.947  1.00  0.00    -0.462 OA
BRANCH  62  63
ATOM     63  C   UNL A   1      35.314  19.840  24.940  1.00  0.00     0.310 C 
ATOM     64  O   UNL A   1      35.014  21.023  24.807  1.00  0.00    -0.252 OA
BRANCH  63  65
ATOM     65  C   UNL A   1      34.271  18.781  25.237  1.00  0.00     0.119 C 
ATOM     66  C   UNL A   1      32.752  19.022  24.967  1.00  0.00     0.102 C 
ATOM     67  C   UNL A   1      34.520  17.389  24.611  1.00  0.00     0.027 C 
ATOM     68  C   UNL A   1      32.314  17.654  24.340  1.00  0.00     0.025 C 
ATOM     69  C   UNL A   1      34.239  17.410  23.134  1.00  0.00    -0.027 C 
ATOM     70  C   UNL A   1      33.242  16.662  25.056  1.00  0.00     0.017 C 
ATOM     71  C   UNL A   1      32.915  17.512  22.969  1.00  0.00    -0.027 C 
BRANCH  66  72
ATOM     72  C   UNL A   1      32.341  20.227  24.128  1.00  0.00     0.242 C 
ATOM     73  O   UNL A   1      32.082  20.139  22.926  1.00  0.00    -0.273 OA
ATOM     74  N   UNL A   1      32.154  21.440  24.733  1.00  0.00    -0.267 N 
ATOM     75  H   UNL A   1      32.123  22.240  24.158  1.00  0.00     0.191 HD
BRANCH  74  76
ATOM     76  N   UNL A   1      32.004  21.623  26.101  1.00  0.00    -0.263 N 
ATOM     77  C   UNL A   1      32.274  22.794  26.776  1.00  0.00     0.271 C 
ATOM     78  H   UNL A   1      31.681  20.856  26.629  1.00  0.00     0.191 HD
ATOM     79  O   UNL A   1      32.169  22.844  28.000  1.00  0.00    -0.267 OA
BRANCH  77  80
ATOM     80  C   UNL A   1      32.725  24.004  26.058  1.00  0.00     0.060 A 
ATOM     81  C   UNL A   1      34.102  24.118  25.820  1.00  0.00     0.015 A 
ATOM     82  C   UNL A   1      31.873  25.062  25.725  1.00  0.00     0.053 A 
ATOM     83  C   UNL A   1      34.620  25.266  25.220  1.00  0.00     0.001 A 
ATOM     84  C   UNL A   1      32.397  26.207  25.114  1.00  0.00     0.021 A 
ATOM     85  Cl  UNL A   1      30.182  25.052  26.077  1.00  0.00    -0.083 Cl
ATOM     86  C   UNL A   1      33.766  26.308  24.862  1.00  0.00     0.002 A 
ENDBRANCH  77  80
ENDBRANCH  74  76
ENDBRANCH  66  72
ENDBRANCH  63  65
ENDBRANCH  62  63
ENDBRANCH   1  62
TORSDOF 14
ENDMDL
MODEL 3
REMARK VINA RESULT:     -12.0      1.742      2.575
REMARK SMILES O=C(OCCOC(=O)[C@H]1[C@@H](C(=O)NNC(=O)c2ccccc2Cl)[C@H]2C=C[C@@H]1C2)c1ccc(-c2c3nc(c(-c4c(F)cccc4F)c4ccc([nH]4)c(-c4c(F)cccc4F)c4nc(c(-c5c(F)cccc5F)c5ccc2[nH]5)C=C4)C=C3)cc1
REMARK SMILES IDX 5 1 4 2 3 3 2 4 1 5 29 6 30 7 82 8 31 9 81 10 32 11 33 12
REMARK SMILES IDX 34 13 75 14 35 15 80 16 74 17 76 18 36 19 79 20 73 21 72 22
REMARK SMILES IDX 37 24 63 25 46 26 62 27 47 28 50 29 61 30 77 31 48 32 49 33
REMARK SMILES IDX 60 35 78 36 51 37 38 38 39 39 44 40 40 41 41 42 43 43 45 44
REMARK SMILES IDX 42 45 64 46 65 47 70 48 66 49 67 50 69 51 71 52 68 53 52 54
REMARK SMILES IDX 53 55 58 56 54 57 55 58 57 59 59 60 56 61 6 62 7 63 8 64
REMARK SMILES IDX 9 65 10 66 27 67 24 68 26 69 28 70 25 71 11 72 12 73 13 74
REMARK SMILES IDX 14 76 15 77 16 79 17 80 18 81 22 82 19 83 21 84 23 85 20 86
REMARK H PARENT 76 23 50 34 13 75 14 78
REMARK Flexibility Score: inf
ROOT
ATOM      1  C   UNL A   1      32.407  30.860  27.061  1.00  0.00     0.274 C 
ENDROOT
BRANCH   1   2
ATOM      2  C   UNL A   1      31.748  32.237  26.941  1.00  0.00     0.275 C 
BRANCH   2   3
ATOM      3  O   UNL A   1      32.677  33.326  26.934  1.00  0.00    -0.458 OA
BRANCH   3   4
ATOM      4  C   UNL A   1      32.971  33.934  28.108  1.00  0.00     0.338 C 
ATOM      5  O   UNL A   1      32.429  34.966  28.483  1.00  0.00    -0.246 OA
BRANCH   4   6
ATOM      6  C   UNL A   1      34.250  33.483  28.686  1.00  0.00     0.060 A 
ATOM      7  C   UNL A   1      35.496  33.964  28.273  1.00  0.00     0.016 A 
ATOM      8  C   UNL A   1      34.173  32.504  29.670  1.00  0.00     0.016 A 
ATOM      9  C   UNL A   1      36.668  33.499  28.889  1.00  0.00     0.010 A 
ATOM     10  C   UNL A   1      35.334  32.066  30.299  1.00  0.00     0.010 A 
ATOM     11  C   UNL A   1      36.597  32.553  29.920  1.00  0.00    -0.014 A 
BRANCH  11  12
ATOM     12  C   UNL A   1      37.801  31.980  30.586  1.00  0.00     0.031 A 
ATOM     13  C   UNL A   1      38.487  30.797  29.954  1.00  0.00     0.074 A 
ATOM     14  C   UNL A   1      38.190  32.387  31.811  1.00  0.00     0.049 A 
ATOM     15  N   UNL A   1      39.447  30.042  30.425  1.00  0.00    -0.248 NA
ATOM     16  C   UNL A   1      38.002  30.390  28.624  1.00  0.00     0.031 C 
ATOM     17  C   UNL A   1      37.599  33.478  32.584  1.00  0.00     0.029 A 
ATOM     18  N   UNL A   1      39.135  31.860  32.661  1.00  0.00    -0.354 N 
ATOM     19  C   UNL A   1      39.682  29.085  29.447  1.00  0.00     0.074 A 
ATOM     20  C   UNL A   1      38.684  29.276  28.418  1.00  0.00     0.031 C 
ATOM     21  C   UNL A   1      38.095  33.455  33.834  1.00  0.00     0.029 A 
ATOM     22  C   UNL A   1      39.086  32.390  33.930  1.00  0.00     0.049 A 
ATOM     23  H   UNL A   1      39.783  31.172  32.389  1.00  0.00     0.167 HD
ATOM     24  C   UNL A   1      40.688  28.182  29.363  1.00  0.00     0.037 A 
ATOM     25  C   UNL A   1      39.764  32.055  35.044  1.00  0.00     0.037 A 
ATOM     26  C   UNL A   1      41.716  28.027  30.351  1.00  0.00     0.049 A 
ATOM     27  C   UNL A   1      40.869  31.042  34.956  1.00  0.00     0.074 A 
ATOM     28  C   UNL A   1      42.868  27.262  30.297  1.00  0.00     0.029 A 
ATOM     29  N   UNL A   1      41.710  28.659  31.585  1.00  0.00    -0.354 N 
ATOM     30  N   UNL A   1      41.200  30.268  33.954  1.00  0.00    -0.248 NA
ATOM     31  C   UNL A   1      41.747  30.918  36.130  1.00  0.00     0.031 C 
ATOM     32  C   UNL A   1      43.561  27.433  31.502  1.00  0.00     0.029 A 
ATOM     33  C   UNL A   1      42.842  28.311  32.298  1.00  0.00     0.049 A 
ATOM     34  H   UNL A   1      41.004  29.265  31.905  1.00  0.00     0.167 HD
ATOM     35  C   UNL A   1      42.374  29.634  34.338  1.00  0.00     0.074 A 
ATOM     36  C   UNL A   1      42.670  30.074  35.685  1.00  0.00     0.031 C 
ATOM     37  C   UNL A   1      43.156  28.795  33.617  1.00  0.00     0.037 A 
BRANCH  24  38
ATOM     38  C   UNL A   1      40.751  27.374  28.103  1.00  0.00     0.057 A 
ATOM     39  C   UNL A   1      40.125  26.121  28.020  1.00  0.00     0.134 A 
ATOM     40  C   UNL A   1      41.472  27.812  26.988  1.00  0.00     0.134 A 
ATOM     41  F   UNL A   1      39.428  25.640  29.062  1.00  0.00    -0.206 F 
ATOM     42  C   UNL A   1      40.260  25.309  26.896  1.00  0.00     0.040 A 
ATOM     43  C   UNL A   1      41.593  27.017  25.845  1.00  0.00     0.040 A 
ATOM     44  F   UNL A   1      42.089  29.003  26.998  1.00  0.00    -0.206 F 
ATOM     45  C   UNL A   1      40.998  25.756  25.804  1.00  0.00     0.006 A 
ENDBRANCH  24  38
BRANCH  25  46
ATOM     46  C   UNL A   1      39.484  32.745  36.325  1.00  0.00     0.057 A 
ATOM     47  C   UNL A   1      38.533  32.247  37.221  1.00  0.00     0.134 A 
ATOM     48  C   UNL A   1      40.140  33.932  36.666  1.00  0.00     0.134 A 
ATOM     49  F   UNL A   1      37.863  31.120  36.935  1.00  0.00    -0.206 F 
ATOM     50  C   UNL A   1      38.226  32.916  38.406  1.00  0.00     0.040 A 
ATOM     51  C   UNL A   1      39.850  34.608  37.853  1.00  0.00     0.040 A 
ATOM     52  F   UNL A   1      41.061  34.457  35.846  1.00  0.00    -0.206 F 
ATOM     53  C   UNL A   1      38.885  34.103  38.724  1.00  0.00     0.006 A 
ENDBRANCH  25  46
BRANCH  37  54
ATOM     54  C   UNL A   1      44.468  28.395  34.213  1.00  0.00     0.057 A 
ATOM     55  C   UNL A   1      45.627  29.160  34.050  1.00  0.00     0.134 A 
ATOM     56  C   UNL A   1      44.553  27.240  35.001  1.00  0.00     0.134 A 
ATOM     57  F   UNL A   1      45.611  30.266  33.292  1.00  0.00    -0.206 F 
ATOM     58  C   UNL A   1      46.832  28.785  34.647  1.00  0.00     0.040 A 
ATOM     59  C   UNL A   1      45.746  26.864  35.617  1.00  0.00     0.040 A 
ATOM     60  F   UNL A   1      43.474  26.464  35.191  1.00  0.00    -0.206 F 
ATOM     61  C   UNL A   1      46.891  27.639  35.440  1.00  0.00     0.006 A 
ENDBRANCH  37  54
ENDBRANCH  11  12
ENDBRANCH   4   6
ENDBRANCH   3   4
ENDBRANCH   2   3
ENDBRANCH   1   2
BRANCH   1  62
ATOM     62  O   UNL A   1      32.543  30.146  25.823  1.00  0.00    -0.462 OA
BRANCH  62  63
ATOM     63  C   UNL A   1      33.240  28.988  25.906  1.00  0.00     0.310 C 
ATOM     64  O   UNL A   1      33.503  28.430  26.967  1.00  0.00    -0.252 OA
BRANCH  63  65
ATOM     65  C   UNL A   1      33.786  28.488  24.584  1.00  0.00     0.119 C 
ATOM     66  C   UNL A   1      33.917  26.964  24.270  1.00  0.00     0.102 C 
ATOM     67  C   UNL A   1      33.107  29.049  23.313  1.00  0.00     0.027 C 
ATOM     68  C   UNL A   1      33.414  26.895  22.787  1.00  0.00     0.025 C 
ATOM     69  C   UNL A   1      31.752  28.429  23.113  1.00  0.00    -0.027 C 
ATOM     70  C   UNL A   1      33.861  28.255  22.234  1.00  0.00     0.017 C 
ATOM     71  C   UNL A   1      31.934  27.156  22.744  1.00  0.00    -0.027 C 
BRANCH  66  72
ATOM     72  C   UNL A   1      33.220  25.967  25.188  1.00  0.00     0.242 C 
ATOM     73  O   UNL A   1      32.000  25.972  25.367  1.00  0.00    -0.273 OA
ATOM     74  N   UNL A   1      33.944  24.961  25.769  1.00  0.00    -0.267 N 
ATOM     75  H   UNL A   1      33.538  24.482  26.528  1.00  0.00     0.191 HD
BRANCH  74  76
ATOM     76  N   UNL A   1      35.212  24.568  25.362  1.00  0.00    -0.263 N 
ATOM     77  C   UNL A   1      35.477  23.529  24.495  1.00  0.00     0.271 C 
ATOM     78  H   UNL A   1      35.980  25.070  25.720  1.00  0.00     0.191 HD
ATOM     79  O   UNL A   1      36.639  23.215  24.240  1.00  0.00    -0.267 OA
BRANCH  77  80
ATOM     80  C   UNL A   1      34.385  22.748  23.881  1.00  0.00     0.060 A 
ATOM     81  C   UNL A   1      33.848  23.248  22.686  1.00  0.00     0.015 A 
ATOM     82  C   UNL A   1      33.801  21.633  24.490  1.00  0.00     0.053 A 
ATOM     83  C   UNL A   1      32.760  22.615  22.083  1.00  0.00     0.001 A 
ATOM     84  C   UNL A   1      32.716  20.996  23.877  1.00  0.00     0.021 A 
ATOM     85  Cl  UNL A   1      34.327  21.013  26.014  1.00  0.00    -0.083 Cl
ATOM     86  C   UNL A   1      32.198  21.486  22.676  1.00  0.00     0.002 A 
ENDBRANCH  77  80
ENDBRANCH  74  76
ENDBRANCH  66  72
ENDBRANCH  63  65
ENDBRANCH  62  63
ENDBRANCH   1  62
TORSDOF 14
ENDMDL
