MODEL 1
REMARK VINA RESULT:     -11.6      0.000      0.000
REMARK SMILES Cc1[nH]c2ccccc2c1[C@@H](C(=O)OCCOC(=O)c1ccc(-c2c3nc(c(-c4c(F)cccc4F)c4ccc([nH]4)c(-c4c(F)cccc4F)c4nc(c(-c5c(F)cccc5F)c5ccc2[nH]5)C=C4)C=C3)cc1)[NH+]1CCCC1
REMARK SMILES IDX 16 1 15 2 14 3 12 4 13 5 11 6 10 7 1 8 2 9 3 10 4 11 9 13
REMARK SMILES IDX 5 14 8 15 6 16 7 17 74 18 75 19 78 20 76 22 77 23 17 24
REMARK SMILES IDX 18 25 19 26 20 27 21 28 73 29 22 30 72 31 23 32 24 33 25 34
REMARK SMILES IDX 66 35 26 36 71 37 65 38 67 39 27 40 70 41 64 42 63 43 28 45
REMARK SMILES IDX 54 46 37 47 53 48 38 49 41 50 52 51 68 52 39 53 40 54 51 56
REMARK SMILES IDX 69 57 42 58 29 59 30 60 35 61 31 62 32 63 34 64 36 65 33 66
REMARK SMILES IDX 55 67 56 68 61 69 57 70 58 71 60 72 62 73 59 74 43 75 44 76
REMARK SMILES IDX 49 77 45 78 46 79 48 80 50 81 47 82
REMARK H PARENT 3 12 74 21 67 44 41 55
REMARK Flexibility Score: inf
ROOT
ATOM      1  C   UNL A   1      31.533  29.599  26.711  1.00  0.00     0.275 C 
ENDROOT
BRANCH   1   2
ATOM      2  C   UNL A   1      31.760  28.289  27.463  1.00  0.00     0.274 C 
BRANCH   2   3
ATOM      3  O   UNL A   1      32.234  27.244  26.586  1.00  0.00    -0.457 OA
BRANCH   3   4
ATOM      4  C   UNL A   1      31.308  26.739  25.720  1.00  0.00     0.370 C 
ATOM      5  O   UNL A   1      30.283  26.168  26.095  1.00  0.00    -0.245 OA
BRANCH   4   6
ATOM      6  C   UNL A   1      31.746  26.774  24.245  1.00  0.00     0.328 C 
BRANCH   6   7
ATOM      7  C   UNL A   1      31.380  27.991  23.420  1.00  0.00     0.049 A 
ATOM      8  C   UNL A   1      33.798  28.789  22.753  1.00  0.00     0.065 C 
ATOM      9  C   UNL A   1      32.310  28.801  22.766  1.00  0.00     0.022 A 
ATOM     10  N   UNL A   1      31.623  29.704  22.000  1.00  0.00    -0.358 N 
ATOM     11  C   UNL A   1      30.272  29.546  22.159  1.00  0.00     0.046 A 
ATOM     12  H   UNL A   1      32.043  30.375  21.415  1.00  0.00     0.166 HD
ATOM     13  C   UNL A   1      30.081  28.547  23.116  1.00  0.00     0.009 A 
ATOM     14  C   UNL A   1      29.219  30.218  21.525  1.00  0.00     0.027 A 
ATOM     15  C   UNL A   1      28.751  28.279  23.513  1.00  0.00     0.011 A 
ATOM     16  C   UNL A   1      27.916  29.879  21.891  1.00  0.00     0.002 A 
ATOM     17  C   UNL A   1      27.683  28.936  22.885  1.00  0.00     0.001 A 
ENDBRANCH   6   7
BRANCH   6  18
ATOM     18  N   UNL A   1      31.547  25.463  23.566  1.00  0.00    -0.319 N 
ATOM     19  C   UNL A   1      32.471  24.408  23.981  1.00  0.00     0.263 C 
ATOM     20  C   UNL A   1      31.545  25.421  22.110  1.00  0.00     0.263 C 
ATOM     21  H   UNL A   1      30.594  25.300  23.890  1.00  0.00     0.349 HD
ATOM     22  C   UNL A   1      33.553  24.350  22.916  1.00  0.00     0.067 C 
ATOM     23  C   UNL A   1      32.907  24.913  21.662  1.00  0.00     0.067 C 
ENDBRANCH   6  18
ENDBRANCH   4   6
ENDBRANCH   3   4
ENDBRANCH   2   3
ENDBRANCH   1   2
BRANCH   1  24
ATOM     24  O   UNL A   1      32.798  30.143  26.300  1.00  0.00    -0.458 OA
BRANCH  24  25
ATOM     25  C   UNL A   1      33.261  31.192  27.017  1.00  0.00     0.338 C 
ATOM     26  O   UNL A   1      32.671  32.234  27.244  1.00  0.00    -0.246 OA
BRANCH  25  27
ATOM     27  C   UNL A   1      34.602  30.890  27.579  1.00  0.00     0.060 A 
ATOM     28  C   UNL A   1      35.024  29.581  27.800  1.00  0.00     0.016 A 
ATOM     29  C   UNL A   1      35.413  31.944  28.008  1.00  0.00     0.016 A 
ATOM     30  C   UNL A   1      36.178  29.329  28.542  1.00  0.00     0.010 A 
ATOM     31  C   UNL A   1      36.622  31.684  28.670  1.00  0.00     0.010 A 
ATOM     32  C   UNL A   1      37.000  30.370  28.994  1.00  0.00    -0.014 A 
BRANCH  32  33
ATOM     33  C   UNL A   1      38.204  30.090  29.838  1.00  0.00     0.031 A 
ATOM     34  C   UNL A   1      39.368  29.301  29.282  1.00  0.00     0.074 A 
ATOM     35  C   UNL A   1      38.294  30.554  31.102  1.00  0.00     0.049 A 
ATOM     36  N   UNL A   1      40.380  28.759  29.917  1.00  0.00    -0.248 NA
ATOM     37  C   UNL A   1      39.390  29.076  27.829  1.00  0.00     0.031 C 
ATOM     38  C   UNL A   1      37.292  31.373  31.785  1.00  0.00     0.029 A 
ATOM     39  N   UNL A   1      39.296  30.420  32.035  1.00  0.00    -0.354 N 
ATOM     40  C   UNL A   1      41.101  28.056  28.958  1.00  0.00     0.074 A 
ATOM     41  C   UNL A   1      40.426  28.260  27.694  1.00  0.00     0.031 C 
ATOM     42  C   UNL A   1      37.758  31.730  32.990  1.00  0.00     0.029 A 
ATOM     43  C   UNL A   1      39.040  31.071  33.217  1.00  0.00     0.049 A 
ATOM     44  H   UNL A   1      40.119  29.904  31.872  1.00  0.00     0.167 HD
ATOM     45  C   UNL A   1      42.216  27.302  29.120  1.00  0.00     0.037 A 
ATOM     46  C   UNL A   1      39.723  31.105  34.377  1.00  0.00     0.037 A 
ATOM     47  C   UNL A   1      42.949  27.178  30.355  1.00  0.00     0.049 A 
ATOM     48  C   UNL A   1      40.969  30.287  34.528  1.00  0.00     0.074 A 
ATOM     49  C   UNL A   1      44.097  26.445  30.607  1.00  0.00     0.029 A 
ATOM     50  N   UNL A   1      42.631  27.834  31.533  1.00  0.00    -0.354 N 
ATOM     51  N   UNL A   1      41.565  29.520  33.649  1.00  0.00    -0.248 NA
ATOM     52  C   UNL A   1      41.618  30.310  35.847  1.00  0.00     0.031 C 
ATOM     53  C   UNL A   1      44.464  26.644  31.943  1.00  0.00     0.029 A 
ATOM     54  C   UNL A   1      43.563  27.526  32.512  1.00  0.00     0.049 A 
ATOM     55  H   UNL A   1      41.857  28.430  31.657  1.00  0.00     0.167 HD
ATOM     56  C   UNL A   1      42.647  28.957  34.310  1.00  0.00     0.074 A 
ATOM     57  C   UNL A   1      42.648  29.500  35.653  1.00  0.00     0.031 C 
ATOM     58  C   UNL A   1      43.549  28.058  33.849  1.00  0.00     0.037 A 
BRANCH  45  59
ATOM     59  C   UNL A   1      42.706  26.514  27.941  1.00  0.00     0.057 A 
ATOM     60  C   UNL A   1      42.262  25.215  27.669  1.00  0.00     0.134 A 
ATOM     61  C   UNL A   1      43.585  27.103  27.021  1.00  0.00     0.134 A 
ATOM     62  F   UNL A   1      41.430  24.590  28.516  1.00  0.00    -0.206 F 
ATOM     63  C   UNL A   1      42.685  24.525  26.531  1.00  0.00     0.040 A 
ATOM     64  C   UNL A   1      43.996  26.433  25.869  1.00  0.00     0.040 A 
ATOM     65  F   UNL A   1      44.041  28.349  27.218  1.00  0.00    -0.206 F 
ATOM     66  C   UNL A   1      43.547  25.138  25.622  1.00  0.00     0.006 A 
ENDBRANCH  45  59
BRANCH  46  67
ATOM     67  C   UNL A   1      39.203  31.910  35.509  1.00  0.00     0.057 A 
ATOM     68  C   UNL A   1      38.340  31.348  36.456  1.00  0.00     0.134 A 
ATOM     69  C   UNL A   1      39.577  33.248  35.686  1.00  0.00     0.134 A 
ATOM     70  F   UNL A   1      37.924  30.080  36.322  1.00  0.00    -0.206 F 
ATOM     71  C   UNL A   1      37.870  32.087  37.542  1.00  0.00     0.040 A 
ATOM     72  C   UNL A   1      39.137  33.989  36.781  1.00  0.00     0.040 A 
ATOM     73  F   UNL A   1      40.400  33.842  34.810  1.00  0.00    -0.206 F 
ATOM     74  C   UNL A   1      38.279  33.409  37.713  1.00  0.00     0.006 A 
ENDBRANCH  46  67
BRANCH  58  75
ATOM     75  C   UNL A   1      44.610  27.614  34.807  1.00  0.00     0.057 A 
ATOM     76  C   UNL A   1      44.438  26.484  35.617  1.00  0.00     0.134 A 
ATOM     77  C   UNL A   1      45.810  28.323  34.927  1.00  0.00     0.134 A 
ATOM     78  F   UNL A   1      43.303  25.771  35.557  1.00  0.00    -0.206 F 
ATOM     79  C   UNL A   1      45.413  26.090  36.534  1.00  0.00     0.040 A 
ATOM     80  C   UNL A   1      46.802  27.928  35.828  1.00  0.00     0.040 A 
ATOM     81  F   UNL A   1      46.037  29.411  34.177  1.00  0.00    -0.206 F 
ATOM     82  C   UNL A   1      46.601  26.813  36.640  1.00  0.00     0.006 A 
ENDBRANCH  58  75
ENDBRANCH  32  33
ENDBRANCH  25  27
ENDBRANCH  24  25
ENDBRANCH   1  24
TORSDOF 13
ENDMDL
MODEL 2
REMARK VINA RESULT:     -11.6      4.480      9.265
REMARK SMILES Cc1[nH]c2ccccc2c1[C@@H](C(=O)OCCOC(=O)c1ccc(-c2c3nc(c(-c4c(F)cccc4F)c4ccc([nH]4)c(-c4c(F)cccc4F)c4nc(c(-c5c(F)cccc5F)c5ccc2[nH]5)C=C4)C=C3)cc1)[NH+]1CCCC1
REMARK SMILES IDX 16 1 15 2 14 3 12 4 13 5 11 6 10 7 1 8 2 9 3 10 4 11 9 13
REMARK SMILES IDX 5 14 8 15 6 16 7 17 74 18 75 19 78 20 76 22 77 23 17 24
REMARK SMILES IDX 18 25 19 26 20 27 21 28 73 29 22 30 72 31 23 32 24 33 25 34
REMARK SMILES IDX 66 35 26 36 71 37 65 38 67 39 27 40 70 41 64 42 63 43 28 45
REMARK SMILES IDX 54 46 37 47 53 48 38 49 41 50 52 51 68 52 39 53 40 54 51 56
REMARK SMILES IDX 69 57 42 58 29 59 30 60 35 61 31 62 32 63 34 64 36 65 33 66
REMARK SMILES IDX 55 67 56 68 61 69 57 70 58 71 60 72 62 73 59 74 43 75 44 76
REMARK SMILES IDX 49 77 45 78 46 79 48 80 50 81 47 82
REMARK H PARENT 3 12 74 21 67 44 41 55
REMARK Flexibility Score: inf
ROOT
ATOM      1  C   UNL A   1      36.742  21.448  24.240  1.00  0.00     0.275 C 
ENDROOT
BRANCH   1   2
ATOM      2  C   UNL A   1      36.711  22.716  23.389  1.00  0.00     0.274 C 
BRANCH   2   3
ATOM      3  O   UNL A   1      35.685  23.632  23.830  1.00  0.00    -0.457 OA
BRANCH   3   4
ATOM      4  C   UNL A   1      34.413  23.317  23.449  1.00  0.00     0.370 C 
ATOM      5  O   UNL A   1      34.038  23.355  22.277  1.00  0.00    -0.245 OA
BRANCH   4   6
ATOM      6  C   UNL A   1      33.444  23.099  24.625  1.00  0.00     0.328 C 
BRANCH   6   7
ATOM      7  C   UNL A   1      33.405  21.731  25.274  1.00  0.00     0.049 A 
ATOM      8  C   UNL A   1      34.075  22.411  27.727  1.00  0.00     0.065 C 
ATOM      9  C   UNL A   1      33.649  21.501  26.629  1.00  0.00     0.022 A 
ATOM     10  N   UNL A   1      33.380  20.185  26.893  1.00  0.00    -0.358 N 
ATOM     11  C   UNL A   1      33.008  19.528  25.750  1.00  0.00     0.046 A 
ATOM     12  H   UNL A   1      33.445  19.768  27.782  1.00  0.00     0.166 HD
ATOM     13  C   UNL A   1      33.107  20.440  24.697  1.00  0.00     0.009 A 
ATOM     14  C   UNL A   1      32.597  18.199  25.584  1.00  0.00     0.027 A 
ATOM     15  C   UNL A   1      32.859  19.950  23.394  1.00  0.00     0.011 A 
ATOM     16  C   UNL A   1      32.293  17.768  24.293  1.00  0.00     0.002 A 
ATOM     17  C   UNL A   1      32.440  18.625  23.208  1.00  0.00     0.001 A 
ENDBRANCH   6   7
BRANCH   6  18
ATOM     18  N   UNL A   1      32.114  23.725  24.382  1.00  0.00    -0.319 N 
ATOM     19  C   UNL A   1      32.068  25.172  24.585  1.00  0.00     0.263 C 
ATOM     20  C   UNL A   1      30.954  23.201  25.091  1.00  0.00     0.263 C 
ATOM     21  H   UNL A   1      32.032  23.463  23.400  1.00  0.00     0.349 HD
ATOM     22  C   UNL A   1      31.479  25.389  25.968  1.00  0.00     0.067 C 
ATOM     23  C   UNL A   1      30.659  24.141  26.250  1.00  0.00     0.067 C 
ENDBRANCH   6  18
ENDBRANCH   4   6
ENDBRANCH   3   4
ENDBRANCH   2   3
ENDBRANCH   1   2
BRANCH   1  24
ATOM     24  O   UNL A   1      37.154  21.777  25.577  1.00  0.00    -0.458 OA
BRANCH  24  25
ATOM     25  C   UNL A   1      38.444  21.514  25.888  1.00  0.00     0.338 C 
ATOM     26  O   UNL A   1      39.047  20.477  25.670  1.00  0.00    -0.246 OA
BRANCH  25  27
ATOM     27  C   UNL A   1      39.090  22.707  26.490  1.00  0.00     0.060 A 
ATOM     28  C   UNL A   1      38.632  23.996  26.229  1.00  0.00     0.016 A 
ATOM     29  C   UNL A   1      40.259  22.543  27.240  1.00  0.00     0.016 A 
ATOM     30  C   UNL A   1      39.391  25.103  26.609  1.00  0.00     0.010 A 
ATOM     31  C   UNL A   1      40.967  23.662  27.702  1.00  0.00     0.010 A 
ATOM     32  C   UNL A   1      40.572  24.963  27.350  1.00  0.00    -0.014 A 
BRANCH  32  33
ATOM     33  C   UNL A   1      41.407  26.154  27.700  1.00  0.00     0.031 A 
ATOM     34  C   UNL A   1      40.871  27.228  28.621  1.00  0.00     0.074 A 
ATOM     35  C   UNL A   1      42.665  26.288  27.230  1.00  0.00     0.049 A 
ATOM     36  N   UNL A   1      41.339  28.430  28.852  1.00  0.00    -0.248 NA
ATOM     37  C   UNL A   1      39.640  26.917  29.364  1.00  0.00     0.031 C 
ATOM     38  C   UNL A   1      43.363  25.330  26.373  1.00  0.00     0.029 A 
ATOM     39  N   UNL A   1      43.592  27.285  27.429  1.00  0.00    -0.354 N 
ATOM     40  C   UNL A   1      40.414  29.048  29.687  1.00  0.00     0.074 A 
ATOM     41  C   UNL A   1      39.370  28.079  29.944  1.00  0.00     0.031 C 
ATOM     42  C   UNL A   1      44.625  25.743  26.184  1.00  0.00     0.029 A 
ATOM     43  C   UNL A   1      44.794  27.051  26.805  1.00  0.00     0.049 A 
ATOM     44  H   UNL A   1      43.413  28.089  27.967  1.00  0.00     0.167 HD
ATOM     45  C   UNL A   1      40.430  30.308  30.185  1.00  0.00     0.037 A 
ATOM     46  C   UNL A   1      45.899  27.814  26.694  1.00  0.00     0.037 A 
ATOM     47  C   UNL A   1      41.515  31.242  30.017  1.00  0.00     0.049 A 
ATOM     48  C   UNL A   1      45.908  29.195  27.276  1.00  0.00     0.074 A 
ATOM     49  C   UNL A   1      41.621  32.537  30.497  1.00  0.00     0.029 A 
ATOM     50  N   UNL A   1      42.698  30.968  29.350  1.00  0.00    -0.354 N 
ATOM     51  N   UNL A   1      44.970  29.813  27.950  1.00  0.00    -0.248 NA
ATOM     52  C   UNL A   1      47.117  29.999  27.047  1.00  0.00     0.031 C 
ATOM     53  C   UNL A   1      42.862  33.053  30.106  1.00  0.00     0.029 A 
ATOM     54  C   UNL A   1      43.541  32.067  29.410  1.00  0.00     0.049 A 
ATOM     55  H   UNL A   1      42.909  30.119  28.899  1.00  0.00     0.167 HD
ATOM     56  C   UNL A   1      45.467  31.082  28.213  1.00  0.00     0.074 A 
ATOM     57  C   UNL A   1      46.805  31.133  27.658  1.00  0.00     0.031 C 
ATOM     58  C   UNL A   1      44.862  32.116  28.843  1.00  0.00     0.037 A 
BRANCH  45  59
ATOM     59  C   UNL A   1      39.221  30.779  30.938  1.00  0.00     0.057 A 
ATOM     60  C   UNL A   1      38.130  31.384  30.304  1.00  0.00     0.134 A 
ATOM     61  C   UNL A   1      39.122  30.552  32.319  1.00  0.00     0.134 A 
ATOM     62  F   UNL A   1      38.165  31.640  28.988  1.00  0.00    -0.206 F 
ATOM     63  C   UNL A   1      36.989  31.757  31.018  1.00  0.00     0.040 A 
ATOM     64  C   UNL A   1      37.979  30.899  33.038  1.00  0.00     0.040 A 
ATOM     65  F   UNL A   1      40.129  29.968  32.986  1.00  0.00    -0.206 F 
ATOM     66  C   UNL A   1      36.907  31.505  32.387  1.00  0.00     0.006 A 
ENDBRANCH  45  59
BRANCH  46  67
ATOM     67  C   UNL A   1      47.073  27.297  25.950  1.00  0.00     0.057 A 
ATOM     68  C   UNL A   1      47.218  27.533  24.579  1.00  0.00     0.134 A 
ATOM     69  C   UNL A   1      48.088  26.581  26.596  1.00  0.00     0.134 A 
ATOM     70  F   UNL A   1      46.263  28.188  23.902  1.00  0.00    -0.206 F 
ATOM     71  C   UNL A   1      48.334  27.079  23.876  1.00  0.00     0.040 A 
ATOM     72  C   UNL A   1      49.222  26.145  25.911  1.00  0.00     0.040 A 
ATOM     73  F   UNL A   1      48.005  26.321  27.909  1.00  0.00    -0.206 F 
ATOM     74  C   UNL A   1      49.346  26.393  24.546  1.00  0.00     0.006 A 
ENDBRANCH  46  67
BRANCH  58  75
ATOM     75  C   UNL A   1      45.648  33.384  28.967  1.00  0.00     0.057 A 
ATOM     76  C   UNL A   1      46.489  33.620  30.062  1.00  0.00     0.134 A 
ATOM     77  C   UNL A   1      45.561  34.381  27.988  1.00  0.00     0.134 A 
ATOM     78  F   UNL A   1      46.604  32.708  31.040  1.00  0.00    -0.206 F 
ATOM     79  C   UNL A   1      47.196  34.817  30.194  1.00  0.00     0.040 A 
ATOM     80  C   UNL A   1      46.276  35.574  28.099  1.00  0.00     0.040 A 
ATOM     81  F   UNL A   1      44.776  34.213  26.914  1.00  0.00    -0.206 F 
ATOM     82  C   UNL A   1      47.091  35.797  29.208  1.00  0.00     0.006 A 
ENDBRANCH  58  75
ENDBRANCH  32  33
ENDBRANCH  25  27
ENDBRANCH  24  25
ENDBRANCH   1  24
TORSDOF 13
ENDMDL
MODEL 3
REMARK VINA RESULT:     -11.2      4.161      8.624
REMARK SMILES Cc1[nH]c2ccccc2c1[C@@H](C(=O)OCCOC(=O)c1ccc(-c2c3nc(c(-c4c(F)cccc4F)c4ccc([nH]4)c(-c4c(F)cccc4F)c4nc(c(-c5c(F)cccc5F)c5ccc2[nH]5)C=C4)C=C3)cc1)[NH+]1CCCC1
REMARK SMILES IDX 16 1 15 2 14 3 12 4 13 5 11 6 10 7 1 8 2 9 3 10 4 11 9 13
REMARK SMILES IDX 5 14 8 15 6 16 7 17 74 18 75 19 78 20 76 22 77 23 17 24
REMARK SMILES IDX 18 25 19 26 20 27 21 28 73 29 22 30 72 31 23 32 24 33 25 34
REMARK SMILES IDX 66 35 26 36 71 37 65 38 67 39 27 40 70 41 64 42 63 43 28 45
REMARK SMILES IDX 54 46 37 47 53 48 38 49 41 50 52 51 68 52 39 53 40 54 51 56
REMARK SMILES IDX 69 57 42 58 29 59 30 60 35 61 31 62 32 63 34 64 36 65 33 66
REMARK SMILES IDX 55 67 56 68 61 69 57 70 58 71 60 72 62 73 59 74 43 75 44 76
REMARK SMILES IDX 49 77 45 78 46 79 48 80 50 81 47 82
REMARK H PARENT 3 12 74 21 67 44 41 55
REMARK Flexibility Score: inf
ROOT
ATOM      1  C   UNL A   1      35.926  20.401  24.970  1.00  0.00     0.275 C 
ENDROOT
BRANCH   1   2
ATOM      2  C   UNL A   1      34.814  21.089  25.758  1.00  0.00     0.274 C 
BRANCH   2   3
ATOM      3  O   UNL A   1      34.298  22.242  25.060  1.00  0.00    -0.457 OA
BRANCH   3   4
ATOM      4  C   UNL A   1      34.023  23.328  25.841  1.00  0.00     0.370 C 
ATOM      5  O   UNL A   1      34.000  23.277  27.071  1.00  0.00    -0.245 OA
BRANCH   4   6
ATOM      6  C   UNL A   1      33.559  24.564  25.052  1.00  0.00     0.328 C 
BRANCH   6   7
ATOM      7  C   UNL A   1      32.630  25.544  25.740  1.00  0.00     0.049 A 
ATOM      8  C   UNL A   1      30.620  23.925  26.255  1.00  0.00     0.065 C 
ATOM      9  C   UNL A   1      31.387  25.200  26.275  1.00  0.00     0.022 A 
ATOM     10  N   UNL A   1      30.898  26.287  26.947  1.00  0.00    -0.358 N 
ATOM     11  C   UNL A   1      31.754  27.350  26.838  1.00  0.00     0.046 A 
ATOM     12  H   UNL A   1      30.046  26.302  27.440  1.00  0.00     0.166 HD
ATOM     13  C   UNL A   1      32.804  26.954  26.006  1.00  0.00     0.009 A 
ATOM     14  C   UNL A   1      31.665  28.624  27.413  1.00  0.00     0.027 A 
ATOM     15  C   UNL A   1      33.768  27.932  25.673  1.00  0.00     0.011 A 
ATOM     16  C   UNL A   1      32.672  29.544  27.119  1.00  0.00     0.002 A 
ATOM     17  C   UNL A   1      33.700  29.211  26.245  1.00  0.00     0.001 A 
ENDBRANCH   6   7
BRANCH   6  18
ATOM     18  N   UNL A   1      33.204  24.234  23.643  1.00  0.00    -0.319 N 
ATOM     19  C   UNL A   1      34.097  24.801  22.634  1.00  0.00     0.263 C 
ATOM     20  C   UNL A   1      31.857  24.528  23.173  1.00  0.00     0.263 C 
ATOM     21  H   UNL A   1      33.298  23.222  23.727  1.00  0.00     0.349 HD
ATOM     22  C   UNL A   1      33.402  26.044  22.103  1.00  0.00     0.067 C 
ATOM     23  C   UNL A   1      31.923  25.811  22.359  1.00  0.00     0.067 C 
ENDBRANCH   6  18
ENDBRANCH   4   6
ENDBRANCH   3   4
ENDBRANCH   2   3
ENDBRANCH   1   2
BRANCH   1  24
ATOM     24  O   UNL A   1      37.032  21.304  24.810  1.00  0.00    -0.458 OA
BRANCH  24  25
ATOM     25  C   UNL A   1      38.191  20.944  25.407  1.00  0.00     0.338 C 
ATOM     26  O   UNL A   1      38.716  19.845  25.371  1.00  0.00    -0.246 OA
BRANCH  25  27
ATOM     27  C   UNL A   1      38.814  22.109  26.086  1.00  0.00     0.060 A 
ATOM     28  C   UNL A   1      38.272  23.388  25.987  1.00  0.00     0.016 A 
ATOM     29  C   UNL A   1      40.037  21.942  26.740  1.00  0.00     0.016 A 
ATOM     30  C   UNL A   1      38.995  24.496  26.429  1.00  0.00     0.010 A 
ATOM     31  C   UNL A   1      40.716  23.050  27.268  1.00  0.00     0.010 A 
ATOM     32  C   UNL A   1      40.230  24.354  27.076  1.00  0.00    -0.014 A 
BRANCH  32  33
ATOM     33  C   UNL A   1      41.023  25.553  27.493  1.00  0.00     0.031 A 
ATOM     34  C   UNL A   1      40.429  26.583  28.426  1.00  0.00     0.074 A 
ATOM     35  C   UNL A   1      42.292  25.731  27.072  1.00  0.00     0.049 A 
ATOM     36  N   UNL A   1      40.859  27.789  28.710  1.00  0.00    -0.248 NA
ATOM     37  C   UNL A   1      39.180  26.221  29.115  1.00  0.00     0.031 C 
ATOM     38  C   UNL A   1      43.043  24.816  26.211  1.00  0.00     0.029 A 
ATOM     39  N   UNL A   1      43.188  26.741  27.334  1.00  0.00    -0.354 N 
ATOM     40  C   UNL A   1      39.891  28.357  29.531  1.00  0.00     0.074 A 
ATOM     41  C   UNL A   1      38.862  27.357  29.721  1.00  0.00     0.031 C 
ATOM     42  C   UNL A   1      44.301  25.264  26.080  1.00  0.00     0.029 A 
ATOM     43  C   UNL A   1      44.416  26.556  26.747  1.00  0.00     0.049 A 
ATOM     44  H   UNL A   1      42.970  27.524  27.890  1.00  0.00     0.167 HD
ATOM     45  C   UNL A   1      39.859  29.602  30.068  1.00  0.00     0.037 A 
ATOM     46  C   UNL A   1      45.505  27.347  26.699  1.00  0.00     0.037 A 
ATOM     47  C   UNL A   1      40.926  30.565  29.967  1.00  0.00     0.049 A 
ATOM     48  C   UNL A   1      45.461  28.709  27.323  1.00  0.00     0.074 A 
ATOM     49  C   UNL A   1      40.984  31.847  30.491  1.00  0.00     0.029 A 
ATOM     50  N   UNL A   1      42.138  30.340  29.335  1.00  0.00    -0.354 N 
ATOM     51  N   UNL A   1      44.485  29.283  27.982  1.00  0.00    -0.248 NA
ATOM     52  C   UNL A   1      46.656  29.548  27.162  1.00  0.00     0.031 C 
ATOM     53  C   UNL A   1      42.225  32.403  30.161  1.00  0.00     0.029 A 
ATOM     54  C   UNL A   1      42.951  31.456  29.459  1.00  0.00     0.049 A 
ATOM     55  H   UNL A   1      42.385  29.511  28.866  1.00  0.00     0.167 HD
ATOM     56  C   UNL A   1      44.942  30.554  28.302  1.00  0.00     0.074 A 
ATOM     57  C   UNL A   1      46.296  30.653  27.796  1.00  0.00     0.031 C 
ATOM     58  C   UNL A   1      44.290  31.553  28.942  1.00  0.00     0.037 A 
BRANCH  45  59
ATOM     59  C   UNL A   1      38.613  30.020  30.792  1.00  0.00     0.057 A 
ATOM     60  C   UNL A   1      38.441  29.822  32.167  1.00  0.00     0.134 A 
ATOM     61  C   UNL A   1      37.598  30.701  30.104  1.00  0.00     0.134 A 
ATOM     62  F   UNL A   1      39.369  29.168  32.880  1.00  0.00    -0.206 F 
ATOM     63  C   UNL A   1      37.299  30.278  32.829  1.00  0.00     0.040 A 
ATOM     64  C   UNL A   1      36.464  31.180  30.760  1.00  0.00     0.040 A 
ATOM     65  F   UNL A   1      37.705  30.931  28.787  1.00  0.00    -0.206 F 
ATOM     66  C   UNL A   1      36.311  30.967  32.127  1.00  0.00     0.006 A 
ENDBRANCH  45  59
BRANCH  46  67
ATOM     67  C   UNL A   1      46.717  26.881  25.981  1.00  0.00     0.057 A 
ATOM     68  C   UNL A   1      46.933  27.214  24.640  1.00  0.00     0.134 A 
ATOM     69  C   UNL A   1      47.698  26.118  26.626  1.00  0.00     0.134 A 
ATOM     70  F   UNL A   1      46.013  27.918  23.963  1.00  0.00    -0.206 F 
ATOM     71  C   UNL A   1      48.084  26.809  23.965  1.00  0.00     0.040 A 
ATOM     72  C   UNL A   1      48.866  25.729  25.972  1.00  0.00     0.040 A 
ATOM     73  F   UNL A   1      47.547  25.766  27.911  1.00  0.00    -0.206 F 
ATOM     74  C   UNL A   1      49.061  26.073  24.636  1.00  0.00     0.006 A 
ENDBRANCH  46  67
BRANCH  58  75
ATOM     75  C   UNL A   1      45.040  32.835  29.132  1.00  0.00     0.057 A 
ATOM     76  C   UNL A   1      45.853  33.047  30.253  1.00  0.00     0.134 A 
ATOM     77  C   UNL A   1      44.946  33.868  28.193  1.00  0.00     0.134 A 
ATOM     78  F   UNL A   1      45.973  32.100  31.195  1.00  0.00    -0.206 F 
ATOM     79  C   UNL A   1      46.526  34.255  30.447  1.00  0.00     0.040 A 
ATOM     80  C   UNL A   1      45.628  35.074  28.366  1.00  0.00     0.040 A 
ATOM     81  F   UNL A   1      44.187  33.725  27.097  1.00  0.00    -0.206 F 
ATOM     82  C   UNL A   1      46.415  35.272  29.500  1.00  0.00     0.006 A 
ENDBRANCH  58  75
ENDBRANCH  32  33
ENDBRANCH  25  27
ENDBRANCH  24  25
ENDBRANCH   1  24
TORSDOF 13
ENDMDL
