MODEL 1
REMARK VINA RESULT:     -11.3      0.000      0.000
REMARK SMILES CC(C)Nc1cc2ccccc2cc1C(=O)OCCOC(=O)c1ccc(-c2c3nc(c(-c4c(F)cccc4F)c4ccc([nH]4)c(-c4c(F)cccc4F)c4nc(c(-c5c(F)cccc5F)c5ccc2[nH]5)C=C4)C=C3)cc1
REMARK SMILES IDX 18 1 17 2 15 3 16 4 14 5 5 6 6 7 7 8 13 9 8 10 12 11 9 12
REMARK SMILES IDX 11 13 10 14 4 15 2 17 1 18 3 19 19 20 20 21 21 22 22 23
REMARK SMILES IDX 23 24 24 25 76 26 25 27 75 28 26 29 27 30 28 31 69 32 29 33
REMARK SMILES IDX 74 34 68 35 70 36 30 37 73 38 67 39 66 40 31 42 57 43 40 44
REMARK SMILES IDX 56 45 41 46 44 47 55 48 71 49 42 50 43 51 54 53 72 54 45 55
REMARK SMILES IDX 32 56 33 57 38 58 34 59 35 60 37 61 39 62 36 63 58 64 59 65
REMARK SMILES IDX 64 66 60 67 61 68 63 69 65 70 62 71 46 72 47 73 52 74 48 75
REMARK SMILES IDX 49 76 51 77 53 78 50 79
REMARK H PARENT 4 16 70 41 44 52
REMARK Flexibility Score: inf
ROOT
ATOM      1  C   UNL A   1      36.328  22.554  23.625  1.00  0.00     0.275 C 
ENDROOT
BRANCH   1   2
ATOM      2  O   UNL A   1      35.636  23.727  24.101  1.00  0.00    -0.458 OA
BRANCH   2   3
ATOM      3  C   UNL A   1      34.461  24.023  23.494  1.00  0.00     0.340 C 
ATOM      4  O   UNL A   1      34.110  23.655  22.384  1.00  0.00    -0.246 OA
BRANCH   3   5
ATOM      5  C   UNL A   1      33.567  24.760  24.414  1.00  0.00     0.083 A 
ATOM      6  C   UNL A   1      32.285  24.347  24.812  1.00  0.00     0.050 A 
ATOM      7  C   UNL A   1      31.589  25.224  25.681  1.00  0.00     0.035 A 
ATOM      8  C   UNL A   1      32.110  26.455  26.129  1.00  0.00    -0.016 A 
ATOM      9  C   UNL A   1      34.113  25.976  24.885  1.00  0.00     0.026 A 
ATOM     10  C   UNL A   1      31.392  27.301  26.994  1.00  0.00     0.009 A 
ATOM     11  C   UNL A   1      33.391  26.844  25.709  1.00  0.00    -0.017 A 
ATOM     12  C   UNL A   1      31.925  28.523  27.409  1.00  0.00     0.001 A 
ATOM     13  C   UNL A   1      33.915  28.081  26.122  1.00  0.00     0.009 A 
ATOM     14  C   UNL A   1      33.182  28.918  26.964  1.00  0.00     0.001 A 
BRANCH   6  15
ATOM     15  N   UNL A   1      31.642  23.152  24.540  1.00  0.00    -0.382 N 
ATOM     16  H   UNL A   1      30.928  23.201  23.863  1.00  0.00     0.160 HD
BRANCH  15  17
ATOM     17  C   UNL A   1      31.869  21.834  25.110  1.00  0.00     0.073 C 
ATOM     18  C   UNL A   1      32.485  20.936  24.038  1.00  0.00     0.030 C 
ATOM     19  C   UNL A   1      32.820  21.966  26.297  1.00  0.00     0.030 C 
ENDBRANCH  15  17
ENDBRANCH   6  15
ENDBRANCH   3   5
ENDBRANCH   2   3
ENDBRANCH   1   2
BRANCH   1  20
ATOM     20  C   UNL A   1      36.164  21.414  24.626  1.00  0.00     0.275 C 
BRANCH  20  21
ATOM     21  O   UNL A   1      36.909  21.742  25.810  1.00  0.00    -0.458 OA
BRANCH  21  22
ATOM     22  C   UNL A   1      38.217  21.421  25.776  1.00  0.00     0.338 C 
ATOM     23  O   UNL A   1      38.752  20.448  25.264  1.00  0.00    -0.246 OA
BRANCH  22  24
ATOM     24  C   UNL A   1      38.956  22.533  26.374  1.00  0.00     0.060 A 
ATOM     25  C   UNL A   1      38.541  23.832  26.080  1.00  0.00     0.016 A 
ATOM     26  C   UNL A   1      40.072  22.300  27.170  1.00  0.00     0.016 A 
ATOM     27  C   UNL A   1      39.276  24.922  26.535  1.00  0.00     0.010 A 
ATOM     28  C   UNL A   1      40.775  23.394  27.674  1.00  0.00     0.010 A 
ATOM     29  C   UNL A   1      40.400  24.712  27.342  1.00  0.00    -0.014 A 
BRANCH  29  30
ATOM     30  C   UNL A   1      41.243  25.843  27.807  1.00  0.00     0.031 A 
ATOM     31  C   UNL A   1      40.615  26.915  28.650  1.00  0.00     0.074 A 
ATOM     32  C   UNL A   1      42.534  25.945  27.443  1.00  0.00     0.049 A 
ATOM     33  N   UNL A   1      41.026  28.133  28.885  1.00  0.00    -0.248 NA
ATOM     34  C   UNL A   1      39.336  26.571  29.292  1.00  0.00     0.031 C 
ATOM     35  C   UNL A   1      43.292  24.942  26.695  1.00  0.00     0.029 A 
ATOM     36  N   UNL A   1      43.432  26.967  27.634  1.00  0.00    -0.354 N 
ATOM     37  C   UNL A   1      40.022  28.726  29.639  1.00  0.00     0.074 A 
ATOM     38  C   UNL A   1      38.992  27.729  29.838  1.00  0.00     0.031 C 
ATOM     39  C   UNL A   1      44.537  25.399  26.488  1.00  0.00     0.029 A 
ATOM     40  C   UNL A   1      44.636  26.759  27.008  1.00  0.00     0.049 A 
ATOM     41  H   UNL A   1      43.231  27.770  28.169  1.00  0.00     0.167 HD
ATOM     42  C   UNL A   1      39.963  29.995  30.104  1.00  0.00     0.037 A 
ATOM     43  C   UNL A   1      45.676  27.592  26.816  1.00  0.00     0.037 A 
ATOM     44  C   UNL A   1      41.023  30.957  29.946  1.00  0.00     0.049 A 
ATOM     45  C   UNL A   1      45.586  29.005  27.318  1.00  0.00     0.074 A 
ATOM     46  C   UNL A   1      41.073  32.269  30.383  1.00  0.00     0.029 A 
ATOM     47  N   UNL A   1      42.230  30.697  29.315  1.00  0.00    -0.354 N 
ATOM     48  N   UNL A   1      44.601  29.593  27.956  1.00  0.00    -0.248 NA
ATOM     49  C   UNL A   1      46.736  29.881  27.052  1.00  0.00     0.031 C 
ATOM     50  C   UNL A   1      42.303  32.809  29.995  1.00  0.00     0.029 A 
ATOM     51  C   UNL A   1      43.032  31.823  29.350  1.00  0.00     0.049 A 
ATOM     52  H   UNL A   1      42.479  29.838  28.904  1.00  0.00     0.167 HD
ATOM     53  C   UNL A   1      45.020  30.896  28.184  1.00  0.00     0.074 A 
ATOM     54  C   UNL A   1      46.349  31.014  27.622  1.00  0.00     0.031 C 
ATOM     55  C   UNL A   1      44.361  31.907  28.803  1.00  0.00     0.037 A 
BRANCH  42  56
ATOM     56  C   UNL A   1      38.699  30.428  30.784  1.00  0.00     0.057 A 
ATOM     57  C   UNL A   1      37.635  31.009  30.085  1.00  0.00     0.134 A 
ATOM     58  C   UNL A   1      38.540  30.238  32.163  1.00  0.00     0.134 A 
ATOM     59  F   UNL A   1      37.730  31.234  28.767  1.00  0.00    -0.206 F 
ATOM     60  C   UNL A   1      36.466  31.407  30.738  1.00  0.00     0.040 A 
ATOM     61  C   UNL A   1      37.368  30.609  32.823  1.00  0.00     0.040 A 
ATOM     62  F   UNL A   1      39.521  29.683  32.892  1.00  0.00    -0.206 F 
ATOM     63  C   UNL A   1      36.329  31.203  32.111  1.00  0.00     0.006 A 
ENDBRANCH  42  56
BRANCH  43  64
ATOM     64  C   UNL A   1      46.868  27.121  26.069  1.00  0.00     0.057 A 
ATOM     65  C   UNL A   1      47.913  26.458  26.720  1.00  0.00     0.134 A 
ATOM     66  C   UNL A   1      46.982  27.303  24.684  1.00  0.00     0.134 A 
ATOM     67  F   UNL A   1      47.872  26.275  28.047  1.00  0.00    -0.206 F 
ATOM     68  C   UNL A   1      49.030  25.993  26.023  1.00  0.00     0.040 A 
ATOM     69  C   UNL A   1      48.081  26.823  23.970  1.00  0.00     0.040 A 
ATOM     70  F   UNL A   1      46.013  27.932  24.001  1.00  0.00    -0.206 F 
ATOM     71  C   UNL A   1      49.111  26.168  24.642  1.00  0.00     0.006 A 
ENDBRANCH  43  64
BRANCH  55  72
ATOM     72  C   UNL A   1      45.086  33.208  28.952  1.00  0.00     0.057 A 
ATOM     73  C   UNL A   1      44.975  34.226  27.997  1.00  0.00     0.134 A 
ATOM     74  C   UNL A   1      45.845  33.469  30.098  1.00  0.00     0.134 A 
ATOM     75  F   UNL A   1      44.271  34.030  26.873  1.00  0.00    -0.206 F 
ATOM     76  C   UNL A   1      45.604  35.458  28.176  1.00  0.00     0.040 A 
ATOM     77  C   UNL A   1      46.464  34.703  30.297  1.00  0.00     0.040 A 
ATOM     78  F   UNL A   1      45.981  32.534  31.051  1.00  0.00    -0.206 F 
ATOM     79  C   UNL A   1      46.344  35.702  29.333  1.00  0.00     0.006 A 
ENDBRANCH  55  72
ENDBRANCH  29  30
ENDBRANCH  22  24
ENDBRANCH  21  22
ENDBRANCH  20  21
ENDBRANCH   1  20
TORSDOF 13
ENDMDL
MODEL 2
REMARK VINA RESULT:     -11.2      3.892      8.620
REMARK SMILES CC(C)Nc1cc2ccccc2cc1C(=O)OCCOC(=O)c1ccc(-c2c3nc(c(-c4c(F)cccc4F)c4ccc([nH]4)c(-c4c(F)cccc4F)c4nc(c(-c5c(F)cccc5F)c5ccc2[nH]5)C=C4)C=C3)cc1
REMARK SMILES IDX 18 1 17 2 15 3 16 4 14 5 5 6 6 7 7 8 13 9 8 10 12 11 9 12
REMARK SMILES IDX 11 13 10 14 4 15 2 17 1 18 3 19 19 20 20 21 21 22 22 23
REMARK SMILES IDX 23 24 24 25 76 26 25 27 75 28 26 29 27 30 28 31 69 32 29 33
REMARK SMILES IDX 74 34 68 35 70 36 30 37 73 38 67 39 66 40 31 42 57 43 40 44
REMARK SMILES IDX 56 45 41 46 44 47 55 48 71 49 42 50 43 51 54 53 72 54 45 55
REMARK SMILES IDX 32 56 33 57 38 58 34 59 35 60 37 61 39 62 36 63 58 64 59 65
REMARK SMILES IDX 64 66 60 67 61 68 63 69 65 70 62 71 46 72 47 73 52 74 48 75
REMARK SMILES IDX 49 76 51 77 53 78 50 79
REMARK H PARENT 4 16 70 41 44 52
REMARK Flexibility Score: inf
ROOT
ATOM      1  C   UNL A   1      31.623  28.284  26.415  1.00  0.00     0.275 C 
ENDROOT
BRANCH   1   2
ATOM      2  O   UNL A   1      32.726  27.358  26.331  1.00  0.00    -0.458 OA
BRANCH   2   3
ATOM      3  C   UNL A   1      32.409  26.040  26.311  1.00  0.00     0.340 C 
ATOM      4  O   UNL A   1      31.458  25.519  26.874  1.00  0.00    -0.246 OA
BRANCH   3   5
ATOM      5  C   UNL A   1      33.299  25.301  25.390  1.00  0.00     0.083 A 
ATOM      6  C   UNL A   1      33.180  25.265  23.991  1.00  0.00     0.050 A 
ATOM      7  C   UNL A   1      34.128  24.467  23.304  1.00  0.00     0.035 A 
ATOM      8  C   UNL A   1      35.137  23.723  23.950  1.00  0.00    -0.016 A 
ATOM      9  C   UNL A   1      34.328  24.586  26.046  1.00  0.00     0.026 A 
ATOM     10  C   UNL A   1      36.064  22.942  23.236  1.00  0.00     0.009 A 
ATOM     11  C   UNL A   1      35.226  23.772  25.349  1.00  0.00    -0.017 A 
ATOM     12  C   UNL A   1      37.042  22.202  23.903  1.00  0.00     0.001 A 
ATOM     13  C   UNL A   1      36.207  23.015  26.013  1.00  0.00     0.009 A 
ATOM     14  C   UNL A   1      37.106  22.229  25.292  1.00  0.00     0.001 A 
BRANCH   6  15
ATOM     15  N   UNL A   1      32.312  25.979  23.182  1.00  0.00    -0.382 N 
ATOM     16  H   UNL A   1      32.688  26.792  22.773  1.00  0.00     0.160 HD
BRANCH  15  17
ATOM     17  C   UNL A   1      30.924  25.701  22.849  1.00  0.00     0.073 C 
ATOM     18  C   UNL A   1      30.583  24.286  23.315  1.00  0.00     0.030 C 
ATOM     19  C   UNL A   1      30.033  26.718  23.559  1.00  0.00     0.030 C 
ENDBRANCH  15  17
ENDBRANCH   6  15
ENDBRANCH   3   5
ENDBRANCH   2   3
ENDBRANCH   1   2
BRANCH   1  20
ATOM     20  C   UNL A   1      31.852  29.448  25.455  1.00  0.00     0.275 C 
BRANCH  20  21
ATOM     21  O   UNL A   1      33.111  30.060  25.780  1.00  0.00    -0.458 OA
BRANCH  21  22
ATOM     22  C   UNL A   1      33.058  31.033  26.710  1.00  0.00     0.338 C 
ATOM     23  O   UNL A   1      32.162  31.837  26.924  1.00  0.00    -0.246 OA
BRANCH  22  24
ATOM     24  C   UNL A   1      34.248  30.900  27.550  1.00  0.00     0.060 A 
ATOM     25  C   UNL A   1      34.987  32.050  27.831  1.00  0.00     0.016 A 
ATOM     26  C   UNL A   1      34.658  29.655  28.012  1.00  0.00     0.016 A 
ATOM     27  C   UNL A   1      36.184  31.959  28.533  1.00  0.00     0.010 A 
ATOM     28  C   UNL A   1      35.829  29.572  28.766  1.00  0.00     0.010 A 
ATOM     29  C   UNL A   1      36.615  30.717  29.012  1.00  0.00    -0.014 A 
BRANCH  29  30
ATOM     30  C   UNL A   1      37.911  30.565  29.721  1.00  0.00     0.031 A 
ATOM     31  C   UNL A   1      38.992  29.740  29.086  1.00  0.00     0.074 A 
ATOM     32  C   UNL A   1      38.108  31.109  30.936  1.00  0.00     0.049 A 
ATOM     33  N   UNL A   1      40.043  29.188  29.631  1.00  0.00    -0.248 NA
ATOM     34  C   UNL A   1      38.849  29.481  27.644  1.00  0.00     0.031 C 
ATOM     35  C   UNL A   1      37.178  31.997  31.634  1.00  0.00     0.029 A 
ATOM     36  N   UNL A   1      39.156  30.966  31.813  1.00  0.00    -0.354 N 
ATOM     37  C   UNL A   1      40.647  28.454  28.618  1.00  0.00     0.074 A 
ATOM     38  C   UNL A   1      39.856  28.647  27.422  1.00  0.00     0.031 C 
ATOM     39  C   UNL A   1      37.694  32.316  32.832  1.00  0.00     0.029 A 
ATOM     40  C   UNL A   1      38.944  31.586  33.020  1.00  0.00     0.049 A 
ATOM     41  H   UNL A   1      39.977  30.469  31.596  1.00  0.00     0.167 HD
ATOM     42  C   UNL A   1      41.753  27.677  28.692  1.00  0.00     0.037 A 
ATOM     43  C   UNL A   1      39.642  31.520  34.169  1.00  0.00     0.037 A 
ATOM     44  C   UNL A   1      42.560  27.542  29.876  1.00  0.00     0.049 A 
ATOM     45  C   UNL A   1      40.853  30.634  34.242  1.00  0.00     0.074 A 
ATOM     46  C   UNL A   1      43.705  26.787  30.061  1.00  0.00     0.029 A 
ATOM     47  N   UNL A   1      42.314  28.199  31.072  1.00  0.00    -0.354 N 
ATOM     48  N   UNL A   1      41.375  29.873  33.310  1.00  0.00    -0.248 NA
ATOM     49  C   UNL A   1      41.557  30.574  35.531  1.00  0.00     0.031 C 
ATOM     50  C   UNL A   1      44.138  26.970  31.378  1.00  0.00     0.029 A 
ATOM     51  C   UNL A   1      43.284  27.867  32.001  1.00  0.00     0.049 A 
ATOM     52  H   UNL A   1      41.561  28.812  31.236  1.00  0.00     0.167 HD
ATOM     53  C   UNL A   1      42.477  29.261  33.891  1.00  0.00     0.074 A 
ATOM     54  C   UNL A   1      42.553  29.742  35.255  1.00  0.00     0.031 C 
ATOM     55  C   UNL A   1      43.349  28.378  33.345  1.00  0.00     0.037 A 
BRANCH  42  56
ATOM     56  C   UNL A   1      42.123  26.880  27.477  1.00  0.00     0.057 A 
ATOM     57  C   UNL A   1      42.951  27.391  26.471  1.00  0.00     0.134 A 
ATOM     58  C   UNL A   1      41.655  25.568  27.326  1.00  0.00     0.134 A 
ATOM     59  F   UNL A   1      43.418  28.646  26.548  1.00  0.00    -0.206 F 
ATOM     60  C   UNL A   1      43.282  26.633  25.346  1.00  0.00     0.040 A 
ATOM     61  C   UNL A   1      41.998  24.792  26.218  1.00  0.00     0.040 A 
ATOM     62  F   UNL A   1      40.859  25.017  28.256  1.00  0.00    -0.206 F 
ATOM     63  C   UNL A   1      42.809  25.327  25.220  1.00  0.00     0.006 A 
ENDBRANCH  42  56
BRANCH  43  64
ATOM     64  C   UNL A   1      39.176  32.277  35.358  1.00  0.00     0.057 A 
ATOM     65  C   UNL A   1      38.353  31.679  36.318  1.00  0.00     0.134 A 
ATOM     66  C   UNL A   1      39.558  33.608  35.573  1.00  0.00     0.134 A 
ATOM     67  F   UNL A   1      37.935  30.415  36.155  1.00  0.00    -0.206 F 
ATOM     68  C   UNL A   1      37.926  32.376  37.449  1.00  0.00     0.040 A 
ATOM     69  C   UNL A   1      39.158  34.309  36.711  1.00  0.00     0.040 A 
ATOM     70  F   UNL A   1      40.346  34.237  34.689  1.00  0.00    -0.206 F 
ATOM     71  C   UNL A   1      38.336  33.692  37.653  1.00  0.00     0.006 A 
ENDBRANCH  43  64
BRANCH  55  72
ATOM     72  C   UNL A   1      44.486  27.917  34.202  1.00  0.00     0.057 A 
ATOM     73  C   UNL A   1      44.404  26.748  34.967  1.00  0.00     0.134 A 
ATOM     74  C   UNL A   1      45.699  28.615  34.205  1.00  0.00     0.134 A 
ATOM     75  F   UNL A   1      43.264  26.043  35.013  1.00  0.00    -0.206 F 
ATOM     76  C   UNL A   1      45.491  26.292  35.714  1.00  0.00     0.040 A 
ATOM     77  C   UNL A   1      46.798  28.160  34.933  1.00  0.00     0.040 A 
ATOM     78  F   UNL A   1      45.839  29.739  33.485  1.00  0.00    -0.206 F 
ATOM     79  C   UNL A   1      46.696  26.996  35.690  1.00  0.00     0.006 A 
ENDBRANCH  55  72
ENDBRANCH  29  30
ENDBRANCH  22  24
ENDBRANCH  21  22
ENDBRANCH  20  21
ENDBRANCH   1  20
TORSDOF 13
ENDMDL
MODEL 3
REMARK VINA RESULT:     -11.2      2.890      6.921
REMARK SMILES CC(C)Nc1cc2ccccc2cc1C(=O)OCCOC(=O)c1ccc(-c2c3nc(c(-c4c(F)cccc4F)c4ccc([nH]4)c(-c4c(F)cccc4F)c4nc(c(-c5c(F)cccc5F)c5ccc2[nH]5)C=C4)C=C3)cc1
REMARK SMILES IDX 18 1 17 2 15 3 16 4 14 5 5 6 6 7 7 8 13 9 8 10 12 11 9 12
REMARK SMILES IDX 11 13 10 14 4 15 2 17 1 18 3 19 19 20 20 21 21 22 22 23
REMARK SMILES IDX 23 24 24 25 76 26 25 27 75 28 26 29 27 30 28 31 69 32 29 33
REMARK SMILES IDX 74 34 68 35 70 36 30 37 73 38 67 39 66 40 31 42 57 43 40 44
REMARK SMILES IDX 56 45 41 46 44 47 55 48 71 49 42 50 43 51 54 53 72 54 45 55
REMARK SMILES IDX 32 56 33 57 38 58 34 59 35 60 37 61 39 62 36 63 58 64 59 65
REMARK SMILES IDX 64 66 60 67 61 68 63 69 65 70 62 71 46 72 47 73 52 74 48 75
REMARK SMILES IDX 49 76 51 77 53 78 50 79
REMARK H PARENT 4 16 70 41 44 52
REMARK Flexibility Score: inf
ROOT
ATOM      1  C   UNL A   1      33.069  29.912  25.921  1.00  0.00     0.275 C 
ENDROOT
BRANCH   1   2
ATOM      2  O   UNL A   1      31.809  29.217  26.021  1.00  0.00    -0.458 OA
BRANCH   2   3
ATOM      3  C   UNL A   1      31.856  27.942  26.480  1.00  0.00     0.340 C 
ATOM      4  O   UNL A   1      31.382  27.536  27.530  1.00  0.00    -0.246 OA
BRANCH   3   5
ATOM      5  C   UNL A   1      32.452  27.043  25.469  1.00  0.00     0.083 A 
ATOM      6  C   UNL A   1      32.108  27.003  24.107  1.00  0.00     0.050 A 
ATOM      7  C   UNL A   1      32.788  26.040  23.320  1.00  0.00     0.035 A 
ATOM      8  C   UNL A   1      33.747  25.145  23.837  1.00  0.00    -0.016 A 
ATOM      9  C   UNL A   1      33.437  26.174  25.991  1.00  0.00     0.026 A 
ATOM     10  C   UNL A   1      34.404  24.203  23.026  1.00  0.00     0.009 A 
ATOM     11  C   UNL A   1      34.064  25.204  25.203  1.00  0.00    -0.017 A 
ATOM     12  C   UNL A   1      35.338  23.317  23.568  1.00  0.00     0.001 A 
ATOM     13  C   UNL A   1      34.996  24.301  25.742  1.00  0.00     0.009 A 
ATOM     14  C   UNL A   1      35.625  23.358  24.928  1.00  0.00     0.001 A 
BRANCH   6  15
ATOM     15  N   UNL A   1      31.255  27.841  23.409  1.00  0.00    -0.382 N 
ATOM     16  H   UNL A   1      31.607  28.742  23.224  1.00  0.00     0.160 HD
BRANCH  15  17
ATOM     17  C   UNL A   1      29.914  27.582  22.910  1.00  0.00     0.073 C 
ATOM     18  C   UNL A   1      29.207  26.634  23.876  1.00  0.00     0.030 C 
ATOM     19  C   UNL A   1      29.157  28.905  22.820  1.00  0.00     0.030 C 
ENDBRANCH  15  17
ENDBRANCH   6  15
ENDBRANCH   3   5
ENDBRANCH   2   3
ENDBRANCH   1   2
BRANCH   1  20
ATOM     20  C   UNL A   1      33.457  30.478  27.283  1.00  0.00     0.275 C 
BRANCH  20  21
ATOM     21  O   UNL A   1      34.663  29.826  27.716  1.00  0.00    -0.458 OA
BRANCH  21  22
ATOM     22  C   UNL A   1      35.499  30.586  28.449  1.00  0.00     0.338 C 
ATOM     23  O   UNL A   1      35.243  31.579  29.115  1.00  0.00    -0.246 OA
BRANCH  22  24
ATOM     24  C   UNL A   1      36.811  29.940  28.426  1.00  0.00     0.060 A 
ATOM     25  C   UNL A   1      37.241  29.281  29.579  1.00  0.00     0.016 A 
ATOM     26  C   UNL A   1      37.627  30.025  27.304  1.00  0.00     0.016 A 
ATOM     27  C   UNL A   1      38.523  28.746  29.643  1.00  0.00     0.010 A 
ATOM     28  C   UNL A   1      38.891  29.438  27.349  1.00  0.00     0.010 A 
ATOM     29  C   UNL A   1      39.361  28.816  28.524  1.00  0.00    -0.014 A 
BRANCH  29  30
ATOM     30  C   UNL A   1      40.753  28.304  28.565  1.00  0.00     0.031 A 
ATOM     31  C   UNL A   1      41.874  29.272  28.814  1.00  0.00     0.074 A 
ATOM     32  C   UNL A   1      41.026  27.007  28.331  1.00  0.00     0.049 A 
ATOM     33  N   UNL A   1      43.150  29.146  28.564  1.00  0.00    -0.248 NA
ATOM     34  C   UNL A   1      41.494  30.568  29.400  1.00  0.00     0.031 C 
ATOM     35  C   UNL A   1      40.036  25.945  28.154  1.00  0.00     0.029 A 
ATOM     36  N   UNL A   1      42.233  26.369  28.175  1.00  0.00    -0.354 N 
ATOM     37  C   UNL A   1      43.717  30.372  28.892  1.00  0.00     0.074 A 
ATOM     38  C   UNL A   1      42.648  31.220  29.375  1.00  0.00     0.031 C 
ATOM     39  C   UNL A   1      40.674  24.789  27.910  1.00  0.00     0.029 A 
ATOM     40  C   UNL A   1      42.107  25.046  27.826  1.00  0.00     0.049 A 
ATOM     41  H   UNL A   1      43.101  26.815  28.304  1.00  0.00     0.167 HD
ATOM     42  C   UNL A   1      45.010  30.753  28.778  1.00  0.00     0.037 A 
ATOM     43  C   UNL A   1      43.035  24.160  27.417  1.00  0.00     0.037 A 
ATOM     44  C   UNL A   1      46.069  29.878  28.349  1.00  0.00     0.049 A 
ATOM     45  C   UNL A   1      44.462  24.605  27.274  1.00  0.00     0.074 A 
ATOM     46  C   UNL A   1      47.417  30.157  28.204  1.00  0.00     0.029 A 
ATOM     47  N   UNL A   1      45.897  28.542  28.017  1.00  0.00    -0.354 N 
ATOM     48  N   UNL A   1      44.984  25.787  27.501  1.00  0.00    -0.248 NA
ATOM     49  C   UNL A   1      45.427  23.606  26.793  1.00  0.00     0.031 C 
ATOM     50  C   UNL A   1      48.056  28.994  27.761  1.00  0.00     0.029 A 
ATOM     51  C   UNL A   1      47.112  27.983  27.666  1.00  0.00     0.049 A 
ATOM     52  H   UNL A   1      45.037  28.064  28.029  1.00  0.00     0.167 HD
ATOM     53  C   UNL A   1      46.336  25.669  27.210  1.00  0.00     0.074 A 
ATOM     54  C   UNL A   1      46.557  24.299  26.795  1.00  0.00     0.031 C 
ATOM     55  C   UNL A   1      47.309  26.611  27.279  1.00  0.00     0.037 A 
BRANCH  42  56
ATOM     56  C   UNL A   1      45.340  32.185  29.077  1.00  0.00     0.057 A 
ATOM     57  C   UNL A   1      45.274  33.187  28.103  1.00  0.00     0.134 A 
ATOM     58  C   UNL A   1      45.712  32.565  30.373  1.00  0.00     0.134 A 
ATOM     59  F   UNL A   1      44.941  32.885  26.840  1.00  0.00    -0.206 F 
ATOM     60  C   UNL A   1      45.588  34.515  28.402  1.00  0.00     0.040 A 
ATOM     61  C   UNL A   1      46.006  33.892  30.690  1.00  0.00     0.040 A 
ATOM     62  F   UNL A   1      45.793  31.653  31.355  1.00  0.00    -0.206 F 
ATOM     63  C   UNL A   1      45.950  34.871  29.701  1.00  0.00     0.006 A 
ENDBRANCH  42  56
BRANCH  43  64
ATOM     64  C   UNL A   1      42.626  22.777  27.065  1.00  0.00     0.057 A 
ATOM     65  C   UNL A   1      42.565  22.360  25.732  1.00  0.00     0.134 A 
ATOM     66  C   UNL A   1      42.308  21.835  28.052  1.00  0.00     0.134 A 
ATOM     67  F   UNL A   1      42.835  23.224  24.742  1.00  0.00    -0.206 F 
ATOM     68  C   UNL A   1      42.202  21.056  25.390  1.00  0.00     0.040 A 
ATOM     69  C   UNL A   1      41.967  20.521  27.727  1.00  0.00     0.040 A 
ATOM     70  F   UNL A   1      42.349  22.173  29.349  1.00  0.00    -0.206 F 
ATOM     71  C   UNL A   1      41.910  20.130  26.391  1.00  0.00     0.006 A 
ENDBRANCH  43  64
BRANCH  55  72
ATOM     72  C   UNL A   1      48.704  26.181  26.950  1.00  0.00     0.057 A 
ATOM     73  C   UNL A   1      49.229  26.309  25.659  1.00  0.00     0.134 A 
ATOM     74  C   UNL A   1      49.552  25.700  27.954  1.00  0.00     0.134 A 
ATOM     75  F   UNL A   1      48.461  26.754  24.653  1.00  0.00    -0.206 F 
ATOM     76  C   UNL A   1      50.551  25.965  25.377  1.00  0.00     0.040 A 
ATOM     77  C   UNL A   1      50.881  25.369  27.689  1.00  0.00     0.040 A 
ATOM     78  F   UNL A   1      49.107  25.563  29.213  1.00  0.00    -0.206 F 
ATOM     79  C   UNL A   1      51.383  25.501  26.396  1.00  0.00     0.006 A 
ENDBRANCH  55  72
ENDBRANCH  29  30
ENDBRANCH  22  24
ENDBRANCH  21  22
ENDBRANCH  20  21
ENDBRANCH   1  20
TORSDOF 13
ENDMDL
