MODEL 1
REMARK VINA RESULT:     -10.5      0.000      0.000
REMARK SMILES Cc1nsc(N(C)C(=O)[C@@H](C)NC(N)=O)c1C(=O)OCCOC(=O)c1ccc(-c2c3nc(c(-c4c(F)cccc4F)c4ccc([nH]4)c(-c4c(F)cccc4F)c4nc(c(-c5c(F)cccc5F)c5ccc2[nH]5)C=C4)C=C3)cc1
REMARK SMILES IDX 20 1 19 2 17 3 18 4 16 5 1 6 2 7 3 8 4 9 5 10 6 11 7 12 8 13
REMARK SMILES IDX 9 14 10 15 11 16 12 17 13 18 14 20 15 21 21 24 22 25 23 26
REMARK SMILES IDX 24 27 25 28 26 29 78 30 27 31 77 32 28 33 29 34 30 35 71 36
REMARK SMILES IDX 31 37 76 38 70 39 72 40 32 41 75 42 69 43 68 44 33 46 59 47
REMARK SMILES IDX 42 48 58 49 43 50 46 51 57 52 73 53 44 54 45 55 56 57 74 58
REMARK SMILES IDX 47 59 34 60 35 61 40 62 36 63 37 64 39 65 41 66 38 67 60 68
REMARK SMILES IDX 61 69 66 70 62 71 63 72 65 73 67 74 64 75 48 76 49 77 54 78
REMARK SMILES IDX 50 79 51 80 53 81 55 82 52 83
REMARK H PARENT 12 19 14 22 14 23 72 45 46 56
REMARK Flexibility Score: inf
ROOT
ATOM      1  C   UNL A   1      37.127  33.420  28.665  1.00  0.00     0.275 C 
ENDROOT
BRANCH   1   2
ATOM      2  O   UNL A   1      36.820  33.992  29.945  1.00  0.00    -0.458 OA
BRANCH   2   3
ATOM      3  C   UNL A   1      37.840  34.126  30.849  1.00  0.00     0.343 C 
ATOM      4  O   UNL A   1      38.750  34.926  30.741  1.00  0.00    -0.246 OA
BRANCH   3   5
ATOM      5  C   UNL A   1      37.742  33.122  31.910  1.00  0.00     0.117 A 
ATOM      6  C   UNL A   1      39.730  31.635  31.012  1.00  0.00     0.069 C 
ATOM      7  C   UNL A   1      38.661  31.992  31.992  1.00  0.00     0.068 A 
ATOM      8  N   UNL A   1      38.551  31.219  33.068  1.00  0.00    -0.195 NA
ATOM      9  S   UNL A   1      37.304  31.748  33.976  1.00  0.00    -0.017 S 
ATOM     10  C   UNL A   1      36.809  33.061  32.957  1.00  0.00     0.133 A 
BRANCH  10  11
ATOM     11  N   UNL A   1      35.600  33.731  33.346  1.00  0.00    -0.303 N 
ATOM     12  C   UNL A   1      35.414  34.189  34.729  1.00  0.00     0.154 C 
BRANCH  11  13
ATOM     13  C   UNL A   1      34.525  33.755  32.439  1.00  0.00     0.249 C 
ATOM     14  O   UNL A   1      33.898  32.739  32.124  1.00  0.00    -0.272 OA
BRANCH  13  15
ATOM     15  C   UNL A   1      34.000  35.099  31.835  1.00  0.00     0.170 C 
ATOM     16  C   UNL A   1      34.176  36.343  32.703  1.00  0.00     0.041 C 
BRANCH  15  17
ATOM     17  N   UNL A   1      34.417  35.334  30.456  1.00  0.00    -0.327 N 
ATOM     18  C   UNL A   1      33.557  35.826  29.524  1.00  0.00     0.312 C 
ATOM     19  H   UNL A   1      35.344  35.132  30.194  1.00  0.00     0.166 HD
ATOM     20  N   UNL A   1      34.122  35.961  28.301  1.00  0.00    -0.352 N 
ATOM     21  O   UNL A   1      32.396  36.149  29.721  1.00  0.00    -0.249 OA
ATOM     22  H   UNL A   1      35.059  35.696  28.161  1.00  0.00     0.161 HD
ATOM     23  H   UNL A   1      33.596  36.325  27.553  1.00  0.00     0.161 HD
ENDBRANCH  15  17
ENDBRANCH  13  15
ENDBRANCH  11  13
ENDBRANCH  10  11
ENDBRANCH   3   5
ENDBRANCH   2   3
ENDBRANCH   1   2
BRANCH   1  24
ATOM     24  C   UNL A   1      36.029  32.422  28.316  1.00  0.00     0.275 C 
BRANCH  24  25
ATOM     25  O   UNL A   1      36.605  31.146  28.067  1.00  0.00    -0.458 OA
BRANCH  25  26
ATOM     26  C   UNL A   1      36.727  30.313  29.124  1.00  0.00     0.338 C 
ATOM     27  O   UNL A   1      36.212  30.412  30.224  1.00  0.00    -0.246 OA
BRANCH  26  28
ATOM     28  C   UNL A   1      37.768  29.332  28.800  1.00  0.00     0.060 A 
ATOM     29  C   UNL A   1      38.139  28.409  29.787  1.00  0.00     0.016 A 
ATOM     30  C   UNL A   1      38.515  29.518  27.630  1.00  0.00     0.016 A 
ATOM     31  C   UNL A   1      39.383  27.826  29.698  1.00  0.00     0.010 A 
ATOM     32  C   UNL A   1      39.765  28.980  27.564  1.00  0.00     0.010 A 
ATOM     33  C   UNL A   1      40.203  28.206  28.635  1.00  0.00    -0.014 A 
BRANCH  33  34
ATOM     34  C   UNL A   1      41.598  27.851  28.648  1.00  0.00     0.031 A 
ATOM     35  C   UNL A   1      41.921  26.613  27.897  1.00  0.00     0.074 A 
ATOM     36  C   UNL A   1      42.474  28.755  29.131  1.00  0.00     0.049 A 
ATOM     37  N   UNL A   1      42.493  25.542  28.334  1.00  0.00    -0.248 NA
ATOM     38  C   UNL A   1      41.409  26.486  26.520  1.00  0.00     0.031 C 
ATOM     39  C   UNL A   1      42.217  30.132  29.584  1.00  0.00     0.029 A 
ATOM     40  N   UNL A   1      43.825  28.670  29.176  1.00  0.00    -0.354 N 
ATOM     41  C   UNL A   1      42.591  24.682  27.241  1.00  0.00     0.074 A 
ATOM     42  C   UNL A   1      41.761  25.240  26.212  1.00  0.00     0.031 C 
ATOM     43  C   UNL A   1      43.382  30.816  29.619  1.00  0.00     0.029 A 
ATOM     44  C   UNL A   1      44.463  29.899  29.321  1.00  0.00     0.049 A 
ATOM     45  H   UNL A   1      44.312  27.817  29.111  1.00  0.00     0.167 HD
ATOM     46  C   UNL A   1      43.524  23.691  27.203  1.00  0.00     0.037 A 
ATOM     47  C   UNL A   1      45.779  30.101  29.059  1.00  0.00     0.037 A 
ATOM     48  C   UNL A   1      44.030  23.421  28.524  1.00  0.00     0.049 A 
ATOM     49  C   UNL A   1      46.425  28.752  29.076  1.00  0.00     0.074 A 
ATOM     50  C   UNL A   1      43.458  22.967  29.696  1.00  0.00     0.029 A 
ATOM     51  N   UNL A   1      45.220  24.008  28.885  1.00  0.00    -0.354 N 
ATOM     52  N   UNL A   1      46.502  28.010  30.152  1.00  0.00    -0.248 NA
ATOM     53  C   UNL A   1      46.474  28.022  27.812  1.00  0.00     0.031 C 
ATOM     54  C   UNL A   1      44.064  23.751  30.719  1.00  0.00     0.029 A 
ATOM     55  C   UNL A   1      45.025  24.569  30.121  1.00  0.00     0.049 A 
ATOM     56  H   UNL A   1      46.051  24.022  28.358  1.00  0.00     0.167 HD
ATOM     57  C   UNL A   1      46.216  26.718  29.724  1.00  0.00     0.074 A 
ATOM     58  C   UNL A   1      46.245  26.784  28.262  1.00  0.00     0.031 C 
ATOM     59  C   UNL A   1      45.681  25.779  30.561  1.00  0.00     0.037 A 
BRANCH  46  60
ATOM     60  C   UNL A   1      44.250  23.232  25.962  1.00  0.00     0.057 A 
ATOM     61  C   UNL A   1      44.248  21.858  25.652  1.00  0.00     0.134 A 
ATOM     62  C   UNL A   1      45.193  24.001  25.252  1.00  0.00     0.134 A 
ATOM     63  F   UNL A   1      43.378  21.020  26.237  1.00  0.00    -0.206 F 
ATOM     64  C   UNL A   1      45.196  21.277  24.803  1.00  0.00     0.040 A 
ATOM     65  C   UNL A   1      46.114  23.437  24.365  1.00  0.00     0.040 A 
ATOM     66  F   UNL A   1      45.345  25.315  25.438  1.00  0.00    -0.206 F 
ATOM     67  C   UNL A   1      46.147  22.065  24.172  1.00  0.00     0.006 A 
ENDBRANCH  46  60
BRANCH  47  68
ATOM     68  C   UNL A   1      46.368  31.293  28.405  1.00  0.00     0.057 A 
ATOM     69  C   UNL A   1      46.078  31.626  27.077  1.00  0.00     0.134 A 
ATOM     70  C   UNL A   1      47.063  32.272  29.144  1.00  0.00     0.134 A 
ATOM     71  F   UNL A   1      45.375  30.784  26.306  1.00  0.00    -0.206 F 
ATOM     72  C   UNL A   1      46.463  32.853  26.515  1.00  0.00     0.040 A 
ATOM     73  C   UNL A   1      47.458  33.495  28.596  1.00  0.00     0.040 A 
ATOM     74  F   UNL A   1      47.312  32.106  30.451  1.00  0.00    -0.206 F 
ATOM     75  C   UNL A   1      47.151  33.794  27.276  1.00  0.00     0.006 A 
ENDBRANCH  47  68
BRANCH  59  76
ATOM     76  C   UNL A   1      45.518  26.109  32.020  1.00  0.00     0.057 A 
ATOM     77  C   UNL A   1      44.323  26.593  32.576  1.00  0.00     0.134 A 
ATOM     78  C   UNL A   1      46.499  25.677  32.917  1.00  0.00     0.134 A 
ATOM     79  F   UNL A   1      43.287  26.928  31.800  1.00  0.00    -0.206 F 
ATOM     80  C   UNL A   1      44.120  26.660  33.958  1.00  0.00     0.040 A 
ATOM     81  C   UNL A   1      46.299  25.710  34.299  1.00  0.00     0.040 A 
ATOM     82  F   UNL A   1      47.639  25.137  32.460  1.00  0.00    -0.206 F 
ATOM     83  C   UNL A   1      45.108  26.204  34.824  1.00  0.00     0.006 A 
ENDBRANCH  59  76
ENDBRANCH  33  34
ENDBRANCH  26  28
ENDBRANCH  25  26
ENDBRANCH  24  25
ENDBRANCH   1  24
TORSDOF 15
ENDMDL
MODEL 2
REMARK VINA RESULT:     -10.2      1.283      2.699
REMARK SMILES Cc1nsc(N(C)C(=O)[C@@H](C)NC(N)=O)c1C(=O)OCCOC(=O)c1ccc(-c2c3nc(c(-c4c(F)cccc4F)c4ccc([nH]4)c(-c4c(F)cccc4F)c4nc(c(-c5c(F)cccc5F)c5ccc2[nH]5)C=C4)C=C3)cc1
REMARK SMILES IDX 20 1 19 2 17 3 18 4 16 5 1 6 2 7 3 8 4 9 5 10 6 11 7 12 8 13
REMARK SMILES IDX 9 14 10 15 11 16 12 17 13 18 14 20 15 21 21 24 22 25 23 26
REMARK SMILES IDX 24 27 25 28 26 29 78 30 27 31 77 32 28 33 29 34 30 35 71 36
REMARK SMILES IDX 31 37 76 38 70 39 72 40 32 41 75 42 69 43 68 44 33 46 59 47
REMARK SMILES IDX 42 48 58 49 43 50 46 51 57 52 73 53 44 54 45 55 56 57 74 58
REMARK SMILES IDX 47 59 34 60 35 61 40 62 36 63 37 64 39 65 41 66 38 67 60 68
REMARK SMILES IDX 61 69 66 70 62 71 63 72 65 73 67 74 64 75 48 76 49 77 54 78
REMARK SMILES IDX 50 79 51 80 53 81 55 82 52 83
REMARK H PARENT 12 19 14 22 14 23 72 45 46 56
REMARK Flexibility Score: inf
ROOT
ATOM      1  C   UNL A   1      34.458  32.637  27.859  1.00  0.00     0.275 C 
ENDROOT
BRANCH   1   2
ATOM      2  O   UNL A   1      34.063  33.169  29.132  1.00  0.00    -0.458 OA
BRANCH   2   3
ATOM      3  C   UNL A   1      34.868  34.113  29.712  1.00  0.00     0.343 C 
ATOM      4  O   UNL A   1      36.079  34.141  29.602  1.00  0.00    -0.246 OA
BRANCH   3   5
ATOM      5  C   UNL A   1      34.093  35.024  30.555  1.00  0.00     0.117 A 
ATOM      6  C   UNL A   1      33.237  36.525  28.558  1.00  0.00     0.069 C 
ATOM      7  C   UNL A   1      33.305  36.115  29.994  1.00  0.00     0.068 A 
ATOM      8  N   UNL A   1      32.545  36.795  30.846  1.00  0.00    -0.195 NA
ATOM      9  S   UNL A   1      32.802  36.226  32.354  1.00  0.00    -0.017 S 
ATOM     10  C   UNL A   1      33.983  35.022  31.955  1.00  0.00     0.133 A 
BRANCH  10  11
ATOM     11  N   UNL A   1      34.596  34.356  33.069  1.00  0.00    -0.303 N 
ATOM     12  C   UNL A   1      34.887  35.091  34.307  1.00  0.00     0.154 C 
BRANCH  11  13
ATOM     13  C   UNL A   1      35.098  33.056  32.880  1.00  0.00     0.249 C 
ATOM     14  O   UNL A   1      34.401  32.127  32.460  1.00  0.00    -0.272 OA
BRANCH  13  15
ATOM     15  C   UNL A   1      36.609  32.725  33.114  1.00  0.00     0.170 C 
ATOM     16  C   UNL A   1      36.935  31.277  33.477  1.00  0.00     0.041 C 
BRANCH  15  17
ATOM     17  N   UNL A   1      37.498  33.241  32.078  1.00  0.00    -0.327 N 
ATOM     18  C   UNL A   1      38.270  34.343  32.281  1.00  0.00     0.312 C 
ATOM     19  H   UNL A   1      37.541  32.778  31.210  1.00  0.00     0.166 HD
ATOM     20  N   UNL A   1      39.014  34.674  31.201  1.00  0.00    -0.352 N 
ATOM     21  O   UNL A   1      38.337  34.988  33.316  1.00  0.00    -0.249 OA
ATOM     22  H   UNL A   1      38.947  34.142  30.375  1.00  0.00     0.161 HD
ATOM     23  H   UNL A   1      39.624  35.446  31.241  1.00  0.00     0.161 HD
ENDBRANCH  15  17
ENDBRANCH  13  15
ENDBRANCH  11  13
ENDBRANCH  10  11
ENDBRANCH   3   5
ENDBRANCH   2   3
ENDBRANCH   1   2
BRANCH   1  24
ATOM     24  C   UNL A   1      34.651  31.133  28.012  1.00  0.00     0.275 C 
BRANCH  24  25
ATOM     25  O   UNL A   1      36.036  30.821  27.952  1.00  0.00    -0.458 OA
BRANCH  25  26
ATOM     26  C   UNL A   1      36.622  30.413  29.100  1.00  0.00     0.338 C 
ATOM     27  O   UNL A   1      36.481  30.869  30.221  1.00  0.00    -0.246 OA
BRANCH  26  28
ATOM     28  C   UNL A   1      37.644  29.421  28.749  1.00  0.00     0.060 A 
ATOM     29  C   UNL A   1      37.995  28.464  29.710  1.00  0.00     0.016 A 
ATOM     30  C   UNL A   1      38.398  29.626  27.586  1.00  0.00     0.016 A 
ATOM     31  C   UNL A   1      39.228  27.859  29.607  1.00  0.00     0.010 A 
ATOM     32  C   UNL A   1      39.637  29.065  27.507  1.00  0.00     0.010 A 
ATOM     33  C   UNL A   1      40.057  28.253  28.557  1.00  0.00    -0.014 A 
BRANCH  33  34
ATOM     34  C   UNL A   1      41.446  27.871  28.562  1.00  0.00     0.031 A 
ATOM     35  C   UNL A   1      41.738  26.621  27.817  1.00  0.00     0.074 A 
ATOM     36  C   UNL A   1      42.342  28.760  29.032  1.00  0.00     0.049 A 
ATOM     37  N   UNL A   1      42.292  25.542  28.257  1.00  0.00    -0.248 NA
ATOM     38  C   UNL A   1      41.213  26.495  26.444  1.00  0.00     0.031 C 
ATOM     39  C   UNL A   1      42.116  30.145  29.478  1.00  0.00     0.029 A 
ATOM     40  N   UNL A   1      43.692  28.649  29.067  1.00  0.00    -0.354 N 
ATOM     41  C   UNL A   1      42.364  24.673  27.169  1.00  0.00     0.074 A 
ATOM     42  C   UNL A   1      41.539  25.240  26.142  1.00  0.00     0.031 C 
ATOM     43  C   UNL A   1      43.295  30.806  29.500  1.00  0.00     0.029 A 
ATOM     44  C   UNL A   1      44.356  29.866  29.199  1.00  0.00     0.049 A 
ATOM     45  H   UNL A   1      44.162  27.786  29.005  1.00  0.00     0.167 HD
ATOM     46  C   UNL A   1      43.277  23.664  27.131  1.00  0.00     0.037 A 
ATOM     47  C   UNL A   1      45.673  30.040  28.927  1.00  0.00     0.037 A 
ATOM     48  C   UNL A   1      43.788  23.392  28.450  1.00  0.00     0.049 A 
ATOM     49  C   UNL A   1      46.292  28.678  28.947  1.00  0.00     0.074 A 
ATOM     50  C   UNL A   1      43.216  22.958  29.629  1.00  0.00     0.029 A 
ATOM     51  N   UNL A   1      44.992  23.958  28.798  1.00  0.00    -0.354 N 
ATOM     52  N   UNL A   1      46.362  27.942  30.028  1.00  0.00    -0.248 NA
ATOM     53  C   UNL A   1      46.318  27.939  27.689  1.00  0.00     0.031 C 
ATOM     54  C   UNL A   1      43.845  23.736  30.642  1.00  0.00     0.029 A 
ATOM     55  C   UNL A   1      44.818  24.531  30.032  1.00  0.00     0.049 A 
ATOM     56  H   UNL A   1      45.820  23.953  28.265  1.00  0.00     0.167 HD
ATOM     57  C   UNL A   1      46.048  26.654  29.611  1.00  0.00     0.074 A 
ATOM     58  C   UNL A   1      46.067  26.709  28.149  1.00  0.00     0.031 C 
ATOM     59  C   UNL A   1      45.501  25.731  30.459  1.00  0.00     0.037 A 
BRANCH  46  60
ATOM     60  C   UNL A   1      43.985  23.182  25.888  1.00  0.00     0.057 A 
ATOM     61  C   UNL A   1      43.993  21.801  25.612  1.00  0.00     0.134 A 
ATOM     62  C   UNL A   1      44.906  23.943  25.141  1.00  0.00     0.134 A 
ATOM     63  F   UNL A   1      43.144  20.968  26.233  1.00  0.00    -0.206 F 
ATOM     64  C   UNL A   1      44.931  21.209  24.759  1.00  0.00     0.040 A 
ATOM     65  C   UNL A   1      45.816  23.367  24.251  1.00  0.00     0.040 A 
ATOM     66  F   UNL A   1      45.046  25.263  25.291  1.00  0.00    -0.206 F 
ATOM     67  C   UNL A   1      45.861  21.992  24.090  1.00  0.00     0.006 A 
ENDBRANCH  46  60
BRANCH  47  68
ATOM     68  C   UNL A   1      46.280  31.216  28.260  1.00  0.00     0.057 A 
ATOM     69  C   UNL A   1      45.753  31.749  27.079  1.00  0.00     0.134 A 
ATOM     70  C   UNL A   1      47.273  31.991  28.893  1.00  0.00     0.134 A 
ATOM     71  F   UNL A   1      44.767  31.113  26.429  1.00  0.00    -0.206 F 
ATOM     72  C   UNL A   1      46.190  32.975  26.554  1.00  0.00     0.040 A 
ATOM     73  C   UNL A   1      47.724  33.210  28.379  1.00  0.00     0.040 A 
ATOM     74  F   UNL A   1      47.783  31.629  30.079  1.00  0.00    -0.206 F 
ATOM     75  C   UNL A   1      47.176  33.712  27.206  1.00  0.00     0.006 A 
ENDBRANCH  47  68
BRANCH  59  76
ATOM     76  C   UNL A   1      45.355  26.073  31.917  1.00  0.00     0.057 A 
ATOM     77  C   UNL A   1      46.412  26.000  32.838  1.00  0.00     0.134 A 
ATOM     78  C   UNL A   1      44.201  26.741  32.335  1.00  0.00     0.134 A 
ATOM     79  F   UNL A   1      47.592  25.476  32.495  1.00  0.00    -0.206 F 
ATOM     80  C   UNL A   1      46.318  26.549  34.121  1.00  0.00     0.040 A 
ATOM     81  C   UNL A   1      44.105  27.322  33.601  1.00  0.00     0.040 A 
ATOM     82  F   UNL A   1      43.177  26.913  31.485  1.00  0.00    -0.206 F 
ATOM     83  C   UNL A   1      45.163  27.225  34.500  1.00  0.00     0.006 A 
ENDBRANCH  59  76
ENDBRANCH  33  34
ENDBRANCH  26  28
ENDBRANCH  25  26
ENDBRANCH  24  25
ENDBRANCH   1  24
TORSDOF 15
ENDMDL
MODEL 3
REMARK VINA RESULT:     -10.2      5.725     10.891
REMARK SMILES Cc1nsc(N(C)C(=O)[C@@H](C)NC(N)=O)c1C(=O)OCCOC(=O)c1ccc(-c2c3nc(c(-c4c(F)cccc4F)c4ccc([nH]4)c(-c4c(F)cccc4F)c4nc(c(-c5c(F)cccc5F)c5ccc2[nH]5)C=C4)C=C3)cc1
REMARK SMILES IDX 20 1 19 2 17 3 18 4 16 5 1 6 2 7 3 8 4 9 5 10 6 11 7 12 8 13
REMARK SMILES IDX 9 14 10 15 11 16 12 17 13 18 14 20 15 21 21 24 22 25 23 26
REMARK SMILES IDX 24 27 25 28 26 29 78 30 27 31 77 32 28 33 29 34 30 35 71 36
REMARK SMILES IDX 31 37 76 38 70 39 72 40 32 41 75 42 69 43 68 44 33 46 59 47
REMARK SMILES IDX 42 48 58 49 43 50 46 51 57 52 73 53 44 54 45 55 56 57 74 58
REMARK SMILES IDX 47 59 34 60 35 61 40 62 36 63 37 64 39 65 41 66 38 67 60 68
REMARK SMILES IDX 61 69 66 70 62 71 63 72 65 73 67 74 64 75 48 76 49 77 54 78
REMARK SMILES IDX 50 79 51 80 53 81 55 82 52 83
REMARK H PARENT 12 19 14 22 14 23 72 45 46 56
REMARK Flexibility Score: inf
ROOT
ATOM      1  C   UNL A   1      37.049  23.708  26.106  1.00  0.00     0.275 C 
ENDROOT
BRANCH   1   2
ATOM      2  O   UNL A   1      36.411  24.102  24.882  1.00  0.00    -0.458 OA
BRANCH   2   3
ATOM      3  C   UNL A   1      36.234  23.149  23.914  1.00  0.00     0.343 C 
ATOM      4  O   UNL A   1      36.877  23.092  22.884  1.00  0.00    -0.246 OA
BRANCH   3   5
ATOM      5  C   UNL A   1      35.111  22.268  24.239  1.00  0.00     0.117 A 
ATOM      6  C   UNL A   1      36.615  20.216  24.945  1.00  0.00     0.069 C 
ATOM      7  C   UNL A   1      35.310  20.920  24.759  1.00  0.00     0.068 A 
ATOM      8  N   UNL A   1      34.217  20.264  25.133  1.00  0.00    -0.195 NA
ATOM      9  S   UNL A   1      32.909  21.181  24.804  1.00  0.00    -0.017 S 
ATOM     10  C   UNL A   1      33.739  22.535  24.108  1.00  0.00     0.133 A 
BRANCH  10  11
ATOM     11  N   UNL A   1      32.902  23.553  23.536  1.00  0.00    -0.303 N 
ATOM     12  C   UNL A   1      32.552  23.513  22.110  1.00  0.00     0.154 C 
BRANCH  11  13
ATOM     13  C   UNL A   1      32.601  24.687  24.311  1.00  0.00     0.249 C 
ATOM     14  O   UNL A   1      33.451  25.529  24.618  1.00  0.00    -0.272 OA
BRANCH  13  15
ATOM     15  C   UNL A   1      31.136  24.997  24.763  1.00  0.00     0.170 C 
ATOM     16  C   UNL A   1      30.314  25.881  23.827  1.00  0.00     0.041 C 
BRANCH  15  17
ATOM     17  N   UNL A   1      30.388  23.823  25.201  1.00  0.00    -0.327 N 
ATOM     18  C   UNL A   1      30.418  23.397  26.493  1.00  0.00     0.312 C 
ATOM     19  H   UNL A   1      29.847  23.327  24.545  1.00  0.00     0.166 HD
ATOM     20  N   UNL A   1      29.674  22.286  26.702  1.00  0.00    -0.352 N 
ATOM     21  O   UNL A   1      31.017  23.937  27.410  1.00  0.00    -0.249 OA
ATOM     22  H   UNL A   1      29.197  21.866  25.950  1.00  0.00     0.161 HD
ATOM     23  H   UNL A   1      29.608  21.900  27.605  1.00  0.00     0.161 HD
ENDBRANCH  15  17
ENDBRANCH  13  15
ENDBRANCH  11  13
ENDBRANCH  10  11
ENDBRANCH   3   5
ENDBRANCH   2   3
ENDBRANCH   1   2
BRANCH   1  24
ATOM     24  C   UNL A   1      38.552  23.653  25.861  1.00  0.00     0.275 C 
BRANCH  24  25
ATOM     25  O   UNL A   1      39.243  23.984  27.058  1.00  0.00    -0.458 OA
BRANCH  25  26
ATOM     26  C   UNL A   1      40.226  24.906  26.964  1.00  0.00     0.338 C 
ATOM     27  O   UNL A   1      41.367  24.753  26.566  1.00  0.00    -0.246 OA
BRANCH  26  28
ATOM     28  C   UNL A   1      39.752  26.129  27.620  1.00  0.00     0.060 A 
ATOM     29  C   UNL A   1      40.085  27.362  27.043  1.00  0.00     0.016 A 
ATOM     30  C   UNL A   1      39.217  26.027  28.911  1.00  0.00     0.016 A 
ATOM     31  C   UNL A   1      40.082  28.480  27.848  1.00  0.00     0.010 A 
ATOM     32  C   UNL A   1      39.260  27.121  29.721  1.00  0.00     0.010 A 
ATOM     33  C   UNL A   1      39.763  28.307  29.195  1.00  0.00    -0.014 A 
BRANCH  33  34
ATOM     34  C   UNL A   1      40.017  29.373  30.131  1.00  0.00     0.031 A 
ATOM     35  C   UNL A   1      38.844  30.238  30.405  1.00  0.00     0.074 A 
ATOM     36  C   UNL A   1      41.182  29.351  30.809  1.00  0.00     0.049 A 
ATOM     37  N   UNL A   1      38.740  31.514  30.245  1.00  0.00    -0.248 NA
ATOM     38  C   UNL A   1      37.570  29.584  30.759  1.00  0.00     0.031 C 
ATOM     39  C   UNL A   1      42.232  28.320  30.799  1.00  0.00     0.029 A 
ATOM     40  N   UNL A   1      41.601  30.198  31.780  1.00  0.00    -0.354 N 
ATOM     41  C   UNL A   1      37.454  31.853  30.665  1.00  0.00     0.074 A 
ATOM     42  C   UNL A   1      36.734  30.620  30.802  1.00  0.00     0.031 C 
ATOM     43  C   UNL A   1      43.026  28.480  31.881  1.00  0.00     0.029 A 
ATOM     44  C   UNL A   1      42.622  29.685  32.575  1.00  0.00     0.049 A 
ATOM     45  H   UNL A   1      41.218  31.095  31.911  1.00  0.00     0.167 HD
ATOM     46  C   UNL A   1      37.156  33.117  31.075  1.00  0.00     0.037 A 
ATOM     47  C   UNL A   1      42.964  30.195  33.784  1.00  0.00     0.037 A 
ATOM     48  C   UNL A   1      38.156  34.047  30.620  1.00  0.00     0.049 A 
ATOM     49  C   UNL A   1      42.407  31.583  33.831  1.00  0.00     0.074 A 
ATOM     50  C   UNL A   1      38.593  34.453  29.375  1.00  0.00     0.029 A 
ATOM     51  N   UNL A   1      39.148  34.403  31.503  1.00  0.00    -0.354 N 
ATOM     52  N   UNL A   1      42.815  32.542  33.039  1.00  0.00    -0.248 NA
ATOM     53  C   UNL A   1      41.053  31.740  34.353  1.00  0.00     0.031 C 
ATOM     54  C   UNL A   1      40.008  34.548  29.502  1.00  0.00     0.029 A 
ATOM     55  C   UNL A   1      40.338  34.280  30.833  1.00  0.00     0.049 A 
ATOM     56  H   UNL A   1      39.027  34.689  32.438  1.00  0.00     0.167 HD
ATOM     57  C   UNL A   1      41.658  33.209  32.651  1.00  0.00     0.074 A 
ATOM     58  C   UNL A   1      40.605  32.690  33.525  1.00  0.00     0.031 C 
ATOM     59  C   UNL A   1      41.575  33.890  31.468  1.00  0.00     0.037 A 
BRANCH  46  60
ATOM     60  C   UNL A   1      36.191  33.462  32.183  1.00  0.00     0.057 A 
ATOM     61  C   UNL A   1      35.168  34.393  31.917  1.00  0.00     0.134 A 
ATOM     62  C   UNL A   1      36.402  33.184  33.548  1.00  0.00     0.134 A 
ATOM     63  F   UNL A   1      34.846  34.724  30.657  1.00  0.00    -0.206 F 
ATOM     64  C   UNL A   1      34.499  35.087  32.931  1.00  0.00     0.040 A 
ATOM     65  C   UNL A   1      35.706  33.838  34.569  1.00  0.00     0.040 A 
ATOM     66  F   UNL A   1      37.346  32.343  33.979  1.00  0.00    -0.206 F 
ATOM     67  C   UNL A   1      34.783  34.825  34.264  1.00  0.00     0.006 A 
ENDBRANCH  46  60
BRANCH  47  68
ATOM     68  C   UNL A   1      43.347  29.415  34.985  1.00  0.00     0.057 A 
ATOM     69  C   UNL A   1      42.490  28.466  35.554  1.00  0.00     0.134 A 
ATOM     70  C   UNL A   1      44.667  29.423  35.479  1.00  0.00     0.134 A 
ATOM     71  F   UNL A   1      41.229  28.343  35.116  1.00  0.00    -0.206 F 
ATOM     72  C   UNL A   1      42.917  27.583  36.558  1.00  0.00     0.040 A 
ATOM     73  C   UNL A   1      45.105  28.555  36.483  1.00  0.00     0.040 A 
ATOM     74  F   UNL A   1      45.602  30.223  34.945  1.00  0.00    -0.206 F 
ATOM     75  C   UNL A   1      44.229  27.623  37.023  1.00  0.00     0.006 A 
ENDBRANCH  47  68
BRANCH  59  76
ATOM     76  C   UNL A   1      42.810  34.034  30.620  1.00  0.00     0.057 A 
ATOM     77  C   UNL A   1      43.148  33.146  29.587  1.00  0.00     0.134 A 
ATOM     78  C   UNL A   1      43.522  35.235  30.675  1.00  0.00     0.134 A 
ATOM     79  F   UNL A   1      42.453  32.021  29.388  1.00  0.00    -0.206 F 
ATOM     80  C   UNL A   1      44.158  33.431  28.663  1.00  0.00     0.040 A 
ATOM     81  C   UNL A   1      44.513  35.547  29.741  1.00  0.00     0.040 A 
ATOM     82  F   UNL A   1      43.208  36.164  31.591  1.00  0.00    -0.206 F 
ATOM     83  C   UNL A   1      44.836  34.644  28.732  1.00  0.00     0.006 A 
ENDBRANCH  59  76
ENDBRANCH  33  34
ENDBRANCH  26  28
ENDBRANCH  25  26
ENDBRANCH  24  25
ENDBRANCH   1  24
TORSDOF 15
ENDMDL
