MODEL 1
REMARK VINA RESULT:     -10.3      0.000      0.000
REMARK SMILES COc1ccc(Br)cc1S(=O)(=O)N(C)CC(=O)OCCOC(=O)c1ccc(-c2c3nc(c(-c4c(F)cccc4F)c4ccc([nH]4)c(-c4c(F)cccc4F)c4nc(c(-c5c(F)cccc5F)c5ccc2[nH]5)C=C4)C=C3)cc1
REMARK SMILES IDX 19 1 18 2 16 3 17 4 15 5 13 6 14 7 10 8 11 9 12 10 9 11 3 12
REMARK SMILES IDX 4 13 5 14 8 15 6 16 7 17 2 18 1 19 20 20 21 21 22 22 23 23
REMARK SMILES IDX 24 24 25 25 77 26 26 27 76 28 27 29 28 30 29 31 70 32 30 33
REMARK SMILES IDX 75 34 69 35 71 36 31 37 74 38 68 39 67 40 32 42 58 43 41 44
REMARK SMILES IDX 57 45 42 46 45 47 56 48 72 49 43 50 44 51 55 53 73 54 46 55
REMARK SMILES IDX 33 56 34 57 39 58 35 59 36 60 38 61 40 62 37 63 59 64 60 65
REMARK SMILES IDX 65 66 61 67 62 68 64 69 66 70 63 71 47 72 48 73 53 74 49 75
REMARK SMILES IDX 50 76 52 77 54 78 51 79
REMARK H PARENT 71 41 45 52
REMARK Flexibility Score: inf
ROOT
ATOM      1  C   UNL A   1      30.878  29.874  24.358  1.00  0.00     0.274 C 
ENDROOT
BRANCH   1   2
ATOM      2  O   UNL A   1      31.720  29.080  23.487  1.00  0.00    -0.461 OA
BRANCH   2   3
ATOM      3  C   UNL A   1      31.122  28.074  22.795  1.00  0.00     0.321 C 
ATOM      4  O   UNL A   1      30.228  28.256  21.971  1.00  0.00    -0.251 OA
BRANCH   3   5
ATOM      5  C   UNL A   1      31.570  26.683  23.195  1.00  0.00     0.224 C 
BRANCH   5   6
ATOM      6  N   UNL A   1      31.264  26.057  24.509  1.00  0.00    -0.190 NA
ATOM      7  C   UNL A   1      29.869  26.198  24.942  1.00  0.00     0.125 C 
BRANCH   6   8
ATOM      8  S   UNL A   1      32.444  26.217  25.718  1.00  0.00     0.247 S 
ATOM      9  O   UNL A   1      31.754  26.639  26.924  1.00  0.00    -0.207 OA
ATOM     10  O   UNL A   1      33.587  26.915  25.166  1.00  0.00    -0.207 OA
BRANCH   8  11
ATOM     11  C   UNL A   1      33.056  24.616  26.177  1.00  0.00     0.125 A 
ATOM     12  C   UNL A   1      32.379  23.699  26.977  1.00  0.00     0.138 A 
ATOM     13  C   UNL A   1      33.074  22.557  27.408  1.00  0.00     0.049 A 
ATOM     14  C   UNL A   1      34.410  22.342  27.045  1.00  0.00     0.019 A 
ATOM     15  C   UNL A   1      34.386  24.377  25.774  1.00  0.00     0.041 A 
ATOM     16  C   UNL A   1      35.057  23.247  26.213  1.00  0.00     0.019 A 
ATOM     17  Br  UNL A   1      36.850  22.958  25.698  1.00  0.00    -0.051 Br
BRANCH  12  18
ATOM     18  O   UNL A   1      31.058  23.896  27.250  1.00  0.00    -0.495 OA
ATOM     19  C   UNL A   1      30.167  22.903  26.753  1.00  0.00     0.278 C 
ENDBRANCH  12  18
ENDBRANCH   8  11
ENDBRANCH   6   8
ENDBRANCH   5   6
ENDBRANCH   3   5
ENDBRANCH   2   3
ENDBRANCH   1   2
BRANCH   1  20
ATOM     20  C   UNL A   1      31.414  29.928  25.797  1.00  0.00     0.275 C 
BRANCH  20  21
ATOM     21  O   UNL A   1      32.843  30.148  25.844  1.00  0.00    -0.458 OA
BRANCH  21  22
ATOM     22  C   UNL A   1      33.191  31.062  26.769  1.00  0.00     0.338 C 
ATOM     23  O   UNL A   1      32.493  31.983  27.151  1.00  0.00    -0.246 OA
BRANCH  22  24
ATOM     24  C   UNL A   1      34.476  30.843  27.413  1.00  0.00     0.060 A 
ATOM     25  C   UNL A   1      34.730  29.554  27.893  1.00  0.00     0.016 A 
ATOM     26  C   UNL A   1      35.289  31.920  27.758  1.00  0.00     0.016 A 
ATOM     27  C   UNL A   1      35.824  29.329  28.713  1.00  0.00     0.010 A 
ATOM     28  C   UNL A   1      36.403  31.689  28.565  1.00  0.00     0.010 A 
ATOM     29  C   UNL A   1      36.677  30.392  29.035  1.00  0.00    -0.014 A 
BRANCH  29  30
ATOM     30  C   UNL A   1      37.928  30.110  29.764  1.00  0.00     0.031 A 
ATOM     31  C   UNL A   1      39.000  29.253  29.171  1.00  0.00     0.074 A 
ATOM     32  C   UNL A   1      38.064  30.652  30.986  1.00  0.00     0.049 A 
ATOM     33  N   UNL A   1      40.104  28.825  29.725  1.00  0.00    -0.248 NA
ATOM     34  C   UNL A   1      38.809  28.817  27.780  1.00  0.00     0.031 C 
ATOM     35  C   UNL A   1      37.082  31.531  31.628  1.00  0.00     0.029 A 
ATOM     36  N   UNL A   1      39.070  30.544  31.907  1.00  0.00    -0.354 N 
ATOM     37  C   UNL A   1      40.735  28.052  28.761  1.00  0.00     0.074 A 
ATOM     38  C   UNL A   1      39.886  28.066  27.587  1.00  0.00     0.031 C 
ATOM     39  C   UNL A   1      37.537  31.887  32.836  1.00  0.00     0.029 A 
ATOM     40  C   UNL A   1      38.808  31.215  33.075  1.00  0.00     0.049 A 
ATOM     41  H   UNL A   1      39.899  30.037  31.747  1.00  0.00     0.167 HD
ATOM     42  C   UNL A   1      41.912  27.389  28.864  1.00  0.00     0.037 A 
ATOM     43  C   UNL A   1      39.498  31.251  34.227  1.00  0.00     0.037 A 
ATOM     44  C   UNL A   1      42.744  27.399  30.041  1.00  0.00     0.049 A 
ATOM     45  C   UNL A   1      40.774  30.474  34.325  1.00  0.00     0.074 A 
ATOM     46  C   UNL A   1      43.963  26.777  30.245  1.00  0.00     0.029 A 
ATOM     47  N   UNL A   1      42.436  28.067  31.219  1.00  0.00    -0.354 N 
ATOM     48  N   UNL A   1      41.357  29.731  33.415  1.00  0.00    -0.248 NA
ATOM     49  C   UNL A   1      41.482  30.527  35.608  1.00  0.00     0.031 C 
ATOM     50  C   UNL A   1      44.375  27.038  31.557  1.00  0.00     0.029 A 
ATOM     51  C   UNL A   1      43.430  27.855  32.160  1.00  0.00     0.049 A 
ATOM     52  H   UNL A   1      41.629  28.613  31.364  1.00  0.00     0.167 HD
ATOM     53  C   UNL A   1      42.503  29.231  34.011  1.00  0.00     0.074 A 
ATOM     54  C   UNL A   1      42.542  29.773  35.356  1.00  0.00     0.031 C 
ATOM     55  C   UNL A   1      43.437  28.395  33.496  1.00  0.00     0.037 A 
BRANCH  42  56
ATOM     56  C   UNL A   1      42.352  26.571  27.686  1.00  0.00     0.057 A 
ATOM     57  C   UNL A   1      43.164  27.100  26.675  1.00  0.00     0.134 A 
ATOM     58  C   UNL A   1      41.989  25.222  27.583  1.00  0.00     0.134 A 
ATOM     59  F   UNL A   1      43.540  28.387  26.709  1.00  0.00    -0.206 F 
ATOM     60  C   UNL A   1      43.584  26.320  25.595  1.00  0.00     0.040 A 
ATOM     61  C   UNL A   1      42.420  24.428  26.519  1.00  0.00     0.040 A 
ATOM     62  F   UNL A   1      41.217  24.652  28.521  1.00  0.00    -0.206 F 
ATOM     63  C   UNL A   1      43.216  24.978  25.519  1.00  0.00     0.006 A 
ENDBRANCH  42  56
BRANCH  43  64
ATOM     64  C   UNL A   1      38.967  32.030  35.369  1.00  0.00     0.057 A 
ATOM     65  C   UNL A   1      38.235  31.412  36.387  1.00  0.00     0.134 A 
ATOM     66  C   UNL A   1      39.225  33.401  35.494  1.00  0.00     0.134 A 
ATOM     67  F   UNL A   1      37.947  30.105  36.313  1.00  0.00    -0.206 F 
ATOM     68  C   UNL A   1      37.775  32.130  37.491  1.00  0.00     0.040 A 
ATOM     69  C   UNL A   1      38.791  34.126  36.604  1.00  0.00     0.040 A 
ATOM     70  F   UNL A   1      39.932  34.046  34.555  1.00  0.00    -0.206 F 
ATOM     71  C   UNL A   1      38.061  33.491  37.605  1.00  0.00     0.006 A 
ENDBRANCH  43  64
BRANCH  55  72
ATOM     72  C   UNL A   1      44.577  28.032  34.396  1.00  0.00     0.057 A 
ATOM     73  C   UNL A   1      44.523  26.907  35.228  1.00  0.00     0.134 A 
ATOM     74  C   UNL A   1      45.740  28.810  34.425  1.00  0.00     0.134 A 
ATOM     75  F   UNL A   1      43.426  26.136  35.258  1.00  0.00    -0.206 F 
ATOM     76  C   UNL A   1      45.582  26.580  36.075  1.00  0.00     0.040 A 
ATOM     77  C   UNL A   1      46.813  28.480  35.252  1.00  0.00     0.040 A 
ATOM     78  F   UNL A   1      45.852  29.899  33.649  1.00  0.00    -0.206 F 
ATOM     79  C   UNL A   1      46.734  27.364  36.085  1.00  0.00     0.006 A 
ENDBRANCH  55  72
ENDBRANCH  29  30
ENDBRANCH  22  24
ENDBRANCH  21  22
ENDBRANCH  20  21
ENDBRANCH   1  20
TORSDOF 15
ENDMDL
MODEL 2
REMARK VINA RESULT:     -10.2      1.468      2.171
REMARK SMILES COc1ccc(Br)cc1S(=O)(=O)N(C)CC(=O)OCCOC(=O)c1ccc(-c2c3nc(c(-c4c(F)cccc4F)c4ccc([nH]4)c(-c4c(F)cccc4F)c4nc(c(-c5c(F)cccc5F)c5ccc2[nH]5)C=C4)C=C3)cc1
REMARK SMILES IDX 19 1 18 2 16 3 17 4 15 5 13 6 14 7 10 8 11 9 12 10 9 11 3 12
REMARK SMILES IDX 4 13 5 14 8 15 6 16 7 17 2 18 1 19 20 20 21 21 22 22 23 23
REMARK SMILES IDX 24 24 25 25 77 26 26 27 76 28 27 29 28 30 29 31 70 32 30 33
REMARK SMILES IDX 75 34 69 35 71 36 31 37 74 38 68 39 67 40 32 42 58 43 41 44
REMARK SMILES IDX 57 45 42 46 45 47 56 48 72 49 43 50 44 51 55 53 73 54 46 55
REMARK SMILES IDX 33 56 34 57 39 58 35 59 36 60 38 61 40 62 37 63 59 64 60 65
REMARK SMILES IDX 65 66 61 67 62 68 64 69 66 70 63 71 47 72 48 73 53 74 49 75
REMARK SMILES IDX 50 76 52 77 54 78 51 79
REMARK H PARENT 71 41 45 52
REMARK Flexibility Score: inf
ROOT
ATOM      1  C   UNL A   1      31.799  31.109  26.360  1.00  0.00     0.274 C 
ENDROOT
BRANCH   1   2
ATOM      2  O   UNL A   1      32.548  30.211  27.215  1.00  0.00    -0.461 OA
BRANCH   2   3
ATOM      3  C   UNL A   1      33.182  29.168  26.615  1.00  0.00     0.321 C 
ATOM      4  O   UNL A   1      34.331  28.826  26.885  1.00  0.00    -0.251 OA
BRANCH   3   5
ATOM      5  C   UNL A   1      32.394  28.515  25.496  1.00  0.00     0.224 C 
BRANCH   5   6
ATOM      6  N   UNL A   1      32.612  27.120  25.031  1.00  0.00    -0.190 NA
ATOM      7  C   UNL A   1      32.913  26.993  23.600  1.00  0.00     0.125 C 
BRANCH   6   8
ATOM      8  S   UNL A   1      31.591  25.934  25.689  1.00  0.00     0.247 S 
ATOM      9  O   UNL A   1      30.814  25.392  24.590  1.00  0.00    -0.207 OA
ATOM     10  O   UNL A   1      31.000  26.450  26.907  1.00  0.00    -0.207 OA
BRANCH   8  11
ATOM     11  C   UNL A   1      32.550  24.530  26.199  1.00  0.00     0.125 A 
ATOM     12  C   UNL A   1      32.109  23.531  27.063  1.00  0.00     0.138 A 
ATOM     13  C   UNL A   1      33.048  22.592  27.520  1.00  0.00     0.049 A 
ATOM     14  C   UNL A   1      34.389  22.653  27.119  1.00  0.00     0.019 A 
ATOM     15  C   UNL A   1      33.889  24.565  25.759  1.00  0.00     0.041 A 
ATOM     16  C   UNL A   1      34.802  23.632  26.224  1.00  0.00     0.019 A 
ATOM     17  Br  UNL A   1      36.601  23.713  25.659  1.00  0.00    -0.051 Br
BRANCH  12  18
ATOM     18  O   UNL A   1      30.785  23.451  27.374  1.00  0.00    -0.495 OA
ATOM     19  C   UNL A   1      30.012  22.567  26.570  1.00  0.00     0.278 C 
ENDBRANCH  12  18
ENDBRANCH   8  11
ENDBRANCH   6   8
ENDBRANCH   5   6
ENDBRANCH   3   5
ENDBRANCH   2   3
ENDBRANCH   1   2
BRANCH   1  20
ATOM     20  C   UNL A   1      31.535  32.467  27.030  1.00  0.00     0.275 C 
BRANCH  20  21
ATOM     21  O   UNL A   1      32.619  33.403  26.822  1.00  0.00    -0.458 OA
BRANCH  21  22
ATOM     22  C   UNL A   1      33.078  33.920  27.977  1.00  0.00     0.338 C 
ATOM     23  O   UNL A   1      32.519  34.771  28.644  1.00  0.00    -0.246 OA
BRANCH  22  24
ATOM     24  C   UNL A   1      34.298  33.318  28.490  1.00  0.00     0.060 A 
ATOM     25  C   UNL A   1      34.150  32.262  29.394  1.00  0.00     0.016 A 
ATOM     26  C   UNL A   1      35.532  33.934  28.288  1.00  0.00     0.016 A 
ATOM     27  C   UNL A   1      35.251  31.797  30.095  1.00  0.00     0.010 A 
ATOM     28  C   UNL A   1      36.644  33.450  28.976  1.00  0.00     0.010 A 
ATOM     29  C   UNL A   1      36.507  32.375  29.872  1.00  0.00    -0.014 A 
BRANCH  29  30
ATOM     30  C   UNL A   1      37.697  31.761  30.491  1.00  0.00     0.031 A 
ATOM     31  C   UNL A   1      38.513  30.739  29.768  1.00  0.00     0.074 A 
ATOM     32  C   UNL A   1      38.017  32.156  31.735  1.00  0.00     0.049 A 
ATOM     33  N   UNL A   1      39.518  30.031  30.213  1.00  0.00    -0.248 NA
ATOM     34  C   UNL A   1      38.156  30.473  28.367  1.00  0.00     0.031 C 
ATOM     35  C   UNL A   1      37.295  33.176  32.503  1.00  0.00     0.029 A 
ATOM     36  N   UNL A   1      39.018  31.751  32.575  1.00  0.00    -0.354 N 
ATOM     37  C   UNL A   1      39.905  29.218  29.157  1.00  0.00     0.074 A 
ATOM     38  C   UNL A   1      39.022  29.519  28.048  1.00  0.00     0.031 C 
ATOM     39  C   UNL A   1      37.882  33.321  33.698  1.00  0.00     0.029 A 
ATOM     40  C   UNL A   1      38.977  32.365  33.801  1.00  0.00     0.049 A 
ATOM     41  H   UNL A   1      39.700  31.087  32.324  1.00  0.00     0.167 HD
ATOM     42  C   UNL A   1      40.904  28.303  29.132  1.00  0.00     0.037 A 
ATOM     43  C   UNL A   1      39.716  32.150  34.902  1.00  0.00     0.037 A 
ATOM     44  C   UNL A   1      41.776  28.030  30.247  1.00  0.00     0.049 A 
ATOM     45  C   UNL A   1      40.784  31.102  34.858  1.00  0.00     0.074 A 
ATOM     46  C   UNL A   1      42.830  27.137  30.323  1.00  0.00     0.029 A 
ATOM     47  N   UNL A   1      41.690  28.651  31.486  1.00  0.00    -0.354 N 
ATOM     48  N   UNL A   1      41.134  30.326  33.861  1.00  0.00    -0.248 NA
ATOM     49  C   UNL A   1      41.551  30.890  36.090  1.00  0.00     0.031 C 
ATOM     50  C   UNL A   1      43.358  27.190  31.618  1.00  0.00     0.029 A 
ATOM     51  C   UNL A   1      42.657  28.145  32.339  1.00  0.00     0.049 A 
ATOM     52  H   UNL A   1      41.037  29.349  31.725  1.00  0.00     0.167 HD
ATOM     53  C   UNL A   1      42.166  29.535  34.341  1.00  0.00     0.074 A 
ATOM     54  C   UNL A   1      42.397  29.942  35.714  1.00  0.00     0.031 C 
ATOM     55  C   UNL A   1      42.856  28.557  33.705  1.00  0.00     0.037 A 
BRANCH  42  56
ATOM     56  C   UNL A   1      41.084  27.508  27.874  1.00  0.00     0.057 A 
ATOM     57  C   UNL A   1      41.957  27.913  26.856  1.00  0.00     0.134 A 
ATOM     58  C   UNL A   1      40.402  26.298  27.695  1.00  0.00     0.134 A 
ATOM     59  F   UNL A   1      42.634  29.066  26.961  1.00  0.00    -0.206 F 
ATOM     60  C   UNL A   1      42.131  27.151  25.699  1.00  0.00     0.040 A 
ATOM     61  C   UNL A   1      40.583  25.518  26.551  1.00  0.00     0.040 A 
ATOM     62  F   UNL A   1      39.554  25.850  28.633  1.00  0.00    -0.206 F 
ATOM     63  C   UNL A   1      41.447  25.947  25.547  1.00  0.00     0.006 A 
ENDBRANCH  42  56
BRANCH  43  64
ATOM     64  C   UNL A   1      39.436  32.931  36.129  1.00  0.00     0.057 A 
ATOM     65  C   UNL A   1      38.513  32.481  37.078  1.00  0.00     0.134 A 
ATOM     66  C   UNL A   1      40.125  34.119  36.406  1.00  0.00     0.134 A 
ATOM     67  F   UNL A   1      37.816  31.357  36.860  1.00  0.00    -0.206 F 
ATOM     68  C   UNL A   1      38.283  33.185  38.259  1.00  0.00     0.040 A 
ATOM     69  C   UNL A   1      39.921  34.821  37.593  1.00  0.00     0.040 A 
ATOM     70  F   UNL A   1      41.031  34.594  35.538  1.00  0.00    -0.206 F 
ATOM     71  C   UNL A   1      38.994  34.355  38.523  1.00  0.00     0.006 A 
ENDBRANCH  43  64
BRANCH  55  72
ATOM     72  C   UNL A   1      43.929  27.876  34.498  1.00  0.00     0.057 A 
ATOM     73  C   UNL A   1      45.231  28.386  34.557  1.00  0.00     0.134 A 
ATOM     74  C   UNL A   1      43.653  26.706  35.215  1.00  0.00     0.134 A 
ATOM     75  F   UNL A   1      45.559  29.493  33.875  1.00  0.00    -0.206 F 
ATOM     76  C   UNL A   1      46.230  27.742  35.286  1.00  0.00     0.040 A 
ATOM     77  C   UNL A   1      44.638  26.065  35.965  1.00  0.00     0.040 A 
ATOM     78  F   UNL A   1      42.423  26.170  35.199  1.00  0.00    -0.206 F 
ATOM     79  C   UNL A   1      45.934  26.580  35.997  1.00  0.00     0.006 A 
ENDBRANCH  55  72
ENDBRANCH  29  30
ENDBRANCH  22  24
ENDBRANCH  21  22
ENDBRANCH  20  21
ENDBRANCH   1  20
TORSDOF 15
ENDMDL
MODEL 3
REMARK VINA RESULT:     -10.2      4.647      9.422
REMARK SMILES COc1ccc(Br)cc1S(=O)(=O)N(C)CC(=O)OCCOC(=O)c1ccc(-c2c3nc(c(-c4c(F)cccc4F)c4ccc([nH]4)c(-c4c(F)cccc4F)c4nc(c(-c5c(F)cccc5F)c5ccc2[nH]5)C=C4)C=C3)cc1
REMARK SMILES IDX 19 1 18 2 16 3 17 4 15 5 13 6 14 7 10 8 11 9 12 10 9 11 3 12
REMARK SMILES IDX 4 13 5 14 8 15 6 16 7 17 2 18 1 19 20 20 21 21 22 22 23 23
REMARK SMILES IDX 24 24 25 25 77 26 26 27 76 28 27 29 28 30 29 31 70 32 30 33
REMARK SMILES IDX 75 34 69 35 71 36 31 37 74 38 68 39 67 40 32 42 58 43 41 44
REMARK SMILES IDX 57 45 42 46 45 47 56 48 72 49 43 50 44 51 55 53 73 54 46 55
REMARK SMILES IDX 33 56 34 57 39 58 35 59 36 60 38 61 40 62 37 63 59 64 60 65
REMARK SMILES IDX 65 66 61 67 62 68 64 69 66 70 63 71 47 72 48 73 53 74 49 75
REMARK SMILES IDX 50 76 52 77 54 78 51 79
REMARK H PARENT 71 41 45 52
REMARK Flexibility Score: inf
ROOT
ATOM      1  C   UNL A   1      38.295  20.005  25.147  1.00  0.00     0.274 C 
ENDROOT
BRANCH   1   2
ATOM      2  O   UNL A   1      37.794  21.363  25.115  1.00  0.00    -0.461 OA
BRANCH   2   3
ATOM      3  C   UNL A   1      36.457  21.535  25.294  1.00  0.00     0.321 C 
ATOM      4  O   UNL A   1      35.623  20.666  25.048  1.00  0.00    -0.251 OA
BRANCH   3   5
ATOM      5  C   UNL A   1      36.056  22.932  25.723  1.00  0.00     0.224 C 
BRANCH   5   6
ATOM      6  N   UNL A   1      34.690  23.494  25.554  1.00  0.00    -0.190 NA
ATOM      7  C   UNL A   1      33.663  22.868  26.396  1.00  0.00     0.125 C 
BRANCH   6   8
ATOM      8  S   UNL A   1      34.222  23.884  23.970  1.00  0.00     0.247 S 
ATOM      9  O   UNL A   1      32.929  23.263  23.749  1.00  0.00    -0.207 OA
ATOM     10  O   UNL A   1      35.357  23.701  23.089  1.00  0.00    -0.207 OA
BRANCH   8  11
ATOM     11  C   UNL A   1      33.830  25.612  23.867  1.00  0.00     0.125 A 
ATOM     12  C   UNL A   1      33.714  26.338  22.684  1.00  0.00     0.138 A 
ATOM     13  C   UNL A   1      33.589  27.733  22.774  1.00  0.00     0.049 A 
ATOM     14  C   UNL A   1      33.579  28.381  24.017  1.00  0.00     0.019 A 
ATOM     15  C   UNL A   1      33.773  26.259  25.119  1.00  0.00     0.041 A 
ATOM     16  C   UNL A   1      33.653  27.637  25.188  1.00  0.00     0.019 A 
ATOM     17  Br  UNL A   1      33.618  28.496  26.868  1.00  0.00    -0.051 Br
BRANCH  12  18
ATOM     18  O   UNL A   1      33.651  25.674  21.496  1.00  0.00    -0.495 OA
ATOM     19  C   UNL A   1      32.358  25.580  20.907  1.00  0.00     0.278 C 
ENDBRANCH  12  18
ENDBRANCH   8  11
ENDBRANCH   6   8
ENDBRANCH   5   6
ENDBRANCH   3   5
ENDBRANCH   2   3
ENDBRANCH   1   2
BRANCH   1  20
ATOM     20  C   UNL A   1      39.540  19.864  26.038  1.00  0.00     0.275 C 
BRANCH  20  21
ATOM     21  O   UNL A   1      40.618  19.167  25.372  1.00  0.00    -0.458 OA
BRANCH  21  22
ATOM     22  C   UNL A   1      41.763  19.196  26.080  1.00  0.00     0.338 C 
ATOM     23  O   UNL A   1      42.435  18.226  26.379  1.00  0.00    -0.246 OA
BRANCH  22  24
ATOM     24  C   UNL A   1      42.256  20.521  26.417  1.00  0.00     0.060 A 
ATOM     25  C   UNL A   1      42.210  20.888  27.765  1.00  0.00     0.016 A 
ATOM     26  C   UNL A   1      42.515  21.457  25.418  1.00  0.00     0.016 A 
ATOM     27  C   UNL A   1      42.445  22.205  28.128  1.00  0.00     0.010 A 
ATOM     28  C   UNL A   1      42.774  22.777  25.785  1.00  0.00     0.010 A 
ATOM     29  C   UNL A   1      42.749  23.150  27.140  1.00  0.00    -0.014 A 
BRANCH  29  30
ATOM     30  C   UNL A   1      43.165  24.505  27.551  1.00  0.00     0.031 A 
ATOM     31  C   UNL A   1      42.168  25.525  27.996  1.00  0.00     0.074 A 
ATOM     32  C   UNL A   1      44.479  24.786  27.505  1.00  0.00     0.049 A 
ATOM     33  N   UNL A   1      42.362  26.786  28.285  1.00  0.00    -0.248 NA
ATOM     34  C   UNL A   1      40.775  25.078  28.135  1.00  0.00     0.031 C 
ATOM     35  C   UNL A   1      45.526  23.837  27.115  1.00  0.00     0.029 A 
ATOM     36  N   UNL A   1      45.157  25.942  27.779  1.00  0.00    -0.354 N 
ATOM     37  C   UNL A   1      41.115  27.293  28.620  1.00  0.00     0.074 A 
ATOM     38  C   UNL A   1      40.169  26.202  28.496  1.00  0.00     0.031 C 
ATOM     39  C   UNL A   1      46.716  24.448  27.181  1.00  0.00     0.029 A 
ATOM     40  C   UNL A   1      46.508  25.840  27.557  1.00  0.00     0.049 A 
ATOM     41  H   UNL A   1      44.722  26.762  28.103  1.00  0.00     0.167 HD
ATOM     42  C   UNL A   1      40.801  28.558  28.989  1.00  0.00     0.037 A 
ATOM     43  C   UNL A   1      47.467  26.779  27.611  1.00  0.00     0.037 A 
ATOM     44  C   UNL A   1      41.763  29.624  29.115  1.00  0.00     0.049 A 
ATOM     45  C   UNL A   1      47.084  28.179  27.980  1.00  0.00     0.074 A 
ATOM     46  C   UNL A   1      41.555  30.937  29.499  1.00  0.00     0.029 A 
ATOM     47  N   UNL A   1      43.121  29.495  28.856  1.00  0.00    -0.354 N 
ATOM     48  N   UNL A   1      45.899  28.655  28.280  1.00  0.00    -0.248 NA
ATOM     49  C   UNL A   1      48.162  29.172  28.006  1.00  0.00     0.031 C 
ATOM     50  C   UNL A   1      42.780  31.612  29.437  1.00  0.00     0.029 A 
ATOM     51  C   UNL A   1      43.759  30.709  29.051  1.00  0.00     0.049 A 
ATOM     52  H   UNL A   1      43.567  28.662  28.576  1.00  0.00     0.167 HD
ATOM     53  C   UNL A   1      46.087  30.003  28.537  1.00  0.00     0.074 A 
ATOM     54  C   UNL A   1      47.505  30.263  28.376  1.00  0.00     0.031 C 
ATOM     55  C   UNL A   1      45.170  30.943  28.870  1.00  0.00     0.037 A 
BRANCH  42  56
ATOM     56  C   UNL A   1      39.356  28.867  29.247  1.00  0.00     0.057 A 
ATOM     57  C   UNL A   1      38.777  28.712  30.513  1.00  0.00     0.134 A 
ATOM     58  C   UNL A   1      38.542  29.363  28.222  1.00  0.00     0.134 A 
ATOM     59  F   UNL A   1      39.500  28.233  31.537  1.00  0.00    -0.206 F 
ATOM     60  C   UNL A   1      37.436  29.024  30.745  1.00  0.00     0.040 A 
ATOM     61  C   UNL A   1      37.205  29.697  28.446  1.00  0.00     0.040 A 
ATOM     62  F   UNL A   1      39.035  29.540  26.987  1.00  0.00    -0.206 F 
ATOM     63  C   UNL A   1      36.648  29.524  29.710  1.00  0.00     0.006 A 
ENDBRANCH  42  56
BRANCH  43  64
ATOM     64  C   UNL A   1      48.863  26.413  27.279  1.00  0.00     0.057 A 
ATOM     65  C   UNL A   1      49.750  25.973  28.266  1.00  0.00     0.134 A 
ATOM     66  C   UNL A   1      49.325  26.444  25.957  1.00  0.00     0.134 A 
ATOM     67  F   UNL A   1      49.365  25.934  29.549  1.00  0.00    -0.206 F 
ATOM     68  C   UNL A   1      51.050  25.578  27.951  1.00  0.00     0.040 A 
ATOM     69  C   UNL A   1      50.615  26.030  25.625  1.00  0.00     0.040 A 
ATOM     70  F   UNL A   1      48.516  26.846  24.965  1.00  0.00    -0.206 F 
ATOM     71  C   UNL A   1      51.483  25.598  26.626  1.00  0.00     0.006 A 
ENDBRANCH  43  64
BRANCH  55  72
ATOM     72  C   UNL A   1      45.687  32.331  29.088  1.00  0.00     0.057 A 
ATOM     73  C   UNL A   1      45.732  33.268  28.049  1.00  0.00     0.134 A 
ATOM     74  C   UNL A   1      46.135  32.737  30.351  1.00  0.00     0.134 A 
ATOM     75  F   UNL A   1      45.334  32.931  26.813  1.00  0.00    -0.206 F 
ATOM     76  C   UNL A   1      46.226  34.556  28.253  1.00  0.00     0.040 A 
ATOM     77  C   UNL A   1      46.611  34.028  30.572  1.00  0.00     0.040 A 
ATOM     78  F   UNL A   1      46.115  31.884  31.388  1.00  0.00    -0.206 F 
ATOM     79  C   UNL A   1      46.663  34.941  29.520  1.00  0.00     0.006 A 
ENDBRANCH  55  72
ENDBRANCH  29  30
ENDBRANCH  22  24
ENDBRANCH  21  22
ENDBRANCH  20  21
ENDBRANCH   1  20
TORSDOF 15
ENDMDL
