MODEL 1
REMARK VINA RESULT:     -12.6      0.000      0.000
REMARK SMILES Cc1cc(=O)c(Oc2ccc(C(=O)OCCOC(=O)c3ccc(-c4c5nc(c(-c6c(F)cccc6F)c6ccc([nH]6)c(-c6c(F)cccc6F)c6nc(c(-c7c(F)cccc7F)c7ccc4[nH]7)C=C6)C=C5)cc3)cc2)c(-c2ccc(S(C)(=O)=O)cc2)o1
REMARK SMILES IDX 15 1 14 2 12 3 13 4 11 5 8 6 9 7 75 8 10 9 74 10 7 11 6 12
REMARK SMILES IDX 1 13 2 14 3 15 87 16 4 17 76 18 5 19 77 20 78 21 86 22 79 23
REMARK SMILES IDX 85 24 80 25 81 26 82 27 83 28 84 29 16 30 17 31 18 32 19 33
REMARK SMILES IDX 20 34 21 35 73 36 22 37 72 38 23 39 24 40 25 41 66 42 26 43
REMARK SMILES IDX 71 44 65 45 67 46 27 47 70 48 64 49 63 50 28 52 54 53 37 54
REMARK SMILES IDX 53 55 38 56 41 57 52 58 68 59 39 60 40 61 51 63 69 64 42 65
REMARK SMILES IDX 29 66 30 67 35 68 31 69 32 70 34 71 36 72 33 73 55 74 56 75
REMARK SMILES IDX 61 76 57 77 58 78 60 79 62 80 59 81 43 82 44 83 49 84 45 85
REMARK SMILES IDX 46 86 48 87 50 88 47 89
REMARK H PARENT 67 51 41 62
REMARK Flexibility Score: inf
ROOT
ATOM      1  C   UNL A   1      31.806  32.030  27.190  1.00  0.00     0.275 C 
ENDROOT
BRANCH   1   2
ATOM      2  O   UNL A   1      32.297  31.109  26.194  1.00  0.00    -0.458 OA
BRANCH   2   3
ATOM      3  C   UNL A   1      33.247  30.224  26.592  1.00  0.00     0.338 C 
ATOM      4  O   UNL A   1      34.309  30.500  27.132  1.00  0.00    -0.246 OA
BRANCH   3   5
ATOM      5  C   UNL A   1      32.742  28.829  26.450  1.00  0.00     0.060 A 
ATOM      6  C   UNL A   1      32.022  26.130  26.574  1.00  0.00     0.127 A 
ATOM      7  C   UNL A   1      33.303  26.473  26.154  1.00  0.00     0.048 A 
ATOM      8  C   UNL A   1      31.070  27.126  26.811  1.00  0.00     0.048 A 
ATOM      9  C   UNL A   1      33.652  27.827  26.071  1.00  0.00     0.019 A 
ATOM     10  C   UNL A   1      31.433  28.474  26.781  1.00  0.00     0.019 A 
BRANCH   6  11
ATOM     11  O   UNL A   1      31.581  24.841  26.683  1.00  0.00    -0.449 OA
BRANCH  11  12
ATOM     12  C   UNL A   1      31.494  23.983  25.598  1.00  0.00     0.217 A 
ATOM     13  C   UNL A   1      32.167  21.367  22.235  1.00  0.00     0.088 C 
ATOM     14  C   UNL A   1      31.909  22.139  23.490  1.00  0.00     0.105 A 
ATOM     15  C   UNL A   1      32.415  21.792  24.675  1.00  0.00     0.098 A 
ATOM     16  O   UNL A   1      31.136  23.266  23.322  1.00  0.00    -0.457 OA
ATOM     17  C   UNL A   1      32.141  22.652  25.837  1.00  0.00     0.228 A 
ATOM     18  C   UNL A   1      31.056  24.222  24.335  1.00  0.00     0.180 A 
ATOM     19  O   UNL A   1      32.493  22.283  26.954  1.00  0.00    -0.285 OA
BRANCH  18  20
ATOM     20  C   UNL A   1      30.531  25.484  23.769  1.00  0.00     0.021 A 
ATOM     21  C   UNL A   1      31.408  26.355  23.098  1.00  0.00     0.013 A 
ATOM     22  C   UNL A   1      29.235  25.931  24.054  1.00  0.00     0.013 A 
ATOM     23  C   UNL A   1      31.012  27.651  22.743  1.00  0.00     0.021 A 
ATOM     24  C   UNL A   1      28.825  27.217  23.684  1.00  0.00     0.021 A 
ATOM     25  C   UNL A   1      29.721  28.083  23.050  1.00  0.00     0.067 A 
BRANCH  25  26
ATOM     26  S   UNL A   1      29.211  29.758  22.715  1.00  0.00     0.175 S 
ATOM     27  C   UNL A   1      27.445  29.742  22.823  1.00  0.00     0.163 C 
ATOM     28  O   UNL A   1      29.690  30.617  23.780  1.00  0.00    -0.224 OA
ATOM     29  O   UNL A   1      29.541  30.041  21.330  1.00  0.00    -0.224 OA
ENDBRANCH  25  26
ENDBRANCH  18  20
ENDBRANCH  11  12
ENDBRANCH   6  11
ENDBRANCH   3   5
ENDBRANCH   2   3
ENDBRANCH   1   2
BRANCH   1  30
ATOM     30  C   UNL A   1      32.511  33.394  27.122  1.00  0.00     0.275 C 
BRANCH  30  31
ATOM     31  O   UNL A   1      32.405  34.162  28.340  1.00  0.00    -0.458 OA
BRANCH  31  32
ATOM     32  C   UNL A   1      33.537  34.826  28.660  1.00  0.00     0.338 C 
ATOM     33  O   UNL A   1      33.723  36.030  28.569  1.00  0.00    -0.246 OA
BRANCH  32  34
ATOM     34  C   UNL A   1      34.584  33.948  29.210  1.00  0.00     0.060 A 
ATOM     35  C   UNL A   1      34.294  32.794  29.943  1.00  0.00     0.016 A 
ATOM     36  C   UNL A   1      35.897  34.213  28.815  1.00  0.00     0.016 A 
ATOM     37  C   UNL A   1      35.332  31.920  30.297  1.00  0.00     0.010 A 
ATOM     38  C   UNL A   1      36.926  33.343  29.148  1.00  0.00     0.010 A 
ATOM     39  C   UNL A   1      36.656  32.203  29.916  1.00  0.00    -0.014 A 
BRANCH  39  40
ATOM     40  C   UNL A   1      37.804  31.432  30.447  1.00  0.00     0.031 A 
ATOM     41  C   UNL A   1      38.235  31.706  31.862  1.00  0.00     0.074 A 
ATOM     42  C   UNL A   1      38.489  30.567  29.677  1.00  0.00     0.049 A 
ATOM     43  N   UNL A   1      39.249  31.224  32.533  1.00  0.00    -0.248 NA
ATOM     44  C   UNL A   1      37.429  32.686  32.611  1.00  0.00     0.031 C 
ATOM     45  C   UNL A   1      38.199  30.258  28.278  1.00  0.00     0.029 A 
ATOM     46  N   UNL A   1      39.586  29.797  29.971  1.00  0.00    -0.354 N 
ATOM     47  C   UNL A   1      39.194  31.836  33.779  1.00  0.00     0.074 A 
ATOM     48  C   UNL A   1      38.103  32.783  33.744  1.00  0.00     0.031 C 
ATOM     49  C   UNL A   1      39.093  29.352  27.836  1.00  0.00     0.029 A 
ATOM     50  C   UNL A   1      40.021  29.029  28.918  1.00  0.00     0.049 A 
ATOM     51  H   UNL A   1      40.021  29.795  30.853  1.00  0.00     0.167 HD
ATOM     52  C   UNL A   1      39.956  31.604  34.873  1.00  0.00     0.037 A 
ATOM     53  C   UNL A   1      41.050  28.162  28.850  1.00  0.00     0.037 A 
ATOM     54  C   UNL A   1      41.036  30.661  34.912  1.00  0.00     0.049 A 
ATOM     55  C   UNL A   1      41.895  27.929  30.078  1.00  0.00     0.074 A 
ATOM     56  C   UNL A   1      41.874  30.342  35.964  1.00  0.00     0.029 A 
ATOM     57  N   UNL A   1      41.422  29.874  33.837  1.00  0.00    -0.354 N 
ATOM     58  N   UNL A   1      41.796  28.472  31.269  1.00  0.00    -0.248 NA
ATOM     59  C   UNL A   1      42.988  26.954  29.956  1.00  0.00     0.031 C 
ATOM     60  C   UNL A   1      42.777  29.369  35.522  1.00  0.00     0.029 A 
ATOM     61  C   UNL A   1      42.482  29.063  34.202  1.00  0.00     0.049 A 
ATOM     62  H   UNL A   1      41.003  29.890  32.946  1.00  0.00     0.167 HD
ATOM     63  C   UNL A   1      42.789  27.880  32.042  1.00  0.00     0.074 A 
ATOM     64  C   UNL A   1      43.467  26.925  31.190  1.00  0.00     0.031 C 
ATOM     65  C   UNL A   1      43.118  28.105  33.337  1.00  0.00     0.037 A 
BRANCH  52  66
ATOM     66  C   UNL A   1      39.607  32.373  36.112  1.00  0.00     0.057 A 
ATOM     67  C   UNL A   1      40.265  33.563  36.440  1.00  0.00     0.134 A 
ATOM     68  C   UNL A   1      38.584  31.941  36.969  1.00  0.00     0.134 A 
ATOM     69  F   UNL A   1      41.254  34.032  35.664  1.00  0.00    -0.206 F 
ATOM     70  C   UNL A   1      39.910  34.303  37.570  1.00  0.00     0.040 A 
ATOM     71  C   UNL A   1      38.202  32.685  38.085  1.00  0.00     0.040 A 
ATOM     72  F   UNL A   1      37.901  30.818  36.697  1.00  0.00    -0.206 F 
ATOM     73  C   UNL A   1      38.868  33.870  38.389  1.00  0.00     0.006 A 
ENDBRANCH  52  66
BRANCH  53  74
ATOM     74  C   UNL A   1      41.339  27.414  27.599  1.00  0.00     0.057 A 
ATOM     75  C   UNL A   1      42.177  27.936  26.607  1.00  0.00     0.134 A 
ATOM     76  C   UNL A   1      40.839  26.120  27.401  1.00  0.00     0.134 A 
ATOM     77  F   UNL A   1      42.685  29.171  26.731  1.00  0.00    -0.206 F 
ATOM     78  C   UNL A   1      42.521  27.194  25.475  1.00  0.00     0.040 A 
ATOM     79  C   UNL A   1      41.193  25.358  26.286  1.00  0.00     0.040 A 
ATOM     80  F   UNL A   1      40.047  25.556  28.325  1.00  0.00    -0.206 F 
ATOM     81  C   UNL A   1      42.039  25.895  25.319  1.00  0.00     0.006 A 
ENDBRANCH  53  74
BRANCH  65  82
ATOM     82  C   UNL A   1      44.225  27.277  33.917  1.00  0.00     0.057 A 
ATOM     83  C   UNL A   1      43.946  26.058  34.547  1.00  0.00     0.134 A 
ATOM     84  C   UNL A   1      45.558  27.704  33.887  1.00  0.00     0.134 A 
ATOM     85  F   UNL A   1      42.687  25.598  34.614  1.00  0.00    -0.206 F 
ATOM     86  C   UNL A   1      44.956  25.294  35.132  1.00  0.00     0.040 A 
ATOM     87  C   UNL A   1      46.579  26.936  34.447  1.00  0.00     0.040 A 
ATOM     88  F   UNL A   1      45.890  28.857  33.285  1.00  0.00    -0.206 F 
ATOM     89  C   UNL A   1      46.278  25.731  35.078  1.00  0.00     0.006 A 
ENDBRANCH  65  82
ENDBRANCH  39  40
ENDBRANCH  32  34
ENDBRANCH  31  32
ENDBRANCH  30  31
ENDBRANCH   1  30
TORSDOF 15
ENDMDL
MODEL 2
REMARK VINA RESULT:     -12.3      0.964      1.636
REMARK SMILES Cc1cc(=O)c(Oc2ccc(C(=O)OCCOC(=O)c3ccc(-c4c5nc(c(-c6c(F)cccc6F)c6ccc([nH]6)c(-c6c(F)cccc6F)c6nc(c(-c7c(F)cccc7F)c7ccc4[nH]7)C=C6)C=C5)cc3)cc2)c(-c2ccc(S(C)(=O)=O)cc2)o1
REMARK SMILES IDX 15 1 14 2 12 3 13 4 11 5 8 6 9 7 75 8 10 9 74 10 7 11 6 12
REMARK SMILES IDX 1 13 2 14 3 15 87 16 4 17 76 18 5 19 77 20 78 21 86 22 79 23
REMARK SMILES IDX 85 24 80 25 81 26 82 27 83 28 84 29 16 30 17 31 18 32 19 33
REMARK SMILES IDX 20 34 21 35 73 36 22 37 72 38 23 39 24 40 25 41 66 42 26 43
REMARK SMILES IDX 71 44 65 45 67 46 27 47 70 48 64 49 63 50 28 52 54 53 37 54
REMARK SMILES IDX 53 55 38 56 41 57 52 58 68 59 39 60 40 61 51 63 69 64 42 65
REMARK SMILES IDX 29 66 30 67 35 68 31 69 32 70 34 71 36 72 33 73 55 74 56 75
REMARK SMILES IDX 61 76 57 77 58 78 60 79 62 80 59 81 43 82 44 83 49 84 45 85
REMARK SMILES IDX 46 86 48 87 50 88 47 89
REMARK H PARENT 67 51 41 62
REMARK Flexibility Score: inf
ROOT
ATOM      1  C   UNL A   1      31.574  32.080  26.943  1.00  0.00     0.275 C 
ENDROOT
BRANCH   1   2
ATOM      2  O   UNL A   1      32.417  31.118  26.277  1.00  0.00    -0.458 OA
BRANCH   2   3
ATOM      3  C   UNL A   1      33.326  30.463  27.044  1.00  0.00     0.338 C 
ATOM      4  O   UNL A   1      34.095  30.973  27.846  1.00  0.00    -0.246 OA
BRANCH   3   5
ATOM      5  C   UNL A   1      33.141  28.989  26.916  1.00  0.00     0.060 A 
ATOM      6  C   UNL A   1      32.528  26.328  26.317  1.00  0.00     0.127 A 
ATOM      7  C   UNL A   1      31.582  27.114  26.966  1.00  0.00     0.048 A 
ATOM      8  C   UNL A   1      33.812  26.827  26.079  1.00  0.00     0.048 A 
ATOM      9  C   UNL A   1      31.901  28.439  27.286  1.00  0.00     0.019 A 
ATOM     10  C   UNL A   1      34.113  28.163  26.348  1.00  0.00     0.019 A 
BRANCH   6  11
ATOM     11  O   UNL A   1      32.317  25.023  25.967  1.00  0.00    -0.449 OA
BRANCH  11  12
ATOM     12  C   UNL A   1      32.320  24.589  24.651  1.00  0.00     0.217 A 
ATOM     13  C   UNL A   1      33.237  23.495  20.581  1.00  0.00     0.088 C 
ATOM     14  C   UNL A   1      32.932  23.715  22.029  1.00  0.00     0.105 A 
ATOM     15  C   UNL A   1      33.599  23.111  23.014  1.00  0.00     0.098 A 
ATOM     16  O   UNL A   1      31.927  24.624  22.272  1.00  0.00    -0.457 OA
ATOM     17  C   UNL A   1      33.252  23.440  24.406  1.00  0.00     0.228 A 
ATOM     18  C   UNL A   1      31.735  25.135  23.556  1.00  0.00     0.180 A 
ATOM     19  O   UNL A   1      33.768  22.804  25.319  1.00  0.00    -0.285 OA
BRANCH  18  20
ATOM     20  C   UNL A   1      30.908  26.359  23.471  1.00  0.00     0.021 A 
ATOM     21  C   UNL A   1      29.552  26.302  23.841  1.00  0.00     0.013 A 
ATOM     22  C   UNL A   1      31.380  27.519  22.844  1.00  0.00     0.013 A 
ATOM     23  C   UNL A   1      28.681  27.364  23.570  1.00  0.00     0.021 A 
ATOM     24  C   UNL A   1      30.520  28.594  22.589  1.00  0.00     0.021 A 
ATOM     25  C   UNL A   1      29.167  28.506  22.931  1.00  0.00     0.067 A 
BRANCH  25  26
ATOM     26  S   UNL A   1      28.072  29.834  22.470  1.00  0.00     0.175 S 
ATOM     27  C   UNL A   1      28.804  31.300  23.138  1.00  0.00     0.163 C 
ATOM     28  O   UNL A   1      28.086  29.976  21.028  1.00  0.00    -0.224 OA
ATOM     29  O   UNL A   1      26.823  29.632  23.183  1.00  0.00    -0.224 OA
ENDBRANCH  25  26
ENDBRANCH  18  20
ENDBRANCH  11  12
ENDBRANCH   6  11
ENDBRANCH   3   5
ENDBRANCH   2   3
ENDBRANCH   1   2
BRANCH   1  30
ATOM     30  C   UNL A   1      32.258  33.448  27.097  1.00  0.00     0.275 C 
BRANCH  30  31
ATOM     31  O   UNL A   1      32.174  33.991  28.431  1.00  0.00    -0.458 OA
BRANCH  31  32
ATOM     32  C   UNL A   1      33.194  34.821  28.743  1.00  0.00     0.338 C 
ATOM     33  O   UNL A   1      33.166  36.043  28.731  1.00  0.00    -0.246 OA
BRANCH  32  34
ATOM     34  C   UNL A   1      34.407  34.105  29.173  1.00  0.00     0.060 A 
ATOM     35  C   UNL A   1      35.682  34.430  28.704  1.00  0.00     0.016 A 
ATOM     36  C   UNL A   1      34.259  33.193  30.220  1.00  0.00     0.016 A 
ATOM     37  C   UNL A   1      36.807  33.817  29.275  1.00  0.00     0.010 A 
ATOM     38  C   UNL A   1      35.370  32.596  30.801  1.00  0.00     0.010 A 
ATOM     39  C   UNL A   1      36.651  32.883  30.314  1.00  0.00    -0.014 A 
BRANCH  39  40
ATOM     40  C   UNL A   1      37.781  32.055  30.796  1.00  0.00     0.031 A 
ATOM     41  C   UNL A   1      38.333  32.353  32.164  1.00  0.00     0.074 A 
ATOM     42  C   UNL A   1      38.349  31.115  30.019  1.00  0.00     0.049 A 
ATOM     43  N   UNL A   1      39.359  31.829  32.782  1.00  0.00    -0.248 NA
ATOM     44  C   UNL A   1      37.651  33.416  32.924  1.00  0.00     0.031 C 
ATOM     45  C   UNL A   1      37.937  30.772  28.659  1.00  0.00     0.029 A 
ATOM     46  N   UNL A   1      39.411  30.283  30.268  1.00  0.00    -0.354 N 
ATOM     47  C   UNL A   1      39.437  32.492  34.001  1.00  0.00     0.074 A 
ATOM     48  C   UNL A   1      38.411  33.510  34.002  1.00  0.00     0.031 C 
ATOM     49  C   UNL A   1      38.734  29.790  28.195  1.00  0.00     0.029 A 
ATOM     50  C   UNL A   1      39.715  29.446  29.222  1.00  0.00     0.049 A 
ATOM     51  H   UNL A   1      39.908  30.285  31.117  1.00  0.00     0.167 HD
ATOM     52  C   UNL A   1      40.259  32.250  35.048  1.00  0.00     0.037 A 
ATOM     53  C   UNL A   1      40.677  28.507  29.119  1.00  0.00     0.037 A 
ATOM     54  C   UNL A   1      41.274  31.236  35.052  1.00  0.00     0.049 A 
ATOM     55  C   UNL A   1      41.592  28.265  30.294  1.00  0.00     0.074 A 
ATOM     56  C   UNL A   1      42.164  30.900  36.056  1.00  0.00     0.029 A 
ATOM     57  N   UNL A   1      41.527  30.382  33.988  1.00  0.00    -0.354 N 
ATOM     58  N   UNL A   1      41.617  28.859  31.464  1.00  0.00    -0.248 NA
ATOM     59  C   UNL A   1      42.606  27.211  30.138  1.00  0.00     0.031 C 
ATOM     60  C   UNL A   1      42.965  29.850  35.593  1.00  0.00     0.029 A 
ATOM     61  C   UNL A   1      42.554  29.515  34.312  1.00  0.00     0.049 A 
ATOM     62  H   UNL A   1      41.046  30.393  33.129  1.00  0.00     0.167 HD
ATOM     63  C   UNL A   1      42.622  28.230  32.190  1.00  0.00     0.074 A 
ATOM     64  C   UNL A   1      43.171  27.198  31.336  1.00  0.00     0.031 C 
ATOM     65  C   UNL A   1      43.060  28.482  33.448  1.00  0.00     0.037 A 
BRANCH  52  66
ATOM     66  C   UNL A   1      40.054  33.089  36.273  1.00  0.00     0.057 A 
ATOM     67  C   UNL A   1      40.792  34.258  36.487  1.00  0.00     0.134 A 
ATOM     68  C   UNL A   1      39.089  32.746  37.233  1.00  0.00     0.134 A 
ATOM     69  F   UNL A   1      41.731  34.641  35.610  1.00  0.00    -0.206 F 
ATOM     70  C   UNL A   1      40.570  35.064  37.606  1.00  0.00     0.040 A 
ATOM     71  C   UNL A   1      38.840  33.557  38.340  1.00  0.00     0.040 A 
ATOM     72  F   UNL A   1      38.335  31.648  37.073  1.00  0.00    -0.206 F 
ATOM     73  C   UNL A   1      39.584  34.720  38.530  1.00  0.00     0.006 A 
ENDBRANCH  52  66
BRANCH  53  74
ATOM     74  C   UNL A   1      40.823  27.692  27.885  1.00  0.00     0.057 A 
ATOM     75  C   UNL A   1      41.638  28.104  26.825  1.00  0.00     0.134 A 
ATOM     76  C   UNL A   1      40.204  26.441  27.771  1.00  0.00     0.134 A 
ATOM     77  F   UNL A   1      42.255  29.294  26.868  1.00  0.00    -0.206 F 
ATOM     78  C   UNL A   1      41.847  27.295  25.706  1.00  0.00     0.040 A 
ATOM     79  C   UNL A   1      40.422  25.611  26.669  1.00  0.00     0.040 A 
ATOM     80  F   UNL A   1      39.426  25.981  28.762  1.00  0.00    -0.206 F 
ATOM     81  C   UNL A   1      41.248  26.039  25.632  1.00  0.00     0.006 A 
ENDBRANCH  53  74
BRANCH  65  82
ATOM     82  C   UNL A   1      44.149  27.602  33.984  1.00  0.00     0.057 A 
ATOM     83  C   UNL A   1      45.494  27.943  33.799  1.00  0.00     0.134 A 
ATOM     84  C   UNL A   1      43.867  26.400  34.645  1.00  0.00     0.134 A 
ATOM     85  F   UNL A   1      45.829  29.079  33.168  1.00  0.00    -0.206 F 
ATOM     86  C   UNL A   1      46.523  27.116  34.251  1.00  0.00     0.040 A 
ATOM     87  C   UNL A   1      44.887  25.578  35.122  1.00  0.00     0.040 A 
ATOM     88  F   UNL A   1      42.597  26.026  34.864  1.00  0.00    -0.206 F 
ATOM     89  C   UNL A   1      46.220  25.931  34.919  1.00  0.00     0.006 A 
ENDBRANCH  65  82
ENDBRANCH  39  40
ENDBRANCH  32  34
ENDBRANCH  31  32
ENDBRANCH  30  31
ENDBRANCH   1  30
TORSDOF 15
ENDMDL
MODEL 3
REMARK VINA RESULT:     -12.2      4.268      6.282
REMARK SMILES Cc1cc(=O)c(Oc2ccc(C(=O)OCCOC(=O)c3ccc(-c4c5nc(c(-c6c(F)cccc6F)c6ccc([nH]6)c(-c6c(F)cccc6F)c6nc(c(-c7c(F)cccc7F)c7ccc4[nH]7)C=C6)C=C5)cc3)cc2)c(-c2ccc(S(C)(=O)=O)cc2)o1
REMARK SMILES IDX 15 1 14 2 12 3 13 4 11 5 8 6 9 7 75 8 10 9 74 10 7 11 6 12
REMARK SMILES IDX 1 13 2 14 3 15 87 16 4 17 76 18 5 19 77 20 78 21 86 22 79 23
REMARK SMILES IDX 85 24 80 25 81 26 82 27 83 28 84 29 16 30 17 31 18 32 19 33
REMARK SMILES IDX 20 34 21 35 73 36 22 37 72 38 23 39 24 40 25 41 66 42 26 43
REMARK SMILES IDX 71 44 65 45 67 46 27 47 70 48 64 49 63 50 28 52 54 53 37 54
REMARK SMILES IDX 53 55 38 56 41 57 52 58 68 59 39 60 40 61 51 63 69 64 42 65
REMARK SMILES IDX 29 66 30 67 35 68 31 69 32 70 34 71 36 72 33 73 55 74 56 75
REMARK SMILES IDX 61 76 57 77 58 78 60 79 62 80 59 81 43 82 44 83 49 84 45 85
REMARK SMILES IDX 46 86 48 87 50 88 47 89
REMARK H PARENT 67 51 41 62
REMARK Flexibility Score: inf
ROOT
ATOM      1  C   UNL A   1      34.617  32.338  28.435  1.00  0.00     0.275 C 
ENDROOT
BRANCH   1   2
ATOM      2  O   UNL A   1      33.805  31.325  27.807  1.00  0.00    -0.458 OA
BRANCH   2   3
ATOM      3  C   UNL A   1      34.459  30.272  27.252  1.00  0.00     0.338 C 
ATOM      4  O   UNL A   1      35.668  30.169  27.106  1.00  0.00    -0.246 OA
BRANCH   3   5
ATOM      5  C   UNL A   1      33.508  29.150  27.002  1.00  0.00     0.060 A 
ATOM      6  C   UNL A   1      31.946  26.836  26.875  1.00  0.00     0.127 A 
ATOM      7  C   UNL A   1      33.226  26.822  26.331  1.00  0.00     0.048 A 
ATOM      8  C   UNL A   1      31.403  28.027  27.366  1.00  0.00     0.048 A 
ATOM      9  C   UNL A   1      33.996  27.991  26.376  1.00  0.00     0.019 A 
ATOM     10  C   UNL A   1      32.190  29.176  27.461  1.00  0.00     0.019 A 
BRANCH   6  11
ATOM     11  O   UNL A   1      31.112  25.752  26.876  1.00  0.00    -0.449 OA
BRANCH  11  12
ATOM     12  C   UNL A   1      31.116  24.801  25.868  1.00  0.00     0.217 A 
ATOM     13  C   UNL A   1      32.060  21.977  22.748  1.00  0.00     0.088 C 
ATOM     14  C   UNL A   1      31.718  22.827  23.931  1.00  0.00     0.105 A 
ATOM     15  C   UNL A   1      32.232  22.626  25.145  1.00  0.00     0.098 A 
ATOM     16  O   UNL A   1      30.856  23.866  23.660  1.00  0.00    -0.457 OA
ATOM     17  C   UNL A   1      31.868  23.555  26.227  1.00  0.00     0.228 A 
ATOM     18  C   UNL A   1      30.680  24.894  24.586  1.00  0.00     0.180 A 
ATOM     19  O   UNL A   1      32.232  23.313  27.374  1.00  0.00    -0.285 OA
BRANCH  18  20
ATOM     20  C   UNL A   1      30.060  26.054  23.909  1.00  0.00     0.021 A 
ATOM     21  C   UNL A   1      30.884  27.058  23.368  1.00  0.00     0.013 A 
ATOM     22  C   UNL A   1      28.680  26.284  23.967  1.00  0.00     0.013 A 
ATOM     23  C   UNL A   1      30.349  28.272  22.920  1.00  0.00     0.021 A 
ATOM     24  C   UNL A   1      28.135  27.487  23.501  1.00  0.00     0.021 A 
ATOM     25  C   UNL A   1      28.973  28.488  23.000  1.00  0.00     0.067 A 
BRANCH  25  26
ATOM     26  S   UNL A   1      28.263  30.058  22.543  1.00  0.00     0.175 S 
ATOM     27  C   UNL A   1      29.168  31.268  23.465  1.00  0.00     0.163 C 
ATOM     28  O   UNL A   1      28.535  30.307  21.142  1.00  0.00    -0.224 OA
ATOM     29  O   UNL A   1      26.903  30.081  23.050  1.00  0.00    -0.224 OA
ENDBRANCH  25  26
ENDBRANCH  18  20
ENDBRANCH  11  12
ENDBRANCH   6  11
ENDBRANCH   3   5
ENDBRANCH   2   3
ENDBRANCH   1   2
BRANCH   1  30
ATOM     30  C   UNL A   1      34.778  32.104  29.945  1.00  0.00     0.275 C 
BRANCH  30  31
ATOM     31  O   UNL A   1      36.153  32.066  30.383  1.00  0.00    -0.458 OA
BRANCH  31  32
ATOM     32  C   UNL A   1      36.526  30.870  30.889  1.00  0.00     0.338 C 
ATOM     33  O   UNL A   1      35.903  30.198  31.699  1.00  0.00    -0.246 OA
BRANCH  32  34
ATOM     34  C   UNL A   1      37.793  30.376  30.325  1.00  0.00     0.060 A 
ATOM     35  C   UNL A   1      38.087  30.434  28.961  1.00  0.00     0.016 A 
ATOM     36  C   UNL A   1      38.783  30.005  31.238  1.00  0.00     0.016 A 
ATOM     37  C   UNL A   1      39.373  30.096  28.515  1.00  0.00     0.010 A 
ATOM     38  C   UNL A   1      40.063  29.685  30.803  1.00  0.00     0.010 A 
ATOM     39  C   UNL A   1      40.360  29.702  29.435  1.00  0.00    -0.014 A 
BRANCH  39  40
ATOM     40  C   UNL A   1      41.654  29.131  28.996  1.00  0.00     0.031 A 
ATOM     41  C   UNL A   1      42.829  30.065  28.886  1.00  0.00     0.074 A 
ATOM     42  C   UNL A   1      41.770  27.839  28.637  1.00  0.00     0.049 A 
ATOM     43  N   UNL A   1      44.041  29.832  28.456  1.00  0.00    -0.248 NA
ATOM     44  C   UNL A   1      42.589  31.463  29.284  1.00  0.00     0.031 C 
ATOM     45  C   UNL A   1      40.692  26.852  28.650  1.00  0.00     0.029 A 
ATOM     46  N   UNL A   1      42.858  27.143  28.176  1.00  0.00    -0.354 N 
ATOM     47  C   UNL A   1      44.706  31.050  28.541  1.00  0.00     0.074 A 
ATOM     48  C   UNL A   1      43.743  32.033  28.982  1.00  0.00     0.031 C 
ATOM     49  C   UNL A   1      41.178  25.669  28.225  1.00  0.00     0.029 A 
ATOM     50  C   UNL A   1      42.595  25.822  27.902  1.00  0.00     0.049 A 
ATOM     51  H   UNL A   1      43.745  27.550  28.053  1.00  0.00     0.167 HD
ATOM     52  C   UNL A   1      46.011  31.323  28.315  1.00  0.00     0.037 A 
ATOM     53  C   UNL A   1      43.414  24.855  27.446  1.00  0.00     0.037 A 
ATOM     54  C   UNL A   1      46.971  30.347  27.883  1.00  0.00     0.049 A 
ATOM     55  C   UNL A   1      44.864  25.185  27.187  1.00  0.00     0.074 A 
ATOM     56  C   UNL A   1      48.319  30.509  27.624  1.00  0.00     0.029 A 
ATOM     57  N   UNL A   1      46.674  29.011  27.653  1.00  0.00    -0.354 N 
ATOM     58  N   UNL A   1      45.493  26.328  27.327  1.00  0.00    -0.248 NA
ATOM     59  C   UNL A   1      45.720  24.086  26.716  1.00  0.00     0.031 C 
ATOM     60  C   UNL A   1      48.836  29.272  27.224  1.00  0.00     0.029 A 
ATOM     61  C   UNL A   1      47.815  28.335  27.262  1.00  0.00     0.049 A 
ATOM     62  H   UNL A   1      45.782  28.605  27.753  1.00  0.00     0.167 HD
ATOM     63  C   UNL A   1      46.820  26.077  26.996  1.00  0.00     0.074 A 
ATOM     64  C   UNL A   1      46.908  24.670  26.664  1.00  0.00     0.031 C 
ATOM     65  C   UNL A   1      47.873  26.929  26.963  1.00  0.00     0.037 A 
BRANCH  52  66
ATOM     66  C   UNL A   1      46.459  32.731  28.567  1.00  0.00     0.057 A 
ATOM     67  C   UNL A   1      46.378  33.710  27.572  1.00  0.00     0.134 A 
ATOM     68  C   UNL A   1      46.945  33.123  29.824  1.00  0.00     0.134 A 
ATOM     69  F   UNL A   1      45.923  33.402  26.348  1.00  0.00    -0.206 F 
ATOM     70  C   UNL A   1      46.752  35.033  27.820  1.00  0.00     0.040 A 
ATOM     71  C   UNL A   1      47.297  34.446  30.092  1.00  0.00     0.040 A 
ATOM     72  F   UNL A   1      47.028  32.234  30.826  1.00  0.00    -0.206 F 
ATOM     73  C   UNL A   1      47.202  35.405  29.087  1.00  0.00     0.006 A 
ENDBRANCH  52  66
BRANCH  53  74
ATOM     74  C   UNL A   1      42.920  23.470  27.230  1.00  0.00     0.057 A 
ATOM     75  C   UNL A   1      42.746  22.578  28.293  1.00  0.00     0.134 A 
ATOM     76  C   UNL A   1      42.538  23.033  25.955  1.00  0.00     0.134 A 
ATOM     77  F   UNL A   1      43.097  22.932  29.539  1.00  0.00    -0.206 F 
ATOM     78  C   UNL A   1      42.194  21.309  28.101  1.00  0.00     0.040 A 
ATOM     79  C   UNL A   1      41.964  21.776  25.751  1.00  0.00     0.040 A 
ATOM     80  F   UNL A   1      42.662  23.849  24.898  1.00  0.00    -0.206 F 
ATOM     81  C   UNL A   1      41.790  20.910  26.828  1.00  0.00     0.006 A 
ENDBRANCH  53  74
BRANCH  65  82
ATOM     82  C   UNL A   1      49.209  26.353  26.599  1.00  0.00     0.057 A 
ATOM     83  C   UNL A   1      49.992  25.707  27.563  1.00  0.00     0.134 A 
ATOM     84  C   UNL A   1      49.736  26.474  25.306  1.00  0.00     0.134 A 
ATOM     85  F   UNL A   1      49.545  25.566  28.820  1.00  0.00    -0.206 F 
ATOM     86  C   UNL A   1      51.256  25.204  27.256  1.00  0.00     0.040 A 
ATOM     87  C   UNL A   1      50.989  25.953  24.983  1.00  0.00     0.040 A 
ATOM     88  F   UNL A   1      49.027  27.071  24.336  1.00  0.00    -0.206 F 
ATOM     89  C   UNL A   1      51.755  25.323  25.960  1.00  0.00     0.006 A 
ENDBRANCH  65  82
ENDBRANCH  39  40
ENDBRANCH  32  34
ENDBRANCH  31  32
ENDBRANCH  30  31
ENDBRANCH   1  30
TORSDOF 15
ENDMDL
