MODEL 1
REMARK VINA RESULT:     -10.8      0.000      0.000
REMARK SMILES CCC(CC)(NC(=O)N[C@H]1CCCNC1=O)C(=O)OCCOC(=O)c1ccc(-c2c3nc(c(-c4c(F)cccc4F)c4ccc([nH]4)c(-c4c(F)cccc4F)c4nc(c(-c5c(F)cccc5F)c5ccc2[nH]5)C=C4)C=C3)cc1
REMARK SMILES IDX 20 1 19 2 17 3 18 4 3 5 2 6 1 7 4 8 5 9 6 10 7 11 8 13 9 14
REMARK SMILES IDX 10 16 11 17 15 18 12 19 14 20 16 21 13 22 21 24 22 25 23 26
REMARK SMILES IDX 24 27 25 28 26 29 78 30 27 31 77 32 28 33 29 34 30 35 71 36
REMARK SMILES IDX 31 37 76 38 70 39 72 40 32 41 75 42 69 43 68 44 33 46 59 47
REMARK SMILES IDX 42 48 58 49 43 50 46 51 57 52 73 53 44 54 45 55 56 57 74 58
REMARK SMILES IDX 47 59 34 60 35 61 40 62 36 63 37 64 39 65 41 66 38 67 60 68
REMARK SMILES IDX 61 69 66 70 62 71 63 72 65 73 67 74 64 75 48 76 49 77 54 78
REMARK SMILES IDX 50 79 51 80 53 81 55 82 52 83
REMARK H PARENT 6 12 9 15 14 23 72 45 46 56
REMARK Flexibility Score: inf
ROOT
ATOM      1  C   UNL A   1      33.456  20.444  25.907  1.00  0.00     0.274 C 
ENDROOT
BRANCH   1   2
ATOM      2  O   UNL A   1      32.354  21.431  25.870  1.00  0.00    -0.460 OA
BRANCH   2   3
ATOM      3  C   UNL A   1      32.282  22.626  26.632  1.00  0.00     0.332 C 
ATOM      4  O   UNL A   1      32.546  22.679  27.826  1.00  0.00    -0.249 OA
BRANCH   3   5
ATOM      5  C   UNL A   1      31.784  23.911  25.705  1.00  0.00     0.139 C 
BRANCH   5   6
ATOM      6  C   UNL A   1      31.162  23.941  24.270  1.00  0.00     0.037 C 
ATOM      7  C   UNL A   1      31.941  23.662  23.017  1.00  0.00     0.007 C 
ENDBRANCH   5   6
BRANCH   5   8
ATOM      8  C   UNL A   1      32.838  25.033  25.839  1.00  0.00     0.037 C 
ATOM      9  C   UNL A   1      34.299  24.620  25.647  1.00  0.00     0.007 C 
ENDBRANCH   5   8
BRANCH   5  10
ATOM     10  N   UNL A   1      30.583  24.157  26.442  1.00  0.00    -0.322 N 
ATOM     11  C   UNL A   1      29.922  25.317  26.320  1.00  0.00     0.316 C 
ATOM     12  H   UNL A   1      30.235  23.464  27.048  1.00  0.00     0.166 HD
ATOM     13  O   UNL A   1      28.846  25.330  26.924  1.00  0.00    -0.249 OA
ATOM     14  N   UNL A   1      30.285  26.343  25.479  1.00  0.00    -0.326 N 
ATOM     15  H   UNL A   1      29.571  27.006  25.618  1.00  0.00     0.166 HD
BRANCH  14  16
ATOM     16  C   UNL A   1      31.196  27.022  24.440  1.00  0.00     0.173 C 
ATOM     17  C   UNL A   1      30.598  27.152  22.995  1.00  0.00     0.037 C 
ATOM     18  C   UNL A   1      31.592  28.432  24.893  1.00  0.00     0.242 C 
ATOM     19  C   UNL A   1      29.620  28.296  22.730  1.00  0.00     0.024 C 
ATOM     20  N   UNL A   1      30.967  29.525  24.362  1.00  0.00    -0.354 N 
ATOM     21  O   UNL A   1      32.402  28.606  25.801  1.00  0.00    -0.273 OA
ATOM     22  C   UNL A   1      30.221  29.609  23.133  1.00  0.00     0.116 C 
ATOM     23  H   UNL A   1      31.035  30.357  24.885  1.00  0.00     0.163 HD
ENDBRANCH  14  16
ENDBRANCH   5  10
ENDBRANCH   3   5
ENDBRANCH   2   3
ENDBRANCH   1   2
BRANCH   1  24
ATOM     24  C   UNL A   1      34.851  20.714  24.991  1.00  0.00     0.275 C 
BRANCH  24  25
ATOM     25  O   UNL A   1      36.105  21.343  25.613  1.00  0.00    -0.458 OA
BRANCH  25  26
ATOM     26  C   UNL A   1      37.447  20.982  25.412  1.00  0.00     0.338 C 
ATOM     27  O   UNL A   1      37.801  19.946  24.862  1.00  0.00    -0.246 OA
BRANCH  26  28
ATOM     28  C   UNL A   1      38.475  22.096  25.916  1.00  0.00     0.060 A 
ATOM     29  C   UNL A   1      38.186  23.477  25.839  1.00  0.00     0.016 A 
ATOM     30  C   UNL A   1      39.726  21.817  26.479  1.00  0.00     0.016 A 
ATOM     31  C   UNL A   1      38.959  24.506  26.454  1.00  0.00     0.010 A 
ATOM     32  C   UNL A   1      40.569  22.868  27.015  1.00  0.00     0.010 A 
ATOM     33  C   UNL A   1      40.186  24.231  27.056  1.00  0.00    -0.014 A 
BRANCH  33  34
ATOM     34  C   UNL A   1      41.127  25.375  27.436  1.00  0.00     0.031 A 
ATOM     35  C   UNL A   1      40.595  26.434  28.385  1.00  0.00     0.074 A 
ATOM     36  C   UNL A   1      42.436  25.512  27.094  1.00  0.00     0.049 A 
ATOM     37  N   UNL A   1      41.144  27.554  28.797  1.00  0.00    -0.248 NA
ATOM     38  C   UNL A   1      39.267  26.175  28.955  1.00  0.00     0.031 C 
ATOM     39  C   UNL A   1      43.231  24.563  26.331  1.00  0.00     0.029 A 
ATOM     40  N   UNL A   1      43.349  26.529  27.360  1.00  0.00    -0.354 N 
ATOM     41  C   UNL A   1      40.219  28.141  29.652  1.00  0.00     0.074 A 
ATOM     42  C   UNL A   1      39.076  27.254  29.697  1.00  0.00     0.031 C 
ATOM     43  C   UNL A   1      44.482  25.034  26.163  1.00  0.00     0.029 A 
ATOM     44  C   UNL A   1      44.593  26.354  26.780  1.00  0.00     0.049 A 
ATOM     45  H   UNL A   1      43.127  27.310  27.916  1.00  0.00     0.167 HD
ATOM     46  C   UNL A   1      40.293  29.306  30.342  1.00  0.00     0.037 A 
ATOM     47  C   UNL A   1      45.690  27.150  26.717  1.00  0.00     0.037 A 
ATOM     48  C   UNL A   1      41.409  30.216  30.352  1.00  0.00     0.049 A 
ATOM     49  C   UNL A   1      45.697  28.514  27.378  1.00  0.00     0.074 A 
ATOM     50  C   UNL A   1      41.521  31.425  31.023  1.00  0.00     0.029 A 
ATOM     51  N   UNL A   1      42.597  30.032  29.670  1.00  0.00    -0.354 N 
ATOM     52  N   UNL A   1      44.796  29.065  28.152  1.00  0.00    -0.248 NA
ATOM     53  C   UNL A   1      46.876  29.373  27.147  1.00  0.00     0.031 C 
ATOM     54  C   UNL A   1      42.753  32.000  30.699  1.00  0.00     0.029 A 
ATOM     55  C   UNL A   1      43.432  31.122  29.875  1.00  0.00     0.049 A 
ATOM     56  H   UNL A   1      42.819  29.245  29.122  1.00  0.00     0.167 HD
ATOM     57  C   UNL A   1      45.312  30.306  28.520  1.00  0.00     0.074 A 
ATOM     58  C   UNL A   1      46.612  30.426  27.908  1.00  0.00     0.031 C 
ATOM     59  C   UNL A   1      44.742  31.260  29.296  1.00  0.00     0.037 A 
BRANCH  46  60
ATOM     60  C   UNL A   1      39.078  29.709  31.123  1.00  0.00     0.057 A 
ATOM     61  C   UNL A   1      38.874  29.303  32.446  1.00  0.00     0.134 A 
ATOM     62  C   UNL A   1      38.122  30.555  30.546  1.00  0.00     0.134 A 
ATOM     63  F   UNL A   1      39.748  28.483  33.049  1.00  0.00    -0.206 F 
ATOM     64  C   UNL A   1      37.746  29.707  33.162  1.00  0.00     0.040 A 
ATOM     65  C   UNL A   1      37.007  30.987  31.260  1.00  0.00     0.040 A 
ATOM     66  F   UNL A   1      38.268  30.987  29.284  1.00  0.00    -0.206 F 
ATOM     67  C   UNL A   1      36.813  30.557  32.571  1.00  0.00     0.006 A 
ENDBRANCH  46  60
BRANCH  47  68
ATOM     68  C   UNL A   1      46.902  26.750  25.928  1.00  0.00     0.057 A 
ATOM     69  C   UNL A   1      47.970  26.054  26.516  1.00  0.00     0.134 A 
ATOM     70  C   UNL A   1      47.086  27.192  24.611  1.00  0.00     0.134 A 
ATOM     71  F   UNL A   1      47.889  25.648  27.792  1.00  0.00    -0.206 F 
ATOM     72  C   UNL A   1      49.178  25.847  25.842  1.00  0.00     0.040 A 
ATOM     73  C   UNL A   1      48.277  26.962  23.914  1.00  0.00     0.040 A 
ATOM     74  F   UNL A   1      46.124  27.889  23.989  1.00  0.00    -0.206 F 
ATOM     75  C   UNL A   1      49.334  26.301  24.535  1.00  0.00     0.006 A 
ENDBRANCH  47  68
BRANCH  59  76
ATOM     76  C   UNL A   1      45.520  32.518  29.577  1.00  0.00     0.057 A 
ATOM     77  C   UNL A   1      45.379  33.670  28.793  1.00  0.00     0.134 A 
ATOM     78  C   UNL A   1      46.374  32.600  30.685  1.00  0.00     0.134 A 
ATOM     79  F   UNL A   1      44.586  33.665  27.710  1.00  0.00    -0.206 F 
ATOM     80  C   UNL A   1      46.068  34.850  29.090  1.00  0.00     0.040 A 
ATOM     81  C   UNL A   1      47.048  33.781  31.008  1.00  0.00     0.040 A 
ATOM     82  F   UNL A   1      46.552  31.540  31.489  1.00  0.00    -0.206 F 
ATOM     83  C   UNL A   1      46.899  34.910  30.207  1.00  0.00     0.006 A 
ENDBRANCH  59  76
ENDBRANCH  33  34
ENDBRANCH  26  28
ENDBRANCH  25  26
ENDBRANCH  24  25
ENDBRANCH   1  24
TORSDOF 15
ENDMDL
MODEL 2
REMARK VINA RESULT:     -10.8      2.289      3.249
REMARK SMILES CCC(CC)(NC(=O)N[C@H]1CCCNC1=O)C(=O)OCCOC(=O)c1ccc(-c2c3nc(c(-c4c(F)cccc4F)c4ccc([nH]4)c(-c4c(F)cccc4F)c4nc(c(-c5c(F)cccc5F)c5ccc2[nH]5)C=C4)C=C3)cc1
REMARK SMILES IDX 20 1 19 2 17 3 18 4 3 5 2 6 1 7 4 8 5 9 6 10 7 11 8 13 9 14
REMARK SMILES IDX 10 16 11 17 15 18 12 19 14 20 16 21 13 22 21 24 22 25 23 26
REMARK SMILES IDX 24 27 25 28 26 29 78 30 27 31 77 32 28 33 29 34 30 35 71 36
REMARK SMILES IDX 31 37 76 38 70 39 72 40 32 41 75 42 69 43 68 44 33 46 59 47
REMARK SMILES IDX 42 48 58 49 43 50 46 51 57 52 73 53 44 54 45 55 56 57 74 58
REMARK SMILES IDX 47 59 34 60 35 61 40 62 36 63 37 64 39 65 41 66 38 67 60 68
REMARK SMILES IDX 61 69 66 70 62 71 63 72 65 73 67 74 64 75 48 76 49 77 54 78
REMARK SMILES IDX 50 79 51 80 53 81 55 82 52 83
REMARK H PARENT 6 12 9 15 14 23 72 45 46 56
REMARK Flexibility Score: inf
ROOT
ATOM      1  C   UNL A   1      37.442  20.264  24.811  1.00  0.00     0.274 C 
ENDROOT
BRANCH   1   2
ATOM      2  O   UNL A   1      36.198  20.521  25.570  1.00  0.00    -0.460 OA
BRANCH   2   3
ATOM      3  C   UNL A   1      34.949  20.904  25.015  1.00  0.00     0.332 C 
ATOM      4  O   UNL A   1      34.171  20.112  24.499  1.00  0.00    -0.249 OA
BRANCH   3   5
ATOM      5  C   UNL A   1      34.703  22.541  25.140  1.00  0.00     0.139 C 
BRANCH   5   6
ATOM      6  C   UNL A   1      35.724  23.724  25.076  1.00  0.00     0.037 C 
ATOM      7  C   UNL A   1      36.973  23.794  25.907  1.00  0.00     0.007 C 
ENDBRANCH   5   6
BRANCH   5   8
ATOM      8  C   UNL A   1      33.693  22.786  26.283  1.00  0.00     0.037 C 
ATOM      9  C   UNL A   1      34.060  22.205  27.651  1.00  0.00     0.007 C 
ENDBRANCH   5   8
BRANCH   5  10
ATOM     10  N   UNL A   1      34.143  22.698  23.833  1.00  0.00    -0.322 N 
ATOM     11  C   UNL A   1      33.338  23.731  23.545  1.00  0.00     0.316 C 
ATOM     12  H   UNL A   1      34.352  22.038  23.134  1.00  0.00     0.166 HD
ATOM     13  O   UNL A   1      33.035  23.793  22.350  1.00  0.00    -0.249 OA
ATOM     14  N   UNL A   1      33.005  24.736  24.422  1.00  0.00    -0.326 N 
ATOM     15  H   UNL A   1      32.442  25.330  23.876  1.00  0.00     0.166 HD
BRANCH  14  16
ATOM     16  C   UNL A   1      33.031  25.441  25.791  1.00  0.00     0.173 C 
ATOM     17  C   UNL A   1      33.877  26.761  25.859  1.00  0.00     0.037 C 
ATOM     18  C   UNL A   1      31.613  25.788  26.258  1.00  0.00     0.242 C 
ATOM     19  C   UNL A   1      33.237  28.043  25.328  1.00  0.00     0.024 C 
ATOM     20  N   UNL A   1      31.144  27.066  26.139  1.00  0.00    -0.354 N 
ATOM     21  O   UNL A   1      30.842  24.918  26.657  1.00  0.00    -0.273 OA
ATOM     22  C   UNL A   1      31.906  28.278  25.979  1.00  0.00     0.116 C 
ATOM     23  H   UNL A   1      30.165  27.171  26.165  1.00  0.00     0.163 HD
ENDBRANCH  14  16
ENDBRANCH   5  10
ENDBRANCH   3   5
ENDBRANCH   2   3
ENDBRANCH   1   2
BRANCH   1  24
ATOM     24  C   UNL A   1      38.939  20.437  25.577  1.00  0.00     0.275 C 
BRANCH  24  25
ATOM     25  O   UNL A   1      39.971  19.302  25.578  1.00  0.00    -0.458 OA
BRANCH  25  26
ATOM     26  C   UNL A   1      41.330  19.364  25.929  1.00  0.00     0.338 C 
ATOM     27  O   UNL A   1      42.132  18.463  25.716  1.00  0.00    -0.246 OA
BRANCH  26  28
ATOM     28  C   UNL A   1      41.744  20.764  26.577  1.00  0.00     0.060 A 
ATOM     29  C   UNL A   1      42.254  21.831  25.803  1.00  0.00     0.016 A 
ATOM     30  C   UNL A   1      41.634  21.065  27.939  1.00  0.00     0.016 A 
ATOM     31  C   UNL A   1      42.446  23.162  26.278  1.00  0.00     0.010 A 
ATOM     32  C   UNL A   1      41.926  22.389  28.452  1.00  0.00     0.010 A 
ATOM     33  C   UNL A   1      42.295  23.481  27.626  1.00  0.00    -0.014 A 
BRANCH  33  34
ATOM     34  C   UNL A   1      42.791  24.827  28.156  1.00  0.00     0.031 A 
ATOM     35  C   UNL A   1      41.752  25.900  28.427  1.00  0.00     0.074 A 
ATOM     36  C   UNL A   1      44.063  25.154  28.508  1.00  0.00     0.049 A 
ATOM     37  N   UNL A   1      41.904  27.153  28.788  1.00  0.00    -0.248 NA
ATOM     38  C   UNL A   1      40.351  25.485  28.283  1.00  0.00     0.031 C 
ATOM     39  C   UNL A   1      45.216  24.266  28.500  1.00  0.00     0.029 A 
ATOM     40  N   UNL A   1      44.608  26.354  28.959  1.00  0.00    -0.354 N 
ATOM     41  C   UNL A   1      40.622  27.679  28.890  1.00  0.00     0.074 A 
ATOM     42  C   UNL A   1      39.707  26.610  28.550  1.00  0.00     0.031 C 
ATOM     43  C   UNL A   1      46.318  24.933  28.890  1.00  0.00     0.029 A 
ATOM     44  C   UNL A   1      45.978  26.330  29.152  1.00  0.00     0.049 A 
ATOM     45  H   UNL A   1      44.061  27.155  29.125  1.00  0.00     0.167 HD
ATOM     46  C   UNL A   1      40.222  28.930  29.230  1.00  0.00     0.037 A 
ATOM     47  C   UNL A   1      46.870  27.300  29.474  1.00  0.00     0.037 A 
ATOM     48  C   UNL A   1      41.082  30.025  29.596  1.00  0.00     0.049 A 
ATOM     49  C   UNL A   1      46.415  28.725  29.710  1.00  0.00     0.074 A 
ATOM     50  C   UNL A   1      40.721  31.322  29.929  1.00  0.00     0.029 A 
ATOM     51  N   UNL A   1      42.461  29.966  29.679  1.00  0.00    -0.354 N 
ATOM     52  N   UNL A   1      45.199  29.210  29.765  1.00  0.00    -0.248 NA
ATOM     53  C   UNL A   1      47.461  29.746  29.920  1.00  0.00     0.031 C 
ATOM     54  C   UNL A   1      41.885  32.063  30.156  1.00  0.00     0.029 A 
ATOM     55  C   UNL A   1      42.966  31.212  30.021  1.00  0.00     0.049 A 
ATOM     56  H   UNL A   1      43.003  29.159  29.520  1.00  0.00     0.167 HD
ATOM     57  C   UNL A   1      45.337  30.567  30.045  1.00  0.00     0.074 A 
ATOM     58  C   UNL A   1      46.748  30.835  30.173  1.00  0.00     0.031 C 
ATOM     59  C   UNL A   1      44.367  31.504  30.177  1.00  0.00     0.037 A 
BRANCH  46  60
ATOM     60  C   UNL A   1      38.750  29.212  29.164  1.00  0.00     0.057 A 
ATOM     61  C   UNL A   1      37.928  29.145  30.295  1.00  0.00     0.134 A 
ATOM     62  C   UNL A   1      38.163  29.598  27.953  1.00  0.00     0.134 A 
ATOM     63  F   UNL A   1      38.430  28.769  31.480  1.00  0.00    -0.206 F 
ATOM     64  C   UNL A   1      36.565  29.432  30.216  1.00  0.00     0.040 A 
ATOM     65  C   UNL A   1      36.809  29.914  27.868  1.00  0.00     0.040 A 
ATOM     66  F   UNL A   1      38.902  29.691  26.837  1.00  0.00    -0.206 F 
ATOM     67  C   UNL A   1      36.004  29.824  29.002  1.00  0.00     0.006 A 
ENDBRANCH  46  60
BRANCH  47  68
ATOM     68  C   UNL A   1      48.343  27.019  29.530  1.00  0.00     0.057 A 
ATOM     69  C   UNL A   1      48.987  26.692  30.734  1.00  0.00     0.134 A 
ATOM     70  C   UNL A   1      49.162  27.225  28.412  1.00  0.00     0.134 A 
ATOM     71  F   UNL A   1      48.274  26.534  31.860  1.00  0.00    -0.206 F 
ATOM     72  C   UNL A   1      50.381  26.618  30.830  1.00  0.00     0.040 A 
ATOM     73  C   UNL A   1      50.555  27.121  28.487  1.00  0.00     0.040 A 
ATOM     74  F   UNL A   1      48.625  27.569  27.233  1.00  0.00    -0.206 F 
ATOM     75  C   UNL A   1      51.170  26.831  29.703  1.00  0.00     0.006 A 
ENDBRANCH  47  68
BRANCH  59  76
ATOM     76  C   UNL A   1      44.770  32.914  30.515  1.00  0.00     0.057 A 
ATOM     77  C   UNL A   1      44.990  33.883  29.526  1.00  0.00     0.134 A 
ATOM     78  C   UNL A   1      44.878  33.329  31.850  1.00  0.00     0.134 A 
ATOM     79  F   UNL A   1      44.914  33.558  28.227  1.00  0.00    -0.206 F 
ATOM     80  C   UNL A   1      45.317  35.203  29.851  1.00  0.00     0.040 A 
ATOM     81  C   UNL A   1      45.178  34.651  32.188  1.00  0.00     0.040 A 
ATOM     82  F   UNL A   1      44.672  32.461  32.852  1.00  0.00    -0.206 F 
ATOM     83  C   UNL A   1      45.403  35.593  31.186  1.00  0.00     0.006 A 
ENDBRANCH  59  76
ENDBRANCH  33  34
ENDBRANCH  26  28
ENDBRANCH  25  26
ENDBRANCH  24  25
ENDBRANCH   1  24
TORSDOF 15
ENDMDL
MODEL 3
REMARK VINA RESULT:     -10.7      3.539      8.638
REMARK SMILES CCC(CC)(NC(=O)N[C@H]1CCCNC1=O)C(=O)OCCOC(=O)c1ccc(-c2c3nc(c(-c4c(F)cccc4F)c4ccc([nH]4)c(-c4c(F)cccc4F)c4nc(c(-c5c(F)cccc5F)c5ccc2[nH]5)C=C4)C=C3)cc1
REMARK SMILES IDX 20 1 19 2 17 3 18 4 3 5 2 6 1 7 4 8 5 9 6 10 7 11 8 13 9 14
REMARK SMILES IDX 10 16 11 17 15 18 12 19 14 20 16 21 13 22 21 24 22 25 23 26
REMARK SMILES IDX 24 27 25 28 26 29 78 30 27 31 77 32 28 33 29 34 30 35 71 36
REMARK SMILES IDX 31 37 76 38 70 39 72 40 32 41 75 42 69 43 68 44 33 46 59 47
REMARK SMILES IDX 42 48 58 49 43 50 46 51 57 52 73 53 44 54 45 55 56 57 74 58
REMARK SMILES IDX 47 59 34 60 35 61 40 62 36 63 37 64 39 65 41 66 38 67 60 68
REMARK SMILES IDX 61 69 66 70 62 71 63 72 65 73 67 74 64 75 48 76 49 77 54 78
REMARK SMILES IDX 50 79 51 80 53 81 55 82 52 83
REMARK H PARENT 6 12 9 15 14 23 72 45 46 56
REMARK Flexibility Score: inf
ROOT
ATOM      1  C   UNL A   1      31.444  27.859  23.774  1.00  0.00     0.274 C 
ENDROOT
BRANCH   1   2
ATOM      2  O   UNL A   1      32.560  26.928  24.055  1.00  0.00    -0.460 OA
BRANCH   2   3
ATOM      3  C   UNL A   1      32.725  26.159  25.237  1.00  0.00     0.332 C 
ATOM      4  O   UNL A   1      32.961  26.652  26.333  1.00  0.00    -0.249 OA
BRANCH   3   5
ATOM      5  C   UNL A   1      32.575  24.534  24.932  1.00  0.00     0.139 C 
BRANCH   5   6
ATOM      6  C   UNL A   1      31.322  23.695  24.516  1.00  0.00     0.037 C 
ATOM      7  C   UNL A   1      30.338  24.129  23.468  1.00  0.00     0.007 C 
ENDBRANCH   5   6
BRANCH   5   8
ATOM      8  C   UNL A   1      33.379  23.771  26.008  1.00  0.00     0.037 C 
ATOM      9  C   UNL A   1      32.605  23.339  27.256  1.00  0.00     0.007 C 
ENDBRANCH   5   8
BRANCH   5  10
ATOM     10  N   UNL A   1      33.215  24.572  23.653  1.00  0.00    -0.322 N 
ATOM     11  C   UNL A   1      33.809  23.483  23.144  1.00  0.00     0.316 C 
ATOM     12  H   UNL A   1      33.220  25.411  23.139  1.00  0.00     0.166 HD
ATOM     13  O   UNL A   1      34.208  23.643  21.988  1.00  0.00    -0.249 OA
ATOM     14  N   UNL A   1      33.834  22.248  23.747  1.00  0.00    -0.326 N 
ATOM     15  H   UNL A   1      34.311  21.690  23.091  1.00  0.00     0.166 HD
BRANCH  14  16
ATOM     16  C   UNL A   1      33.526  21.260  24.887  1.00  0.00     0.173 C 
ATOM     17  C   UNL A   1      32.350  20.256  24.615  1.00  0.00     0.037 C 
ATOM     18  C   UNL A   1      34.761  20.423  25.240  1.00  0.00     0.242 C 
ATOM     19  C   UNL A   1      32.652  19.021  23.767  1.00  0.00     0.024 C 
ATOM     20  N   UNL A   1      34.871  19.138  24.791  1.00  0.00    -0.354 N 
ATOM     21  O   UNL A   1      35.710  20.914  25.847  1.00  0.00    -0.273 OA
ATOM     22  C   UNL A   1      33.821  18.268  24.327  1.00  0.00     0.116 C 
ATOM     23  H   UNL A   1      35.781  18.760  24.784  1.00  0.00     0.163 HD
ENDBRANCH  14  16
ENDBRANCH   5  10
ENDBRANCH   3   5
ENDBRANCH   2   3
ENDBRANCH   1   2
BRANCH   1  24
ATOM     24  C   UNL A   1      31.281  29.269  24.692  1.00  0.00     0.275 C 
BRANCH  24  25
ATOM     25  O   UNL A   1      32.498  29.945  25.338  1.00  0.00    -0.458 OA
BRANCH  25  26
ATOM     26  C   UNL A   1      32.518  30.865  26.399  1.00  0.00     0.338 C 
ATOM     27  O   UNL A   1      31.590  31.618  26.667  1.00  0.00    -0.246 OA
BRANCH  26  28
ATOM     28  C   UNL A   1      33.854  30.785  27.270  1.00  0.00     0.060 A 
ATOM     29  C   UNL A   1      34.470  29.554  27.593  1.00  0.00     0.016 A 
ATOM     30  C   UNL A   1      34.533  31.899  27.776  1.00  0.00     0.016 A 
ATOM     31  C   UNL A   1      35.762  29.420  28.182  1.00  0.00     0.010 A 
ATOM     32  C   UNL A   1      35.800  31.767  28.470  1.00  0.00     0.010 A 
ATOM     33  C   UNL A   1      36.465  30.529  28.649  1.00  0.00    -0.014 A 
BRANCH  33  34
ATOM     34  C   UNL A   1      37.696  30.339  29.537  1.00  0.00     0.031 A 
ATOM     35  C   UNL A   1      38.848  29.527  28.973  1.00  0.00     0.074 A 
ATOM     36  C   UNL A   1      37.924  30.895  30.756  1.00  0.00     0.049 A 
ATOM     37  N   UNL A   1      39.965  29.135  29.542  1.00  0.00    -0.248 NA
ATOM     38  C   UNL A   1      38.719  29.122  27.568  1.00  0.00     0.031 C 
ATOM     39  C   UNL A   1      37.059  31.836  31.451  1.00  0.00     0.029 A 
ATOM     40  N   UNL A   1      38.987  30.748  31.644  1.00  0.00    -0.354 N 
ATOM     41  C   UNL A   1      40.657  28.419  28.572  1.00  0.00     0.074 A 
ATOM     42  C   UNL A   1      39.832  28.430  27.382  1.00  0.00     0.031 C 
ATOM     43  C   UNL A   1      37.590  32.161  32.645  1.00  0.00     0.029 A 
ATOM     44  C   UNL A   1      38.838  31.427  32.841  1.00  0.00     0.049 A 
ATOM     45  H   UNL A   1      39.781  30.205  31.437  1.00  0.00     0.167 HD
ATOM     46  C   UNL A   1      41.862  27.801  28.644  1.00  0.00     0.037 A 
ATOM     47  C   UNL A   1      39.583  31.451  33.975  1.00  0.00     0.037 A 
ATOM     48  C   UNL A   1      42.733  27.773  29.791  1.00  0.00     0.049 A 
ATOM     49  C   UNL A   1      40.857  30.637  34.083  1.00  0.00     0.074 A 
ATOM     50  C   UNL A   1      43.960  27.140  29.918  1.00  0.00     0.029 A 
ATOM     51  N   UNL A   1      42.483  28.395  31.000  1.00  0.00    -0.354 N 
ATOM     52  N   UNL A   1      41.474  29.936  33.164  1.00  0.00    -0.248 NA
ATOM     53  C   UNL A   1      41.535  30.609  35.394  1.00  0.00     0.031 C 
ATOM     54  C   UNL A   1      44.425  27.328  31.222  1.00  0.00     0.029 A 
ATOM     55  C   UNL A   1      43.515  28.128  31.889  1.00  0.00     0.049 A 
ATOM     56  H   UNL A   1      41.692  28.946  31.201  1.00  0.00     0.167 HD
ATOM     57  C   UNL A   1      42.615  29.421  33.775  1.00  0.00     0.074 A 
ATOM     58  C   UNL A   1      42.625  29.900  35.135  1.00  0.00     0.031 C 
ATOM     59  C   UNL A   1      43.564  28.612  33.244  1.00  0.00     0.037 A 
BRANCH  46  60
ATOM     60  C   UNL A   1      42.301  27.030  27.436  1.00  0.00     0.057 A 
ATOM     61  C   UNL A   1      41.994  25.676  27.264  1.00  0.00     0.134 A 
ATOM     62  C   UNL A   1      43.006  27.674  26.411  1.00  0.00     0.134 A 
ATOM     63  F   UNL A   1      41.332  25.002  28.216  1.00  0.00    -0.206 F 
ATOM     64  C   UNL A   1      42.394  24.982  26.121  1.00  0.00     0.040 A 
ATOM     65  C   UNL A   1      43.386  26.998  25.253  1.00  0.00     0.040 A 
ATOM     66  F   UNL A   1      43.321  28.974  26.513  1.00  0.00    -0.206 F 
ATOM     67  C   UNL A   1      43.086  25.645  25.110  1.00  0.00     0.006 A 
ENDBRANCH  46  60
BRANCH  47  68
ATOM     68  C   UNL A   1      39.138  32.215  35.186  1.00  0.00     0.057 A 
ATOM     69  C   UNL A   1      38.289  31.646  36.148  1.00  0.00     0.134 A 
ATOM     70  C   UNL A   1      39.425  33.579  35.327  1.00  0.00     0.134 A 
ATOM     71  F   UNL A   1      37.924  30.358  36.048  1.00  0.00    -0.206 F 
ATOM     72  C   UNL A   1      37.719  32.406  37.174  1.00  0.00     0.040 A 
ATOM     73  C   UNL A   1      38.888  34.344  36.368  1.00  0.00     0.040 A 
ATOM     74  F   UNL A   1      40.206  34.204  34.433  1.00  0.00    -0.206 F 
ATOM     75  C   UNL A   1      38.019  33.762  37.288  1.00  0.00     0.006 A 
ENDBRANCH  47  68
BRANCH  59  76
ATOM     76  C   UNL A   1      44.731  28.209  34.105  1.00  0.00     0.057 A 
ATOM     77  C   UNL A   1      45.891  28.989  34.198  1.00  0.00     0.134 A 
ATOM     78  C   UNL A   1      44.668  27.060  34.904  1.00  0.00     0.134 A 
ATOM     79  F   UNL A   1      46.027  30.099  33.456  1.00  0.00    -0.206 F 
ATOM     80  C   UNL A   1      46.950  28.633  35.038  1.00  0.00     0.040 A 
ATOM     81  C   UNL A   1      45.709  26.707  35.768  1.00  0.00     0.040 A 
ATOM     82  F   UNL A   1      43.585  26.268  34.878  1.00  0.00    -0.206 F 
ATOM     83  C   UNL A   1      46.856  27.492  35.834  1.00  0.00     0.006 A 
ENDBRANCH  59  76
ENDBRANCH  33  34
ENDBRANCH  26  28
ENDBRANCH  25  26
ENDBRANCH  24  25
ENDBRANCH   1  24
TORSDOF 15
ENDMDL
