MODEL 1
REMARK VINA RESULT:     -10.2      0.000      0.000
REMARK SMILES C[C@H](NC(N)=O)C(=O)N[C@@H](CO)C(=O)OCCOC(=O)c1ccc(-c2c3nc(c(-c4c(F)cccc4F)c4ccc([nH]4)c(-c4c(F)cccc4F)c4nc(c(-c5c(F)cccc5F)c5ccc2[nH]5)C=C4)C=C3)cc1
REMARK SMILES IDX 16 1 15 2 13 3 14 4 10 5 9 6 7 7 8 8 2 10 1 11 3 12 4 13
REMARK SMILES IDX 5 15 6 16 11 19 12 20 17 22 18 23 19 24 20 25 21 26 22 27
REMARK SMILES IDX 74 28 23 29 73 30 24 31 25 32 26 33 67 34 27 35 72 36 66 37
REMARK SMILES IDX 68 38 28 39 71 40 65 41 64 42 29 44 55 45 38 46 54 47 39 48
REMARK SMILES IDX 42 49 53 50 69 51 40 52 41 53 52 55 70 56 43 57 30 58 31 59
REMARK SMILES IDX 36 60 32 61 33 62 35 63 37 64 34 65 56 66 57 67 62 68 58 69
REMARK SMILES IDX 59 70 61 71 63 72 60 73 44 74 45 75 50 76 46 77 47 78 49 79
REMARK SMILES IDX 51 80 48 81
REMARK H PARENT 9 9 3 14 5 17 5 18 12 21 68 43 42 54
REMARK Flexibility Score: inf
ROOT
ATOM      1  C   UNL A   1      38.797  21.756  25.776  1.00  0.00     0.274 C 
ENDROOT
BRANCH   1   2
ATOM      2  O   UNL A   1      39.775  21.138  26.638  1.00  0.00    -0.460 OA
BRANCH   2   3
ATOM      3  C   UNL A   1      40.493  20.126  26.080  1.00  0.00     0.331 C 
ATOM      4  O   UNL A   1      40.016  19.070  25.674  1.00  0.00    -0.250 OA
BRANCH   3   5
ATOM      5  C   UNL A   1      41.996  20.423  26.001  1.00  0.00     0.218 C 
BRANCH   5   6
ATOM      6  N   UNL A   1      42.371  21.701  25.385  1.00  0.00    -0.339 N 
ATOM      7  C   UNL A   1      43.582  22.205  25.006  1.00  0.00     0.243 C 
ATOM      8  O   UNL A   1      43.588  23.380  24.623  1.00  0.00    -0.273 OA
ATOM      9  H   UNL A   1      41.612  22.304  25.214  1.00  0.00     0.164 HD
BRANCH   7  10
ATOM     10  C   UNL A   1      44.847  21.325  24.837  1.00  0.00     0.170 C 
ATOM     11  C   UNL A   1      46.046  22.250  25.041  1.00  0.00     0.041 C 
BRANCH  10  12
ATOM     12  N   UNL A   1      44.901  20.544  23.600  1.00  0.00    -0.327 N 
ATOM     13  C   UNL A   1      45.138  19.201  23.600  1.00  0.00     0.312 C 
ATOM     14  H   UNL A   1      44.761  21.002  22.740  1.00  0.00     0.166 HD
ATOM     15  N   UNL A   1      45.064  18.642  22.371  1.00  0.00    -0.352 N 
ATOM     16  O   UNL A   1      45.417  18.522  24.577  1.00  0.00    -0.249 OA
ATOM     17  H   UNL A   1      44.838  19.198  21.590  1.00  0.00     0.161 HD
ATOM     18  H   UNL A   1      45.234  17.679  22.258  1.00  0.00     0.161 HD
ENDBRANCH  10  12
ENDBRANCH   7  10
ENDBRANCH   5   6
BRANCH   5  19
ATOM     19  C   UNL A   1      42.539  20.361  27.436  1.00  0.00     0.193 C 
BRANCH  19  20
ATOM     20  O   UNL A   1      42.022  19.229  28.136  1.00  0.00    -0.394 OA
ATOM     21  H   UNL A   1      41.057  19.302  28.202  1.00  0.00     0.210 HD
ENDBRANCH  19  20
ENDBRANCH   5  19
ENDBRANCH   3   5
ENDBRANCH   2   3
ENDBRANCH   1   2
BRANCH   1  22
ATOM     22  C   UNL A   1      38.264  23.053  26.384  1.00  0.00     0.275 C 
BRANCH  22  23
ATOM     23  O   UNL A   1      38.975  24.194  25.866  1.00  0.00    -0.458 OA
BRANCH  23  24
ATOM     24  C   UNL A   1      40.064  24.541  26.587  1.00  0.00     0.338 C 
ATOM     25  O   UNL A   1      41.175  24.038  26.538  1.00  0.00    -0.246 OA
BRANCH  24  26
ATOM     26  C   UNL A   1      39.788  25.710  27.434  1.00  0.00     0.060 A 
ATOM     27  C   UNL A   1      40.436  26.911  27.149  1.00  0.00     0.016 A 
ATOM     28  C   UNL A   1      39.124  25.538  28.647  1.00  0.00     0.016 A 
ATOM     29  C   UNL A   1      40.533  27.893  28.131  1.00  0.00     0.010 A 
ATOM     30  C   UNL A   1      39.120  26.579  29.583  1.00  0.00     0.010 A 
ATOM     31  C   UNL A   1      39.859  27.753  29.353  1.00  0.00    -0.014 A 
BRANCH  31  32
ATOM     32  C   UNL A   1      39.924  28.833  30.380  1.00  0.00     0.031 A 
ATOM     33  C   UNL A   1      40.932  28.779  31.500  1.00  0.00     0.074 A 
ATOM     34  C   UNL A   1      39.057  29.864  30.318  1.00  0.00     0.049 A 
ATOM     35  N   UNL A   1      40.993  29.499  32.593  1.00  0.00    -0.248 NA
ATOM     36  C   UNL A   1      41.998  27.769  31.391  1.00  0.00     0.031 C 
ATOM     37  C   UNL A   1      38.049  30.066  29.274  1.00  0.00     0.029 A 
ATOM     38  N   UNL A   1      38.876  30.936  31.158  1.00  0.00    -0.354 N 
ATOM     39  C   UNL A   1      42.063  28.995  33.325  1.00  0.00     0.074 A 
ATOM     40  C   UNL A   1      42.623  27.905  32.554  1.00  0.00     0.031 C 
ATOM     41  C   UNL A   1      37.381  31.203  29.516  1.00  0.00     0.029 A 
ATOM     42  C   UNL A   1      37.840  31.757  30.783  1.00  0.00     0.049 A 
ATOM     43  H   UNL A   1      39.435  31.101  31.951  1.00  0.00     0.167 HD
ATOM     44  C   UNL A   1      42.529  29.406  34.529  1.00  0.00     0.037 A 
ATOM     45  C   UNL A   1      37.276  32.806  31.409  1.00  0.00     0.037 A 
ATOM     46  C   UNL A   1      42.017  30.542  35.255  1.00  0.00     0.049 A 
ATOM     47  C   UNL A   1      37.795  33.220  32.755  1.00  0.00     0.074 A 
ATOM     48  C   UNL A   1      42.461  31.068  36.457  1.00  0.00     0.029 A 
ATOM     49  N   UNL A   1      40.959  31.336  34.840  1.00  0.00    -0.354 N 
ATOM     50  N   UNL A   1      38.786  32.717  33.449  1.00  0.00    -0.248 NA
ATOM     51  C   UNL A   1      37.105  34.337  33.413  1.00  0.00     0.031 C 
ATOM     52  C   UNL A   1      41.642  32.150  36.792  1.00  0.00     0.029 A 
ATOM     53  C   UNL A   1      40.721  32.331  35.775  1.00  0.00     0.049 A 
ATOM     54  H   UNL A   1      40.452  31.210  34.006  1.00  0.00     0.167 HD
ATOM     55  C   UNL A   1      38.853  33.469  34.613  1.00  0.00     0.074 A 
ATOM     56  C   UNL A   1      37.815  34.475  34.523  1.00  0.00     0.031 C 
ATOM     57  C   UNL A   1      39.696  33.335  35.665  1.00  0.00     0.037 A 
BRANCH  44  58
ATOM     58  C   UNL A   1      43.638  28.621  35.170  1.00  0.00     0.057 A 
ATOM     59  C   UNL A   1      43.397  27.533  36.017  1.00  0.00     0.134 A 
ATOM     60  C   UNL A   1      44.974  28.903  34.849  1.00  0.00     0.134 A 
ATOM     61  F   UNL A   1      42.143  27.209  36.366  1.00  0.00    -0.206 F 
ATOM     62  C   UNL A   1      44.442  26.760  36.529  1.00  0.00     0.040 A 
ATOM     63  C   UNL A   1      46.026  28.122  35.335  1.00  0.00     0.040 A 
ATOM     64  F   UNL A   1      45.278  29.923  34.033  1.00  0.00    -0.206 F 
ATOM     65  C   UNL A   1      45.761  27.047  36.179  1.00  0.00     0.006 A 
ENDBRANCH  44  58
BRANCH  45  66
ATOM     66  C   UNL A   1      36.119  33.507  30.796  1.00  0.00     0.057 A 
ATOM     67  C   UNL A   1      34.828  33.364  31.315  1.00  0.00     0.134 A 
ATOM     68  C   UNL A   1      36.273  34.322  29.666  1.00  0.00     0.134 A 
ATOM     69  F   UNL A   1      34.613  32.581  32.382  1.00  0.00    -0.206 F 
ATOM     70  C   UNL A   1      33.729  33.989  30.723  1.00  0.00     0.040 A 
ATOM     71  C   UNL A   1      35.189  34.980  29.085  1.00  0.00     0.040 A 
ATOM     72  F   UNL A   1      37.485  34.506  29.122  1.00  0.00    -0.206 F 
ATOM     73  C   UNL A   1      33.910  34.805  29.608  1.00  0.00     0.006 A 
ENDBRANCH  45  66
BRANCH  57  74
ATOM     74  C   UNL A   1      39.561  34.332  36.776  1.00  0.00     0.057 A 
ATOM     75  C   UNL A   1      40.158  35.598  36.712  1.00  0.00     0.134 A 
ATOM     76  C   UNL A   1      38.810  34.028  37.919  1.00  0.00     0.134 A 
ATOM     77  F   UNL A   1      40.904  35.945  35.652  1.00  0.00    -0.206 F 
ATOM     78  C   UNL A   1      40.036  36.514  37.757  1.00  0.00     0.040 A 
ATOM     79  C   UNL A   1      38.658  34.946  38.958  1.00  0.00     0.040 A 
ATOM     80  F   UNL A   1      38.207  32.836  38.039  1.00  0.00    -0.206 F 
ATOM     81  C   UNL A   1      39.280  36.191  38.882  1.00  0.00     0.006 A 
ENDBRANCH  57  74
ENDBRANCH  31  32
ENDBRANCH  24  26
ENDBRANCH  23  24
ENDBRANCH  22  23
ENDBRANCH   1  22
TORSDOF 16
ENDMDL
MODEL 2
REMARK VINA RESULT:     -10.1      2.825      4.694
REMARK SMILES C[C@H](NC(N)=O)C(=O)N[C@@H](CO)C(=O)OCCOC(=O)c1ccc(-c2c3nc(c(-c4c(F)cccc4F)c4ccc([nH]4)c(-c4c(F)cccc4F)c4nc(c(-c5c(F)cccc5F)c5ccc2[nH]5)C=C4)C=C3)cc1
REMARK SMILES IDX 16 1 15 2 13 3 14 4 10 5 9 6 7 7 8 8 2 10 1 11 3 12 4 13
REMARK SMILES IDX 5 15 6 16 11 19 12 20 17 22 18 23 19 24 20 25 21 26 22 27
REMARK SMILES IDX 74 28 23 29 73 30 24 31 25 32 26 33 67 34 27 35 72 36 66 37
REMARK SMILES IDX 68 38 28 39 71 40 65 41 64 42 29 44 55 45 38 46 54 47 39 48
REMARK SMILES IDX 42 49 53 50 69 51 40 52 41 53 52 55 70 56 43 57 30 58 31 59
REMARK SMILES IDX 36 60 32 61 33 62 35 63 37 64 34 65 56 66 57 67 62 68 58 69
REMARK SMILES IDX 59 70 61 71 63 72 60 73 44 74 45 75 50 76 46 77 47 78 49 79
REMARK SMILES IDX 51 80 48 81
REMARK H PARENT 9 9 3 14 5 17 5 18 12 21 68 43 42 54
REMARK Flexibility Score: inf
ROOT
ATOM      1  C   UNL A   1      40.216  21.076  26.620  1.00  0.00     0.274 C 
ENDROOT
BRANCH   1   2
ATOM      2  O   UNL A   1      39.060  21.668  25.991  1.00  0.00    -0.460 OA
BRANCH   2   3
ATOM      3  C   UNL A   1      38.220  20.796  25.370  1.00  0.00     0.331 C 
ATOM      4  O   UNL A   1      38.518  19.652  25.039  1.00  0.00    -0.250 OA
BRANCH   3   5
ATOM      5  C   UNL A   1      36.828  21.384  25.105  1.00  0.00     0.218 C 
BRANCH   5   6
ATOM      6  N   UNL A   1      36.101  21.881  26.279  1.00  0.00    -0.339 N 
ATOM      7  C   UNL A   1      34.766  21.980  26.546  1.00  0.00     0.243 C 
ATOM      8  O   UNL A   1      34.461  22.564  27.591  1.00  0.00    -0.273 OA
ATOM      9  H   UNL A   1      36.682  22.201  27.007  1.00  0.00     0.164 HD
BRANCH   7  10
ATOM     10  C   UNL A   1      33.685  21.223  25.732  1.00  0.00     0.170 C 
ATOM     11  C   UNL A   1      32.595  22.244  25.411  1.00  0.00     0.041 C 
BRANCH  10  12
ATOM     12  N   UNL A   1      33.186  19.994  26.353  1.00  0.00    -0.327 N 
ATOM     13  C   UNL A   1      33.032  18.837  25.648  1.00  0.00     0.312 C 
ATOM     14  H   UNL A   1      32.955  20.003  27.309  1.00  0.00     0.166 HD
ATOM     15  N   UNL A   1      32.644  17.791  26.410  1.00  0.00    -0.352 N 
ATOM     16  O   UNL A   1      33.192  18.705  24.443  1.00  0.00    -0.249 OA
ATOM     17  H   UNL A   1      32.517  17.908  27.380  1.00  0.00     0.161 HD
ATOM     18  H   UNL A   1      32.488  16.911  25.996  1.00  0.00     0.161 HD
ENDBRANCH  10  12
ENDBRANCH   7  10
ENDBRANCH   5   6
BRANCH   5  19
ATOM     19  C   UNL A   1      37.009  22.521  24.089  1.00  0.00     0.193 C 
BRANCH  19  20
ATOM     20  O   UNL A   1      37.504  23.704  24.720  1.00  0.00    -0.394 OA
ATOM     21  H   UNL A   1      37.337  23.657  25.674  1.00  0.00     0.210 HD
ENDBRANCH  19  20
ENDBRANCH   5  19
ENDBRANCH   3   5
ENDBRANCH   2   3
ENDBRANCH   1   2
BRANCH   1  22
ATOM     22  C   UNL A   1      41.477  21.305  25.787  1.00  0.00     0.275 C 
BRANCH  22  23
ATOM     23  O   UNL A   1      42.404  22.162  26.481  1.00  0.00    -0.458 OA
BRANCH  23  24
ATOM     24  C   UNL A   1      42.681  23.315  25.832  1.00  0.00     0.338 C 
ATOM     25  O   UNL A   1      43.202  23.441  24.736  1.00  0.00    -0.246 OA
BRANCH  24  26
ATOM     26  C   UNL A   1      42.191  24.477  26.587  1.00  0.00     0.060 A 
ATOM     27  C   UNL A   1      42.940  25.654  26.566  1.00  0.00     0.016 A 
ATOM     28  C   UNL A   1      41.168  24.310  27.517  1.00  0.00     0.016 A 
ATOM     29  C   UNL A   1      42.752  26.609  27.561  1.00  0.00     0.010 A 
ATOM     30  C   UNL A   1      40.902  25.331  28.439  1.00  0.00     0.010 A 
ATOM     31  C   UNL A   1      41.718  26.475  28.498  1.00  0.00    -0.014 A 
BRANCH  31  32
ATOM     32  C   UNL A   1      41.490  27.528  29.528  1.00  0.00     0.031 A 
ATOM     33  C   UNL A   1      42.320  27.576  30.786  1.00  0.00     0.074 A 
ATOM     34  C   UNL A   1      40.514  28.441  29.343  1.00  0.00     0.049 A 
ATOM     35  N   UNL A   1      42.125  28.271  31.880  1.00  0.00    -0.248 NA
ATOM     36  C   UNL A   1      43.513  26.715  30.832  1.00  0.00     0.031 C 
ATOM     37  C   UNL A   1      39.653  28.538  28.162  1.00  0.00     0.029 A 
ATOM     38  N   UNL A   1      40.074  29.460  30.152  1.00  0.00    -0.354 N 
ATOM     39  C   UNL A   1      43.132  27.890  32.760  1.00  0.00     0.074 A 
ATOM     40  C   UNL A   1      43.937  26.900  32.076  1.00  0.00     0.031 C 
ATOM     41  C   UNL A   1      38.815  29.573  28.307  1.00  0.00     0.029 A 
ATOM     42  C   UNL A   1      39.006  30.151  29.632  1.00  0.00     0.049 A 
ATOM     43  H   UNL A   1      40.484  29.676  31.021  1.00  0.00     0.167 HD
ATOM     44  C   UNL A   1      43.359  28.328  34.023  1.00  0.00     0.037 A 
ATOM     45  C   UNL A   1      38.224  31.103  30.172  1.00  0.00     0.037 A 
ATOM     46  C   UNL A   1      42.602  29.371  34.670  1.00  0.00     0.049 A 
ATOM     47  C   UNL A   1      38.482  31.547  31.583  1.00  0.00     0.074 A 
ATOM     48  C   UNL A   1      42.792  29.920  35.928  1.00  0.00     0.029 A 
ATOM     49  N   UNL A   1      41.522  30.033  34.106  1.00  0.00    -0.354 N 
ATOM     50  N   UNL A   1      39.417  31.159  32.413  1.00  0.00    -0.248 NA
ATOM     51  C   UNL A   1      37.562  32.550  32.136  1.00  0.00     0.031 C 
ATOM     52  C   UNL A   1      41.799  30.880  36.142  1.00  0.00     0.029 A 
ATOM     53  C   UNL A   1      41.022  30.967  35.000  1.00  0.00     0.049 A 
ATOM     54  H   UNL A   1      41.165  29.864  33.205  1.00  0.00     0.167 HD
ATOM     55  C   UNL A   1      39.214  31.884  33.578  1.00  0.00     0.074 A 
ATOM     56  C   UNL A   1      38.078  32.751  33.340  1.00  0.00     0.031 C 
ATOM     57  C   UNL A   1      39.902  31.833  34.744  1.00  0.00     0.037 A 
BRANCH  44  58
ATOM     58  C   UNL A   1      44.455  27.676  34.818  1.00  0.00     0.057 A 
ATOM     59  C   UNL A   1      44.247  26.516  35.573  1.00  0.00     0.134 A 
ATOM     60  C   UNL A   1      45.766  28.168  34.742  1.00  0.00     0.134 A 
ATOM     61  F   UNL A   1      43.017  25.992  35.689  1.00  0.00    -0.206 F 
ATOM     62  C   UNL A   1      45.299  25.874  36.230  1.00  0.00     0.040 A 
ATOM     63  C   UNL A   1      46.830  27.521  35.374  1.00  0.00     0.040 A 
ATOM     64  F   UNL A   1      46.040  29.269  34.025  1.00  0.00    -0.206 F 
ATOM     65  C   UNL A   1      46.598  26.371  36.122  1.00  0.00     0.006 A 
ENDBRANCH  44  58
BRANCH  45  66
ATOM     66  C   UNL A   1      37.089  31.665  29.396  1.00  0.00     0.057 A 
ATOM     67  C   UNL A   1      35.899  30.949  29.235  1.00  0.00     0.134 A 
ATOM     68  C   UNL A   1      37.173  32.923  28.784  1.00  0.00     0.134 A 
ATOM     69  F   UNL A   1      35.765  29.730  29.780  1.00  0.00    -0.206 F 
ATOM     70  C   UNL A   1      34.841  31.452  28.477  1.00  0.00     0.040 A 
ATOM     71  C   UNL A   1      36.111  33.453  28.052  1.00  0.00     0.040 A 
ATOM     72  F   UNL A   1      38.285  33.663  28.905  1.00  0.00    -0.206 F 
ATOM     73  C   UNL A   1      34.943  32.711  27.888  1.00  0.00     0.006 A 
ENDBRANCH  45  66
BRANCH  57  74
ATOM     74  C   UNL A   1      39.476  32.778  35.828  1.00  0.00     0.057 A 
ATOM     75  C   UNL A   1      38.529  32.417  36.795  1.00  0.00     0.134 A 
ATOM     76  C   UNL A   1      40.033  34.060  35.914  1.00  0.00     0.134 A 
ATOM     77  F   UNL A   1      37.946  31.209  36.757  1.00  0.00    -0.206 F 
ATOM     78  C   UNL A   1      38.131  33.308  37.792  1.00  0.00     0.040 A 
ATOM     79  C   UNL A   1      39.664  34.950  36.923  1.00  0.00     0.040 A 
ATOM     80  F   UNL A   1      40.950  34.465  35.022  1.00  0.00    -0.206 F 
ATOM     81  C   UNL A   1      38.703  34.576  37.860  1.00  0.00     0.006 A 
ENDBRANCH  57  74
ENDBRANCH  31  32
ENDBRANCH  24  26
ENDBRANCH  23  24
ENDBRANCH  22  23
ENDBRANCH   1  22
TORSDOF 16
ENDMDL
MODEL 3
REMARK VINA RESULT:     -10.0      5.685     10.158
REMARK SMILES C[C@H](NC(N)=O)C(=O)N[C@@H](CO)C(=O)OCCOC(=O)c1ccc(-c2c3nc(c(-c4c(F)cccc4F)c4ccc([nH]4)c(-c4c(F)cccc4F)c4nc(c(-c5c(F)cccc5F)c5ccc2[nH]5)C=C4)C=C3)cc1
REMARK SMILES IDX 16 1 15 2 13 3 14 4 10 5 9 6 7 7 8 8 2 10 1 11 3 12 4 13
REMARK SMILES IDX 5 15 6 16 11 19 12 20 17 22 18 23 19 24 20 25 21 26 22 27
REMARK SMILES IDX 74 28 23 29 73 30 24 31 25 32 26 33 67 34 27 35 72 36 66 37
REMARK SMILES IDX 68 38 28 39 71 40 65 41 64 42 29 44 55 45 38 46 54 47 39 48
REMARK SMILES IDX 42 49 53 50 69 51 40 52 41 53 52 55 70 56 43 57 30 58 31 59
REMARK SMILES IDX 36 60 32 61 33 62 35 63 37 64 34 65 56 66 57 67 62 68 58 69
REMARK SMILES IDX 59 70 61 71 63 72 60 73 44 74 45 75 50 76 46 77 47 78 49 79
REMARK SMILES IDX 51 80 48 81
REMARK H PARENT 9 9 3 14 5 17 5 18 12 21 68 43 42 54
REMARK Flexibility Score: inf
ROOT
ATOM      1  C   UNL A   1      35.199  20.217  24.941  1.00  0.00     0.274 C 
ENDROOT
BRANCH   1   2
ATOM      2  O   UNL A   1      34.642  21.524  24.687  1.00  0.00    -0.460 OA
BRANCH   2   3
ATOM      3  C   UNL A   1      33.300  21.638  24.885  1.00  0.00     0.331 C 
ATOM      4  O   UNL A   1      32.475  20.774  24.602  1.00  0.00    -0.250 OA
BRANCH   3   5
ATOM      5  C   UNL A   1      32.893  22.981  25.505  1.00  0.00     0.218 C 
BRANCH   5   6
ATOM      6  N   UNL A   1      31.635  22.990  26.259  1.00  0.00    -0.339 N 
ATOM      7  C   UNL A   1      30.695  23.962  26.445  1.00  0.00     0.243 C 
ATOM      8  O   UNL A   1      29.792  23.702  27.248  1.00  0.00    -0.273 OA
ATOM      9  H   UNL A   1      31.432  22.141  26.714  1.00  0.00     0.164 HD
BRANCH   7  10
ATOM     10  C   UNL A   1      30.605  25.230  25.558  1.00  0.00     0.170 C 
ATOM     11  C   UNL A   1      31.435  26.305  26.257  1.00  0.00     0.041 C 
BRANCH  10  12
ATOM     12  N   UNL A   1      29.246  25.655  25.215  1.00  0.00    -0.327 N 
ATOM     13  C   UNL A   1      28.969  26.344  24.072  1.00  0.00     0.312 C 
ATOM     14  H   UNL A   1      28.510  25.436  25.830  1.00  0.00     0.166 HD
ATOM     15  N   UNL A   1      27.650  26.572  23.888  1.00  0.00    -0.352 N 
ATOM     16  O   UNL A   1      29.791  26.760  23.268  1.00  0.00    -0.249 OA
ATOM     17  H   UNL A   1      26.996  26.233  24.542  1.00  0.00     0.161 HD
ATOM     18  H   UNL A   1      27.342  27.076  23.100  1.00  0.00     0.161 HD
ENDBRANCH  10  12
ENDBRANCH   7  10
ENDBRANCH   5   6
BRANCH   5  19
ATOM     19  C   UNL A   1      34.047  23.419  26.418  1.00  0.00     0.193 C 
BRANCH  19  20
ATOM     20  O   UNL A   1      34.979  24.243  25.716  1.00  0.00    -0.394 OA
ATOM     21  H   UNL A   1      34.978  25.134  26.099  1.00  0.00     0.210 HD
ENDBRANCH  19  20
ENDBRANCH   5  19
ENDBRANCH   3   5
ENDBRANCH   2   3
ENDBRANCH   1   2
BRANCH   1  22
ATOM     22  C   UNL A   1      36.722  20.230  24.813  1.00  0.00     0.275 C 
BRANCH  22  23
ATOM     23  O   UNL A   1      37.292  21.321  25.561  1.00  0.00    -0.458 OA
BRANCH  23  24
ATOM     24  C   UNL A   1      38.604  21.170  25.844  1.00  0.00     0.338 C 
ATOM     25  O   UNL A   1      39.328  20.240  25.529  1.00  0.00    -0.246 OA
BRANCH  24  26
ATOM     26  C   UNL A   1      39.133  22.349  26.547  1.00  0.00     0.060 A 
ATOM     27  C   UNL A   1      38.636  23.608  26.209  1.00  0.00     0.016 A 
ATOM     28  C   UNL A   1      40.290  22.230  27.313  1.00  0.00     0.016 A 
ATOM     29  C   UNL A   1      39.371  24.747  26.526  1.00  0.00     0.010 A 
ATOM     30  C   UNL A   1      40.958  23.387  27.735  1.00  0.00     0.010 A 
ATOM     31  C   UNL A   1      40.529  24.658  27.312  1.00  0.00    -0.014 A 
BRANCH  31  32
ATOM     32  C   UNL A   1      41.281  25.888  27.692  1.00  0.00     0.031 A 
ATOM     33  C   UNL A   1      40.628  26.974  28.509  1.00  0.00     0.074 A 
ATOM     34  C   UNL A   1      42.557  26.042  27.284  1.00  0.00     0.049 A 
ATOM     35  N   UNL A   1      41.044  28.195  28.744  1.00  0.00    -0.248 NA
ATOM     36  C   UNL A   1      39.327  26.659  29.123  1.00  0.00     0.031 C 
ATOM     37  C   UNL A   1      43.329  25.061  26.516  1.00  0.00     0.029 A 
ATOM     38  N   UNL A   1      43.432  27.088  27.451  1.00  0.00    -0.354 N 
ATOM     39  C   UNL A   1      40.036  28.807  29.482  1.00  0.00     0.074 A 
ATOM     40  C   UNL A   1      38.985  27.826  29.653  1.00  0.00     0.031 C 
ATOM     41  C   UNL A   1      44.565  25.534  26.308  1.00  0.00     0.029 A 
ATOM     42  C   UNL A   1      44.645  26.891  26.834  1.00  0.00     0.049 A 
ATOM     43  H   UNL A   1      43.213  27.899  27.963  1.00  0.00     0.167 HD
ATOM     44  C   UNL A   1      39.994  30.072  29.967  1.00  0.00     0.037 A 
ATOM     45  C   UNL A   1      45.687  27.722  26.655  1.00  0.00     0.037 A 
ATOM     46  C   UNL A   1      41.077  31.019  29.860  1.00  0.00     0.049 A 
ATOM     47  C   UNL A   1      45.601  29.126  27.178  1.00  0.00     0.074 A 
ATOM     48  C   UNL A   1      41.149  32.306  30.368  1.00  0.00     0.029 A 
ATOM     49  N   UNL A   1      42.281  30.777  29.216  1.00  0.00    -0.354 N 
ATOM     50  N   UNL A   1      44.633  29.701  27.846  1.00  0.00    -0.248 NA
ATOM     51  C   UNL A   1      46.748  30.002  26.906  1.00  0.00     0.031 C 
ATOM     52  C   UNL A   1      42.376  32.858  29.991  1.00  0.00     0.029 A 
ATOM     53  C   UNL A   1      43.091  31.900  29.294  1.00  0.00     0.049 A 
ATOM     54  H   UNL A   1      42.524  29.934  28.771  1.00  0.00     0.167 HD
ATOM     55  C   UNL A   1      45.060  30.997  28.094  1.00  0.00     0.074 A 
ATOM     56  C   UNL A   1      46.386  31.119  27.521  1.00  0.00     0.031 C 
ATOM     57  C   UNL A   1      44.413  32.000  28.733  1.00  0.00     0.037 A 
BRANCH  44  58
ATOM     58  C   UNL A   1      38.736  30.537  30.642  1.00  0.00     0.057 A 
ATOM     59  C   UNL A   1      37.681  31.131  29.939  1.00  0.00     0.134 A 
ATOM     60  C   UNL A   1      38.540  30.290  32.009  1.00  0.00     0.134 A 
ATOM     61  F   UNL A   1      37.802  31.396  28.630  1.00  0.00    -0.206 F 
ATOM     62  C   UNL A   1      36.483  31.472  30.571  1.00  0.00     0.040 A 
ATOM     63  C   UNL A   1      37.337  30.604  32.646  1.00  0.00     0.040 A 
ATOM     64  F   UNL A   1      39.504  29.712  32.742  1.00  0.00    -0.206 F 
ATOM     65  C   UNL A   1      36.305  31.198  31.926  1.00  0.00     0.006 A 
ENDBRANCH  44  58
BRANCH  45  66
ATOM     66  C   UNL A   1      46.884  27.266  25.902  1.00  0.00     0.057 A 
ATOM     67  C   UNL A   1      47.927  26.589  26.543  1.00  0.00     0.134 A 
ATOM     68  C   UNL A   1      47.022  27.511  24.530  1.00  0.00     0.134 A 
ATOM     69  F   UNL A   1      47.863  26.343  27.860  1.00  0.00    -0.206 F 
ATOM     70  C   UNL A   1      49.071  26.189  25.852  1.00  0.00     0.040 A 
ATOM     71  C   UNL A   1      48.144  27.088  23.819  1.00  0.00     0.040 A 
ATOM     72  F   UNL A   1      46.055  28.151  23.855  1.00  0.00    -0.206 F 
ATOM     73  C   UNL A   1      49.180  26.433  24.484  1.00  0.00     0.006 A 
ENDBRANCH  45  66
BRANCH  57  74
ATOM     74  C   UNL A   1      45.151  33.296  28.891  1.00  0.00     0.057 A 
ATOM     75  C   UNL A   1      45.027  34.337  27.961  1.00  0.00     0.134 A 
ATOM     76  C   UNL A   1      45.984  33.511  29.996  1.00  0.00     0.134 A 
ATOM     77  F   UNL A   1      44.258  34.188  26.872  1.00  0.00    -0.206 F 
ATOM     78  C   UNL A   1      45.728  35.534  28.111  1.00  0.00     0.040 A 
ATOM     79  C   UNL A   1      46.668  34.714  30.172  1.00  0.00     0.040 A 
ATOM     80  F   UNL A   1      46.140  32.557  30.926  1.00  0.00    -0.206 F 
ATOM     81  C   UNL A   1      46.547  35.726  29.222  1.00  0.00     0.006 A 
ENDBRANCH  57  74
ENDBRANCH  31  32
ENDBRANCH  24  26
ENDBRANCH  23  24
ENDBRANCH  22  23
ENDBRANCH   1  22
TORSDOF 16
ENDMDL
