MODEL 1
REMARK VINA RESULT:     -10.0      0.000      0.000
REMARK SMILES O=C(CNc1ccccc1C(=O)N1CCCC1)OCCOC(=O)c1ccc(-c2c3nc(c(-c4c(F)cccc4F)c4ccc([nH]4)c(-c4c(F)cccc4F)c4nc(c(-c5c(F)cccc5F)c5ccc2[nH]5)C=C4)C=C3)cc1
REMARK SMILES IDX 19 1 18 2 2 3 1 4 3 5 4 6 5 8 6 9 10 10 7 11 9 12 8 13 11 14
REMARK SMILES IDX 12 15 13 16 14 17 17 18 15 19 16 20 20 21 21 22 22 23 23 24
REMARK SMILES IDX 24 25 25 26 77 27 26 28 76 29 27 30 28 31 29 32 70 33 30 34
REMARK SMILES IDX 75 35 69 36 71 37 31 38 74 39 68 40 67 41 32 43 58 44 41 45
REMARK SMILES IDX 57 46 42 47 45 48 56 49 72 50 43 51 44 52 55 54 73 55 46 56
REMARK SMILES IDX 33 57 34 58 39 59 35 60 36 61 38 62 40 63 37 64 59 65 60 66
REMARK SMILES IDX 65 67 61 68 62 69 64 70 66 71 63 72 47 73 48 74 53 75 49 76
REMARK SMILES IDX 50 77 52 78 54 79 51 80
REMARK H PARENT 4 7 71 42 45 53
REMARK Flexibility Score: inf
ROOT
ATOM      1  C   UNL A   1      33.154  35.200  28.529  1.00  0.00     0.274 C 
ENDROOT
BRANCH   1   2
ATOM      2  O   UNL A   1      32.718  35.037  29.896  1.00  0.00    -0.461 OA
BRANCH   2   3
ATOM      3  C   UNL A   1      32.938  36.033  30.799  1.00  0.00     0.325 C 
ATOM      4  O   UNL A   1      32.782  37.216  30.508  1.00  0.00    -0.250 OA
BRANCH   3   5
ATOM      5  C   UNL A   1      33.590  35.606  32.079  1.00  0.00     0.236 C 
BRANCH   5   6
ATOM      6  N   UNL A   1      35.008  35.324  32.140  1.00  0.00    -0.374 N 
ATOM      7  H   UNL A   1      35.593  36.091  31.940  1.00  0.00     0.161 HD
BRANCH   6   8
ATOM      8  C   UNL A   1      35.674  34.139  32.435  1.00  0.00     0.047 A 
ATOM      9  C   UNL A   1      34.869  33.039  31.999  1.00  0.00     0.026 A 
ATOM     10  C   UNL A   1      36.953  33.825  33.007  1.00  0.00     0.063 A 
ATOM     11  C   UNL A   1      35.214  31.701  32.153  1.00  0.00     0.002 A 
ATOM     12  C   UNL A   1      37.210  32.433  33.235  1.00  0.00     0.016 A 
ATOM     13  C   UNL A   1      36.377  31.396  32.813  1.00  0.00     0.001 A 
BRANCH  10  14
ATOM     14  C   UNL A   1      38.246  34.597  33.353  1.00  0.00     0.255 C 
ATOM     15  O   UNL A   1      38.346  35.087  34.488  1.00  0.00    -0.269 OA
ATOM     16  N   UNL A   1      39.385  34.738  32.550  1.00  0.00    -0.339 N 
ATOM     17  C   UNL A   1      39.463  34.446  30.682  1.00  0.00     0.120 C 
ATOM     18  C   UNL A   1      41.188  34.911  33.374  1.00  0.00     0.120 C 
ATOM     19  C   UNL A   1      41.355  34.075  30.196  1.00  0.00     0.023 C 
ATOM     20  C   UNL A   1      42.495  34.420  31.879  1.00  0.00     0.023 C 
ENDBRANCH  10  14
ENDBRANCH   6   8
ENDBRANCH   5   6
ENDBRANCH   3   5
ENDBRANCH   2   3
ENDBRANCH   1   2
BRANCH   1  21
ATOM     21  C   UNL A   1      34.129  34.122  28.043  1.00  0.00     0.275 C 
BRANCH  21  22
ATOM     22  O   UNL A   1      33.650  32.761  28.223  1.00  0.00    -0.458 OA
BRANCH  22  23
ATOM     23  C   UNL A   1      34.434  31.497  27.930  1.00  0.00     0.338 C 
ATOM     24  O   UNL A   1      33.637  30.963  27.115  1.00  0.00    -0.246 OA
BRANCH  23  25
ATOM     25  C   UNL A   1      36.230  30.865  28.929  1.00  0.00     0.060 A 
ATOM     26  C   UNL A   1      36.515  29.611  29.723  1.00  0.00     0.016 A 
ATOM     27  C   UNL A   1      37.591  31.579  29.025  1.00  0.00     0.016 A 
ATOM     28  C   UNL A   1      37.746  29.056  30.067  1.00  0.00     0.010 A 
ATOM     29  C   UNL A   1      38.826  31.087  29.440  1.00  0.00     0.010 A 
ATOM     30  C   UNL A   1      38.891  29.788  29.869  1.00  0.00    -0.014 A 
BRANCH  30  31
ATOM     31  C   UNL A   1      40.158  29.212  30.257  1.00  0.00     0.031 A 
ATOM     32  C   UNL A   1      40.802  29.782  31.463  1.00  0.00     0.074 A 
ATOM     33  C   UNL A   1      40.595  28.178  29.525  1.00  0.00     0.049 A 
ATOM     34  N   UNL A   1      41.859  29.371  32.093  1.00  0.00    -0.248 NA
ATOM     35  C   UNL A   1      40.155  30.969  32.058  1.00  0.00     0.031 C 
ATOM     36  C   UNL A   1      39.912  27.634  28.342  1.00  0.00     0.029 A 
ATOM     37  N   UNL A   1      41.696  27.396  29.664  1.00  0.00    -0.354 N 
ATOM     38  C   UNL A   1      41.996  30.232  33.169  1.00  0.00     0.074 A 
ATOM     39  C   UNL A   1      40.938  31.209  33.098  1.00  0.00     0.031 C 
ATOM     40  C   UNL A   1      40.618  26.597  27.867  1.00  0.00     0.029 A 
ATOM     41  C   UNL A   1      41.798  26.423  28.701  1.00  0.00     0.049 A 
ATOM     42  H   UNL A   1      42.355  27.515  30.385  1.00  0.00     0.167 HD
ATOM     43  C   UNL A   1      42.948  30.181  34.122  1.00  0.00     0.037 A 
ATOM     44  C   UNL A   1      42.768  25.508  28.542  1.00  0.00     0.037 A 
ATOM     45  C   UNL A   1      44.011  29.215  34.062  1.00  0.00     0.049 A 
ATOM     46  C   UNL A   1      43.847  25.514  29.588  1.00  0.00     0.074 A 
ATOM     47  C   UNL A   1      45.091  29.051  34.900  1.00  0.00     0.029 A 
ATOM     48  N   UNL A   1      44.120  28.249  33.058  1.00  0.00    -0.354 N 
ATOM     49  N   UNL A   1      43.972  26.305  30.634  1.00  0.00    -0.248 NA
ATOM     50  C   UNL A   1      44.905  24.513  29.457  1.00  0.00     0.031 C 
ATOM     51  C   UNL A   1      45.883  28.025  34.370  1.00  0.00     0.029 A 
ATOM     52  C   UNL A   1      45.264  27.501  33.240  1.00  0.00     0.049 A 
ATOM     53  H   UNL A   1      43.473  28.122  32.326  1.00  0.00     0.167 HD
ATOM     54  C   UNL A   1      45.114  25.895  31.297  1.00  0.00     0.074 A 
ATOM     55  C   UNL A   1      45.629  24.762  30.540  1.00  0.00     0.031 C 
ATOM     56  C   UNL A   1      45.700  26.392  32.418  1.00  0.00     0.037 A 
BRANCH  43  57
ATOM     57  C   UNL A   1      42.893  31.228  35.193  1.00  0.00     0.057 A 
ATOM     58  C   UNL A   1      43.607  32.433  35.096  1.00  0.00     0.134 A 
ATOM     59  C   UNL A   1      42.184  30.998  36.378  1.00  0.00     0.134 A 
ATOM     60  F   UNL A   1      44.343  32.700  34.007  1.00  0.00    -0.206 F 
ATOM     61  C   UNL A   1      43.639  33.354  36.147  1.00  0.00     0.040 A 
ATOM     62  C   UNL A   1      42.190  31.922  37.426  1.00  0.00     0.040 A 
ATOM     63  F   UNL A   1      41.501  29.858  36.553  1.00  0.00    -0.206 F 
ATOM     64  C   UNL A   1      42.925  33.101  37.315  1.00  0.00     0.006 A 
ENDBRANCH  43  57
BRANCH  44  65
ATOM     65  C   UNL A   1      42.728  24.560  27.401  1.00  0.00     0.057 A 
ATOM     66  C   UNL A   1      43.300  24.871  26.163  1.00  0.00     0.134 A 
ATOM     67  C   UNL A   1      42.158  23.285  27.535  1.00  0.00     0.134 A 
ATOM     68  F   UNL A   1      43.866  26.070  25.964  1.00  0.00    -0.206 F 
ATOM     69  C   UNL A   1      43.294  23.963  25.100  1.00  0.00     0.040 A 
ATOM     70  C   UNL A   1      42.168  22.357  26.491  1.00  0.00     0.040 A 
ATOM     71  F   UNL A   1      41.610  22.908  28.700  1.00  0.00    -0.206 F 
ATOM     72  C   UNL A   1      42.731  22.698  25.265  1.00  0.00     0.006 A 
ENDBRANCH  44  65
BRANCH  56  73
ATOM     73  C   UNL A   1      46.938  25.688  32.868  1.00  0.00     0.057 A 
ATOM     74  C   UNL A   1      46.895  24.663  33.819  1.00  0.00     0.134 A 
ATOM     75  C   UNL A   1      48.176  26.009  32.298  1.00  0.00     0.134 A 
ATOM     76  F   UNL A   1      45.736  24.325  34.405  1.00  0.00    -0.206 F 
ATOM     77  C   UNL A   1      48.052  23.995  34.210  1.00  0.00     0.040 A 
ATOM     78  C   UNL A   1      49.333  25.322  32.655  1.00  0.00     0.040 A 
ATOM     79  F   UNL A   1      48.270  26.974  31.371  1.00  0.00    -0.206 F 
ATOM     80  C   UNL A   1      49.273  24.318  33.619  1.00  0.00     0.006 A 
ENDBRANCH  56  73
ENDBRANCH  30  31
ENDBRANCH  23  25
ENDBRANCH  22  23
ENDBRANCH  21  22
ENDBRANCH   1  21
TORSDOF 14
ENDMDL
MODEL 2
REMARK VINA RESULT:      -9.9      0.511      6.572
REMARK SMILES O=C(CNc1ccccc1C(=O)N1CCCC1)OCCOC(=O)c1ccc(-c2c3nc(c(-c4c(F)cccc4F)c4ccc([nH]4)c(-c4c(F)cccc4F)c4nc(c(-c5c(F)cccc5F)c5ccc2[nH]5)C=C4)C=C3)cc1
REMARK SMILES IDX 19 1 18 2 2 3 1 4 3 5 4 6 5 8 6 9 10 10 7 11 9 12 8 13 11 14
REMARK SMILES IDX 12 15 13 16 14 17 17 18 15 19 16 20 20 21 21 22 22 23 23 24
REMARK SMILES IDX 24 25 25 26 77 27 26 28 76 29 27 30 28 31 29 32 70 33 30 34
REMARK SMILES IDX 75 35 69 36 71 37 31 38 74 39 68 40 67 41 32 43 58 44 41 45
REMARK SMILES IDX 57 46 42 47 45 48 56 49 72 50 43 51 44 52 55 54 73 55 46 56
REMARK SMILES IDX 33 57 34 58 39 59 35 60 36 61 38 62 40 63 37 64 59 65 60 66
REMARK SMILES IDX 65 67 61 68 62 69 64 70 66 71 63 72 47 73 48 74 53 75 49 76
REMARK SMILES IDX 50 77 52 78 54 79 51 80
REMARK H PARENT 4 7 71 42 45 53
REMARK Flexibility Score: inf
ROOT
ATOM      1  C   UNL A   1      33.232  35.296  28.735  1.00  0.00     0.274 C 
ENDROOT
BRANCH   1   2
ATOM      2  O   UNL A   1      32.743  35.128  30.082  1.00  0.00    -0.461 OA
BRANCH   2   3
ATOM      3  C   UNL A   1      32.907  36.130  30.991  1.00  0.00     0.325 C 
ATOM      4  O   UNL A   1      32.609  37.293  30.731  1.00  0.00    -0.250 OA
BRANCH   3   5
ATOM      5  C   UNL A   1      33.673  35.760  32.225  1.00  0.00     0.236 C 
BRANCH   5   6
ATOM      6  N   UNL A   1      35.078  35.422  32.161  1.00  0.00    -0.374 N 
ATOM      7  H   UNL A   1      35.673  36.166  31.910  1.00  0.00     0.161 HD
BRANCH   6   8
ATOM      8  C   UNL A   1      35.720  34.211  32.396  1.00  0.00     0.047 A 
ATOM      9  C   UNL A   1      34.847  33.145  32.010  1.00  0.00     0.026 A 
ATOM     10  C   UNL A   1      37.024  33.845  32.871  1.00  0.00     0.063 A 
ATOM     11  C   UNL A   1      35.153  31.794  32.126  1.00  0.00     0.002 A 
ATOM     12  C   UNL A   1      37.247  32.442  33.068  1.00  0.00     0.016 A 
ATOM     13  C   UNL A   1      36.348  31.440  32.698  1.00  0.00     0.001 A 
BRANCH  10  14
ATOM     14  C   UNL A   1      38.367  34.567  33.129  1.00  0.00     0.255 C 
ATOM     15  O   UNL A   1      38.519  35.141  34.219  1.00  0.00    -0.269 OA
ATOM     16  N   UNL A   1      39.493  34.574  32.298  1.00  0.00    -0.339 N 
ATOM     17  C   UNL A   1      39.514  34.127  30.460  1.00  0.00     0.120 C 
ATOM     18  C   UNL A   1      41.321  34.709  33.074  1.00  0.00     0.120 C 
ATOM     19  C   UNL A   1      41.371  33.608  29.974  1.00  0.00     0.023 C 
ATOM     20  C   UNL A   1      42.566  34.023  31.603  1.00  0.00     0.023 C 
ENDBRANCH  10  14
ENDBRANCH   6   8
ENDBRANCH   5   6
ENDBRANCH   3   5
ENDBRANCH   2   3
ENDBRANCH   1   2
BRANCH   1  21
ATOM     21  C   UNL A   1      34.256  34.243  28.297  1.00  0.00     0.275 C 
BRANCH  21  22
ATOM     22  O   UNL A   1      33.995  32.908  28.811  1.00  0.00    -0.458 OA
BRANCH  22  23
ATOM     23  C   UNL A   1      34.422  31.607  28.163  1.00  0.00     0.338 C 
ATOM     24  O   UNL A   1      33.394  31.392  27.470  1.00  0.00    -0.246 OA
BRANCH  23  25
ATOM     25  C   UNL A   1      36.194  30.483  28.634  1.00  0.00     0.060 A 
ATOM     26  C   UNL A   1      37.579  30.548  28.033  1.00  0.00     0.016 A 
ATOM     27  C   UNL A   1      36.394  29.381  29.691  1.00  0.00     0.016 A 
ATOM     28  C   UNL A   1      38.782  30.078  28.557  1.00  0.00     0.010 A 
ATOM     29  C   UNL A   1      37.572  28.826  30.184  1.00  0.00     0.010 A 
ATOM     30  C   UNL A   1      38.759  29.263  29.661  1.00  0.00    -0.014 A 
BRANCH  30  31
ATOM     31  C   UNL A   1      40.012  28.759  30.177  1.00  0.00     0.031 A 
ATOM     32  C   UNL A   1      40.616  27.619  29.449  1.00  0.00     0.074 A 
ATOM     33  C   UNL A   1      40.533  29.412  31.225  1.00  0.00     0.049 A 
ATOM     34  N   UNL A   1      41.778  27.069  29.619  1.00  0.00    -0.248 NA
ATOM     35  C   UNL A   1      39.809  27.028  28.363  1.00  0.00     0.031 C 
ATOM     36  C   UNL A   1      39.904  30.551  31.907  1.00  0.00     0.029 A 
ATOM     37  N   UNL A   1      41.703  29.227  31.890  1.00  0.00    -0.354 N 
ATOM     38  C   UNL A   1      41.855  26.081  28.651  1.00  0.00     0.074 A 
ATOM     39  C   UNL A   1      40.615  26.080  27.914  1.00  0.00     0.031 C 
ATOM     40  C   UNL A   1      40.707  30.966  32.899  1.00  0.00     0.029 A 
ATOM     41  C   UNL A   1      41.886  30.112  32.924  1.00  0.00     0.049 A 
ATOM     42  H   UNL A   1      42.354  28.529  31.654  1.00  0.00     0.167 HD
ATOM     43  C   UNL A   1      42.897  25.255  28.428  1.00  0.00     0.037 A 
ATOM     44  C   UNL A   1      42.914  30.186  33.783  1.00  0.00     0.037 A 
ATOM     45  C   UNL A   1      44.060  25.280  29.271  1.00  0.00     0.049 A 
ATOM     46  C   UNL A   1      44.035  29.214  33.544  1.00  0.00     0.074 A 
ATOM     47  C   UNL A   1      45.183  24.483  29.234  1.00  0.00     0.029 A 
ATOM     48  N   UNL A   1      44.221  26.166  30.339  1.00  0.00    -0.354 N 
ATOM     49  N   UNL A   1      44.135  28.291  32.609  1.00  0.00    -0.248 NA
ATOM     50  C   UNL A   1      45.181  29.286  34.449  1.00  0.00     0.031 C 
ATOM     51  C   UNL A   1      45.994  24.848  30.316  1.00  0.00     0.029 A 
ATOM     52  C   UNL A   1      45.413  25.919  30.988  1.00  0.00     0.049 A 
ATOM     53  H   UNL A   1      43.575  26.865  30.593  1.00  0.00     0.167 HD
ATOM     54  C   UNL A   1      45.359  27.677  32.800  1.00  0.00     0.074 A 
ATOM     55  C   UNL A   1      45.975  28.357  33.931  1.00  0.00     0.031 C 
ATOM     56  C   UNL A   1      45.936  26.649  32.122  1.00  0.00     0.037 A 
BRANCH  43  57
ATOM     57  C   UNL A   1      42.746  24.259  27.318  1.00  0.00     0.057 A 
ATOM     58  C   UNL A   1      42.181  22.991  27.526  1.00  0.00     0.134 A 
ATOM     59  C   UNL A   1      43.249  24.533  26.041  1.00  0.00     0.134 A 
ATOM     60  F   UNL A   1      41.719  22.643  28.736  1.00  0.00    -0.206 F 
ATOM     61  C   UNL A   1      42.146  22.027  26.514  1.00  0.00     0.040 A 
ATOM     62  C   UNL A   1      43.198  23.587  25.015  1.00  0.00     0.040 A 
ATOM     63  F   UNL A   1      43.827  25.714  25.777  1.00  0.00    -0.206 F 
ATOM     64  C   UNL A   1      42.653  22.327  25.252  1.00  0.00     0.006 A 
ENDBRANCH  43  57
BRANCH  44  65
ATOM     65  C   UNL A   1      42.911  31.192  34.875  1.00  0.00     0.057 A 
ATOM     66  C   UNL A   1      42.202  30.988  36.064  1.00  0.00     0.134 A 
ATOM     67  C   UNL A   1      43.668  32.370  34.781  1.00  0.00     0.134 A 
ATOM     68  F   UNL A   1      41.462  29.881  36.227  1.00  0.00    -0.206 F 
ATOM     69  C   UNL A   1      42.230  31.919  37.107  1.00  0.00     0.040 A 
ATOM     70  C   UNL A   1      43.726  33.297  35.824  1.00  0.00     0.040 A 
ATOM     71  F   UNL A   1      44.390  32.624  33.680  1.00  0.00    -0.206 F 
ATOM     72  C   UNL A   1      42.999  33.075  36.991  1.00  0.00     0.006 A 
ENDBRANCH  44  65
BRANCH  56  73
ATOM     73  C   UNL A   1      47.291  26.239  32.599  1.00  0.00     0.057 A 
ATOM     74  C   UNL A   1      47.460  25.223  33.545  1.00  0.00     0.134 A 
ATOM     75  C   UNL A   1      48.436  26.836  32.058  1.00  0.00     0.134 A 
ATOM     76  F   UNL A   1      46.395  24.627  34.103  1.00  0.00    -0.206 F 
ATOM     77  C   UNL A   1      48.729  24.830  33.961  1.00  0.00     0.040 A 
ATOM     78  C   UNL A   1      49.710  26.426  32.440  1.00  0.00     0.040 A 
ATOM     79  F   UNL A   1      48.330  27.805  31.137  1.00  0.00    -0.206 F 
ATOM     80  C   UNL A   1      49.858  25.426  33.399  1.00  0.00     0.006 A 
ENDBRANCH  56  73
ENDBRANCH  30  31
ENDBRANCH  23  25
ENDBRANCH  22  23
ENDBRANCH  21  22
ENDBRANCH   1  21
TORSDOF 14
ENDMDL
MODEL 3
REMARK VINA RESULT:      -9.8      3.998      6.813
REMARK SMILES O=C(CNc1ccccc1C(=O)N1CCCC1)OCCOC(=O)c1ccc(-c2c3nc(c(-c4c(F)cccc4F)c4ccc([nH]4)c(-c4c(F)cccc4F)c4nc(c(-c5c(F)cccc5F)c5ccc2[nH]5)C=C4)C=C3)cc1
REMARK SMILES IDX 19 1 18 2 2 3 1 4 3 5 4 6 5 8 6 9 10 10 7 11 9 12 8 13 11 14
REMARK SMILES IDX 12 15 13 16 14 17 17 18 15 19 16 20 20 21 21 22 22 23 23 24
REMARK SMILES IDX 24 25 25 26 77 27 26 28 76 29 27 30 28 31 29 32 70 33 30 34
REMARK SMILES IDX 75 35 69 36 71 37 31 38 74 39 68 40 67 41 32 43 58 44 41 45
REMARK SMILES IDX 57 46 42 47 45 48 56 49 72 50 43 51 44 52 55 54 73 55 46 56
REMARK SMILES IDX 33 57 34 58 39 59 35 60 36 61 38 62 40 63 37 64 59 65 60 66
REMARK SMILES IDX 65 67 61 68 62 69 64 70 66 71 63 72 47 73 48 74 53 75 49 76
REMARK SMILES IDX 50 77 52 78 54 79 51 80
REMARK H PARENT 4 7 71 42 45 53
REMARK Flexibility Score: inf
ROOT
ATOM      1  C   UNL A   1      32.276  30.792  26.510  1.00  0.00     0.274 C 
ENDROOT
BRANCH   1   2
ATOM      2  O   UNL A   1      31.668  29.505  26.271  1.00  0.00    -0.461 OA
BRANCH   2   3
ATOM      3  C   UNL A   1      32.097  28.415  26.967  1.00  0.00     0.325 C 
ATOM      4  O   UNL A   1      31.476  27.978  27.932  1.00  0.00    -0.250 OA
BRANCH   3   5
ATOM      5  C   UNL A   1      33.472  27.931  26.618  1.00  0.00     0.236 C 
BRANCH   5   6
ATOM      6  N   UNL A   1      33.675  26.647  25.983  1.00  0.00    -0.374 N 
ATOM      7  H   UNL A   1      34.015  25.938  26.577  1.00  0.00     0.161 HD
BRANCH   6   8
ATOM      8  C   UNL A   1      33.466  26.256  24.664  1.00  0.00     0.047 A 
ATOM      9  C   UNL A   1      33.737  24.856  24.551  1.00  0.00     0.026 A 
ATOM     10  C   UNL A   1      33.009  26.930  23.481  1.00  0.00     0.063 A 
ATOM     11  C   UNL A   1      33.651  24.130  23.369  1.00  0.00     0.002 A 
ATOM     12  C   UNL A   1      33.038  26.159  22.273  1.00  0.00     0.016 A 
ATOM     13  C   UNL A   1      33.338  24.797  22.212  1.00  0.00     0.001 A 
BRANCH  10  14
ATOM     14  C   UNL A   1      32.346  28.286  23.149  1.00  0.00     0.255 C 
ATOM     15  O   UNL A   1      33.068  29.198  22.719  1.00  0.00    -0.269 OA
ATOM     16  N   UNL A   1      30.979  28.588  23.190  1.00  0.00    -0.339 N 
ATOM     17  C   UNL A   1      29.654  27.598  24.108  1.00  0.00     0.120 C 
ATOM     18  C   UNL A   1      30.204  29.932  21.943  1.00  0.00     0.120 C 
ATOM     19  C   UNL A   1      27.895  28.002  23.273  1.00  0.00     0.023 C 
ATOM     20  C   UNL A   1      28.197  29.533  21.925  1.00  0.00     0.023 C 
ENDBRANCH  10  14
ENDBRANCH   6   8
ENDBRANCH   5   6
ENDBRANCH   3   5
ENDBRANCH   2   3
ENDBRANCH   1   2
BRANCH   1  21
ATOM     21  C   UNL A   1      31.283  31.906  26.860  1.00  0.00     0.275 C 
BRANCH  21  22
ATOM     22  O   UNL A   1      31.871  33.235  26.907  1.00  0.00    -0.458 OA
BRANCH  22  23
ATOM     23  C   UNL A   1      32.919  33.708  27.894  1.00  0.00     0.338 C 
ATOM     24  O   UNL A   1      32.448  34.850  28.139  1.00  0.00    -0.246 OA
BRANCH  23  25
ATOM     25  C   UNL A   1      34.744  32.684  28.388  1.00  0.00     0.060 A 
ATOM     26  C   UNL A   1      36.170  33.183  28.398  1.00  0.00     0.016 A 
ATOM     27  C   UNL A   1      34.949  31.224  28.833  1.00  0.00     0.016 A 
ATOM     28  C   UNL A   1      37.283  32.634  29.033  1.00  0.00     0.010 A 
ATOM     29  C   UNL A   1      36.068  30.616  29.396  1.00  0.00     0.010 A 
ATOM     30  C   UNL A   1      37.195  31.374  29.570  1.00  0.00    -0.014 A 
BRANCH  30  31
ATOM     31  C   UNL A   1      38.365  30.805  30.200  1.00  0.00     0.031 A 
ATOM     32  C   UNL A   1      38.597  31.171  31.617  1.00  0.00     0.074 A 
ATOM     33  C   UNL A   1      39.089  29.954  29.460  1.00  0.00     0.049 A 
ATOM     34  N   UNL A   1      39.482  30.707  32.443  1.00  0.00    -0.248 NA
ATOM     35  C   UNL A   1      37.692  32.187  32.192  1.00  0.00     0.031 C 
ATOM     36  C   UNL A   1      38.811  29.608  28.059  1.00  0.00     0.029 A 
ATOM     37  N   UNL A   1      40.188  29.222  29.774  1.00  0.00    -0.354 N 
ATOM     38  C   UNL A   1      39.233  31.355  33.641  1.00  0.00     0.074 A 
ATOM     39  C   UNL A   1      38.136  32.268  33.436  1.00  0.00     0.031 C 
ATOM     40  C   UNL A   1      39.724  28.719  27.638  1.00  0.00     0.029 A 
ATOM     41  C   UNL A   1      40.648  28.456  28.732  1.00  0.00     0.049 A 
ATOM     42  H   UNL A   1      40.613  29.238  30.662  1.00  0.00     0.167 HD
ATOM     43  C   UNL A   1      39.894  31.177  34.803  1.00  0.00     0.037 A 
ATOM     44  C   UNL A   1      41.715  27.642  28.704  1.00  0.00     0.037 A 
ATOM     45  C   UNL A   1      41.029  30.300  34.886  1.00  0.00     0.049 A 
ATOM     46  C   UNL A   1      42.467  27.509  30.000  1.00  0.00     0.074 A 
ATOM     47  C   UNL A   1      41.855  30.040  35.957  1.00  0.00     0.029 A 
ATOM     48  N   UNL A   1      41.506  29.549  33.809  1.00  0.00    -0.354 N 
ATOM     49  N   UNL A   1      42.222  28.094  31.154  1.00  0.00    -0.248 NA
ATOM     50  C   UNL A   1      43.621  26.611  30.009  1.00  0.00     0.031 C 
ATOM     51  C   UNL A   1      42.865  29.178  35.510  1.00  0.00     0.029 A 
ATOM     52  C   UNL A   1      42.632  28.844  34.180  1.00  0.00     0.049 A 
ATOM     53  H   UNL A   1      41.097  29.527  32.913  1.00  0.00     0.167 HD
ATOM     54  C   UNL A   1      43.180  27.629  32.036  1.00  0.00     0.074 A 
ATOM     55  C   UNL A   1      43.996  26.690  31.279  1.00  0.00     0.031 C 
ATOM     56  C   UNL A   1      43.387  27.937  33.343  1.00  0.00     0.037 A 
BRANCH  43  57
ATOM     57  C   UNL A   1      39.442  31.997  35.972  1.00  0.00     0.057 A 
ATOM     58  C   UNL A   1      38.405  31.578  36.821  1.00  0.00     0.134 A 
ATOM     59  C   UNL A   1      39.990  33.263  36.209  1.00  0.00     0.134 A 
ATOM     60  F   UNL A   1      37.804  30.395  36.626  1.00  0.00    -0.206 F 
ATOM     61  C   UNL A   1      37.914  32.398  37.841  1.00  0.00     0.040 A 
ATOM     62  C   UNL A   1      39.523  34.082  37.241  1.00  0.00     0.040 A 
ATOM     63  F   UNL A   1      40.965  33.741  35.423  1.00  0.00    -0.206 F 
ATOM     64  C   UNL A   1      38.477  33.653  38.055  1.00  0.00     0.006 A 
ENDBRANCH  43  57
BRANCH  44  65
ATOM     65  C   UNL A   1      42.084  26.926  27.457  1.00  0.00     0.057 A 
ATOM     66  C   UNL A   1      42.924  27.501  26.498  1.00  0.00     0.134 A 
ATOM     67  C   UNL A   1      41.646  25.616  27.215  1.00  0.00     0.134 A 
ATOM     68  F   UNL A   1      43.386  28.749  26.666  1.00  0.00    -0.206 F 
ATOM     69  C   UNL A   1      43.301  26.812  25.341  1.00  0.00     0.040 A 
ATOM     70  C   UNL A   1      42.034  24.905  26.077  1.00  0.00     0.040 A 
ATOM     71  F   UNL A   1      40.855  24.992  28.101  1.00  0.00    -0.206 F 
ATOM     72  C   UNL A   1      42.860  25.506  25.131  1.00  0.00     0.006 A 
ENDBRANCH  44  65
BRANCH  56  73
ATOM     73  C   UNL A   1      44.526  27.229  34.003  1.00  0.00     0.057 A 
ATOM     74  C   UNL A   1      44.365  25.971  34.593  1.00  0.00     0.134 A 
ATOM     75  C   UNL A   1      45.806  27.796  33.993  1.00  0.00     0.134 A 
ATOM     76  F   UNL A   1      43.157  25.389  34.640  1.00  0.00    -0.206 F 
ATOM     77  C   UNL A   1      45.440  25.309  35.180  1.00  0.00     0.040 A 
ATOM     78  C   UNL A   1      46.894  27.127  34.544  1.00  0.00     0.040 A 
ATOM     79  F   UNL A   1      46.017  28.994  33.427  1.00  0.00    -0.206 F 
ATOM     80  C   UNL A   1      46.711  25.883  35.146  1.00  0.00     0.006 A 
ENDBRANCH  56  73
ENDBRANCH  30  31
ENDBRANCH  23  25
ENDBRANCH  22  23
ENDBRANCH  21  22
ENDBRANCH   1  21
TORSDOF 14
ENDMDL
