MODEL 1
REMARK VINA RESULT:     -11.1      0.000      0.000
REMARK SMILES C[N@@H+]([C@@H]1CCOC2(CCCC2)C1)C(C)(C)C(=O)OCCOC(=O)c1ccc(-c2c3nc(c(-c4c(F)cccc4F)c4ccc([nH]4)c(-c4c(F)cccc4F)c4nc(c(-c5c(F)cccc5F)c5ccc2[nH]5)C=C4)C=C3)cc1
REMARK SMILES IDX 19 1 18 2 16 3 17 4 13 5 14 6 15 7 2 8 1 9 3 11 4 12 12 13
REMARK SMILES IDX 5 14 7 15 6 16 8 17 11 18 9 19 10 20 20 21 21 22 22 23 23 24
REMARK SMILES IDX 24 25 25 26 77 27 26 28 76 29 27 30 28 31 29 32 70 33 30 34
REMARK SMILES IDX 75 35 69 36 71 37 31 38 74 39 68 40 67 41 32 43 58 44 41 45
REMARK SMILES IDX 57 46 42 47 45 48 56 49 72 50 43 51 44 52 55 54 73 55 46 56
REMARK SMILES IDX 33 57 34 58 39 59 35 60 36 61 38 62 40 63 37 64 59 65 60 66
REMARK SMILES IDX 65 67 61 68 62 69 64 70 66 71 63 72 47 73 48 74 53 75 49 76
REMARK SMILES IDX 50 77 52 78 54 79 51 80
REMARK H PARENT 2 10 71 42 45 53
REMARK Flexibility Score: inf
ROOT
ATOM      1  C   UNL A   1      30.727  24.014  25.195  1.00  0.00     0.274 C 
ENDROOT
BRANCH   1   2
ATOM      2  O   UNL A   1      31.476  22.792  25.379  1.00  0.00    -0.457 OA
BRANCH   2   3
ATOM      3  C   UNL A   1      32.176  22.659  26.544  1.00  0.00     0.367 C 
ATOM      4  O   UNL A   1      31.968  23.386  27.509  1.00  0.00    -0.245 OA
BRANCH   3   5
ATOM      5  C   UNL A   1      33.351  21.614  26.444  1.00  0.00     0.190 C 
ATOM      6  C   UNL A   1      32.634  20.262  26.328  1.00  0.00     0.092 C 
ATOM      7  C   UNL A   1      34.204  21.629  27.741  1.00  0.00     0.092 C 
BRANCH   5   8
ATOM      8  N   UNL A   1      34.291  21.841  25.268  1.00  0.00    -0.321 N 
ATOM      9  C   UNL A   1      34.171  20.811  24.229  1.00  0.00     0.333 C 
ATOM     10  H   UNL A   1      35.216  21.708  25.677  1.00  0.00     0.349 HD
BRANCH   8  11
ATOM     11  C   UNL A   1      34.425  23.237  24.772  1.00  0.00     0.189 C 
ATOM     12  C   UNL A   1      34.750  23.419  23.267  1.00  0.00     0.093 C 
ATOM     13  C   UNL A   1      35.529  24.000  25.563  1.00  0.00     0.100 C 
ATOM     14  C   UNL A   1      36.211  23.177  22.935  1.00  0.00     0.167 C 
ATOM     15  C   UNL A   1      36.941  23.390  25.307  1.00  0.00     0.074 C 
ATOM     16  O   UNL A   1      37.053  23.841  23.863  1.00  0.00    -0.375 OA
ATOM     17  C   UNL A   1      38.547  24.330  26.481  1.00  0.00     0.036 C 
ATOM     18  C   UNL A   1      37.554  21.235  25.430  1.00  0.00     0.036 C 
ATOM     19  C   UNL A   1      40.395  23.223  26.947  1.00  0.00     0.003 C 
ATOM     20  C   UNL A   1      39.564  21.187  26.303  1.00  0.00     0.003 C 
ENDBRANCH   8  11
ENDBRANCH   5   8
ENDBRANCH   3   5
ENDBRANCH   2   3
ENDBRANCH   1   2
BRANCH   1  21
ATOM     21  C   UNL A   1      30.801  24.478  23.741  1.00  0.00     0.275 C 
BRANCH  21  22
ATOM     22  O   UNL A   1      31.846  25.442  23.596  1.00  0.00    -0.458 OA
BRANCH  22  23
ATOM     23  C   UNL A   1      31.517  26.657  24.077  1.00  0.00     0.338 C 
ATOM     24  O   UNL A   1      30.456  27.247  24.017  1.00  0.00    -0.246 OA
BRANCH  23  25
ATOM     25  C   UNL A   1      32.692  27.207  24.696  1.00  0.00     0.060 A 
ATOM     26  C   UNL A   1      32.939  27.463  26.024  1.00  0.00     0.016 A 
ATOM     27  C   UNL A   1      33.442  28.057  24.094  1.00  0.00     0.016 A 
ATOM     28  C   UNL A   1      34.233  28.440  27.114  1.00  0.00     0.010 A 
ATOM     29  C   UNL A   1      34.256  28.693  25.138  1.00  0.00     0.010 A 
ATOM     30  C   UNL A   1      35.125  29.103  26.921  1.00  0.00    -0.014 A 
BRANCH  30  31
ATOM     31  C   UNL A   1      36.133  29.920  27.783  1.00  0.00     0.031 A 
ATOM     32  C   UNL A   1      37.542  29.428  28.108  1.00  0.00     0.074 A 
ATOM     33  C   UNL A   1      35.673  31.021  28.445  1.00  0.00     0.049 A 
ATOM     34  N   UNL A   1      38.552  30.130  28.556  1.00  0.00    -0.248 NA
ATOM     35  C   UNL A   1      37.918  28.023  27.836  1.00  0.00     0.031 C 
ATOM     36  C   UNL A   1      34.324  31.568  28.367  1.00  0.00     0.029 A 
ATOM     37  N   UNL A   1      36.242  31.851  29.383  1.00  0.00    -0.354 N 
ATOM     38  C   UNL A   1      39.661  29.304  28.438  1.00  0.00     0.074 A 
ATOM     39  C   UNL A   1      39.236  28.064  27.854  1.00  0.00     0.031 C 
ATOM     40  C   UNL A   1      34.141  32.599  29.185  1.00  0.00     0.029 A 
ATOM     41  C   UNL A   1      35.358  32.775  29.918  1.00  0.00     0.049 A 
ATOM     42  H   UNL A   1      37.188  31.795  29.649  1.00  0.00     0.167 HD
ATOM     43  C   UNL A   1      40.919  29.499  28.883  1.00  0.00     0.037 A 
ATOM     44  C   UNL A   1      35.469  33.662  30.916  1.00  0.00     0.037 A 
ATOM     45  C   UNL A   1      41.219  30.513  29.846  1.00  0.00     0.049 A 
ATOM     46  C   UNL A   1      36.813  33.752  31.536  1.00  0.00     0.074 A 
ATOM     47  C   UNL A   1      42.403  30.744  30.514  1.00  0.00     0.029 A 
ATOM     48  N   UNL A   1      40.268  31.380  30.375  1.00  0.00    -0.354 N 
ATOM     49  N   UNL A   1      37.878  33.039  31.260  1.00  0.00    -0.248 NA
ATOM     50  C   UNL A   1      36.994  34.772  32.564  1.00  0.00     0.031 C 
ATOM     51  C   UNL A   1      42.143  31.686  31.513  1.00  0.00     0.029 A 
ATOM     52  C   UNL A   1      40.831  32.124  31.391  1.00  0.00     0.049 A 
ATOM     53  H   UNL A   1      39.335  31.451  30.070  1.00  0.00     0.167 HD
ATOM     54  C   UNL A   1      38.882  33.553  32.050  1.00  0.00     0.074 A 
ATOM     55  C   UNL A   1      38.290  34.646  32.806  1.00  0.00     0.031 C 
ATOM     56  C   UNL A   1      40.176  33.169  32.136  1.00  0.00     0.037 A 
BRANCH  43  57
ATOM     57  C   UNL A   1      41.940  28.481  28.468  1.00  0.00     0.057 A 
ATOM     58  C   UNL A   1      42.265  27.402  29.307  1.00  0.00     0.134 A 
ATOM     59  C   UNL A   1      42.677  28.622  27.288  1.00  0.00     0.134 A 
ATOM     60  F   UNL A   1      41.635  27.239  30.481  1.00  0.00    -0.206 F 
ATOM     61  C   UNL A   1      43.294  26.512  28.990  1.00  0.00     0.040 A 
ATOM     62  C   UNL A   1      43.691  27.724  26.948  1.00  0.00     0.040 A 
ATOM     63  F   UNL A   1      42.456  29.658  26.465  1.00  0.00    -0.206 F 
ATOM     64  C   UNL A   1      44.006  26.670  27.804  1.00  0.00     0.006 A 
ENDBRANCH  43  57
BRANCH  44  65
ATOM     65  C   UNL A   1      34.319  34.520  31.322  1.00  0.00     0.057 A 
ATOM     66  C   UNL A   1      33.710  34.370  32.573  1.00  0.00     0.134 A 
ATOM     67  C   UNL A   1      33.826  35.543  30.497  1.00  0.00     0.134 A 
ATOM     68  F   UNL A   1      34.141  33.425  33.422  1.00  0.00    -0.206 F 
ATOM     69  C   UNL A   1      32.634  35.169  32.972  1.00  0.00     0.040 A 
ATOM     70  C   UNL A   1      32.772  36.372  30.895  1.00  0.00     0.040 A 
ATOM     71  F   UNL A   1      34.385  35.780  29.300  1.00  0.00    -0.206 F 
ATOM     72  C   UNL A   1      32.163  36.175  32.132  1.00  0.00     0.006 A 
ENDBRANCH  44  65
BRANCH  56  73
ATOM     73  C   UNL A   1      41.024  33.964  33.067  1.00  0.00     0.057 A 
ATOM     74  C   UNL A   1      41.855  34.994  32.616  1.00  0.00     0.134 A 
ATOM     75  C   UNL A   1      40.973  33.702  34.439  1.00  0.00     0.134 A 
ATOM     76  F   UNL A   1      41.949  35.272  31.306  1.00  0.00    -0.206 F 
ATOM     77  C   UNL A   1      42.645  35.716  33.503  1.00  0.00     0.040 A 
ATOM     78  C   UNL A   1      41.718  34.452  35.340  1.00  0.00     0.040 A 
ATOM     79  F   UNL A   1      40.185  32.730  34.923  1.00  0.00    -0.206 F 
ATOM     80  C   UNL A   1      42.566  35.453  34.870  1.00  0.00     0.006 A 
ENDBRANCH  56  73
ENDBRANCH  30  31
ENDBRANCH  23  25
ENDBRANCH  22  23
ENDBRANCH  21  22
ENDBRANCH   1  21
TORSDOF 13
ENDMDL
MODEL 2
REMARK VINA RESULT:     -11.0      3.036      8.639
REMARK SMILES C[N@@H+]([C@@H]1CCOC2(CCCC2)C1)C(C)(C)C(=O)OCCOC(=O)c1ccc(-c2c3nc(c(-c4c(F)cccc4F)c4ccc([nH]4)c(-c4c(F)cccc4F)c4nc(c(-c5c(F)cccc5F)c5ccc2[nH]5)C=C4)C=C3)cc1
REMARK SMILES IDX 19 1 18 2 16 3 17 4 13 5 14 6 15 7 2 8 1 9 3 11 4 12 12 13
REMARK SMILES IDX 5 14 7 15 6 16 8 17 11 18 9 19 10 20 20 21 21 22 22 23 23 24
REMARK SMILES IDX 24 25 25 26 77 27 26 28 76 29 27 30 28 31 29 32 70 33 30 34
REMARK SMILES IDX 75 35 69 36 71 37 31 38 74 39 68 40 67 41 32 43 58 44 41 45
REMARK SMILES IDX 57 46 42 47 45 48 56 49 72 50 43 51 44 52 55 54 73 55 46 56
REMARK SMILES IDX 33 57 34 58 39 59 35 60 36 61 38 62 40 63 37 64 59 65 60 66
REMARK SMILES IDX 65 67 61 68 62 69 64 70 66 71 63 72 47 73 48 74 53 75 49 76
REMARK SMILES IDX 50 77 52 78 54 79 51 80
REMARK H PARENT 2 10 71 42 45 53
REMARK Flexibility Score: inf
ROOT
ATOM      1  C   UNL A   1      33.347  21.028  25.521  1.00  0.00     0.274 C 
ENDROOT
BRANCH   1   2
ATOM      2  O   UNL A   1      32.974  22.289  24.923  1.00  0.00    -0.457 OA
BRANCH   2   3
ATOM      3  C   UNL A   1      32.957  23.385  25.738  1.00  0.00     0.367 C 
ATOM      4  O   UNL A   1      33.467  23.369  26.852  1.00  0.00    -0.245 OA
BRANCH   3   5
ATOM      5  C   UNL A   1      32.087  24.568  25.165  1.00  0.00     0.190 C 
ATOM      6  C   UNL A   1      31.341  25.106  26.393  1.00  0.00     0.092 C 
ATOM      7  C   UNL A   1      31.055  24.034  24.135  1.00  0.00     0.092 C 
BRANCH   5   8
ATOM      8  N   UNL A   1      32.894  25.665  24.486  1.00  0.00    -0.321 N 
ATOM      9  C   UNL A   1      34.205  25.206  24.012  1.00  0.00     0.333 C 
ATOM     10  H   UNL A   1      33.093  26.315  25.246  1.00  0.00     0.349 HD
BRANCH   8  11
ATOM     11  C   UNL A   1      32.159  26.567  23.558  1.00  0.00     0.189 C 
ATOM     12  C   UNL A   1      32.952  27.130  22.351  1.00  0.00     0.093 C 
ATOM     13  C   UNL A   1      31.581  27.794  24.325  1.00  0.00     0.100 C 
ATOM     14  C   UNL A   1      33.870  28.281  22.719  1.00  0.00     0.167 C 
ATOM     15  C   UNL A   1      32.716  28.703  24.886  1.00  0.00     0.074 C 
ATOM     16  O   UNL A   1      33.192  29.218  23.542  1.00  0.00    -0.375 OA
ATOM     17  C   UNL A   1      31.991  30.398  26.089  1.00  0.00     0.036 C 
ATOM     18  C   UNL A   1      34.508  28.088  26.089  1.00  0.00     0.036 C 
ATOM     19  C   UNL A   1      33.280  31.324  27.618  1.00  0.00     0.003 C 
ATOM     20  C   UNL A   1      34.843  29.649  27.590  1.00  0.00     0.003 C 
ENDBRANCH   8  11
ENDBRANCH   5   8
ENDBRANCH   3   5
ENDBRANCH   2   3
ENDBRANCH   1   2
BRANCH   1  21
ATOM     21  C   UNL A   1      34.719  20.579  25.021  1.00  0.00     0.275 C 
BRANCH  21  22
ATOM     22  O   UNL A   1      35.741  21.165  25.830  1.00  0.00    -0.458 OA
BRANCH  22  23
ATOM     23  C   UNL A   1      36.983  20.949  25.354  1.00  0.00     0.338 C 
ATOM     24  O   UNL A   1      37.458  19.941  24.869  1.00  0.00    -0.246 OA
BRANCH  23  25
ATOM     25  C   UNL A   1      37.730  22.164  25.537  1.00  0.00     0.060 A 
ATOM     26  C   UNL A   1      38.909  22.368  26.215  1.00  0.00     0.016 A 
ATOM     27  C   UNL A   1      37.157  23.311  25.604  1.00  0.00     0.016 A 
ATOM     28  C   UNL A   1      39.974  23.862  26.888  1.00  0.00     0.010 A 
ATOM     29  C   UNL A   1      38.139  24.223  26.202  1.00  0.00     0.010 A 
ATOM     30  C   UNL A   1      39.871  24.984  26.926  1.00  0.00    -0.014 A 
BRANCH  30  31
ATOM     31  C   UNL A   1      40.694  26.175  27.501  1.00  0.00     0.031 A 
ATOM     32  C   UNL A   1      40.048  27.422  28.102  1.00  0.00     0.074 A 
ATOM     33  C   UNL A   1      42.039  26.201  27.273  1.00  0.00     0.049 A 
ATOM     34  N   UNL A   1      40.609  28.328  28.861  1.00  0.00    -0.248 NA
ATOM     35  C   UNL A   1      38.600  27.668  27.919  1.00  0.00     0.031 C 
ATOM     36  C   UNL A   1      42.815  25.167  26.598  1.00  0.00     0.029 A 
ATOM     37  N   UNL A   1      43.006  27.153  27.500  1.00  0.00    -0.354 N 
ATOM     38  C   UNL A   1      39.565  29.097  29.358  1.00  0.00     0.074 A 
ATOM     39  C   UNL A   1      38.333  28.556  28.857  1.00  0.00     0.031 C 
ATOM     40  C   UNL A   1      44.092  25.501  26.449  1.00  0.00     0.029 A 
ATOM     41  C   UNL A   1      44.244  26.826  26.970  1.00  0.00     0.049 A 
ATOM     42  H   UNL A   1      42.836  27.987  27.994  1.00  0.00     0.167 HD
ATOM     43  C   UNL A   1      39.614  30.235  30.079  1.00  0.00     0.037 A 
ATOM     44  C   UNL A   1      45.393  27.508  26.864  1.00  0.00     0.037 A 
ATOM     45  C   UNL A   1      40.818  31.001  30.180  1.00  0.00     0.049 A 
ATOM     46  C   UNL A   1      45.394  28.847  27.501  1.00  0.00     0.074 A 
ATOM     47  C   UNL A   1      41.001  32.248  30.737  1.00  0.00     0.029 A 
ATOM     48  N   UNL A   1      42.019  30.633  29.581  1.00  0.00    -0.354 N 
ATOM     49  N   UNL A   1      44.402  29.455  28.104  1.00  0.00    -0.248 NA
ATOM     50  C   UNL A   1      46.657  29.579  27.485  1.00  0.00     0.031 C 
ATOM     51  C   UNL A   1      42.286  32.675  30.393  1.00  0.00     0.029 A 
ATOM     52  C   UNL A   1      42.940  31.649  29.722  1.00  0.00     0.049 A 
ATOM     53  H   UNL A   1      42.185  29.777  29.125  1.00  0.00     0.167 HD
ATOM     54  C   UNL A   1      44.928  30.633  28.586  1.00  0.00     0.074 A 
ATOM     55  C   UNL A   1      46.332  30.639  28.209  1.00  0.00     0.031 C 
ATOM     56  C   UNL A   1      44.313  31.613  29.287  1.00  0.00     0.037 A 
BRANCH  43  57
ATOM     57  C   UNL A   1      38.305  30.754  30.597  1.00  0.00     0.057 A 
ATOM     58  C   UNL A   1      37.813  30.349  31.849  1.00  0.00     0.134 A 
ATOM     59  C   UNL A   1      37.482  31.571  29.816  1.00  0.00     0.134 A 
ATOM     60  F   UNL A   1      38.528  29.520  32.625  1.00  0.00    -0.206 F 
ATOM     61  C   UNL A   1      36.546  30.729  32.295  1.00  0.00     0.040 A 
ATOM     62  C   UNL A   1      36.223  31.979  30.263  1.00  0.00     0.040 A 
ATOM     63  F   UNL A   1      37.864  31.953  28.589  1.00  0.00    -0.206 F 
ATOM     64  C   UNL A   1      35.749  31.552  31.502  1.00  0.00     0.006 A 
ENDBRANCH  43  57
BRANCH  44  65
ATOM     65  C   UNL A   1      46.585  26.918  26.190  1.00  0.00     0.057 A 
ATOM     66  C   UNL A   1      46.834  27.144  24.831  1.00  0.00     0.134 A 
ATOM     67  C   UNL A   1      47.534  26.156  26.889  1.00  0.00     0.134 A 
ATOM     68  F   UNL A   1      45.981  27.881  24.105  1.00  0.00    -0.206 F 
ATOM     69  C   UNL A   1      47.950  26.604  24.185  1.00  0.00     0.040 A 
ATOM     70  C   UNL A   1      48.671  25.635  26.262  1.00  0.00     0.040 A 
ATOM     71  F   UNL A   1      47.390  25.931  28.204  1.00  0.00    -0.206 F 
ATOM     72  C   UNL A   1      48.873  25.847  24.901  1.00  0.00     0.006 A 
ENDBRANCH  44  65
BRANCH  56  73
ATOM     73  C   UNL A   1      45.180  32.750  29.701  1.00  0.00     0.057 A 
ATOM     74  C   UNL A   1      45.904  32.734  30.896  1.00  0.00     0.134 A 
ATOM     75  C   UNL A   1      45.306  33.862  28.861  1.00  0.00     0.134 A 
ATOM     76  F   UNL A   1      45.803  31.697  31.742  1.00  0.00    -0.206 F 
ATOM     77  C   UNL A   1      46.700  33.813  31.265  1.00  0.00     0.040 A 
ATOM     78  C   UNL A   1      46.139  34.921  29.195  1.00  0.00     0.040 A 
ATOM     79  F   UNL A   1      44.638  33.922  27.699  1.00  0.00    -0.206 F 
ATOM     80  C   UNL A   1      46.827  34.903  30.406  1.00  0.00     0.006 A 
ENDBRANCH  56  73
ENDBRANCH  30  31
ENDBRANCH  23  25
ENDBRANCH  22  23
ENDBRANCH  21  22
ENDBRANCH   1  21
TORSDOF 13
ENDMDL
MODEL 3
REMARK VINA RESULT:     -11.0      3.206      5.430
REMARK SMILES C[N@@H+]([C@@H]1CCOC2(CCCC2)C1)C(C)(C)C(=O)OCCOC(=O)c1ccc(-c2c3nc(c(-c4c(F)cccc4F)c4ccc([nH]4)c(-c4c(F)cccc4F)c4nc(c(-c5c(F)cccc5F)c5ccc2[nH]5)C=C4)C=C3)cc1
REMARK SMILES IDX 19 1 18 2 16 3 17 4 13 5 14 6 15 7 2 8 1 9 3 11 4 12 12 13
REMARK SMILES IDX 5 14 7 15 6 16 8 17 11 18 9 19 10 20 20 21 21 22 22 23 23 24
REMARK SMILES IDX 24 25 25 26 77 27 26 28 76 29 27 30 28 31 29 32 70 33 30 34
REMARK SMILES IDX 75 35 69 36 71 37 31 38 74 39 68 40 67 41 32 43 58 44 41 45
REMARK SMILES IDX 57 46 42 47 45 48 56 49 72 50 43 51 44 52 55 54 73 55 46 56
REMARK SMILES IDX 33 57 34 58 39 59 35 60 36 61 38 62 40 63 37 64 59 65 60 66
REMARK SMILES IDX 65 67 61 68 62 69 64 70 66 71 63 72 47 73 48 74 53 75 49 76
REMARK SMILES IDX 50 77 52 78 54 79 51 80
REMARK H PARENT 2 10 71 42 45 53
REMARK Flexibility Score: inf
ROOT
ATOM      1  C   UNL A   1      31.952  28.718  24.625  1.00  0.00     0.274 C 
ENDROOT
BRANCH   1   2
ATOM      2  O   UNL A   1      31.231  27.608  25.205  1.00  0.00    -0.457 OA
BRANCH   2   3
ATOM      3  C   UNL A   1      31.961  26.684  25.897  1.00  0.00     0.367 C 
ATOM      4  O   UNL A   1      32.982  26.989  26.503  1.00  0.00    -0.245 OA
BRANCH   3   5
ATOM      5  C   UNL A   1      31.448  25.208  25.687  1.00  0.00     0.190 C 
ATOM      6  C   UNL A   1      29.943  25.297  25.972  1.00  0.00     0.092 C 
ATOM      7  C   UNL A   1      32.107  24.252  26.717  1.00  0.00     0.092 C 
BRANCH   5   8
ATOM      8  N   UNL A   1      31.713  24.645  24.298  1.00  0.00    -0.321 N 
ATOM      9  C   UNL A   1      30.483  24.386  23.539  1.00  0.00     0.333 C 
ATOM     10  H   UNL A   1      32.112  23.726  24.488  1.00  0.00     0.349 HD
BRANCH   8  11
ATOM     11  C   UNL A   1      32.825  25.258  23.522  1.00  0.00     0.189 C 
ATOM     12  C   UNL A   1      32.803  25.057  21.986  1.00  0.00     0.093 C 
ATOM     13  C   UNL A   1      34.202  24.729  24.023  1.00  0.00     0.100 C 
ATOM     14  C   UNL A   1      33.278  23.682  21.552  1.00  0.00     0.167 C 
ATOM     15  C   UNL A   1      34.365  23.204  23.742  1.00  0.00     0.074 C 
ATOM     16  O   UNL A   1      34.470  23.327  22.234  1.00  0.00    -0.375 OA
ATOM     17  C   UNL A   1      36.233  22.345  24.525  1.00  0.00     0.036 C 
ATOM     18  C   UNL A   1      32.925  21.552  24.224  1.00  0.00     0.036 C 
ATOM     19  C   UNL A   1      36.371  20.198  25.001  1.00  0.00     0.003 C 
ATOM     20  C   UNL A   1      34.114  19.828  24.867  1.00  0.00     0.003 C 
ENDBRANCH   8  11
ENDBRANCH   5   8
ENDBRANCH   3   5
ENDBRANCH   2   3
ENDBRANCH   1   2
BRANCH   1  21
ATOM     21  C   UNL A   1      31.405  30.046  25.144  1.00  0.00     0.275 C 
BRANCH  21  22
ATOM     22  O   UNL A   1      31.707  30.179  26.535  1.00  0.00    -0.458 OA
BRANCH  22  23
ATOM     23  C   UNL A   1      32.107  31.420  26.874  1.00  0.00     0.338 C 
ATOM     24  O   UNL A   1      31.492  32.468  26.828  1.00  0.00    -0.246 OA
BRANCH  23  25
ATOM     25  C   UNL A   1      33.475  31.326  27.308  1.00  0.00     0.060 A 
ATOM     26  C   UNL A   1      34.212  30.211  27.630  1.00  0.00     0.016 A 
ATOM     27  C   UNL A   1      34.033  32.251  28.002  1.00  0.00     0.016 A 
ATOM     28  C   UNL A   1      35.903  29.773  28.506  1.00  0.00     0.010 A 
ATOM     29  C   UNL A   1      35.228  31.645  28.601  1.00  0.00     0.010 A 
ATOM     30  C   UNL A   1      36.723  30.346  29.027  1.00  0.00    -0.014 A 
BRANCH  30  31
ATOM     31  C   UNL A   1      38.049  29.999  29.766  1.00  0.00     0.031 A 
ATOM     32  C   UNL A   1      38.990  28.885  29.311  1.00  0.00     0.074 A 
ATOM     33  C   UNL A   1      38.280  30.570  30.984  1.00  0.00     0.049 A 
ATOM     34  N   UNL A   1      40.238  28.698  29.659  1.00  0.00    -0.248 NA
ATOM     35  C   UNL A   1      38.544  27.907  28.294  1.00  0.00     0.031 C 
ATOM     36  C   UNL A   1      37.430  31.554  31.645  1.00  0.00     0.029 A 
ATOM     37  N   UNL A   1      39.246  30.368  31.941  1.00  0.00    -0.354 N 
ATOM     38  C   UNL A   1      40.727  27.733  28.789  1.00  0.00     0.074 A 
ATOM     39  C   UNL A   1      39.678  27.382  27.874  1.00  0.00     0.031 C 
ATOM     40  C   UNL A   1      37.864  31.871  32.859  1.00  0.00     0.029 A 
ATOM     41  C   UNL A   1      39.019  31.065  33.117  1.00  0.00     0.049 A 
ATOM     42  H   UNL A   1      40.027  29.784  31.804  1.00  0.00     0.167 HD
ATOM     43  C   UNL A   1      41.913  27.092  28.809  1.00  0.00     0.037 A 
ATOM     44  C   UNL A   1      39.633  31.056  34.309  1.00  0.00     0.037 A 
ATOM     45  C   UNL A   1      42.752  27.114  29.967  1.00  0.00     0.049 A 
ATOM     46  C   UNL A   1      40.842  30.203  34.390  1.00  0.00     0.074 A 
ATOM     47  C   UNL A   1      43.904  26.398  30.209  1.00  0.00     0.029 A 
ATOM     48  N   UNL A   1      42.437  27.802  31.134  1.00  0.00    -0.354 N 
ATOM     49  N   UNL A   1      41.348  29.428  33.462  1.00  0.00    -0.248 NA
ATOM     50  C   UNL A   1      41.588  30.241  35.645  1.00  0.00     0.031 C 
ATOM     51  C   UNL A   1      44.235  26.579  31.555  1.00  0.00     0.029 A 
ATOM     52  C   UNL A   1      43.356  27.496  32.117  1.00  0.00     0.049 A 
ATOM     53  H   UNL A   1      41.674  28.414  31.243  1.00  0.00     0.167 HD
ATOM     54  C   UNL A   1      42.505  28.912  34.001  1.00  0.00     0.074 A 
ATOM     55  C   UNL A   1      42.625  29.478  35.335  1.00  0.00     0.031 C 
ATOM     56  C   UNL A   1      43.396  28.061  33.442  1.00  0.00     0.037 A 
BRANCH  43  57
ATOM     57  C   UNL A   1      42.211  26.202  27.638  1.00  0.00     0.057 A 
ATOM     58  C   UNL A   1      41.905  24.832  27.677  1.00  0.00     0.134 A 
ATOM     59  C   UNL A   1      42.894  26.677  26.514  1.00  0.00     0.134 A 
ATOM     60  F   UNL A   1      41.301  24.300  28.750  1.00  0.00    -0.206 F 
ATOM     61  C   UNL A   1      42.281  23.969  26.645  1.00  0.00     0.040 A 
ATOM     62  C   UNL A   1      43.252  25.828  25.464  1.00  0.00     0.040 A 
ATOM     63  F   UNL A   1      43.264  27.964  26.432  1.00  0.00    -0.206 F 
ATOM     64  C   UNL A   1      42.952  24.469  25.532  1.00  0.00     0.006 A 
ENDBRANCH  43  57
BRANCH  44  65
ATOM     65  C   UNL A   1      39.139  31.892  35.441  1.00  0.00     0.057 A 
ATOM     66  C   UNL A   1      39.485  33.244  35.548  1.00  0.00     0.134 A 
ATOM     67  C   UNL A   1      38.270  31.381  36.418  1.00  0.00     0.134 A 
ATOM     68  F   UNL A   1      40.295  33.805  34.639  1.00  0.00    -0.206 F 
ATOM     69  C   UNL A   1      39.026  34.042  36.601  1.00  0.00     0.040 A 
ATOM     70  C   UNL A   1      37.778  32.177  37.458  1.00  0.00     0.040 A 
ATOM     71  F   UNL A   1      37.857  30.106  36.361  1.00  0.00    -0.206 F 
ATOM     72  C   UNL A   1      38.169  33.509  37.559  1.00  0.00     0.006 A 
ENDBRANCH  44  65
BRANCH  56  73
ATOM     73  C   UNL A   1      44.579  27.724  34.281  1.00  0.00     0.057 A 
ATOM     74  C   UNL A   1      44.588  26.622  35.140  1.00  0.00     0.134 A 
ATOM     75  C   UNL A   1      45.733  28.509  34.192  1.00  0.00     0.134 A 
ATOM     76  F   UNL A   1      43.499  25.848  35.271  1.00  0.00    -0.206 F 
ATOM     77  C   UNL A   1      45.702  26.333  35.921  1.00  0.00     0.040 A 
ATOM     78  C   UNL A   1      46.869  28.199  34.928  1.00  0.00     0.040 A 
ATOM     79  F   UNL A   1      45.777  29.573  33.376  1.00  0.00    -0.206 F 
ATOM     80  C   UNL A   1      46.849  27.116  35.804  1.00  0.00     0.006 A 
ENDBRANCH  56  73
ENDBRANCH  30  31
ENDBRANCH  23  25
ENDBRANCH  22  23
ENDBRANCH  21  22
ENDBRANCH   1  21
TORSDOF 13
ENDMDL
