MODEL 1
REMARK VINA RESULT:     -12.0      0.000      0.000
REMARK SMILES COc1cc2c(cc1OC)[C@H](C(=O)OCCOC(=O)c1ccc(-c3c4nc(c(-c5c(F)cccc5F)c5ccc([nH]5)c(-c5c(F)cccc5F)c5nc(c(-c6c(F)cccc6F)c6ccc3[nH]6)C=C5)C=C4)cc1)[C@@H](c1ccc(SC)cc1)N(C)C2=O
REMARK SMILES IDX 15 1 14 2 12 3 13 4 11 5 3 6 4 7 8 8 5 9 7 10 6 11 85 12
REMARK SMILES IDX 83 13 86 14 74 15 84 16 2 17 1 18 9 19 10 20 75 21 76 22
REMARK SMILES IDX 82 23 77 24 81 25 78 26 79 27 80 28 16 29 17 30 18 31 19 32
REMARK SMILES IDX 20 33 21 34 73 35 22 36 72 37 23 38 24 39 25 40 66 41 26 42
REMARK SMILES IDX 71 43 65 44 67 45 27 46 70 47 64 48 63 49 28 51 54 52 37 53
REMARK SMILES IDX 53 54 38 55 41 56 52 57 68 58 39 59 40 60 51 62 69 63 42 64
REMARK SMILES IDX 29 65 30 66 35 67 31 68 32 69 34 70 36 71 33 72 55 73 56 74
REMARK SMILES IDX 61 75 57 76 58 77 60 78 62 79 59 80 43 81 44 82 49 83 45 84
REMARK SMILES IDX 46 85 48 86 50 87 47 88
REMARK H PARENT 67 50 41 61
REMARK Flexibility Score: inf
ROOT
ATOM      1  C   UNL A   1      36.305  22.632  23.768  1.00  0.00     0.274 C 
ENDROOT
BRANCH   1   2
ATOM      2  O   UNL A   1      35.683  23.509  24.737  1.00  0.00    -0.462 OA
BRANCH   2   3
ATOM      3  C   UNL A   1      34.595  24.194  24.299  1.00  0.00     0.316 C 
ATOM      4  O   UNL A   1      34.491  24.565  23.135  1.00  0.00    -0.251 OA
BRANCH   3   5
ATOM      5  C   UNL A   1      33.452  24.322  25.328  1.00  0.00     0.157 C 
ATOM      6  C   UNL A   1      32.176  28.343  26.538  1.00  0.00     0.161 A 
ATOM      7  C   UNL A   1      31.276  27.272  26.494  1.00  0.00     0.064 A 
ATOM      8  C   UNL A   1      33.511  28.113  26.216  1.00  0.00     0.161 A 
ATOM      9  C   UNL A   1      31.691  25.979  26.118  1.00  0.00     0.048 A 
ATOM     10  C   UNL A   1      33.909  26.812  25.863  1.00  0.00     0.056 A 
ATOM     11  C   UNL A   1      33.012  25.736  25.728  1.00  0.00    -0.015 A 
ATOM     12  C   UNL A   1      30.713  24.872  26.269  1.00  0.00     0.254 C 
ATOM     13  N   UNL A   1      31.091  23.611  25.823  1.00  0.00    -0.333 N 
ATOM     14  O   UNL A   1      29.640  25.100  26.821  1.00  0.00    -0.269 OA
ATOM     15  C   UNL A   1      32.226  23.452  24.878  1.00  0.00     0.134 C 
ATOM     16  C   UNL A   1      30.150  22.518  26.056  1.00  0.00     0.147 C 
BRANCH   6  17
ATOM     17  O   UNL A   1      31.741  29.607  26.828  1.00  0.00    -0.493 OA
ATOM     18  C   UNL A   1      31.464  30.399  25.674  1.00  0.00     0.278 C 
ENDBRANCH   6  17
BRANCH   8  19
ATOM     19  O   UNL A   1      34.553  28.999  26.185  1.00  0.00    -0.493 OA
ATOM     20  C   UNL A   1      35.205  29.329  27.402  1.00  0.00     0.278 C 
ENDBRANCH   8  19
BRANCH  15  21
ATOM     21  C   UNL A   1      32.531  21.970  24.613  1.00  0.00    -0.024 A 
ATOM     22  C   UNL A   1      32.256  21.371  23.376  1.00  0.00     0.007 A 
ATOM     23  C   UNL A   1      33.133  21.172  25.600  1.00  0.00     0.007 A 
ATOM     24  C   UNL A   1      32.460  20.004  23.168  1.00  0.00     0.015 A 
ATOM     25  C   UNL A   1      33.383  19.809  25.377  1.00  0.00     0.015 A 
ATOM     26  C   UNL A   1      33.025  19.210  24.167  1.00  0.00     0.007 A 
BRANCH  26  27
ATOM     27  S   UNL A   1      33.180  17.459  23.853  1.00  0.00    -0.130 SA
ATOM     28  C   UNL A   1      32.855  16.770  25.495  1.00  0.00     0.091 C 
ENDBRANCH  26  27
ENDBRANCH  15  21
ENDBRANCH   3   5
ENDBRANCH   2   3
ENDBRANCH   1   2
BRANCH   1  29
ATOM     29  C   UNL A   1      36.723  21.318  24.445  1.00  0.00     0.275 C 
BRANCH  29  30
ATOM     30  O   UNL A   1      37.277  21.605  25.744  1.00  0.00    -0.458 OA
BRANCH  30  31
ATOM     31  C   UNL A   1      38.586  21.314  25.934  1.00  0.00     0.338 C 
ATOM     32  O   UNL A   1      39.122  20.233  25.734  1.00  0.00    -0.246 OA
BRANCH  31  33
ATOM     33  C   UNL A   1      39.314  22.513  26.429  1.00  0.00     0.060 A 
ATOM     34  C   UNL A   1      40.420  22.399  27.273  1.00  0.00     0.016 A 
ATOM     35  C   UNL A   1      38.870  23.788  26.067  1.00  0.00     0.016 A 
ATOM     36  C   UNL A   1      41.043  23.540  27.789  1.00  0.00     0.010 A 
ATOM     37  C   UNL A   1      39.557  24.930  26.511  1.00  0.00     0.010 A 
ATOM     38  C   UNL A   1      40.651  24.822  27.385  1.00  0.00    -0.014 A 
BRANCH  38  39
ATOM     39  C   UNL A   1      41.390  26.035  27.851  1.00  0.00     0.031 A 
ATOM     40  C   UNL A   1      40.694  27.084  28.679  1.00  0.00     0.074 A 
ATOM     41  C   UNL A   1      42.685  26.227  27.519  1.00  0.00     0.049 A 
ATOM     42  N   UNL A   1      41.070  28.307  28.959  1.00  0.00    -0.248 NA
ATOM     43  C   UNL A   1      39.394  26.709  29.259  1.00  0.00     0.031 C 
ATOM     44  C   UNL A   1      43.522  25.289  26.768  1.00  0.00     0.029 A 
ATOM     45  N   UNL A   1      43.525  27.287  27.768  1.00  0.00    -0.354 N 
ATOM     46  C   UNL A   1      40.028  28.869  29.688  1.00  0.00     0.074 A 
ATOM     47  C   UNL A   1      39.009  27.848  29.817  1.00  0.00     0.031 C 
ATOM     48  C   UNL A   1      44.756  25.800  26.642  1.00  0.00     0.029 A 
ATOM     49  C   UNL A   1      44.773  27.142  27.210  1.00  0.00     0.049 A 
ATOM     50  H   UNL A   1      43.258  28.075  28.293  1.00  0.00     0.167 HD
ATOM     51  C   UNL A   1      39.928  30.122  30.195  1.00  0.00     0.037 A 
ATOM     52  C   UNL A   1      45.803  28.004  27.110  1.00  0.00     0.037 A 
ATOM     53  C   UNL A   1      40.966  31.120  30.120  1.00  0.00     0.049 A 
ATOM     54  C   UNL A   1      45.660  29.397  27.648  1.00  0.00     0.074 A 
ATOM     55  C   UNL A   1      40.958  32.412  30.619  1.00  0.00     0.029 A 
ATOM     56  N   UNL A   1      42.205  30.929  29.529  1.00  0.00    -0.354 N 
ATOM     57  N   UNL A   1      44.641  29.942  28.266  1.00  0.00    -0.248 NA
ATOM     58  C   UNL A   1      46.801  30.304  27.452  1.00  0.00     0.031 C 
ATOM     59  C   UNL A   1      42.182  33.013  30.304  1.00  0.00     0.029 A 
ATOM     60  C   UNL A   1      42.966  32.082  29.642  1.00  0.00     0.049 A 
ATOM     61  H   UNL A   1      42.501  30.098  29.093  1.00  0.00     0.167 HD
ATOM     62  C   UNL A   1      45.019  31.251  28.539  1.00  0.00     0.074 A 
ATOM     63  C   UNL A   1      46.369  31.412  28.038  1.00  0.00     0.031 C 
ATOM     64  C   UNL A   1      44.308  32.231  29.144  1.00  0.00     0.037 A 
BRANCH  51  65
ATOM     65  C   UNL A   1      38.633  30.506  30.846  1.00  0.00     0.057 A 
ATOM     66  C   UNL A   1      38.405  30.333  32.216  1.00  0.00     0.134 A 
ATOM     67  C   UNL A   1      37.610  31.096  30.090  1.00  0.00     0.134 A 
ATOM     68  F   UNL A   1      39.338  29.763  32.993  1.00  0.00    -0.206 F 
ATOM     69  C   UNL A   1      37.200  30.716  32.808  1.00  0.00     0.040 A 
ATOM     70  C   UNL A   1      36.411  31.503  30.675  1.00  0.00     0.040 A 
ATOM     71  F   UNL A   1      37.767  31.298  28.772  1.00  0.00    -0.206 F 
ATOM     72  C   UNL A   1      36.200  31.309  32.037  1.00  0.00     0.006 A 
ENDBRANCH  51  65
BRANCH  52  73
ATOM     73  C   UNL A   1      47.048  27.588  26.415  1.00  0.00     0.057 A 
ATOM     74  C   UNL A   1      48.144  27.094  27.128  1.00  0.00     0.134 A 
ATOM     75  C   UNL A   1      47.168  27.675  25.022  1.00  0.00     0.134 A 
ATOM     76  F   UNL A   1      48.099  27.016  28.466  1.00  0.00    -0.206 F 
ATOM     77  C   UNL A   1      49.318  26.701  26.483  1.00  0.00     0.040 A 
ATOM     78  C   UNL A   1      48.325  27.261  24.361  1.00  0.00     0.040 A 
ATOM     79  F   UNL A   1      46.153  28.143  24.281  1.00  0.00    -0.206 F 
ATOM     80  C   UNL A   1      49.407  26.776  25.093  1.00  0.00     0.006 A 
ENDBRANCH  52  73
BRANCH  64  81
ATOM     81  C   UNL A   1      44.987  33.554  29.325  1.00  0.00     0.057 A 
ATOM     82  C   UNL A   1      44.877  34.575  28.371  1.00  0.00     0.134 A 
ATOM     83  C   UNL A   1      45.742  33.818  30.474  1.00  0.00     0.134 A 
ATOM     84  F   UNL A   1      44.181  34.377  27.242  1.00  0.00    -0.206 F 
ATOM     85  C   UNL A   1      45.510  35.806  28.548  1.00  0.00     0.040 A 
ATOM     86  C   UNL A   1      46.363  35.051  30.670  1.00  0.00     0.040 A 
ATOM     87  F   UNL A   1      45.882  32.883  31.426  1.00  0.00    -0.206 F 
ATOM     88  C   UNL A   1      46.253  36.048  29.703  1.00  0.00     0.006 A 
ENDBRANCH  64  81
ENDBRANCH  38  39
ENDBRANCH  31  33
ENDBRANCH  30  31
ENDBRANCH  29  30
ENDBRANCH   1  29
TORSDOF 15
ENDMDL
MODEL 2
REMARK VINA RESULT:     -11.9      3.961      8.829
REMARK SMILES COc1cc2c(cc1OC)[C@H](C(=O)OCCOC(=O)c1ccc(-c3c4nc(c(-c5c(F)cccc5F)c5ccc([nH]5)c(-c5c(F)cccc5F)c5nc(c(-c6c(F)cccc6F)c6ccc3[nH]6)C=C5)C=C4)cc1)[C@@H](c1ccc(SC)cc1)N(C)C2=O
REMARK SMILES IDX 15 1 14 2 12 3 13 4 11 5 3 6 4 7 8 8 5 9 7 10 6 11 85 12
REMARK SMILES IDX 83 13 86 14 74 15 84 16 2 17 1 18 9 19 10 20 75 21 76 22
REMARK SMILES IDX 82 23 77 24 81 25 78 26 79 27 80 28 16 29 17 30 18 31 19 32
REMARK SMILES IDX 20 33 21 34 73 35 22 36 72 37 23 38 24 39 25 40 66 41 26 42
REMARK SMILES IDX 71 43 65 44 67 45 27 46 70 47 64 48 63 49 28 51 54 52 37 53
REMARK SMILES IDX 53 54 38 55 41 56 52 57 68 58 39 59 40 60 51 62 69 63 42 64
REMARK SMILES IDX 29 65 30 66 35 67 31 68 32 69 34 70 36 71 33 72 55 73 56 74
REMARK SMILES IDX 61 75 57 76 58 77 60 78 62 79 59 80 43 81 44 82 49 83 45 84
REMARK SMILES IDX 46 85 48 86 50 87 47 88
REMARK H PARENT 67 50 41 61
REMARK Flexibility Score: inf
ROOT
ATOM      1  C   UNL A   1      31.588  28.495  26.546  1.00  0.00     0.274 C 
ENDROOT
BRANCH   1   2
ATOM      2  O   UNL A   1      32.768  27.825  26.042  1.00  0.00    -0.462 OA
BRANCH   2   3
ATOM      3  C   UNL A   1      32.630  26.497  25.791  1.00  0.00     0.316 C 
ATOM      4  O   UNL A   1      32.014  25.757  26.551  1.00  0.00    -0.251 OA
BRANCH   3   5
ATOM      5  C   UNL A   1      33.163  26.038  24.418  1.00  0.00     0.157 C 
ATOM      6  C   UNL A   1      36.028  22.716  24.296  1.00  0.00     0.161 A 
ATOM      7  C   UNL A   1      35.121  22.938  23.253  1.00  0.00     0.064 A 
ATOM      8  C   UNL A   1      36.035  23.590  25.380  1.00  0.00     0.161 A 
ATOM      9  C   UNL A   1      34.211  24.014  23.289  1.00  0.00     0.048 A 
ATOM     10  C   UNL A   1      35.133  24.668  25.386  1.00  0.00     0.056 A 
ATOM     11  C   UNL A   1      34.154  24.867  24.395  1.00  0.00    -0.015 A 
ATOM     12  C   UNL A   1      33.410  24.278  22.067  1.00  0.00     0.254 C 
ATOM     13  N   UNL A   1      32.454  25.285  22.125  1.00  0.00    -0.333 N 
ATOM     14  O   UNL A   1      33.655  23.636  21.048  1.00  0.00    -0.269 OA
ATOM     15  C   UNL A   1      31.966  25.788  23.435  1.00  0.00     0.134 C 
ATOM     16  C   UNL A   1      31.735  25.587  20.890  1.00  0.00     0.147 C 
BRANCH   6  17
ATOM     17  O   UNL A   1      36.850  21.622  24.283  1.00  0.00    -0.493 OA
ATOM     18  C   UNL A   1      36.333  20.507  25.008  1.00  0.00     0.278 C 
ENDBRANCH   6  17
BRANCH   8  19
ATOM     19  O   UNL A   1      36.819  23.565  26.501  1.00  0.00    -0.493 OA
ATOM     20  C   UNL A   1      38.155  24.037  26.409  1.00  0.00     0.278 C 
ENDBRANCH   8  19
BRANCH  15  21
ATOM     21  C   UNL A   1      31.001  26.970  23.256  1.00  0.00    -0.024 A 
ATOM     22  C   UNL A   1      31.427  28.197  22.730  1.00  0.00     0.007 A 
ATOM     23  C   UNL A   1      29.641  26.843  23.586  1.00  0.00     0.007 A 
ATOM     24  C   UNL A   1      30.562  29.292  22.646  1.00  0.00     0.015 A 
ATOM     25  C   UNL A   1      28.760  27.929  23.457  1.00  0.00     0.015 A 
ATOM     26  C   UNL A   1      29.221  29.169  23.010  1.00  0.00     0.007 A 
BRANCH  26  27
ATOM     27  S   UNL A   1      28.202  30.633  22.949  1.00  0.00    -0.130 SA
ATOM     28  C   UNL A   1      28.097  30.923  21.166  1.00  0.00     0.091 C 
ENDBRANCH  26  27
ENDBRANCH  15  21
ENDBRANCH   3   5
ENDBRANCH   2   3
ENDBRANCH   1   2
BRANCH   1  29
ATOM     29  C   UNL A   1      31.555  29.945  26.041  1.00  0.00     0.275 C 
BRANCH  29  30
ATOM     30  O   UNL A   1      32.893  30.480  26.036  1.00  0.00    -0.458 OA
BRANCH  30  31
ATOM     31  C   UNL A   1      33.160  31.479  26.912  1.00  0.00     0.338 C 
ATOM     32  O   UNL A   1      32.471  32.470  27.109  1.00  0.00    -0.246 OA
BRANCH  31  33
ATOM     33  C   UNL A   1      34.436  31.210  27.627  1.00  0.00     0.060 A 
ATOM     34  C   UNL A   1      35.329  32.237  27.940  1.00  0.00     0.016 A 
ATOM     35  C   UNL A   1      34.770  29.898  27.973  1.00  0.00     0.016 A 
ATOM     36  C   UNL A   1      36.557  31.953  28.544  1.00  0.00     0.010 A 
ATOM     37  C   UNL A   1      35.962  29.628  28.665  1.00  0.00     0.010 A 
ATOM     38  C   UNL A   1      36.878  30.654  28.955  1.00  0.00    -0.014 A 
BRANCH  38  39
ATOM     39  C   UNL A   1      38.143  30.371  29.700  1.00  0.00     0.031 A 
ATOM     40  C   UNL A   1      39.207  29.493  29.095  1.00  0.00     0.074 A 
ATOM     41  C   UNL A   1      38.345  30.876  30.936  1.00  0.00     0.049 A 
ATOM     42  N   UNL A   1      40.239  28.924  29.667  1.00  0.00    -0.248 NA
ATOM     43  C   UNL A   1      39.086  29.206  27.657  1.00  0.00     0.031 C 
ATOM     44  C   UNL A   1      37.443  31.784  31.646  1.00  0.00     0.029 A 
ATOM     45  N   UNL A   1      39.381  30.687  31.821  1.00  0.00    -0.354 N 
ATOM     46  C   UNL A   1      40.850  28.161  28.679  1.00  0.00     0.074 A 
ATOM     47  C   UNL A   1      40.079  28.349  27.467  1.00  0.00     0.031 C 
ATOM     48  C   UNL A   1      37.974  32.094  32.839  1.00  0.00     0.029 A 
ATOM     49  C   UNL A   1      39.201  31.330  33.023  1.00  0.00     0.049 A 
ATOM     50  H   UNL A   1      40.175  30.144  31.615  1.00  0.00     0.167 HD
ATOM     51  C   UNL A   1      41.948  27.371  28.775  1.00  0.00     0.037 A 
ATOM     52  C   UNL A   1      39.904  31.274  34.170  1.00  0.00     0.037 A 
ATOM     53  C   UNL A   1      42.752  27.230  29.962  1.00  0.00     0.049 A 
ATOM     54  C   UNL A   1      41.096  30.367  34.267  1.00  0.00     0.074 A 
ATOM     55  C   UNL A   1      43.890  26.462  30.148  1.00  0.00     0.029 A 
ATOM     56  N   UNL A   1      42.517  27.888  31.159  1.00  0.00    -0.354 N 
ATOM     57  N   UNL A   1      41.618  29.591  33.350  1.00  0.00    -0.248 NA
ATOM     58  C   UNL A   1      41.782  30.310  35.566  1.00  0.00     0.031 C 
ATOM     59  C   UNL A   1      44.327  26.634  31.466  1.00  0.00     0.029 A 
ATOM     60  C   UNL A   1      43.482  27.537  32.090  1.00  0.00     0.049 A 
ATOM     61  H   UNL A   1      41.774  28.512  31.325  1.00  0.00     0.167 HD
ATOM     62  C   UNL A   1      42.695  28.958  33.957  1.00  0.00     0.074 A 
ATOM     63  C   UNL A   1      42.765  29.458  35.315  1.00  0.00     0.031 C 
ATOM     64  C   UNL A   1      43.545  28.042  33.436  1.00  0.00     0.037 A 
BRANCH  51  65
ATOM     65  C   UNL A   1      42.326  26.561  27.571  1.00  0.00     0.057 A 
ATOM     66  C   UNL A   1      41.848  25.261  27.365  1.00  0.00     0.134 A 
ATOM     67  C   UNL A   1      43.153  27.110  26.581  1.00  0.00     0.134 A 
ATOM     68  F   UNL A   1      41.063  24.673  28.280  1.00  0.00    -0.206 F 
ATOM     69  C   UNL A   1      42.194  24.529  26.227  1.00  0.00     0.040 A 
ATOM     70  C   UNL A   1      43.487  26.397  25.429  1.00  0.00     0.040 A 
ATOM     71  F   UNL A   1      43.639  28.354  26.713  1.00  0.00    -0.206 F 
ATOM     72  C   UNL A   1      43.012  25.101  25.252  1.00  0.00     0.006 A 
ENDBRANCH  51  65
BRANCH  52  73
ATOM     73  C   UNL A   1      39.459  32.062  35.348  1.00  0.00     0.057 A 
ATOM     74  C   UNL A   1      38.539  31.538  36.262  1.00  0.00     0.134 A 
ATOM     75  C   UNL A   1      39.945  33.354  35.586  1.00  0.00     0.134 A 
ATOM     76  F   UNL A   1      38.017  30.318  36.071  1.00  0.00    -0.206 F 
ATOM     77  C   UNL A   1      38.116  32.272  37.372  1.00  0.00     0.040 A 
ATOM     78  C   UNL A   1      39.550  34.088  36.705  1.00  0.00     0.040 A 
ATOM     79  F   UNL A   1      40.827  33.913  34.745  1.00  0.00    -0.206 F 
ATOM     80  C   UNL A   1      38.628  33.548  37.600  1.00  0.00     0.006 A 
ENDBRANCH  52  73
BRANCH  64  81
ATOM     81  C   UNL A   1      44.641  27.544  34.329  1.00  0.00     0.057 A 
ATOM     82  C   UNL A   1      45.870  28.208  34.427  1.00  0.00     0.134 A 
ATOM     83  C   UNL A   1      44.457  26.399  35.114  1.00  0.00     0.134 A 
ATOM     84  F   UNL A   1      46.113  29.301  33.688  1.00  0.00    -0.206 F 
ATOM     85  C   UNL A   1      46.885  27.740  35.263  1.00  0.00     0.040 A 
ATOM     86  C   UNL A   1      45.457  25.933  35.968  1.00  0.00     0.040 A 
ATOM     87  F   UNL A   1      43.300  25.721  35.068  1.00  0.00    -0.206 F 
ATOM     88  C   UNL A   1      46.677  26.601  36.040  1.00  0.00     0.006 A 
ENDBRANCH  64  81
ENDBRANCH  38  39
ENDBRANCH  31  33
ENDBRANCH  30  31
ENDBRANCH  29  30
ENDBRANCH   1  29
TORSDOF 15
ENDMDL
MODEL 3
REMARK VINA RESULT:     -11.7      0.924      1.341
REMARK SMILES COc1cc2c(cc1OC)[C@H](C(=O)OCCOC(=O)c1ccc(-c3c4nc(c(-c5c(F)cccc5F)c5ccc([nH]5)c(-c5c(F)cccc5F)c5nc(c(-c6c(F)cccc6F)c6ccc3[nH]6)C=C5)C=C4)cc1)[C@@H](c1ccc(SC)cc1)N(C)C2=O
REMARK SMILES IDX 15 1 14 2 12 3 13 4 11 5 3 6 4 7 8 8 5 9 7 10 6 11 85 12
REMARK SMILES IDX 83 13 86 14 74 15 84 16 2 17 1 18 9 19 10 20 75 21 76 22
REMARK SMILES IDX 82 23 77 24 81 25 78 26 79 27 80 28 16 29 17 30 18 31 19 32
REMARK SMILES IDX 20 33 21 34 73 35 22 36 72 37 23 38 24 39 25 40 66 41 26 42
REMARK SMILES IDX 71 43 65 44 67 45 27 46 70 47 64 48 63 49 28 51 54 52 37 53
REMARK SMILES IDX 53 54 38 55 41 56 52 57 68 58 39 59 40 60 51 62 69 63 42 64
REMARK SMILES IDX 29 65 30 66 35 67 31 68 32 69 34 70 36 71 33 72 55 73 56 74
REMARK SMILES IDX 61 75 57 76 58 77 60 78 62 79 59 80 43 81 44 82 49 83 45 84
REMARK SMILES IDX 46 85 48 86 50 87 47 88
REMARK H PARENT 67 50 41 61
REMARK Flexibility Score: inf
ROOT
ATOM      1  C   UNL A   1      35.708  23.128  24.135  1.00  0.00     0.274 C 
ENDROOT
BRANCH   1   2
ATOM      2  O   UNL A   1      35.228  23.317  22.783  1.00  0.00    -0.462 OA
BRANCH   2   3
ATOM      3  C   UNL A   1      33.929  23.695  22.666  1.00  0.00     0.316 C 
ATOM      4  O   UNL A   1      33.358  23.718  21.581  1.00  0.00    -0.251 OA
BRANCH   3   5
ATOM      5  C   UNL A   1      33.200  23.933  24.005  1.00  0.00     0.157 C 
ATOM      6  C   UNL A   1      31.916  28.014  24.985  1.00  0.00     0.161 A 
ATOM      7  C   UNL A   1      31.198  26.896  25.425  1.00  0.00     0.064 A 
ATOM      8  C   UNL A   1      33.079  27.818  24.244  1.00  0.00     0.161 A 
ATOM      9  C   UNL A   1      31.621  25.586  25.120  1.00  0.00     0.048 A 
ATOM     10  C   UNL A   1      33.493  26.503  23.968  1.00  0.00     0.056 A 
ATOM     11  C   UNL A   1      32.748  25.364  24.324  1.00  0.00    -0.015 A 
ATOM     12  C   UNL A   1      30.902  24.463  25.773  1.00  0.00     0.254 C 
ATOM     13  N   UNL A   1      31.260  23.169  25.412  1.00  0.00    -0.333 N 
ATOM     14  O   UNL A   1      30.062  24.717  26.633  1.00  0.00    -0.269 OA
ATOM     15  C   UNL A   1      32.015  22.916  24.158  1.00  0.00     0.134 C 
ATOM     16  C   UNL A   1      30.603  22.077  26.126  1.00  0.00     0.147 C 
BRANCH   6  17
ATOM     17  O   UNL A   1      31.450  29.278  25.222  1.00  0.00    -0.493 OA
ATOM     18  C   UNL A   1      30.574  29.767  24.207  1.00  0.00     0.278 C 
ENDBRANCH   6  17
BRANCH   8  19
ATOM     19  O   UNL A   1      33.926  28.751  23.711  1.00  0.00    -0.493 OA
ATOM     20  C   UNL A   1      34.375  28.580  22.376  1.00  0.00     0.278 C 
ENDBRANCH   8  19
BRANCH  15  21
ATOM     21  C   UNL A   1      32.395  21.434  24.023  1.00  0.00    -0.024 A 
ATOM     22  C   UNL A   1      32.104  20.701  22.865  1.00  0.00     0.007 A 
ATOM     23  C   UNL A   1      33.085  20.773  25.053  1.00  0.00     0.007 A 
ATOM     24  C   UNL A   1      32.381  19.334  22.780  1.00  0.00     0.015 A 
ATOM     25  C   UNL A   1      33.406  19.409  24.950  1.00  0.00     0.015 A 
ATOM     26  C   UNL A   1      33.033  18.674  23.823  1.00  0.00     0.007 A 
BRANCH  26  27
ATOM     27  S   UNL A   1      33.278  16.912  23.672  1.00  0.00    -0.130 SA
ATOM     28  C   UNL A   1      33.603  16.448  25.391  1.00  0.00     0.091 C 
ENDBRANCH  26  27
ENDBRANCH  15  21
ENDBRANCH   3   5
ENDBRANCH   2   3
ENDBRANCH   1   2
BRANCH   1  29
ATOM     29  C   UNL A   1      36.424  21.773  24.251  1.00  0.00     0.275 C 
BRANCH  29  30
ATOM     30  O   UNL A   1      36.904  21.601  25.599  1.00  0.00    -0.458 OA
BRANCH  30  31
ATOM     31  C   UNL A   1      38.205  21.254  25.750  1.00  0.00     0.338 C 
ATOM     32  O   UNL A   1      38.690  20.154  25.528  1.00  0.00    -0.246 OA
BRANCH  31  33
ATOM     33  C   UNL A   1      38.995  22.418  26.235  1.00  0.00     0.060 A 
ATOM     34  C   UNL A   1      40.220  22.250  26.883  1.00  0.00     0.016 A 
ATOM     35  C   UNL A   1      38.493  23.711  26.066  1.00  0.00     0.016 A 
ATOM     36  C   UNL A   1      40.910  23.351  27.398  1.00  0.00     0.010 A 
ATOM     37  C   UNL A   1      39.234  24.822  26.501  1.00  0.00     0.010 A 
ATOM     38  C   UNL A   1      40.453  24.657  27.181  1.00  0.00    -0.014 A 
BRANCH  38  39
ATOM     39  C   UNL A   1      41.249  25.838  27.636  1.00  0.00     0.031 A 
ATOM     40  C   UNL A   1      40.617  26.899  28.498  1.00  0.00     0.074 A 
ATOM     41  C   UNL A   1      42.538  25.987  27.264  1.00  0.00     0.049 A 
ATOM     42  N   UNL A   1      41.045  28.105  28.780  1.00  0.00    -0.248 NA
ATOM     43  C   UNL A   1      39.325  26.563  29.116  1.00  0.00     0.031 C 
ATOM     44  C   UNL A   1      43.317  25.030  26.476  1.00  0.00     0.029 A 
ATOM     45  N   UNL A   1      43.423  27.015  27.497  1.00  0.00    -0.354 N 
ATOM     46  C   UNL A   1      40.049  28.694  29.549  1.00  0.00     0.074 A 
ATOM     47  C   UNL A   1      38.999  27.708  29.700  1.00  0.00     0.031 C 
ATOM     48  C   UNL A   1      44.563  25.499  26.315  1.00  0.00     0.029 A 
ATOM     49  C   UNL A   1      44.647  26.832  26.898  1.00  0.00     0.049 A 
ATOM     50  H   UNL A   1      43.202  27.805  28.040  1.00  0.00     0.167 HD
ATOM     51  C   UNL A   1      40.010  29.943  30.073  1.00  0.00     0.037 A 
ATOM     52  C   UNL A   1      45.703  27.659  26.774  1.00  0.00     0.037 A 
ATOM     53  C   UNL A   1      41.079  30.905  29.977  1.00  0.00     0.049 A 
ATOM     54  C   UNL A   1      45.627  29.050  27.332  1.00  0.00     0.074 A 
ATOM     55  C   UNL A   1      41.134  32.190  30.489  1.00  0.00     0.029 A 
ATOM     56  N   UNL A   1      42.291  30.678  29.343  1.00  0.00    -0.354 N 
ATOM     57  N   UNL A   1      44.649  29.622  27.989  1.00  0.00    -0.248 NA
ATOM     58  C   UNL A   1      46.793  29.917  27.110  1.00  0.00     0.031 C 
ATOM     59  C   UNL A   1      42.367  32.751  30.141  1.00  0.00     0.029 A 
ATOM     60  C   UNL A   1      43.096  31.802  29.444  1.00  0.00     0.049 A 
ATOM     61  H   UNL A   1      42.544  29.842  28.888  1.00  0.00     0.167 HD
ATOM     62  C   UNL A   1      45.081  30.913  28.264  1.00  0.00     0.074 A 
ATOM     63  C   UNL A   1      46.419  31.032  27.722  1.00  0.00     0.031 C 
ATOM     64  C   UNL A   1      44.426  31.909  28.904  1.00  0.00     0.037 A 
BRANCH  51  65
ATOM     65  C   UNL A   1      38.750  30.364  30.770  1.00  0.00     0.057 A 
ATOM     66  C   UNL A   1      37.693  30.982  30.093  1.00  0.00     0.134 A 
ATOM     67  C   UNL A   1      38.580  30.107  32.138  1.00  0.00     0.134 A 
ATOM     68  F   UNL A   1      37.796  31.267  28.786  1.00  0.00    -0.206 F 
ATOM     69  C   UNL A   1      36.518  31.347  30.755  1.00  0.00     0.040 A 
ATOM     70  C   UNL A   1      37.402  30.446  32.805  1.00  0.00     0.040 A 
ATOM     71  F   UNL A   1      39.552  29.509  32.845  1.00  0.00    -0.206 F 
ATOM     72  C   UNL A   1      36.369  31.073  32.114  1.00  0.00     0.006 A 
ENDBRANCH  51  65
BRANCH  52  73
ATOM     73  C   UNL A   1      46.909  27.209  26.034  1.00  0.00     0.057 A 
ATOM     74  C   UNL A   1      47.977  26.595  26.696  1.00  0.00     0.134 A 
ATOM     75  C   UNL A   1      47.020  27.380  24.647  1.00  0.00     0.134 A 
ATOM     76  F   UNL A   1      47.942  26.431  28.026  1.00  0.00    -0.206 F 
ATOM     77  C   UNL A   1      49.114  26.169  26.008  1.00  0.00     0.040 A 
ATOM     78  C   UNL A   1      48.139  26.936  23.943  1.00  0.00     0.040 A 
ATOM     79  F   UNL A   1      46.031  27.964  23.956  1.00  0.00    -0.206 F 
ATOM     80  C   UNL A   1      49.194  26.331  24.625  1.00  0.00     0.006 A 
ENDBRANCH  52  73
BRANCH  64  81
ATOM     81  C   UNL A   1      45.157  33.206  29.077  1.00  0.00     0.057 A 
ATOM     82  C   UNL A   1      45.047  34.244  28.144  1.00  0.00     0.134 A 
ATOM     83  C   UNL A   1      45.964  33.426  30.201  1.00  0.00     0.134 A 
ATOM     84  F   UNL A   1      44.302  34.089  27.039  1.00  0.00    -0.206 F 
ATOM     85  C   UNL A   1      45.729  35.450  28.314  1.00  0.00     0.040 A 
ATOM     86  C   UNL A   1      46.634  34.634  30.391  1.00  0.00     0.040 A 
ATOM     87  F   UNL A   1      46.106  32.471  31.133  1.00  0.00    -0.206 F 
ATOM     88  C   UNL A   1      46.522  35.649  29.443  1.00  0.00     0.006 A 
ENDBRANCH  64  81
ENDBRANCH  38  39
ENDBRANCH  31  33
ENDBRANCH  30  31
ENDBRANCH  29  30
ENDBRANCH   1  29
TORSDOF 15
ENDMDL
