MODEL 1
REMARK VINA RESULT:     -12.2      0.000      0.000
REMARK SMILES CC(=O)Nc1ccc(/C=N/c2ccccc2C(=O)OCCOC(=O)c2ccc(-c3c4nc(c(-c5c(F)cccc5F)c5ccc([nH]5)c(-c5c(F)cccc5F)c5nc(c(-c6c(F)cccc6F)c6ccc3[nH]6)C=C5)C=C4)cc2)cc1
REMARK SMILES IDX 20 1 19 2 17 3 18 4 16 5 11 6 12 7 13 8 15 9 14 10 10 11
REMARK SMILES IDX 9 12 8 13 5 14 6 15 80 16 7 17 79 18 4 19 1 20 2 21 3 22
REMARK SMILES IDX 21 24 22 25 23 26 24 27 25 28 26 29 78 30 27 31 77 32 28 33
REMARK SMILES IDX 29 34 30 35 71 36 31 37 76 38 70 39 72 40 32 41 75 42 69 43
REMARK SMILES IDX 68 44 33 46 59 47 42 48 58 49 43 50 46 51 57 52 73 53 44 54
REMARK SMILES IDX 45 55 56 57 74 58 47 59 34 60 35 61 40 62 36 63 37 64 39 65
REMARK SMILES IDX 41 66 38 67 60 68 61 69 66 70 62 71 63 72 65 73 67 74 64 75
REMARK SMILES IDX 48 76 49 77 54 78 50 79 51 80 53 81 55 82 52 83
REMARK H PARENT 4 23 72 45 46 56
REMARK Flexibility Score: inf
ROOT
ATOM      1  C   UNL A   1      33.171  28.824  25.055  1.00  0.00     0.275 C 
ENDROOT
BRANCH   1   2
ATOM      2  O   UNL A   1      33.211  27.624  25.853  1.00  0.00    -0.458 OA
BRANCH   2   3
ATOM      3  C   UNL A   1      33.279  26.445  25.189  1.00  0.00     0.340 C 
ATOM      4  O   UNL A   1      34.039  26.180  24.272  1.00  0.00    -0.246 OA
BRANCH   3   5
ATOM      5  C   UNL A   1      32.323  25.447  25.730  1.00  0.00     0.085 A 
ATOM      6  C   UNL A   1      30.925  25.570  25.608  1.00  0.00     0.077 A 
ATOM      7  C   UNL A   1      30.118  24.554  26.139  1.00  0.00     0.029 A 
ATOM      8  C   UNL A   1      30.673  23.433  26.761  1.00  0.00     0.002 A 
ATOM      9  C   UNL A   1      32.875  24.297  26.323  1.00  0.00     0.018 A 
ATOM     10  C   UNL A   1      32.054  23.304  26.853  1.00  0.00     0.001 A 
BRANCH   6  11
ATOM     11  N   UNL A   1      30.256  26.662  25.024  1.00  0.00    -0.255 NA
ATOM     12  C   UNL A   1      30.295  26.777  23.736  1.00  0.00     0.119 C 
BRANCH  12  13
ATOM     13  C   UNL A   1      29.740  27.957  23.060  1.00  0.00    -0.007 A 
ATOM     14  C   UNL A   1      28.634  30.206  21.829  1.00  0.00     0.041 A 
ATOM     15  C   UNL A   1      29.989  29.898  21.651  1.00  0.00     0.027 A 
ATOM     16  C   UNL A   1      27.824  29.327  22.551  1.00  0.00     0.027 A 
ATOM     17  C   UNL A   1      30.546  28.779  22.274  1.00  0.00     0.012 A 
ATOM     18  C   UNL A   1      28.375  28.210  23.182  1.00  0.00     0.012 A 
BRANCH  14  19
ATOM     19  N   UNL A   1      28.162  31.385  21.236  1.00  0.00    -0.326 N 
ATOM     20  C   UNL A   1      28.787  33.039  22.994  1.00  0.00     0.114 C 
ATOM     21  C   UNL A   1      28.093  32.663  21.712  1.00  0.00     0.221 C 
ATOM     22  O   UNL A   1      27.507  33.518  21.043  1.00  0.00    -0.275 OA
ATOM     23  H   UNL A   1      27.822  31.272  20.318  1.00  0.00     0.169 HD
ENDBRANCH  14  19
ENDBRANCH  12  13
ENDBRANCH   6  11
ENDBRANCH   3   5
ENDBRANCH   2   3
ENDBRANCH   1   2
BRANCH   1  24
ATOM     24  C   UNL A   1      32.082  29.765  25.554  1.00  0.00     0.275 C 
BRANCH  24  25
ATOM     25  O   UNL A   1      32.351  30.094  26.925  1.00  0.00    -0.458 OA
BRANCH  25  26
ATOM     26  C   UNL A   1      32.927  31.294  27.131  1.00  0.00     0.338 C 
ATOM     27  O   UNL A   1      32.435  32.406  26.997  1.00  0.00    -0.246 OA
BRANCH  26  28
ATOM     28  C   UNL A   1      34.284  31.076  27.635  1.00  0.00     0.060 A 
ATOM     29  C   UNL A   1      34.667  29.781  27.977  1.00  0.00     0.016 A 
ATOM     30  C   UNL A   1      35.130  32.156  27.875  1.00  0.00     0.016 A 
ATOM     31  C   UNL A   1      35.875  29.558  28.626  1.00  0.00     0.010 A 
ATOM     32  C   UNL A   1      36.373  31.924  28.467  1.00  0.00     0.010 A 
ATOM     33  C   UNL A   1      36.742  30.628  28.881  1.00  0.00    -0.014 A 
BRANCH  33  34
ATOM     34  C   UNL A   1      37.994  30.416  29.653  1.00  0.00     0.031 A 
ATOM     35  C   UNL A   1      39.109  29.610  29.043  1.00  0.00     0.074 A 
ATOM     36  C   UNL A   1      38.145  30.941  30.884  1.00  0.00     0.049 A 
ATOM     37  N   UNL A   1      40.180  29.116  29.608  1.00  0.00    -0.248 NA
ATOM     38  C   UNL A   1      38.993  29.306  27.606  1.00  0.00     0.031 C 
ATOM     39  C   UNL A   1      37.171  31.792  31.570  1.00  0.00     0.029 A 
ATOM     40  N   UNL A   1      39.179  30.831  31.778  1.00  0.00    -0.354 N 
ATOM     41  C   UNL A   1      40.827  28.387  28.617  1.00  0.00     0.074 A 
ATOM     42  C   UNL A   1      40.036  28.512  27.412  1.00  0.00     0.031 C 
ATOM     43  C   UNL A   1      37.663  32.142  32.770  1.00  0.00     0.029 A 
ATOM     44  C   UNL A   1      38.946  31.477  32.969  1.00  0.00     0.049 A 
ATOM     45  H   UNL A   1      40.009  30.336  31.587  1.00  0.00     0.167 HD
ATOM     46  C   UNL A   1      41.975  27.674  28.711  1.00  0.00     0.037 A 
ATOM     47  C   UNL A   1      39.663  31.492  34.109  1.00  0.00     0.037 A 
ATOM     48  C   UNL A   1      42.793  27.612  29.893  1.00  0.00     0.049 A 
ATOM     49  C   UNL A   1      40.929  30.688  34.190  1.00  0.00     0.074 A 
ATOM     50  C   UNL A   1      43.981  26.929  30.086  1.00  0.00     0.029 A 
ATOM     51  N   UNL A   1      42.516  28.279  31.077  1.00  0.00    -0.354 N 
ATOM     52  N   UNL A   1      41.496  29.945  33.272  1.00  0.00    -0.248 NA
ATOM     53  C   UNL A   1      41.644  30.706  35.474  1.00  0.00     0.031 C 
ATOM     54  C   UNL A   1      44.414  27.166  31.395  1.00  0.00     0.029 A 
ATOM     55  C   UNL A   1      43.511  28.023  32.004  1.00  0.00     0.049 A 
ATOM     56  H   UNL A   1      41.730  28.850  31.233  1.00  0.00     0.167 HD
ATOM     57  C   UNL A   1      42.636  29.415  33.861  1.00  0.00     0.074 A 
ATOM     58  C   UNL A   1      42.692  29.940  35.210  1.00  0.00     0.031 C 
ATOM     59  C   UNL A   1      43.551  28.564  33.337  1.00  0.00     0.037 A 
BRANCH  46  60
ATOM     60  C   UNL A   1      42.398  26.876  27.515  1.00  0.00     0.057 A 
ATOM     61  C   UNL A   1      41.994  25.550  27.321  1.00  0.00     0.134 A 
ATOM     62  C   UNL A   1      43.186  27.467  26.517  1.00  0.00     0.134 A 
ATOM     63  F   UNL A   1      41.253  24.923  28.246  1.00  0.00    -0.206 F 
ATOM     64  C   UNL A   1      42.370  24.834  26.182  1.00  0.00     0.040 A 
ATOM     65  C   UNL A   1      43.550  26.768  25.365  1.00  0.00     0.040 A 
ATOM     66  F   UNL A   1      43.603  28.736  26.641  1.00  0.00    -0.206 F 
ATOM     67  C   UNL A   1      43.144  25.447  25.197  1.00  0.00     0.006 A 
ENDBRANCH  46  60
BRANCH  47  68
ATOM     68  C   UNL A   1      39.174  32.256  35.284  1.00  0.00     0.057 A 
ATOM     69  C   UNL A   1      39.508  33.603  35.461  1.00  0.00     0.134 A 
ATOM     70  C   UNL A   1      38.370  31.656  36.262  1.00  0.00     0.134 A 
ATOM     71  F   UNL A   1      40.297  34.226  34.573  1.00  0.00    -0.206 F 
ATOM     72  C   UNL A   1      39.071  34.325  36.574  1.00  0.00     0.040 A 
ATOM     73  C   UNL A   1      37.903  32.373  37.365  1.00  0.00     0.040 A 
ATOM     74  F   UNL A   1      38.014  30.368  36.149  1.00  0.00    -0.206 F 
ATOM     75  C   UNL A   1      38.260  33.709  37.527  1.00  0.00     0.006 A 
ENDBRANCH  47  68
BRANCH  59  76
ATOM     76  C   UNL A   1      44.702  28.179  34.215  1.00  0.00     0.057 A 
ATOM     77  C   UNL A   1      45.872  28.946  34.269  1.00  0.00     0.134 A 
ATOM     78  C   UNL A   1      44.626  27.046  35.034  1.00  0.00     0.134 A 
ATOM     79  F   UNL A   1      46.009  30.035  33.498  1.00  0.00    -0.206 F 
ATOM     80  C   UNL A   1      46.937  28.588  35.098  1.00  0.00     0.040 A 
ATOM     81  C   UNL A   1      45.675  26.690  35.880  1.00  0.00     0.040 A 
ATOM     82  F   UNL A   1      43.528  26.275  35.030  1.00  0.00    -0.206 F 
ATOM     83  C   UNL A   1      46.837  27.460  35.910  1.00  0.00     0.006 A 
ENDBRANCH  59  76
ENDBRANCH  33  34
ENDBRANCH  26  28
ENDBRANCH  25  26
ENDBRANCH  24  25
ENDBRANCH   1  24
TORSDOF 14
ENDMDL
MODEL 2
REMARK VINA RESULT:     -12.2      4.597      9.674
REMARK SMILES CC(=O)Nc1ccc(/C=N/c2ccccc2C(=O)OCCOC(=O)c2ccc(-c3c4nc(c(-c5c(F)cccc5F)c5ccc([nH]5)c(-c5c(F)cccc5F)c5nc(c(-c6c(F)cccc6F)c6ccc3[nH]6)C=C5)C=C4)cc2)cc1
REMARK SMILES IDX 20 1 19 2 17 3 18 4 16 5 11 6 12 7 13 8 15 9 14 10 10 11
REMARK SMILES IDX 9 12 8 13 5 14 6 15 80 16 7 17 79 18 4 19 1 20 2 21 3 22
REMARK SMILES IDX 21 24 22 25 23 26 24 27 25 28 26 29 78 30 27 31 77 32 28 33
REMARK SMILES IDX 29 34 30 35 71 36 31 37 76 38 70 39 72 40 32 41 75 42 69 43
REMARK SMILES IDX 68 44 33 46 59 47 42 48 58 49 43 50 46 51 57 52 73 53 44 54
REMARK SMILES IDX 45 55 56 57 74 58 47 59 34 60 35 61 40 62 36 63 37 64 39 65
REMARK SMILES IDX 41 66 38 67 60 68 61 69 66 70 62 71 63 72 65 73 67 74 64 75
REMARK SMILES IDX 48 76 49 77 54 78 50 79 51 80 53 81 55 82 52 83
REMARK H PARENT 4 23 72 45 46 56
REMARK Flexibility Score: inf
ROOT
ATOM      1  C   UNL A   1      35.360  22.624  26.187  1.00  0.00     0.275 C 
ENDROOT
BRANCH   1   2
ATOM      2  O   UNL A   1      35.289  23.658  25.184  1.00  0.00    -0.458 OA
BRANCH   2   3
ATOM      3  C   UNL A   1      34.189  24.448  25.192  1.00  0.00     0.340 C 
ATOM      4  O   UNL A   1      33.623  24.884  26.182  1.00  0.00    -0.246 OA
BRANCH   3   5
ATOM      5  C   UNL A   1      33.734  24.779  23.818  1.00  0.00     0.085 A 
ATOM      6  C   UNL A   1      33.375  23.805  22.866  1.00  0.00     0.077 A 
ATOM      7  C   UNL A   1      32.939  24.235  21.605  1.00  0.00     0.029 A 
ATOM      8  C   UNL A   1      32.841  25.593  21.292  1.00  0.00     0.002 A 
ATOM      9  C   UNL A   1      33.597  26.144  23.508  1.00  0.00     0.018 A 
ATOM     10  C   UNL A   1      33.170  26.549  22.245  1.00  0.00     0.001 A 
BRANCH   6  11
ATOM     11  N   UNL A   1      33.455  22.413  23.063  1.00  0.00    -0.255 NA
ATOM     12  C   UNL A   1      32.446  21.821  23.614  1.00  0.00     0.119 C 
BRANCH  12  13
ATOM     13  C   UNL A   1      32.502  20.399  23.977  1.00  0.00    -0.007 A 
ATOM     14  C   UNL A   1      32.576  17.712  24.734  1.00  0.00     0.041 A 
ATOM     15  C   UNL A   1      32.524  18.064  23.379  1.00  0.00     0.027 A 
ATOM     16  C   UNL A   1      32.684  18.720  25.695  1.00  0.00     0.027 A 
ATOM     17  C   UNL A   1      32.477  19.406  22.999  1.00  0.00     0.012 A 
ATOM     18  C   UNL A   1      32.631  20.064  25.324  1.00  0.00     0.012 A 
BRANCH  14  19
ATOM     19  N   UNL A   1      32.544  16.346  25.043  1.00  0.00    -0.326 N 
ATOM     20  C   UNL A   1      34.978  15.916  25.377  1.00  0.00     0.114 C 
ATOM     21  C   UNL A   1      33.554  15.448  25.243  1.00  0.00     0.221 C 
ATOM     22  O   UNL A   1      33.272  14.254  25.374  1.00  0.00    -0.275 OA
ATOM     23  H   UNL A   1      31.639  15.968  25.131  1.00  0.00     0.169 HD
ENDBRANCH  14  19
ENDBRANCH  12  13
ENDBRANCH   6  11
ENDBRANCH   3   5
ENDBRANCH   2   3
ENDBRANCH   1   2
BRANCH   1  24
ATOM     24  C   UNL A   1      36.069  21.393  25.639  1.00  0.00     0.275 C 
BRANCH  24  25
ATOM     25  O   UNL A   1      37.323  21.798  25.071  1.00  0.00    -0.458 OA
BRANCH  25  26
ATOM     26  C   UNL A   1      38.421  21.370  25.724  1.00  0.00     0.338 C 
ATOM     27  O   UNL A   1      38.888  20.241  25.766  1.00  0.00    -0.246 OA
BRANCH  26  28
ATOM     28  C   UNL A   1      39.060  22.523  26.361  1.00  0.00     0.060 A 
ATOM     29  C   UNL A   1      38.594  23.799  26.048  1.00  0.00     0.016 A 
ATOM     30  C   UNL A   1      40.181  22.352  27.169  1.00  0.00     0.016 A 
ATOM     31  C   UNL A   1      39.286  24.921  26.486  1.00  0.00     0.010 A 
ATOM     32  C   UNL A   1      40.838  23.480  27.663  1.00  0.00     0.010 A 
ATOM     33  C   UNL A   1      40.419  24.775  27.297  1.00  0.00    -0.014 A 
BRANCH  33  34
ATOM     34  C   UNL A   1      41.218  25.963  27.697  1.00  0.00     0.031 A 
ATOM     35  C   UNL A   1      40.585  27.020  28.560  1.00  0.00     0.074 A 
ATOM     36  C   UNL A   1      42.498  26.099  27.303  1.00  0.00     0.049 A 
ATOM     37  N   UNL A   1      41.009  28.226  28.840  1.00  0.00    -0.248 NA
ATOM     38  C   UNL A   1      39.292  26.680  29.179  1.00  0.00     0.031 C 
ATOM     39  C   UNL A   1      43.254  25.123  26.516  1.00  0.00     0.029 A 
ATOM     40  N   UNL A   1      43.390  27.121  27.511  1.00  0.00    -0.354 N 
ATOM     41  C   UNL A   1      40.008  28.810  29.606  1.00  0.00     0.074 A 
ATOM     42  C   UNL A   1      38.959  27.824  29.759  1.00  0.00     0.031 C 
ATOM     43  C   UNL A   1      44.501  25.585  26.324  1.00  0.00     0.029 A 
ATOM     44  C   UNL A   1      44.606  26.919  26.904  1.00  0.00     0.049 A 
ATOM     45  H   UNL A   1      43.179  27.922  28.044  1.00  0.00     0.167 HD
ATOM     46  C   UNL A   1      39.969  30.059  30.128  1.00  0.00     0.037 A 
ATOM     47  C   UNL A   1      45.670  27.737  26.787  1.00  0.00     0.037 A 
ATOM     48  C   UNL A   1      41.045  31.009  30.032  1.00  0.00     0.049 A 
ATOM     49  C   UNL A   1      45.599  29.120  27.369  1.00  0.00     0.074 A 
ATOM     50  C   UNL A   1      41.109  32.295  30.539  1.00  0.00     0.029 A 
ATOM     51  N   UNL A   1      42.257  30.763  29.405  1.00  0.00    -0.354 N 
ATOM     52  N   UNL A   1      44.621  29.690  28.030  1.00  0.00    -0.248 NA
ATOM     53  C   UNL A   1      46.771  29.984  27.169  1.00  0.00     0.031 C 
ATOM     54  C   UNL A   1      42.354  32.837  30.200  1.00  0.00     0.029 A 
ATOM     55  C   UNL A   1      43.075  31.875  29.511  1.00  0.00     0.049 A 
ATOM     56  H   UNL A   1      42.499  29.923  28.953  1.00  0.00     0.167 HD
ATOM     57  C   UNL A   1      45.061  30.971  28.333  1.00  0.00     0.074 A 
ATOM     58  C   UNL A   1      46.404  31.088  27.802  1.00  0.00     0.031 C 
ATOM     59  C   UNL A   1      44.411  31.965  28.984  1.00  0.00     0.037 A 
BRANCH  46  60
ATOM     60  C   UNL A   1      38.709  30.484  30.821  1.00  0.00     0.057 A 
ATOM     61  C   UNL A   1      38.518  30.309  32.196  1.00  0.00     0.134 A 
ATOM     62  C   UNL A   1      37.690  31.124  30.101  1.00  0.00     0.134 A 
ATOM     63  F   UNL A   1      39.448  29.690  32.939  1.00  0.00    -0.206 F 
ATOM     64  C   UNL A   1      37.351  30.743  32.830  1.00  0.00     0.040 A 
ATOM     65  C   UNL A   1      36.530  31.581  30.727  1.00  0.00     0.040 A 
ATOM     66  F   UNL A   1      37.814  31.325  28.780  1.00  0.00    -0.206 F 
ATOM     67  C   UNL A   1      36.357  31.388  32.095  1.00  0.00     0.006 A 
ENDBRANCH  46  60
BRANCH  47  68
ATOM     68  C   UNL A   1      46.875  27.288  26.045  1.00  0.00     0.057 A 
ATOM     69  C   UNL A   1      47.933  26.652  26.702  1.00  0.00     0.134 A 
ATOM     70  C   UNL A   1      47.000  27.493  24.665  1.00  0.00     0.134 A 
ATOM     71  F   UNL A   1      47.883  26.452  28.027  1.00  0.00    -0.206 F 
ATOM     72  C   UNL A   1      49.080  26.245  26.016  1.00  0.00     0.040 A 
ATOM     73  C   UNL A   1      48.129  27.067  23.963  1.00  0.00     0.040 A 
ATOM     74  F   UNL A   1      46.020  28.097  23.977  1.00  0.00    -0.206 F 
ATOM     75  C   UNL A   1      49.176  26.448  24.641  1.00  0.00     0.006 A 
ENDBRANCH  47  68
BRANCH  59  76
ATOM     76  C   UNL A   1      45.157  33.248  29.185  1.00  0.00     0.057 A 
ATOM     77  C   UNL A   1      45.982  33.451  30.298  1.00  0.00     0.134 A 
ATOM     78  C   UNL A   1      45.072  34.278  28.240  1.00  0.00     0.134 A 
ATOM     79  F   UNL A   1      46.093  32.506  31.244  1.00  0.00    -0.206 F 
ATOM     80  C   UNL A   1      46.684  34.645  30.474  1.00  0.00     0.040 A 
ATOM     81  C   UNL A   1      45.785  35.466  28.395  1.00  0.00     0.040 A 
ATOM     82  F   UNL A   1      44.304  34.139  27.149  1.00  0.00    -0.206 F 
ATOM     83  C   UNL A   1      46.590  35.654  29.518  1.00  0.00     0.006 A 
ENDBRANCH  59  76
ENDBRANCH  33  34
ENDBRANCH  26  28
ENDBRANCH  25  26
ENDBRANCH  24  25
ENDBRANCH   1  24
TORSDOF 14
ENDMDL
MODEL 3
REMARK VINA RESULT:     -12.0      3.458      6.985
REMARK SMILES CC(=O)Nc1ccc(/C=N/c2ccccc2C(=O)OCCOC(=O)c2ccc(-c3c4nc(c(-c5c(F)cccc5F)c5ccc([nH]5)c(-c5c(F)cccc5F)c5nc(c(-c6c(F)cccc6F)c6ccc3[nH]6)C=C5)C=C4)cc2)cc1
REMARK SMILES IDX 20 1 19 2 17 3 18 4 16 5 11 6 12 7 13 8 15 9 14 10 10 11
REMARK SMILES IDX 9 12 8 13 5 14 6 15 80 16 7 17 79 18 4 19 1 20 2 21 3 22
REMARK SMILES IDX 21 24 22 25 23 26 24 27 25 28 26 29 78 30 27 31 77 32 28 33
REMARK SMILES IDX 29 34 30 35 71 36 31 37 76 38 70 39 72 40 32 41 75 42 69 43
REMARK SMILES IDX 68 44 33 46 59 47 42 48 58 49 43 50 46 51 57 52 73 53 44 54
REMARK SMILES IDX 45 55 56 57 74 58 47 59 34 60 35 61 40 62 36 63 37 64 39 65
REMARK SMILES IDX 41 66 38 67 60 68 61 69 66 70 62 71 63 72 65 73 67 74 64 75
REMARK SMILES IDX 48 76 49 77 54 78 50 79 51 80 53 81 55 82 52 83
REMARK H PARENT 4 23 72 45 46 56
REMARK Flexibility Score: inf
ROOT
ATOM      1  C   UNL A   1      33.948  28.178  25.396  1.00  0.00     0.275 C 
ENDROOT
BRANCH   1   2
ATOM      2  O   UNL A   1      34.132  26.800  25.775  1.00  0.00    -0.458 OA
BRANCH   2   3
ATOM      3  C   UNL A   1      33.639  25.860  24.933  1.00  0.00     0.340 C 
ATOM      4  O   UNL A   1      34.036  25.627  23.803  1.00  0.00    -0.246 OA
BRANCH   3   5
ATOM      5  C   UNL A   1      32.542  25.078  25.556  1.00  0.00     0.085 A 
ATOM      6  C   UNL A   1      31.191  25.476  25.522  1.00  0.00     0.077 A 
ATOM      7  C   UNL A   1      30.236  24.646  26.126  1.00  0.00     0.029 A 
ATOM      8  C   UNL A   1      30.598  23.442  26.735  1.00  0.00     0.002 A 
ATOM      9  C   UNL A   1      32.894  23.846  26.137  1.00  0.00     0.018 A 
ATOM     10  C   UNL A   1      31.928  23.040  26.740  1.00  0.00     0.001 A 
BRANCH   6  11
ATOM     11  N   UNL A   1      30.716  26.675  24.959  1.00  0.00    -0.255 NA
ATOM     12  C   UNL A   1      29.858  26.592  23.994  1.00  0.00     0.119 C 
BRANCH  12  13
ATOM     13  C   UNL A   1      29.415  27.787  23.263  1.00  0.00    -0.007 A 
ATOM     14  C   UNL A   1      28.517  30.068  21.925  1.00  0.00     0.041 A 
ATOM     15  C   UNL A   1      29.863  29.686  21.848  1.00  0.00     0.027 A 
ATOM     16  C   UNL A   1      27.614  29.245  22.602  1.00  0.00     0.027 A 
ATOM     17  C   UNL A   1      30.316  28.552  22.524  1.00  0.00     0.012 A 
ATOM     18  C   UNL A   1      28.060  28.113  23.286  1.00  0.00     0.012 A 
BRANCH  14  19
ATOM     19  N   UNL A   1      28.151  31.258  21.284  1.00  0.00    -0.326 N 
ATOM     20  C   UNL A   1      28.763  32.912  23.048  1.00  0.00     0.114 C 
ATOM     21  C   UNL A   1      28.128  32.548  21.733  1.00  0.00     0.221 C 
ATOM     22  O   UNL A   1      27.633  33.420  21.013  1.00  0.00    -0.275 OA
ATOM     23  H   UNL A   1      27.860  31.146  20.349  1.00  0.00     0.169 HD
ENDBRANCH  14  19
ENDBRANCH  12  13
ENDBRANCH   6  11
ENDBRANCH   3   5
ENDBRANCH   2   3
ENDBRANCH   1   2
BRANCH   1  24
ATOM     24  C   UNL A   1      33.365  28.980  26.553  1.00  0.00     0.275 C 
BRANCH  24  25
ATOM     25  O   UNL A   1      34.271  28.911  27.664  1.00  0.00    -0.458 OA
BRANCH  25  26
ATOM     26  C   UNL A   1      34.789  30.089  28.063  1.00  0.00     0.338 C 
ATOM     27  O   UNL A   1      34.212  31.153  28.236  1.00  0.00    -0.246 OA
BRANCH  26  28
ATOM     28  C   UNL A   1      36.212  29.896  28.347  1.00  0.00     0.060 A 
ATOM     29  C   UNL A   1      37.127  30.074  27.311  1.00  0.00     0.016 A 
ATOM     30  C   UNL A   1      36.627  29.433  29.593  1.00  0.00     0.016 A 
ATOM     31  C   UNL A   1      38.460  29.726  27.490  1.00  0.00     0.010 A 
ATOM     32  C   UNL A   1      37.979  29.146  29.793  1.00  0.00     0.010 A 
ATOM     33  C   UNL A   1      38.902  29.254  28.733  1.00  0.00    -0.014 A 
BRANCH  33  34
ATOM     34  C   UNL A   1      40.304  28.795  28.911  1.00  0.00     0.031 A 
ATOM     35  C   UNL A   1      41.328  29.748  29.466  1.00  0.00     0.074 A 
ATOM     36  C   UNL A   1      40.666  27.539  28.587  1.00  0.00     0.049 A 
ATOM     37  N   UNL A   1      42.631  29.641  29.495  1.00  0.00    -0.248 NA
ATOM     38  C   UNL A   1      40.815  30.998  30.052  1.00  0.00     0.031 C 
ATOM     39  C   UNL A   1      39.765  26.495  28.097  1.00  0.00     0.029 A 
ATOM     40  N   UNL A   1      41.895  26.930  28.622  1.00  0.00    -0.354 N 
ATOM     41  C   UNL A   1      43.096  30.833  30.037  1.00  0.00     0.074 A 
ATOM     42  C   UNL A   1      41.936  31.646  30.333  1.00  0.00     0.031 C 
ATOM     43  C   UNL A   1      40.469  25.368  27.894  1.00  0.00     0.029 A 
ATOM     44  C   UNL A   1      41.878  25.634  28.164  1.00  0.00     0.049 A 
ATOM     45  H   UNL A   1      42.711  27.377  28.944  1.00  0.00     0.167 HD
ATOM     46  C   UNL A   1      44.376  31.213  30.260  1.00  0.00     0.037 A 
ATOM     47  C   UNL A   1      42.889  24.773  27.940  1.00  0.00     0.037 A 
ATOM     48  C   UNL A   1      45.520  30.372  30.028  1.00  0.00     0.049 A 
ATOM     49  C   UNL A   1      44.301  25.221  28.189  1.00  0.00     0.074 A 
ATOM     50  C   UNL A   1      46.859  30.658  30.235  1.00  0.00     0.029 A 
ATOM     51  N   UNL A   1      45.456  29.068  29.560  1.00  0.00    -0.354 N 
ATOM     52  N   UNL A   1      44.736  26.375  28.633  1.00  0.00    -0.248 NA
ATOM     53  C   UNL A   1      45.366  24.255  27.883  1.00  0.00     0.031 C 
ATOM     54  C   UNL A   1      47.607  29.533  29.871  1.00  0.00     0.029 A 
ATOM     55  C   UNL A   1      46.732  28.538  29.470  1.00  0.00     0.049 A 
ATOM     56  H   UNL A   1      44.627  28.592  29.327  1.00  0.00     0.167 HD
ATOM     57  C   UNL A   1      46.120  26.271  28.670  1.00  0.00     0.074 A 
ATOM     58  C   UNL A   1      46.452  24.934  28.223  1.00  0.00     0.031 C 
ATOM     59  C   UNL A   1      47.036  27.201  29.032  1.00  0.00     0.037 A 
BRANCH  46  60
ATOM     60  C   UNL A   1      44.612  32.610  30.748  1.00  0.00     0.057 A 
ATOM     61  C   UNL A   1      44.765  33.691  29.872  1.00  0.00     0.134 A 
ATOM     62  C   UNL A   1      44.639  32.881  32.124  1.00  0.00     0.134 A 
ATOM     63  F   UNL A   1      44.764  33.497  28.546  1.00  0.00    -0.206 F 
ATOM     64  C   UNL A   1      44.950  34.992  30.347  1.00  0.00     0.040 A 
ATOM     65  C   UNL A   1      44.801  34.179  32.609  1.00  0.00     0.040 A 
ATOM     66  F   UNL A   1      44.496  31.889  33.015  1.00  0.00    -0.206 F 
ATOM     67  C   UNL A   1      44.960  35.238  31.720  1.00  0.00     0.006 A 
ENDBRANCH  46  60
BRANCH  47  68
ATOM     68  C   UNL A   1      42.607  23.417  27.406  1.00  0.00     0.057 A 
ATOM     69  C   UNL A   1      42.270  22.360  28.258  1.00  0.00     0.134 A 
ATOM     70  C   UNL A   1      42.677  23.144  26.034  1.00  0.00     0.134 A 
ATOM     71  F   UNL A   1      42.212  22.553  29.584  1.00  0.00    -0.206 F 
ATOM     72  C   UNL A   1      42.024  21.076  27.767  1.00  0.00     0.040 A 
ATOM     73  C   UNL A   1      42.407  21.872  25.527  1.00  0.00     0.040 A 
ATOM     74  F   UNL A   1      42.995  24.115  25.166  1.00  0.00    -0.206 F 
ATOM     75  C   UNL A   1      42.086  20.832  26.396  1.00  0.00     0.006 A 
ENDBRANCH  47  68
BRANCH  59  76
ATOM     76  C   UNL A   1      48.476  26.790  28.991  1.00  0.00     0.057 A 
ATOM     77  C   UNL A   1      49.089  26.154  30.077  1.00  0.00     0.134 A 
ATOM     78  C   UNL A   1      49.246  27.005  27.842  1.00  0.00     0.134 A 
ATOM     79  F   UNL A   1      48.407  25.933  31.210  1.00  0.00    -0.206 F 
ATOM     80  C   UNL A   1      50.428  25.763  30.028  1.00  0.00     0.040 A 
ATOM     81  C   UNL A   1      50.579  26.600  27.774  1.00  0.00     0.040 A 
ATOM     82  F   UNL A   1      48.712  27.603  26.766  1.00  0.00    -0.206 F 
ATOM     83  C   UNL A   1      51.175  25.982  28.872  1.00  0.00     0.006 A 
ENDBRANCH  59  76
ENDBRANCH  33  34
ENDBRANCH  26  28
ENDBRANCH  25  26
ENDBRANCH  24  25
ENDBRANCH   1  24
TORSDOF 14
ENDMDL
