MODEL 1
REMARK VINA RESULT:     -10.9      0.000      0.000
REMARK SMILES C[C@@H](C(=O)OCCOC(=O)c1ccc(-c2c3nc(c(-c4c(F)cccc4F)c4ccc([nH]4)c(-c4c(F)cccc4F)c4nc(c(-c5c(F)cccc5F)c5ccc2[nH]5)C=C4)C=C3)cc1)c1ccc(Cc2ccsc2)cc1F
REMARK SMILES IDX 6 1 5 2 3 3 4 4 2 5 1 6 65 7 66 8 76 9 67 10 75 11 77 12
REMARK SMILES IDX 68 13 69 14 70 15 71 16 74 17 72 18 73 19 7 20 8 21 9 22
REMARK SMILES IDX 10 23 11 24 12 25 64 26 13 27 63 28 14 29 15 30 16 31 57 32
REMARK SMILES IDX 17 33 62 34 56 35 58 36 18 37 61 38 55 39 54 40 19 42 45 43
REMARK SMILES IDX 28 44 44 45 29 46 32 47 43 48 59 49 30 50 31 51 42 53 60 54
REMARK SMILES IDX 33 55 20 56 21 57 26 58 22 59 23 60 25 61 27 62 24 63 46 64
REMARK SMILES IDX 47 65 52 66 48 67 49 68 51 69 53 70 50 71 34 72 35 73 40 74
REMARK SMILES IDX 36 75 37 76 39 77 41 78 38 79
REMARK H PARENT 58 41 32 52
REMARK Flexibility Score: inf
ROOT
ATOM      1  C   UNL A   1      44.286  22.004  25.345  1.00  0.00     0.274 C 
ENDROOT
BRANCH   1   2
ATOM      2  O   UNL A   1      42.867  21.777  25.194  1.00  0.00    -0.462 OA
BRANCH   2   3
ATOM      3  C   UNL A   1      42.355  20.653  25.770  1.00  0.00     0.313 C 
ATOM      4  O   UNL A   1      42.484  19.523  25.308  1.00  0.00    -0.252 OA
BRANCH   3   5
ATOM      5  C   UNL A   1      41.516  20.961  27.017  1.00  0.00     0.129 C 
ATOM      6  C   UNL A   1      41.329  19.763  27.952  1.00  0.00     0.025 C 
BRANCH   5   7
ATOM      7  C   UNL A   1      40.201  21.638  26.651  1.00  0.00     0.002 A 
ATOM      8  C   UNL A   1      39.976  22.971  27.022  1.00  0.00     0.008 A 
ATOM      9  C   UNL A   1      39.220  21.007  25.878  1.00  0.00     0.127 A 
ATOM     10  C   UNL A   1      38.831  23.656  26.593  1.00  0.00     0.004 A 
ATOM     11  C   UNL A   1      38.065  21.677  25.462  1.00  0.00     0.043 A 
ATOM     12  F   UNL A   1      39.407  19.750  25.452  1.00  0.00    -0.207 F 
ATOM     13  C   UNL A   1      37.874  23.028  25.784  1.00  0.00    -0.041 A 
BRANCH  13  14
ATOM     14  C   UNL A   1      36.751  23.838  25.176  1.00  0.00     0.072 C 
BRANCH  14  15
ATOM     15  C   UNL A   1      35.444  23.172  25.480  1.00  0.00    -0.033 A 
ATOM     16  C   UNL A   1      34.680  23.327  26.687  1.00  0.00     0.015 A 
ATOM     17  C   UNL A   1      34.753  22.387  24.573  1.00  0.00     0.068 A 
ATOM     18  C   UNL A   1      33.482  22.648  26.651  1.00  0.00     0.065 A 
ATOM     19  S   UNL A   1      33.256  21.827  25.173  1.00  0.00    -0.152 S 
ENDBRANCH  14  15
ENDBRANCH  13  14
ENDBRANCH   5   7
ENDBRANCH   3   5
ENDBRANCH   2   3
ENDBRANCH   1   2
BRANCH   1  20
ATOM     20  C   UNL A   1      44.748  23.089  24.374  1.00  0.00     0.275 C 
BRANCH  20  21
ATOM     21  O   UNL A   1      43.991  24.279  24.637  1.00  0.00    -0.458 OA
BRANCH  21  22
ATOM     22  C   UNL A   1      44.683  25.355  25.068  1.00  0.00     0.338 C 
ATOM     23  O   UNL A   1      45.773  25.734  24.660  1.00  0.00    -0.246 OA
BRANCH  22  24
ATOM     24  C   UNL A   1      43.916  26.042  26.135  1.00  0.00     0.060 A 
ATOM     25  C   UNL A   1      44.116  27.396  26.405  1.00  0.00     0.016 A 
ATOM     26  C   UNL A   1      43.032  25.310  26.930  1.00  0.00     0.016 A 
ATOM     27  C   UNL A   1      43.506  27.989  27.510  1.00  0.00     0.010 A 
ATOM     28  C   UNL A   1      42.357  25.934  27.991  1.00  0.00     0.010 A 
ATOM     29  C   UNL A   1      42.616  27.274  28.324  1.00  0.00    -0.014 A 
BRANCH  29  30
ATOM     30  C   UNL A   1      42.023  27.898  29.548  1.00  0.00     0.031 A 
ATOM     31  C   UNL A   1      40.724  28.664  29.462  1.00  0.00     0.074 A 
ATOM     32  C   UNL A   1      42.599  27.751  30.760  1.00  0.00     0.049 A 
ATOM     33  N   UNL A   1      40.165  29.449  30.351  1.00  0.00    -0.248 NA
ATOM     34  C   UNL A   1      39.952  28.530  28.218  1.00  0.00     0.031 C 
ATOM     35  C   UNL A   1      43.813  26.985  31.041  1.00  0.00     0.029 A 
ATOM     36  N   UNL A   1      42.221  28.229  31.995  1.00  0.00    -0.354 N 
ATOM     37  C   UNL A   1      39.025  29.965  29.743  1.00  0.00     0.074 A 
ATOM     38  C   UNL A   1      38.960  29.387  28.418  1.00  0.00     0.031 C 
ATOM     39  C   UNL A   1      44.046  26.991  32.361  1.00  0.00     0.029 A 
ATOM     40  C   UNL A   1      43.069  27.858  33.011  1.00  0.00     0.049 A 
ATOM     41  H   UNL A   1      41.421  28.784  32.136  1.00  0.00     0.167 HD
ATOM     42  C   UNL A   1      38.118  30.841  30.242  1.00  0.00     0.037 A 
ATOM     43  C   UNL A   1      43.104  28.213  34.310  1.00  0.00     0.037 A 
ATOM     44  C   UNL A   1      38.127  31.352  31.589  1.00  0.00     0.049 A 
ATOM     45  C   UNL A   1      42.113  29.210  34.835  1.00  0.00     0.074 A 
ATOM     46  C   UNL A   1      37.243  32.237  32.181  1.00  0.00     0.029 A 
ATOM     47  N   UNL A   1      39.047  30.997  32.563  1.00  0.00    -0.354 N 
ATOM     48  N   UNL A   1      41.116  29.788  34.212  1.00  0.00    -0.248 NA
ATOM     49  C   UNL A   1      42.276  29.633  36.233  1.00  0.00     0.031 C 
ATOM     50  C   UNL A   1      37.642  32.438  33.507  1.00  0.00     0.029 A 
ATOM     51  C   UNL A   1      38.754  31.650  33.750  1.00  0.00     0.049 A 
ATOM     52  H   UNL A   1      39.798  30.375  32.431  1.00  0.00     0.167 HD
ATOM     53  C   UNL A   1      40.540  30.648  35.137  1.00  0.00     0.074 A 
ATOM     54  C   UNL A   1      41.278  30.493  36.373  1.00  0.00     0.031 C 
ATOM     55  C   UNL A   1      39.500  31.500  34.970  1.00  0.00     0.037 A 
BRANCH  42  56
ATOM     56  C   UNL A   1      37.045  31.336  29.316  1.00  0.00     0.057 A 
ATOM     57  C   UNL A   1      35.919  30.570  28.999  1.00  0.00     0.134 A 
ATOM     58  C   UNL A   1      37.118  32.630  28.781  1.00  0.00     0.134 A 
ATOM     59  F   UNL A   1      35.794  29.320  29.467  1.00  0.00    -0.206 F 
ATOM     60  C   UNL A   1      34.908  31.066  28.171  1.00  0.00     0.040 A 
ATOM     61  C   UNL A   1      36.105  33.145  27.972  1.00  0.00     0.040 A 
ATOM     62  F   UNL A   1      38.169  33.420  29.053  1.00  0.00    -0.206 F 
ATOM     63  C   UNL A   1      34.997  32.360  27.662  1.00  0.00     0.006 A 
ENDBRANCH  42  56
BRANCH  43  64
ATOM     64  C   UNL A   1      44.167  27.670  35.193  1.00  0.00     0.057 A 
ATOM     65  C   UNL A   1      43.990  26.468  35.885  1.00  0.00     0.134 A 
ATOM     66  C   UNL A   1      45.390  28.333  35.355  1.00  0.00     0.134 A 
ATOM     67  F   UNL A   1      42.828  25.802  35.795  1.00  0.00    -0.206 F 
ATOM     68  C   UNL A   1      44.990  25.943  36.704  1.00  0.00     0.040 A 
ATOM     69  C   UNL A   1      46.410  27.806  36.146  1.00  0.00     0.040 A 
ATOM     70  F   UNL A   1      45.620  29.493  34.720  1.00  0.00    -0.206 F 
ATOM     71  C   UNL A   1      46.209  26.607  36.827  1.00  0.00     0.006 A 
ENDBRANCH  43  64
BRANCH  55  72
ATOM     72  C   UNL A   1      39.097  32.323  36.156  1.00  0.00     0.057 A 
ATOM     73  C   UNL A   1      38.213  31.830  37.123  1.00  0.00     0.134 A 
ATOM     74  C   UNL A   1      39.610  33.613  36.342  1.00  0.00     0.134 A 
ATOM     75  F   UNL A   1      37.676  30.608  36.993  1.00  0.00    -0.206 F 
ATOM     76  C   UNL A   1      37.837  32.598  38.226  1.00  0.00     0.040 A 
ATOM     77  C   UNL A   1      39.255  34.384  37.451  1.00  0.00     0.040 A 
ATOM     78  F   UNL A   1      40.463  34.141  35.453  1.00  0.00    -0.206 F 
ATOM     79  C   UNL A   1      38.363  33.878  38.394  1.00  0.00     0.006 A 
ENDBRANCH  55  72
ENDBRANCH  29  30
ENDBRANCH  22  24
ENDBRANCH  21  22
ENDBRANCH  20  21
ENDBRANCH   1  20
TORSDOF 14
ENDMDL
MODEL 2
REMARK VINA RESULT:     -10.8      4.226      7.621
REMARK SMILES C[C@@H](C(=O)OCCOC(=O)c1ccc(-c2c3nc(c(-c4c(F)cccc4F)c4ccc([nH]4)c(-c4c(F)cccc4F)c4nc(c(-c5c(F)cccc5F)c5ccc2[nH]5)C=C4)C=C3)cc1)c1ccc(Cc2ccsc2)cc1F
REMARK SMILES IDX 6 1 5 2 3 3 4 4 2 5 1 6 65 7 66 8 76 9 67 10 75 11 77 12
REMARK SMILES IDX 68 13 69 14 70 15 71 16 74 17 72 18 73 19 7 20 8 21 9 22
REMARK SMILES IDX 10 23 11 24 12 25 64 26 13 27 63 28 14 29 15 30 16 31 57 32
REMARK SMILES IDX 17 33 62 34 56 35 58 36 18 37 61 38 55 39 54 40 19 42 45 43
REMARK SMILES IDX 28 44 44 45 29 46 32 47 43 48 59 49 30 50 31 51 42 53 60 54
REMARK SMILES IDX 33 55 20 56 21 57 26 58 22 59 23 60 25 61 27 62 24 63 46 64
REMARK SMILES IDX 47 65 52 66 48 67 49 68 51 69 53 70 50 71 34 72 35 73 40 74
REMARK SMILES IDX 36 75 37 76 39 77 41 78 38 79
REMARK H PARENT 58 41 32 52
REMARK Flexibility Score: inf
ROOT
ATOM      1  C   UNL A   1      34.889  20.335  25.054  1.00  0.00     0.274 C 
ENDROOT
BRANCH   1   2
ATOM      2  O   UNL A   1      33.846  21.181  24.521  1.00  0.00    -0.462 OA
BRANCH   2   3
ATOM      3  C   UNL A   1      32.899  21.623  25.395  1.00  0.00     0.313 C 
ATOM      4  O   UNL A   1      31.726  21.261  25.379  1.00  0.00    -0.252 OA
BRANCH   3   5
ATOM      5  C   UNL A   1      33.435  22.697  26.350  1.00  0.00     0.129 C 
ATOM      6  C   UNL A   1      32.924  22.562  27.787  1.00  0.00     0.025 C 
BRANCH   5   7
ATOM      7  C   UNL A   1      33.241  24.097  25.781  1.00  0.00     0.002 A 
ATOM      8  C   UNL A   1      32.139  24.867  26.183  1.00  0.00     0.008 A 
ATOM      9  C   UNL A   1      34.168  24.694  24.921  1.00  0.00     0.127 A 
ATOM     10  C   UNL A   1      32.003  26.199  25.772  1.00  0.00     0.004 A 
ATOM     11  C   UNL A   1      34.029  26.018  24.491  1.00  0.00     0.043 A 
ATOM     12  F   UNL A   1      35.266  24.022  24.546  1.00  0.00    -0.207 F 
ATOM     13  C   UNL A   1      32.960  26.803  24.944  1.00  0.00    -0.041 A 
BRANCH  13  14
ATOM     14  C   UNL A   1      32.895  28.289  24.673  1.00  0.00     0.072 C 
BRANCH  14  15
ATOM     15  C   UNL A   1      33.429  29.028  25.860  1.00  0.00    -0.033 A 
ATOM     16  C   UNL A   1      34.576  28.655  26.641  1.00  0.00     0.015 A 
ATOM     17  C   UNL A   1      32.927  30.243  26.298  1.00  0.00     0.068 A 
ATOM     18  C   UNL A   1      34.872  29.569  27.628  1.00  0.00     0.065 A 
ATOM     19  S   UNL A   1      33.786  30.886  27.626  1.00  0.00    -0.152 S 
ENDBRANCH  14  15
ENDBRANCH  13  14
ENDBRANCH   5   7
ENDBRANCH   3   5
ENDBRANCH   2   3
ENDBRANCH   1   2
BRANCH   1  20
ATOM     20  C   UNL A   1      36.256  20.833  24.589  1.00  0.00     0.275 C 
BRANCH  20  21
ATOM     21  O   UNL A   1      36.955  21.352  25.729  1.00  0.00    -0.458 OA
BRANCH  21  22
ATOM     22  C   UNL A   1      38.292  21.161  25.760  1.00  0.00     0.338 C 
ATOM     23  O   UNL A   1      38.896  20.164  25.386  1.00  0.00    -0.246 OA
BRANCH  22  24
ATOM     24  C   UNL A   1      38.950  22.363  26.324  1.00  0.00     0.060 A 
ATOM     25  C   UNL A   1      38.425  23.637  26.108  1.00  0.00     0.016 A 
ATOM     26  C   UNL A   1      40.153  22.229  27.021  1.00  0.00     0.016 A 
ATOM     27  C   UNL A   1      39.137  24.768  26.509  1.00  0.00     0.010 A 
ATOM     28  C   UNL A   1      40.823  23.367  27.495  1.00  0.00     0.010 A 
ATOM     29  C   UNL A   1      40.347  24.658  27.209  1.00  0.00    -0.014 A 
BRANCH  29  30
ATOM     30  C   UNL A   1      41.138  25.875  27.571  1.00  0.00     0.031 A 
ATOM     31  C   UNL A   1      40.535  26.946  28.450  1.00  0.00     0.074 A 
ATOM     32  C   UNL A   1      42.419  26.025  27.171  1.00  0.00     0.049 A 
ATOM     33  N   UNL A   1      40.971  28.157  28.698  1.00  0.00    -0.248 NA
ATOM     34  C   UNL A   1      39.280  26.613  29.140  1.00  0.00     0.031 C 
ATOM     35  C   UNL A   1      43.185  25.060  26.381  1.00  0.00     0.029 A 
ATOM     36  N   UNL A   1      43.314  27.047  27.395  1.00  0.00    -0.354 N 
ATOM     37  C   UNL A   1      40.005  28.754  29.501  1.00  0.00     0.074 A 
ATOM     38  C   UNL A   1      38.971  27.766  29.718  1.00  0.00     0.031 C 
ATOM     39  C   UNL A   1      44.442  25.501  26.239  1.00  0.00     0.029 A 
ATOM     40  C   UNL A   1      44.546  26.834  26.824  1.00  0.00     0.049 A 
ATOM     41  H   UNL A   1      43.093  27.853  27.914  1.00  0.00     0.167 HD
ATOM     42  C   UNL A   1      39.982  30.011  30.010  1.00  0.00     0.037 A 
ATOM     43  C   UNL A   1      45.626  27.633  26.722  1.00  0.00     0.037 A 
ATOM     44  C   UNL A   1      41.047  30.971  29.873  1.00  0.00     0.049 A 
ATOM     45  C   UNL A   1      45.568  29.032  27.262  1.00  0.00     0.074 A 
ATOM     46  C   UNL A   1      41.110  32.264  30.362  1.00  0.00     0.029 A 
ATOM     47  N   UNL A   1      42.250  30.731  29.227  1.00  0.00    -0.354 N 
ATOM     48  N   UNL A   1      44.596  29.627  27.908  1.00  0.00    -0.248 NA
ATOM     49  C   UNL A   1      46.742  29.884  27.022  1.00  0.00     0.031 C 
ATOM     50  C   UNL A   1      42.342  32.816  29.991  1.00  0.00     0.029 A 
ATOM     51  C   UNL A   1      43.058  31.854  29.302  1.00  0.00     0.049 A 
ATOM     52  H   UNL A   1      42.493  29.888  28.781  1.00  0.00     0.167 HD
ATOM     53  C   UNL A   1      45.036  30.922  28.144  1.00  0.00     0.074 A 
ATOM     54  C   UNL A   1      46.375  31.018  27.600  1.00  0.00     0.031 C 
ATOM     55  C   UNL A   1      44.383  31.944  28.746  1.00  0.00     0.037 A 
BRANCH  42  56
ATOM     56  C   UNL A   1      38.745  30.443  30.742  1.00  0.00     0.057 A 
ATOM     57  C   UNL A   1      37.651  31.018  30.088  1.00  0.00     0.134 A 
ATOM     58  C   UNL A   1      38.630  30.224  32.122  1.00  0.00     0.134 A 
ATOM     59  F   UNL A   1      37.700  31.266  28.772  1.00  0.00    -0.206 F 
ATOM     60  C   UNL A   1      36.490  31.372  30.780  1.00  0.00     0.040 A 
ATOM     61  C   UNL A   1      37.468  30.553  32.821  1.00  0.00     0.040 A 
ATOM     62  F   UNL A   1      39.641  29.669  32.809  1.00  0.00    -0.206 F 
ATOM     63  C   UNL A   1      36.394  31.132  32.149  1.00  0.00     0.006 A 
ENDBRANCH  42  56
BRANCH  43  64
ATOM     64  C   UNL A   1      46.838  27.147  26.016  1.00  0.00     0.057 A 
ATOM     65  C   UNL A   1      46.991  27.322  24.637  1.00  0.00     0.134 A 
ATOM     66  C   UNL A   1      47.876  26.508  26.705  1.00  0.00     0.134 A 
ATOM     67  F   UNL A   1      46.017  27.900  23.917  1.00  0.00    -0.206 F 
ATOM     68  C   UNL A   1      48.134  26.883  23.968  1.00  0.00     0.040 A 
ATOM     69  C   UNL A   1      49.037  26.091  26.055  1.00  0.00     0.040 A 
ATOM     70  F   UNL A   1      47.787  26.307  28.028  1.00  0.00    -0.206 F 
ATOM     71  C   UNL A   1      49.167  26.275  24.680  1.00  0.00     0.006 A 
ENDBRANCH  43  64
BRANCH  55  72
ATOM     72  C   UNL A   1      45.110  33.250  28.854  1.00  0.00     0.057 A 
ATOM     73  C   UNL A   1      45.961  33.528  29.930  1.00  0.00     0.134 A 
ATOM     74  C   UNL A   1      44.974  34.231  27.863  1.00  0.00     0.134 A 
ATOM     75  F   UNL A   1      46.121  32.635  30.918  1.00  0.00    -0.206 F 
ATOM     76  C   UNL A   1      46.636  34.745  30.029  1.00  0.00     0.040 A 
ATOM     77  C   UNL A   1      45.659  35.445  27.943  1.00  0.00     0.040 A 
ATOM     78  F   UNL A   1      44.177  34.024  26.805  1.00  0.00    -0.206 F 
ATOM     79  C   UNL A   1      46.489  35.706  29.030  1.00  0.00     0.006 A 
ENDBRANCH  55  72
ENDBRANCH  29  30
ENDBRANCH  22  24
ENDBRANCH  21  22
ENDBRANCH  20  21
ENDBRANCH   1  20
TORSDOF 14
ENDMDL
MODEL 3
REMARK VINA RESULT:     -10.7      4.705      7.804
REMARK SMILES C[C@@H](C(=O)OCCOC(=O)c1ccc(-c2c3nc(c(-c4c(F)cccc4F)c4ccc([nH]4)c(-c4c(F)cccc4F)c4nc(c(-c5c(F)cccc5F)c5ccc2[nH]5)C=C4)C=C3)cc1)c1ccc(Cc2ccsc2)cc1F
REMARK SMILES IDX 6 1 5 2 3 3 4 4 2 5 1 6 65 7 66 8 76 9 67 10 75 11 77 12
REMARK SMILES IDX 68 13 69 14 70 15 71 16 74 17 72 18 73 19 7 20 8 21 9 22
REMARK SMILES IDX 10 23 11 24 12 25 64 26 13 27 63 28 14 29 15 30 16 31 57 32
REMARK SMILES IDX 17 33 62 34 56 35 58 36 18 37 61 38 55 39 54 40 19 42 45 43
REMARK SMILES IDX 28 44 44 45 29 46 32 47 43 48 59 49 30 50 31 51 42 53 60 54
REMARK SMILES IDX 33 55 20 56 21 57 26 58 22 59 23 60 25 61 27 62 24 63 46 64
REMARK SMILES IDX 47 65 52 66 48 67 49 68 51 69 53 70 50 71 34 72 35 73 40 74
REMARK SMILES IDX 36 75 37 76 39 77 41 78 38 79
REMARK H PARENT 58 41 32 52
REMARK Flexibility Score: inf
ROOT
ATOM      1  C   UNL A   1      34.582  20.691  25.355  1.00  0.00     0.274 C 
ENDROOT
BRANCH   1   2
ATOM      2  O   UNL A   1      34.326  22.071  25.015  1.00  0.00    -0.462 OA
BRANCH   2   3
ATOM      3  C   UNL A   1      33.514  22.307  23.947  1.00  0.00     0.313 C 
ATOM      4  O   UNL A   1      32.424  21.767  23.780  1.00  0.00    -0.252 OA
BRANCH   3   5
ATOM      5  C   UNL A   1      34.149  23.254  22.921  1.00  0.00     0.129 C 
ATOM      6  C   UNL A   1      35.674  23.351  23.026  1.00  0.00     0.025 C 
BRANCH   5   7
ATOM      7  C   UNL A   1      33.468  24.616  22.923  1.00  0.00     0.002 A 
ATOM      8  C   UNL A   1      33.457  25.390  24.093  1.00  0.00     0.008 A 
ATOM      9  C   UNL A   1      32.910  25.179  21.770  1.00  0.00     0.127 A 
ATOM     10  C   UNL A   1      32.948  26.695  24.089  1.00  0.00     0.004 A 
ATOM     11  C   UNL A   1      32.381  26.474  21.764  1.00  0.00     0.043 A 
ATOM     12  F   UNL A   1      32.938  24.504  20.613  1.00  0.00    -0.207 F 
ATOM     13  C   UNL A   1      32.429  27.266  22.919  1.00  0.00    -0.041 A 
BRANCH  13  14
ATOM     14  C   UNL A   1      32.065  28.734  22.891  1.00  0.00     0.072 C 
BRANCH  14  15
ATOM     15  C   UNL A   1      30.587  28.870  22.699  1.00  0.00    -0.033 A 
ATOM     16  C   UNL A   1      29.576  28.074  23.337  1.00  0.00     0.015 A 
ATOM     17  C   UNL A   1      30.001  29.869  21.939  1.00  0.00     0.068 A 
ATOM     18  C   UNL A   1      28.297  28.479  23.021  1.00  0.00     0.065 A 
ATOM     19  S   UNL A   1      28.294  29.820  21.966  1.00  0.00    -0.152 S 
ENDBRANCH  14  15
ENDBRANCH  13  14
ENDBRANCH   5   7
ENDBRANCH   3   5
ENDBRANCH   2   3
ENDBRANCH   1   2
BRANCH   1  20
ATOM     20  C   UNL A   1      36.026  20.328  25.017  1.00  0.00     0.275 C 
BRANCH  20  21
ATOM     21  O   UNL A   1      36.870  21.414  25.427  1.00  0.00    -0.458 OA
BRANCH  21  22
ATOM     22  C   UNL A   1      38.180  21.134  25.596  1.00  0.00     0.338 C 
ATOM     23  O   UNL A   1      38.747  20.090  25.303  1.00  0.00    -0.246 OA
BRANCH  22  24
ATOM     24  C   UNL A   1      38.861  22.304  26.201  1.00  0.00     0.060 A 
ATOM     25  C   UNL A   1      38.344  23.591  26.053  1.00  0.00     0.016 A 
ATOM     26  C   UNL A   1      40.075  22.128  26.867  1.00  0.00     0.016 A 
ATOM     27  C   UNL A   1      39.075  24.696  26.490  1.00  0.00     0.010 A 
ATOM     28  C   UNL A   1      40.766  23.237  27.378  1.00  0.00     0.010 A 
ATOM     29  C   UNL A   1      40.297  24.544  27.160  1.00  0.00    -0.014 A 
BRANCH  29  30
ATOM     30  C   UNL A   1      41.107  25.736  27.561  1.00  0.00     0.031 A 
ATOM     31  C   UNL A   1      40.522  26.785  28.477  1.00  0.00     0.074 A 
ATOM     32  C   UNL A   1      42.389  25.880  27.163  1.00  0.00     0.049 A 
ATOM     33  N   UNL A   1      40.977  27.980  28.766  1.00  0.00    -0.248 NA
ATOM     34  C   UNL A   1      39.264  26.447  29.160  1.00  0.00     0.031 C 
ATOM     35  C   UNL A   1      43.138  24.932  26.337  1.00  0.00     0.029 A 
ATOM     36  N   UNL A   1      43.300  26.881  27.418  1.00  0.00    -0.354 N 
ATOM     37  C   UNL A   1      40.022  28.564  29.591  1.00  0.00     0.074 A 
ATOM     38  C   UNL A   1      38.974  27.584  29.777  1.00  0.00     0.031 C 
ATOM     39  C   UNL A   1      44.402  25.359  26.207  1.00  0.00     0.029 A 
ATOM     40  C   UNL A   1      44.527  26.669  26.837  1.00  0.00     0.049 A 
ATOM     41  H   UNL A   1      43.092  27.672  27.965  1.00  0.00     0.167 HD
ATOM     42  C   UNL A   1      40.018  29.803  30.143  1.00  0.00     0.037 A 
ATOM     43  C   UNL A   1      45.618  27.455  26.760  1.00  0.00     0.037 A 
ATOM     44  C   UNL A   1      41.098  30.751  30.035  1.00  0.00     0.049 A 
ATOM     45  C   UNL A   1      45.582  28.836  27.346  1.00  0.00     0.074 A 
ATOM     46  C   UNL A   1      41.181  32.026  30.568  1.00  0.00     0.029 A 
ATOM     47  N   UNL A   1      42.295  30.515  29.378  1.00  0.00    -0.354 N 
ATOM     48  N   UNL A   1      44.621  29.422  28.015  1.00  0.00    -0.248 NA
ATOM     49  C   UNL A   1      46.768  29.678  27.132  1.00  0.00     0.031 C 
ATOM     50  C   UNL A   1      42.420  32.572  30.213  1.00  0.00     0.029 A 
ATOM     51  C   UNL A   1      43.120  31.623  29.488  1.00  0.00     0.049 A 
ATOM     52  H   UNL A   1      42.524  29.684  28.903  1.00  0.00     0.167 HD
ATOM     53  C   UNL A   1      45.081  30.703  28.294  1.00  0.00     0.074 A 
ATOM     54  C   UNL A   1      46.419  30.797  27.749  1.00  0.00     0.031 C 
ATOM     55  C   UNL A   1      44.444  31.713  28.933  1.00  0.00     0.037 A 
BRANCH  42  56
ATOM     56  C   UNL A   1      38.790  30.228  30.893  1.00  0.00     0.057 A 
ATOM     57  C   UNL A   1      37.718  30.873  30.268  1.00  0.00     0.134 A 
ATOM     58  C   UNL A   1      38.659  29.931  32.257  1.00  0.00     0.134 A 
ATOM     59  F   UNL A   1      37.784  31.198  28.970  1.00  0.00    -0.206 F 
ATOM     60  C   UNL A   1      36.563  31.221  30.974  1.00  0.00     0.040 A 
ATOM     61  C   UNL A   1      37.502  30.252  32.968  1.00  0.00     0.040 A 
ATOM     62  F   UNL A   1      39.648  29.306  32.915  1.00  0.00    -0.206 F 
ATOM     63  C   UNL A   1      36.451  30.903  32.326  1.00  0.00     0.006 A 
ENDBRANCH  42  56
BRANCH  43  64
ATOM     64  C   UNL A   1      46.821  26.976  26.033  1.00  0.00     0.057 A 
ATOM     65  C   UNL A   1      47.810  26.231  26.683  1.00  0.00     0.134 A 
ATOM     66  C   UNL A   1      47.003  27.239  24.670  1.00  0.00     0.134 A 
ATOM     67  F   UNL A   1      47.708  25.972  27.996  1.00  0.00    -0.206 F 
ATOM     68  C   UNL A   1      48.936  25.763  26.003  1.00  0.00     0.040 A 
ATOM     69  C   UNL A   1      48.106  26.753  23.971  1.00  0.00     0.040 A 
ATOM     70  F   UNL A   1      46.090  27.952  23.991  1.00  0.00    -0.206 F 
ATOM     71  C   UNL A   1      49.080  26.014  24.640  1.00  0.00     0.006 A 
ENDBRANCH  43  64
BRANCH  55  72
ATOM     72  C   UNL A   1      45.191  33.004  29.082  1.00  0.00     0.057 A 
ATOM     73  C   UNL A   1      46.043  33.235  30.168  1.00  0.00     0.134 A 
ATOM     74  C   UNL A   1      45.072  34.017  28.123  1.00  0.00     0.134 A 
ATOM     75  F   UNL A   1      46.187  32.309  31.128  1.00  0.00    -0.206 F 
ATOM     76  C   UNL A   1      46.737  34.438  30.307  1.00  0.00     0.040 A 
ATOM     77  C   UNL A   1      45.775  35.217  28.241  1.00  0.00     0.040 A 
ATOM     78  F   UNL A   1      44.275  33.855  27.056  1.00  0.00    -0.206 F 
ATOM     79  C   UNL A   1      46.607  35.431  29.338  1.00  0.00     0.006 A 
ENDBRANCH  55  72
ENDBRANCH  29  30
ENDBRANCH  22  24
ENDBRANCH  21  22
ENDBRANCH  20  21
ENDBRANCH   1  20
TORSDOF 14
ENDMDL
