MODEL 1
REMARK VINA RESULT:     -13.9      0.000      0.000
REMARK SMILES O=C(OCCOC(=O)[C@@H](Cc1ccccc1)/N=C1\C(=O)c2ccccc2C(=O)[C@H]1Cl)c1ccc(-c2c3nc(c(-c4c(F)cccc4F)c4ccc([nH]4)c(-c4c(F)cccc4F)c4nc(c(-c5c(F)cccc5F)c5ccc2[nH]5)C=C4)C=C3)cc1
REMARK SMILES IDX 4 1 3 2 2 3 1 4 31 5 32 6 84 7 33 8 83 9 34 10 35 11 36 12
REMARK SMILES IDX 77 13 37 14 82 15 76 16 78 17 38 18 81 19 75 20 74 21 39 23
REMARK SMILES IDX 65 24 48 25 64 26 49 27 52 28 63 29 79 30 50 31 51 32 62 34
REMARK SMILES IDX 80 35 53 36 40 37 41 38 46 39 42 40 43 41 45 42 47 43 44 44
REMARK SMILES IDX 66 45 67 46 72 47 68 48 69 49 71 50 73 51 70 52 54 53 55 54
REMARK SMILES IDX 60 55 56 56 57 57 59 58 61 59 58 60 5 61 6 62 7 63 8 64 9 65
REMARK SMILES IDX 10 66 11 67 12 68 16 69 13 70 15 71 14 72 17 73 18 74 19 75
REMARK SMILES IDX 29 76 20 77 21 78 27 79 30 80 22 81 26 82 28 83 23 84 25 85
REMARK SMILES IDX 24 86
REMARK H PARENT 78 22 52 33
REMARK Flexibility Score: inf
ROOT
ATOM      1  C   UNL A   1      32.667  30.290  27.077  1.00  0.00     0.275 C 
ENDROOT
BRANCH   1   2
ATOM      2  O   UNL A   1      33.986  29.906  27.452  1.00  0.00    -0.458 OA
BRANCH   2   3
ATOM      3  C   UNL A   1      34.841  30.608  28.203  1.00  0.00     0.338 C 
ATOM      4  O   UNL A   1      34.542  31.762  28.511  1.00  0.00    -0.246 OA
BRANCH   3   5
ATOM      5  C   UNL A   1      36.165  30.122  28.700  1.00  0.00     0.060 A 
ATOM      6  C   UNL A   1      36.705  29.430  30.310  1.00  0.00     0.016 A 
ATOM      7  C   UNL A   1      37.357  30.119  27.315  1.00  0.00     0.016 A 
ATOM      8  C   UNL A   1      38.317  28.523  30.413  1.00  0.00     0.010 A 
ATOM      9  C   UNL A   1      38.940  29.335  27.462  1.00  0.00     0.010 A 
ATOM     10  C   UNL A   1      39.469  28.542  28.972  1.00  0.00    -0.014 A 
BRANCH  10  11
ATOM     11  C   UNL A   1      40.915  28.189  29.144  1.00  0.00     0.031 A 
ATOM     12  C   UNL A   1      41.380  26.805  28.738  1.00  0.00     0.074 A 
ATOM     13  C   UNL A   1      41.772  29.216  29.250  1.00  0.00     0.049 A 
ATOM     14  N   UNL A   1      42.502  26.465  28.152  1.00  0.00    -0.248 NA
ATOM     15  C   UNL A   1      40.434  25.686  28.877  1.00  0.00     0.031 C 
ATOM     16  C   UNL A   1      41.391  30.577  29.619  1.00  0.00     0.029 A 
ATOM     17  N   UNL A   1      43.101  29.307  28.928  1.00  0.00    -0.354 N 
ATOM     18  C   UNL A   1      42.355  25.124  27.806  1.00  0.00     0.074 A 
ATOM     19  C   UNL A   1      41.043  24.711  28.225  1.00  0.00     0.031 C 
ATOM     20  C   UNL A   1      42.418  31.397  29.353  1.00  0.00     0.029 A 
ATOM     21  C   UNL A   1      43.533  30.613  28.832  1.00  0.00     0.049 A 
ATOM     22  H   UNL A   1      43.683  28.526  28.781  1.00  0.00     0.167 HD
ATOM     23  C   UNL A   1      43.240  24.294  27.211  1.00  0.00     0.037 A 
ATOM     24  C   UNL A   1      44.680  31.113  28.331  1.00  0.00     0.037 A 
ATOM     25  C   UNL A   1      44.593  24.673  26.930  1.00  0.00     0.049 A 
ATOM     26  C   UNL A   1      45.700  30.138  27.808  1.00  0.00     0.074 A 
ATOM     27  C   UNL A   1      45.657  23.877  26.555  1.00  0.00     0.029 A 
ATOM     28  N   UNL A   1      45.070  25.969  27.050  1.00  0.00    -0.354 N 
ATOM     29  N   UNL A   1      45.566  28.861  27.532  1.00  0.00    -0.248 NA
ATOM     30  C   UNL A   1      47.050  30.666  27.576  1.00  0.00     0.031 C 
ATOM     31  C   UNL A   1      46.800  24.684  26.523  1.00  0.00     0.029 A 
ATOM     32  C   UNL A   1      46.430  25.990  26.809  1.00  0.00     0.049 A 
ATOM     33  H   UNL A   1      44.524  26.756  27.275  1.00  0.00     0.167 HD
ATOM     34  C   UNL A   1      46.825  28.424  27.142  1.00  0.00     0.074 A 
ATOM     35  C   UNL A   1      47.684  29.591  27.134  1.00  0.00     0.031 C 
ATOM     36  C   UNL A   1      47.253  27.169  26.857  1.00  0.00     0.037 A 
BRANCH  23  37
ATOM     37  C   UNL A   1      42.807  22.875  26.993  1.00  0.00     0.057 A 
ATOM     38  C   UNL A   1      42.637  21.971  28.049  1.00  0.00     0.134 A 
ATOM     39  C   UNL A   1      42.611  22.394  25.693  1.00  0.00     0.134 A 
ATOM     40  F   UNL A   1      42.841  22.359  29.318  1.00  0.00    -0.206 F 
ATOM     41  C   UNL A   1      42.299  20.634  27.816  1.00  0.00     0.040 A 
ATOM     42  C   UNL A   1      42.259  21.067  25.448  1.00  0.00     0.040 A 
ATOM     43  F   UNL A   1      42.777  23.205  24.638  1.00  0.00    -0.206 F 
ATOM     44  C   UNL A   1      42.108  20.180  26.512  1.00  0.00     0.006 A 
ENDBRANCH  23  37
BRANCH  24  45
ATOM     45  C   UNL A   1      44.930  32.582  28.292  1.00  0.00     0.057 A 
ATOM     46  C   UNL A   1      45.544  33.249  29.362  1.00  0.00     0.134 A 
ATOM     47  C   UNL A   1      44.551  33.367  27.194  1.00  0.00     0.134 A 
ATOM     48  F   UNL A   1      45.893  32.577  30.469  1.00  0.00    -0.206 F 
ATOM     49  C   UNL A   1      45.776  34.628  29.334  1.00  0.00     0.040 A 
ATOM     50  C   UNL A   1      44.808  34.737  27.137  1.00  0.00     0.040 A 
ATOM     51  F   UNL A   1      43.934  32.807  26.141  1.00  0.00    -0.206 F 
ATOM     52  C   UNL A   1      45.418  35.373  28.213  1.00  0.00     0.006 A 
ENDBRANCH  24  45
BRANCH  36  53
ATOM     53  C   UNL A   1      48.719  26.994  26.606  1.00  0.00     0.057 A 
ATOM     54  C   UNL A   1      49.608  26.761  27.664  1.00  0.00     0.134 A 
ATOM     55  C   UNL A   1      49.237  26.989  25.307  1.00  0.00     0.134 A 
ATOM     56  F   UNL A   1      49.169  26.756  28.933  1.00  0.00    -0.206 F 
ATOM     57  C   UNL A   1      50.968  26.557  27.441  1.00  0.00     0.040 A 
ATOM     58  C   UNL A   1      50.591  26.755  25.068  1.00  0.00     0.040 A 
ATOM     59  F   UNL A   1      48.434  27.188  24.251  1.00  0.00    -0.206 F 
ATOM     60  C   UNL A   1      51.461  26.545  26.137  1.00  0.00     0.006 A 
ENDBRANCH  36  53
ENDBRANCH  10  11
ENDBRANCH   3   5
ENDBRANCH   2   3
ENDBRANCH   1   2
BRANCH   1  61
ATOM     61  C   UNL A   1      32.340  29.764  25.678  1.00  0.00     0.274 C 
BRANCH  61  62
ATOM     62  O   UNL A   1      33.532  29.259  25.049  1.00  0.00    -0.460 OA
BRANCH  62  63
ATOM     63  C   UNL A   1      33.511  28.142  24.288  1.00  0.00     0.331 C 
ATOM     64  O   UNL A   1      33.990  28.068  23.164  1.00  0.00    -0.250 OA
BRANCH  63  65
ATOM     65  C   UNL A   1      32.994  26.923  25.098  1.00  0.00     0.219 C 
BRANCH  65  66
ATOM     66  C   UNL A   1      31.219  26.393  24.823  1.00  0.00     0.074 C 
BRANCH  66  67
ATOM     67  C   UNL A   1      29.585  27.206  23.675  1.00  0.00    -0.045 A 
ATOM     68  C   UNL A   1      28.094  27.017  23.818  1.00  0.00     0.004 A 
ATOM     69  C   UNL A   1      29.582  28.497  22.773  1.00  0.00     0.004 A 
ATOM     70  C   UNL A   1      27.062  27.981  23.542  1.00  0.00     0.000 A 
ATOM     71  C   UNL A   1      28.557  29.407  22.437  1.00  0.00     0.000 A 
ATOM     72  C   UNL A   1      27.302  29.191  22.915  1.00  0.00     0.000 A 
ENDBRANCH  66  67
ENDBRANCH  65  66
BRANCH  65  73
ATOM     73  N   UNL A   1      33.983  25.858  25.454  1.00  0.00    -0.268 NA
ATOM     74  C   UNL A   1      34.485  24.820  24.881  1.00  0.00     0.110 C 
ATOM     75  C   UNL A   1      34.191  24.210  23.528  1.00  0.00     0.209 C 
ATOM     76  C   UNL A   1      35.332  23.876  25.699  1.00  0.00     0.205 C 
ATOM     77  O   UNL A   1      34.552  24.710  22.480  1.00  0.00    -0.287 OA
ATOM     78  C   UNL A   1      33.576  22.870  23.569  1.00  0.00     0.035 A 
ATOM     79  C   UNL A   1      34.724  22.486  25.771  1.00  0.00     0.187 C 
ATOM     80  Cl  UNL A   1      36.948  23.736  24.970  1.00  0.00    -0.107 Cl
ATOM     81  C   UNL A   1      32.746  22.448  22.524  1.00  0.00     0.013 A 
ATOM     82  C   UNL A   1      33.799  22.053  24.682  1.00  0.00     0.031 A 
ATOM     83  O   UNL A   1      35.001  21.696  26.670  1.00  0.00    -0.292 OA
ATOM     84  C   UNL A   1      32.102  21.214  22.612  1.00  0.00     0.001 A 
ATOM     85  C   UNL A   1      33.146  20.817  24.763  1.00  0.00     0.012 A 
ATOM     86  C   UNL A   1      32.296  20.403  23.732  1.00  0.00     0.001 A 
ENDBRANCH  65  73
ENDBRANCH  63  65
ENDBRANCH  62  63
ENDBRANCH  61  62
ENDBRANCH   1  61
TORSDOF 14
ENDMDL
MODEL 2
REMARK VINA RESULT:     -13.9      4.509      9.749
REMARK SMILES O=C(OCCOC(=O)[C@@H](Cc1ccccc1)/N=C1\C(=O)c2ccccc2C(=O)[C@H]1Cl)c1ccc(-c2c3nc(c(-c4c(F)cccc4F)c4ccc([nH]4)c(-c4c(F)cccc4F)c4nc(c(-c5c(F)cccc5F)c5ccc2[nH]5)C=C4)C=C3)cc1
REMARK SMILES IDX 4 1 3 2 2 3 1 4 31 5 32 6 84 7 33 8 83 9 34 10 35 11 36 12
REMARK SMILES IDX 77 13 37 14 82 15 76 16 78 17 38 18 81 19 75 20 74 21 39 23
REMARK SMILES IDX 65 24 48 25 64 26 49 27 52 28 63 29 79 30 50 31 51 32 62 34
REMARK SMILES IDX 80 35 53 36 40 37 41 38 46 39 42 40 43 41 45 42 47 43 44 44
REMARK SMILES IDX 66 45 67 46 72 47 68 48 69 49 71 50 73 51 70 52 54 53 55 54
REMARK SMILES IDX 60 55 56 56 57 57 59 58 61 59 58 60 5 61 6 62 7 63 8 64 9 65
REMARK SMILES IDX 10 66 11 67 12 68 16 69 13 70 15 71 14 72 17 73 18 74 19 75
REMARK SMILES IDX 29 76 20 77 21 78 27 79 30 80 22 81 26 82 28 83 23 84 25 85
REMARK SMILES IDX 24 86
REMARK H PARENT 78 22 52 33
REMARK Flexibility Score: inf
ROOT
ATOM      1  C   UNL A   1      38.031  21.878  25.004  1.00  0.00     0.275 C 
ENDROOT
BRANCH   1   2
ATOM      2  O   UNL A   1      38.929  21.817  26.109  1.00  0.00    -0.458 OA
BRANCH   2   3
ATOM      3  C   UNL A   1      40.180  22.288  26.151  1.00  0.00     0.338 C 
ATOM      4  O   UNL A   1      41.086  21.586  25.701  1.00  0.00    -0.246 OA
BRANCH   3   5
ATOM      5  C   UNL A   1      40.595  23.606  26.723  1.00  0.00     0.060 A 
ATOM      6  C   UNL A   1      41.903  24.801  26.253  1.00  0.00     0.016 A 
ATOM      7  C   UNL A   1      39.415  24.086  28.032  1.00  0.00     0.016 A 
ATOM      8  C   UNL A   1      41.831  26.531  26.914  1.00  0.00     0.010 A 
ATOM      9  C   UNL A   1      39.424  25.715  28.729  1.00  0.00     0.010 A 
ATOM     10  C   UNL A   1      40.602  26.958  28.222  1.00  0.00    -0.014 A 
BRANCH  10  11
ATOM     11  C   UNL A   1      40.773  28.187  29.060  1.00  0.00     0.031 A 
ATOM     12  C   UNL A   1      39.708  29.264  29.000  1.00  0.00     0.074 A 
ATOM     13  C   UNL A   1      41.616  28.090  30.099  1.00  0.00     0.049 A 
ATOM     14  N   UNL A   1      39.237  29.996  29.980  1.00  0.00    -0.248 NA
ATOM     15  C   UNL A   1      38.986  29.457  27.731  1.00  0.00     0.031 C 
ATOM     16  C   UNL A   1      42.653  27.071  30.231  1.00  0.00     0.029 A 
ATOM     17  N   UNL A   1      41.645  28.765  31.292  1.00  0.00    -0.354 N 
ATOM     18  C   UNL A   1      38.139  30.671  29.452  1.00  0.00     0.074 A 
ATOM     19  C   UNL A   1      37.997  30.260  28.082  1.00  0.00     0.031 C 
ATOM     20  C   UNL A   1      43.110  27.083  31.491  1.00  0.00     0.029 A 
ATOM     21  C   UNL A   1      42.424  28.132  32.238  1.00  0.00     0.049 A 
ATOM     22  H   UNL A   1      41.163  29.608  31.456  1.00  0.00     0.167 HD
ATOM     23  C   UNL A   1      37.329  31.577  30.044  1.00  0.00     0.037 A 
ATOM     24  C   UNL A   1      42.527  28.349  33.564  1.00  0.00     0.037 A 
ATOM     25  C   UNL A   1      37.566  32.088  31.361  1.00  0.00     0.049 A 
ATOM     26  C   UNL A   1      41.708  29.465  34.156  1.00  0.00     0.074 A 
ATOM     27  C   UNL A   1      36.978  33.166  31.992  1.00  0.00     0.029 A 
ATOM     28  N   UNL A   1      38.516  31.572  32.228  1.00  0.00    -0.354 N 
ATOM     29  N   UNL A   1      40.706  30.132  33.631  1.00  0.00    -0.248 NA
ATOM     30  C   UNL A   1      42.073  29.893  35.512  1.00  0.00     0.031 C 
ATOM     31  C   UNL A   1      37.631  33.350  33.216  1.00  0.00     0.029 A 
ATOM     32  C   UNL A   1      38.571  32.342  33.372  1.00  0.00     0.049 A 
ATOM     33  H   UNL A   1      39.069  30.776  32.054  1.00  0.00     0.167 HD
ATOM     34  C   UNL A   1      40.355  31.089  34.574  1.00  0.00     0.074 A 
ATOM     35  C   UNL A   1      41.192  30.857  35.733  1.00  0.00     0.031 C 
ATOM     36  C   UNL A   1      39.455  32.100  34.482  1.00  0.00     0.037 A 
BRANCH  23  37
ATOM     37  C   UNL A   1      36.236  32.167  29.204  1.00  0.00     0.057 A 
ATOM     38  C   UNL A   1      36.282  33.484  28.730  1.00  0.00     0.134 A 
ATOM     39  C   UNL A   1      35.091  31.416  28.914  1.00  0.00     0.134 A 
ATOM     40  F   UNL A   1      37.337  34.270  28.999  1.00  0.00    -0.206 F 
ATOM     41  C   UNL A   1      35.219  34.035  28.006  1.00  0.00     0.040 A 
ATOM     42  C   UNL A   1      34.030  31.949  28.181  1.00  0.00     0.040 A 
ATOM     43  F   UNL A   1      34.977  30.155  29.357  1.00  0.00    -0.206 F 
ATOM     44  C   UNL A   1      34.091  33.265  27.730  1.00  0.00     0.006 A 
ENDBRANCH  23  37
BRANCH  24  45
ATOM     45  C   UNL A   1      43.417  27.511  34.418  1.00  0.00     0.057 A 
ATOM     46  C   UNL A   1      44.773  27.822  34.587  1.00  0.00     0.134 A 
ATOM     47  C   UNL A   1      42.945  26.367  35.076  1.00  0.00     0.134 A 
ATOM     48  F   UNL A   1      45.312  28.873  33.952  1.00  0.00    -0.206 F 
ATOM     49  C   UNL A   1      45.615  27.037  35.381  1.00  0.00     0.040 A 
ATOM     50  C   UNL A   1      43.764  25.595  35.900  1.00  0.00     0.040 A 
ATOM     51  F   UNL A   1      41.664  25.987  34.943  1.00  0.00    -0.206 F 
ATOM     52  C   UNL A   1      45.107  25.927  36.051  1.00  0.00     0.006 A 
ENDBRANCH  24  45
BRANCH  36  53
ATOM     53  C   UNL A   1      39.404  33.067  35.625  1.00  0.00     0.057 A 
ATOM     54  C   UNL A   1      40.165  34.244  35.606  1.00  0.00     0.134 A 
ATOM     55  C   UNL A   1      38.548  32.861  36.711  1.00  0.00     0.134 A 
ATOM     56  F   UNL A   1      41.005  34.495  34.590  1.00  0.00    -0.206 F 
ATOM     57  C   UNL A   1      40.096  35.171  36.644  1.00  0.00     0.040 A 
ATOM     58  C   UNL A   1      38.447  33.796  37.741  1.00  0.00     0.040 A 
ATOM     59  F   UNL A   1      37.780  31.763  36.778  1.00  0.00    -0.206 F 
ATOM     60  C   UNL A   1      39.228  34.952  37.712  1.00  0.00     0.006 A 
ENDBRANCH  36  53
ENDBRANCH  10  11
ENDBRANCH   3   5
ENDBRANCH   2   3
ENDBRANCH   1   2
BRANCH   1  61
ATOM     61  C   UNL A   1      37.154  23.128  25.104  1.00  0.00     0.274 C 
BRANCH  61  62
ATOM     62  O   UNL A   1      36.375  23.090  26.313  1.00  0.00    -0.460 OA
BRANCH  62  63
ATOM     63  C   UNL A   1      35.025  23.142  26.286  1.00  0.00     0.331 C 
ATOM     64  O   UNL A   1      34.303  22.699  27.170  1.00  0.00    -0.250 OA
BRANCH  63  65
ATOM     65  C   UNL A   1      34.522  24.015  25.105  1.00  0.00     0.219 C 
BRANCH  65  66
ATOM     66  C   UNL A   1      33.377  23.207  23.861  1.00  0.00     0.074 C 
BRANCH  66  67
ATOM     67  C   UNL A   1      32.546  21.227  23.673  1.00  0.00    -0.045 A 
ATOM     68  C   UNL A   1      32.154  20.439  22.446  1.00  0.00     0.004 A 
ATOM     69  C   UNL A   1      32.609  20.046  24.711  1.00  0.00     0.004 A 
ATOM     70  C   UNL A   1      32.237  19.015  22.262  1.00  0.00     0.000 A 
ATOM     71  C   UNL A   1      32.616  18.645  24.543  1.00  0.00     0.000 A 
ATOM     72  C   UNL A   1      32.527  18.132  23.287  1.00  0.00     0.000 A 
ENDBRANCH  66  67
ENDBRANCH  65  66
BRANCH  65  73
ATOM     73  N   UNL A   1      34.348  25.480  25.350  1.00  0.00    -0.268 NA
ATOM     74  C   UNL A   1      33.390  26.260  25.713  1.00  0.00     0.110 C 
ATOM     75  C   UNL A   1      31.936  25.955  26.000  1.00  0.00     0.209 C 
ATOM     76  C   UNL A   1      33.599  27.752  25.642  1.00  0.00     0.205 C 
ATOM     77  O   UNL A   1      31.563  25.369  26.998  1.00  0.00    -0.287 OA
ATOM     78  C   UNL A   1      30.975  26.567  25.063  1.00  0.00     0.035 A 
ATOM     79  C   UNL A   1      32.631  28.416  24.678  1.00  0.00     0.187 C 
ATOM     80  Cl  UNL A   1      33.357  28.469  27.251  1.00  0.00    -0.107 Cl
ATOM     81  C   UNL A   1      29.739  25.952  24.827  1.00  0.00     0.013 A 
ATOM     82  C   UNL A   1      31.334  27.737  24.387  1.00  0.00     0.031 A 
ATOM     83  O   UNL A   1      32.863  29.508  24.166  1.00  0.00    -0.292 OA
ATOM     84  C   UNL A   1      28.872  26.492  23.877  1.00  0.00     0.001 A 
ATOM     85  C   UNL A   1      30.458  28.270  23.433  1.00  0.00     0.012 A 
ATOM     86  C   UNL A   1      29.234  27.645  23.177  1.00  0.00     0.001 A 
ENDBRANCH  65  73
ENDBRANCH  63  65
ENDBRANCH  62  63
ENDBRANCH  61  62
ENDBRANCH   1  61
TORSDOF 14
ENDMDL
MODEL 3
REMARK VINA RESULT:     -13.9      4.951     10.050
REMARK SMILES O=C(OCCOC(=O)[C@@H](Cc1ccccc1)/N=C1\C(=O)c2ccccc2C(=O)[C@H]1Cl)c1ccc(-c2c3nc(c(-c4c(F)cccc4F)c4ccc([nH]4)c(-c4c(F)cccc4F)c4nc(c(-c5c(F)cccc5F)c5ccc2[nH]5)C=C4)C=C3)cc1
REMARK SMILES IDX 4 1 3 2 2 3 1 4 31 5 32 6 84 7 33 8 83 9 34 10 35 11 36 12
REMARK SMILES IDX 77 13 37 14 82 15 76 16 78 17 38 18 81 19 75 20 74 21 39 23
REMARK SMILES IDX 65 24 48 25 64 26 49 27 52 28 63 29 79 30 50 31 51 32 62 34
REMARK SMILES IDX 80 35 53 36 40 37 41 38 46 39 42 40 43 41 45 42 47 43 44 44
REMARK SMILES IDX 66 45 67 46 72 47 68 48 69 49 71 50 73 51 70 52 54 53 55 54
REMARK SMILES IDX 60 55 56 56 57 57 59 58 61 59 58 60 5 61 6 62 7 63 8 64 9 65
REMARK SMILES IDX 10 66 11 67 12 68 16 69 13 70 15 71 14 72 17 73 18 74 19 75
REMARK SMILES IDX 29 76 20 77 21 78 27 79 30 80 22 81 26 82 28 83 23 84 25 85
REMARK SMILES IDX 24 86
REMARK H PARENT 78 22 52 33
REMARK Flexibility Score: inf
ROOT
ATOM      1  C   UNL A   1      37.499  22.693  24.990  1.00  0.00     0.275 C 
ENDROOT
BRANCH   1   2
ATOM      2  O   UNL A   1      38.361  22.343  26.068  1.00  0.00    -0.458 OA
BRANCH   2   3
ATOM      3  C   UNL A   1      39.625  22.744  26.245  1.00  0.00     0.338 C 
ATOM      4  O   UNL A   1      40.533  21.951  25.998  1.00  0.00    -0.246 OA
BRANCH   3   5
ATOM      5  C   UNL A   1      40.048  24.088  26.746  1.00  0.00     0.060 A 
ATOM      6  C   UNL A   1      41.173  25.365  26.063  1.00  0.00     0.016 A 
ATOM      7  C   UNL A   1      39.088  24.496  28.246  1.00  0.00     0.016 A 
ATOM      8  C   UNL A   1      41.107  27.089  26.740  1.00  0.00     0.010 A 
ATOM      9  C   UNL A   1      39.114  26.125  28.943  1.00  0.00     0.010 A 
ATOM     10  C   UNL A   1      40.102  27.439  28.247  1.00  0.00    -0.014 A 
BRANCH  10  11
ATOM     11  C   UNL A   1      40.338  28.681  29.052  1.00  0.00     0.031 A 
ATOM     12  C   UNL A   1      39.298  29.782  29.014  1.00  0.00     0.074 A 
ATOM     13  C   UNL A   1      41.221  28.582  30.057  1.00  0.00     0.049 A 
ATOM     14  N   UNL A   1      38.886  30.545  29.997  1.00  0.00    -0.248 NA
ATOM     15  C   UNL A   1      38.529  29.968  27.772  1.00  0.00     0.031 C 
ATOM     16  C   UNL A   1      42.237  27.540  30.166  1.00  0.00     0.029 A 
ATOM     17  N   UNL A   1      41.316  29.279  31.234  1.00  0.00    -0.354 N 
ATOM     18  C   UNL A   1      37.784  31.238  29.500  1.00  0.00     0.074 A 
ATOM     19  C   UNL A   1      37.574  30.803  28.146  1.00  0.00     0.031 C 
ATOM     20  C   UNL A   1      42.747  27.565  31.407  1.00  0.00     0.029 A 
ATOM     21  C   UNL A   1      42.118  28.646  32.159  1.00  0.00     0.049 A 
ATOM     22  H   UNL A   1      40.862  30.137  31.399  1.00  0.00     0.167 HD
ATOM     23  C   UNL A   1      37.021  32.174  30.106  1.00  0.00     0.037 A 
ATOM     24  C   UNL A   1      42.281  28.886  33.475  1.00  0.00     0.037 A 
ATOM     25  C   UNL A   1      37.326  32.706  31.402  1.00  0.00     0.049 A 
ATOM     26  C   UNL A   1      41.516  30.034  34.077  1.00  0.00     0.074 A 
ATOM     27  C   UNL A   1      36.792  33.810  32.033  1.00  0.00     0.029 A 
ATOM     28  N   UNL A   1      38.299  32.183  32.239  1.00  0.00    -0.354 N 
ATOM     29  N   UNL A   1      40.510  30.715  33.580  1.00  0.00    -0.248 NA
ATOM     30  C   UNL A   1      41.947  30.479  35.408  1.00  0.00     0.031 C 
ATOM     31  C   UNL A   1      37.499  34.002  33.226  1.00  0.00     0.029 A 
ATOM     32  C   UNL A   1      38.421  32.974  33.364  1.00  0.00     0.049 A 
ATOM     33  H   UNL A   1      38.824  31.370  32.059  1.00  0.00     0.167 HD
ATOM     34  C   UNL A   1      40.221  31.700  34.517  1.00  0.00     0.074 A 
ATOM     35  C   UNL A   1      41.100  31.470  35.645  1.00  0.00     0.031 C 
ATOM     36  C   UNL A   1      39.343  32.731  34.441  1.00  0.00     0.037 A 
BRANCH  23  37
ATOM     37  C   UNL A   1      35.909  32.776  29.300  1.00  0.00     0.057 A 
ATOM     38  C   UNL A   1      35.971  34.080  28.791  1.00  0.00     0.134 A 
ATOM     39  C   UNL A   1      34.732  32.051  29.080  1.00  0.00     0.134 A 
ATOM     40  F   UNL A   1      37.058  34.840  28.995  1.00  0.00    -0.206 F 
ATOM     41  C   UNL A   1      34.893  34.643  28.101  1.00  0.00     0.040 A 
ATOM     42  C   UNL A   1      33.655  32.597  28.380  1.00  0.00     0.040 A 
ATOM     43  F   UNL A   1      34.604  30.805  29.559  1.00  0.00    -0.206 F 
ATOM     44  C   UNL A   1      33.732  33.900  27.893  1.00  0.00     0.006 A 
ENDBRANCH  23  37
BRANCH  24  45
ATOM     45  C   UNL A   1      43.186  28.043  34.308  1.00  0.00     0.057 A 
ATOM     46  C   UNL A   1      44.532  28.382  34.499  1.00  0.00     0.134 A 
ATOM     47  C   UNL A   1      42.737  26.867  34.926  1.00  0.00     0.134 A 
ATOM     48  F   UNL A   1      45.050  29.466  33.902  1.00  0.00    -0.206 F 
ATOM     49  C   UNL A   1      45.388  27.592  35.274  1.00  0.00     0.040 A 
ATOM     50  C   UNL A   1      43.569  26.088  35.731  1.00  0.00     0.040 A 
ATOM     51  F   UNL A   1      41.468  26.460  34.769  1.00  0.00    -0.206 F 
ATOM     52  C   UNL A   1      44.902  26.448  35.903  1.00  0.00     0.006 A 
ENDBRANCH  24  45
BRANCH  36  53
ATOM     53  C   UNL A   1      39.364  33.721  35.565  1.00  0.00     0.057 A 
ATOM     54  C   UNL A   1      38.707  33.454  36.773  1.00  0.00     0.134 A 
ATOM     55  C   UNL A   1      40.095  34.910  35.469  1.00  0.00     0.134 A 
ATOM     56  F   UNL A   1      37.989  32.329  36.923  1.00  0.00    -0.206 F 
ATOM     57  C   UNL A   1      38.754  34.349  37.840  1.00  0.00     0.040 A 
ATOM     58  C   UNL A   1      40.174  35.799  36.540  1.00  0.00     0.040 A 
ATOM     59  F   UNL A   1      40.761  35.214  34.345  1.00  0.00    -0.206 F 
ATOM     60  C   UNL A   1      39.497  35.522  37.728  1.00  0.00     0.006 A 
ENDBRANCH  36  53
ENDBRANCH  10  11
ENDBRANCH   3   5
ENDBRANCH   2   3
ENDBRANCH   1   2
BRANCH   1  61
ATOM     61  C   UNL A   1      36.438  23.688  25.463  1.00  0.00     0.274 C 
BRANCH  61  62
ATOM     62  O   UNL A   1      35.855  23.239  26.700  1.00  0.00    -0.460 OA
BRANCH  62  63
ATOM     63  C   UNL A   1      34.819  22.372  26.719  1.00  0.00     0.331 C 
ATOM     64  O   UNL A   1      34.381  21.848  27.735  1.00  0.00    -0.250 OA
BRANCH  63  65
ATOM     65  C   UNL A   1      34.130  22.292  25.330  1.00  0.00     0.219 C 
BRANCH  65  66
ATOM     66  C   UNL A   1      34.451  20.766  24.293  1.00  0.00     0.074 C 
BRANCH  66  67
ATOM     67  C   UNL A   1      33.657  18.762  24.311  1.00  0.00    -0.045 A 
ATOM     68  C   UNL A   1      34.101  17.522  23.573  1.00  0.00     0.004 A 
ATOM     69  C   UNL A   1      32.767  18.081  25.418  1.00  0.00     0.004 A 
ATOM     70  C   UNL A   1      34.037  16.161  24.037  1.00  0.00     0.000 A 
ATOM     71  C   UNL A   1      32.643  16.737  25.829  1.00  0.00     0.000 A 
ATOM     72  C   UNL A   1      33.367  15.782  25.187  1.00  0.00     0.000 A 
ENDBRANCH  66  67
ENDBRANCH  65  66
BRANCH  65  73
ATOM     73  N   UNL A   1      32.801  22.962  25.176  1.00  0.00    -0.268 NA
ATOM     74  C   UNL A   1      32.376  24.131  24.847  1.00  0.00     0.110 C 
ATOM     75  C   UNL A   1      33.142  25.393  24.514  1.00  0.00     0.209 C 
ATOM     76  C   UNL A   1      30.911  24.449  25.018  1.00  0.00     0.205 C 
ATOM     77  O   UNL A   1      33.753  25.547  23.474  1.00  0.00    -0.287 OA
ATOM     78  C   UNL A   1      32.963  26.501  25.471  1.00  0.00     0.035 A 
ATOM     79  C   UNL A   1      30.687  25.581  26.006  1.00  0.00     0.187 C 
ATOM     80  Cl  UNL A   1      30.216  24.931  23.455  1.00  0.00    -0.107 Cl
ATOM     81  C   UNL A   1      33.980  27.449  25.644  1.00  0.00     0.013 A 
ATOM     82  C   UNL A   1      31.789  26.564  26.228  1.00  0.00     0.031 A 
ATOM     83  O   UNL A   1      29.619  25.737  26.591  1.00  0.00    -0.292 OA
ATOM     84  C   UNL A   1      33.836  28.443  26.611  1.00  0.00     0.001 A 
ATOM     85  C   UNL A   1      31.655  27.564  27.198  1.00  0.00     0.012 A 
ATOM     86  C   UNL A   1      32.679  28.497  27.391  1.00  0.00     0.001 A 
ENDBRANCH  65  73
ENDBRANCH  63  65
ENDBRANCH  62  63
ENDBRANCH  61  62
ENDBRANCH   1  61
TORSDOF 14
ENDMDL
