MODEL 1
REMARK VINA RESULT:     -12.4      0.000      0.000
REMARK SMILES C[C@@H](C(=O)OCCOC(=O)c1ccc(-c2c3nc(c(-c4c(F)cccc4F)c4ccc([nH]4)c(-c4c(F)cccc4F)c4nc(c(-c5c(F)cccc5F)c5ccc2[nH]5)C=C4)C=C3)cc1)c1ccc(-c2cccc(OC(=O)NCCCc3ccccc3)c2)c(F)c1
REMARK SMILES IDX 1 1 2 2 3 3 4 4 5 5 6 6 7 7 8 8 9 9 10 10 11 11 12 12 64 13
REMARK SMILES IDX 13 14 63 15 14 16 15 17 16 18 57 19 17 20 62 21 56 22 58 23
REMARK SMILES IDX 18 24 61 25 55 26 54 27 19 29 45 30 28 31 44 32 29 33 32 34
REMARK SMILES IDX 43 35 59 36 30 37 31 38 42 40 60 41 33 42 20 43 21 44 26 45
REMARK SMILES IDX 22 46 23 47 25 48 27 49 24 50 46 51 47 52 52 53 48 54 49 55
REMARK SMILES IDX 51 56 53 57 50 58 34 59 35 60 40 61 36 62 37 63 39 64 41 65
REMARK SMILES IDX 38 66 65 67 66 68 90 69 67 70 88 71 68 72 89 73 69 74 70 75
REMARK SMILES IDX 87 76 71 77 73 78 72 79 74 80 75 81 76 82 77 83 78 85 79 86
REMARK SMILES IDX 80 87 81 88 82 89 86 90 83 91 85 92 84 93
REMARK H PARENT 58 28 32 39 77 84
REMARK Flexibility Score: inf
ROOT
ATOM      1  C   UNL A   1      41.970  18.651  27.985  1.00  0.00     0.025 C 
ATOM      2  C   UNL A   1      42.133  19.732  26.910  1.00  0.00     0.126 C 
ENDROOT
BRANCH   2   3
ATOM      3  C   UNL A   1      42.957  19.271  25.701  1.00  0.00     0.313 C 
ATOM      4  O   UNL A   1      43.276  18.102  25.507  1.00  0.00    -0.252 OA
BRANCH   3   5
ATOM      5  O   UNL A   1      43.257  20.291  24.851  1.00  0.00    -0.462 OA
BRANCH   5   6
ATOM      6  C   UNL A   1      44.369  21.135  25.209  1.00  0.00     0.274 C 
BRANCH   6   7
ATOM      7  C   UNL A   1      44.463  22.323  24.255  1.00  0.00     0.275 C 
BRANCH   7   8
ATOM      8  O   UNL A   1      43.663  23.414  24.743  1.00  0.00    -0.458 OA
BRANCH   8   9
ATOM      9  C   UNL A   1      44.340  24.542  25.057  1.00  0.00     0.338 C 
ATOM     10  O   UNL A   1      45.433  24.893  24.649  1.00  0.00    -0.246 OA
BRANCH   9  11
ATOM     11  C   UNL A   1      43.534  25.361  25.974  1.00  0.00     0.060 A 
ATOM     12  C   UNL A   1      43.621  26.745  25.891  1.00  0.00     0.016 A 
ATOM     13  C   UNL A   1      42.830  24.764  27.020  1.00  0.00     0.016 A 
ATOM     14  C   UNL A   1      43.108  27.526  26.925  1.00  0.00     0.010 A 
ATOM     15  C   UNL A   1      42.231  25.566  28.004  1.00  0.00     0.010 A 
ATOM     16  C   UNL A   1      42.413  26.960  28.005  1.00  0.00    -0.014 A 
BRANCH  16  17
ATOM     17  C   UNL A   1      41.950  27.819  29.144  1.00  0.00     0.031 A 
ATOM     18  C   UNL A   1      42.794  27.980  30.389  1.00  0.00     0.074 A 
ATOM     19  C   UNL A   1      40.796  28.515  29.059  1.00  0.00     0.049 A 
ATOM     20  N   UNL A   1      42.478  28.521  31.543  1.00  0.00    -0.248 NA
ATOM     21  C   UNL A   1      44.161  27.438  30.346  1.00  0.00     0.031 C 
ATOM     22  C   UNL A   1      39.897  28.533  27.906  1.00  0.00     0.029 A 
ATOM     23  N   UNL A   1      40.203  29.382  29.946  1.00  0.00    -0.354 N 
ATOM     24  C   UNL A   1      43.567  28.301  32.382  1.00  0.00     0.074 A 
ATOM     25  C   UNL A   1      44.558  27.592  31.602  1.00  0.00     0.031 C 
ATOM     26  C   UNL A   1      38.941  29.451  28.104  1.00  0.00     0.029 A 
ATOM     27  C   UNL A   1      39.076  29.992  29.451  1.00  0.00     0.049 A 
ATOM     28  H   UNL A   1      40.554  29.552  30.850  1.00  0.00     0.167 HD
ATOM     29  C   UNL A   1      43.718  28.646  33.684  1.00  0.00     0.037 A 
ATOM     30  C   UNL A   1      38.224  30.868  30.016  1.00  0.00     0.037 A 
ATOM     31  C   UNL A   1      42.776  29.446  34.428  1.00  0.00     0.049 A 
ATOM     32  C   UNL A   1      38.422  31.263  31.451  1.00  0.00     0.074 A 
ATOM     33  C   UNL A   1      42.834  29.836  35.756  1.00  0.00     0.029 A 
ATOM     34  N   UNL A   1      41.623  30.005  33.899  1.00  0.00    -0.354 N 
ATOM     35  N   UNL A   1      39.399  30.955  32.268  1.00  0.00    -0.248 NA
ATOM     36  C   UNL A   1      37.375  32.099  32.056  1.00  0.00     0.031 C 
ATOM     37  C   UNL A   1      41.699  30.604  36.038  1.00  0.00     0.029 A 
ATOM     38  C   UNL A   1      40.959  30.730  34.875  1.00  0.00     0.049 A 
ATOM     39  H   UNL A   1      41.323  29.902  32.967  1.00  0.00     0.167 HD
ATOM     40  C   UNL A   1      39.077  31.540  33.484  1.00  0.00     0.074 A 
ATOM     41  C   UNL A   1      37.842  32.269  33.284  1.00  0.00     0.031 C 
ATOM     42  C   UNL A   1      39.733  31.457  34.667  1.00  0.00     0.037 A 
BRANCH  29  43
ATOM     43  C   UNL A   1      44.916  28.114  34.419  1.00  0.00     0.057 A 
ATOM     44  C   UNL A   1      44.927  26.866  35.049  1.00  0.00     0.134 A 
ATOM     45  C   UNL A   1      46.105  28.860  34.447  1.00  0.00     0.134 A 
ATOM     46  F   UNL A   1      43.826  26.098  35.058  1.00  0.00    -0.206 F 
ATOM     47  C   UNL A   1      46.066  26.389  35.704  1.00  0.00     0.040 A 
ATOM     48  C   UNL A   1      47.258  28.381  35.070  1.00  0.00     0.040 A 
ATOM     49  F   UNL A   1      46.172  30.059  33.847  1.00  0.00    -0.206 F 
ATOM     50  C   UNL A   1      47.239  27.145  35.709  1.00  0.00     0.006 A 
ENDBRANCH  29  43
BRANCH  30  51
ATOM     51  C   UNL A   1      37.082  31.408  29.232  1.00  0.00     0.057 A 
ATOM     52  C   UNL A   1      35.938  30.635  29.006  1.00  0.00     0.134 A 
ATOM     53  C   UNL A   1      37.099  32.703  28.699  1.00  0.00     0.134 A 
ATOM     54  F   UNL A   1      35.869  29.378  29.469  1.00  0.00    -0.206 F 
ATOM     55  C   UNL A   1      34.853  31.129  28.277  1.00  0.00     0.040 A 
ATOM     56  C   UNL A   1      36.008  33.222  28.001  1.00  0.00     0.040 A 
ATOM     57  F   UNL A   1      38.167  33.495  28.875  1.00  0.00    -0.206 F 
ATOM     58  C   UNL A   1      34.883  32.431  27.783  1.00  0.00     0.006 A 
ENDBRANCH  30  51
BRANCH  42  59
ATOM     59  C   UNL A   1      39.132  32.182  35.834  1.00  0.00     0.057 A 
ATOM     60  C   UNL A   1      38.259  31.545  36.726  1.00  0.00     0.134 A 
ATOM     61  C   UNL A   1      39.449  33.522  36.087  1.00  0.00     0.134 A 
ATOM     62  F   UNL A   1      37.905  30.265  36.532  1.00  0.00    -0.206 F 
ATOM     63  C   UNL A   1      37.702  32.222  37.812  1.00  0.00     0.040 A 
ATOM     64  C   UNL A   1      38.920  34.203  37.184  1.00  0.00     0.040 A 
ATOM     65  F   UNL A   1      40.287  34.187  35.278  1.00  0.00    -0.206 F 
ATOM     66  C   UNL A   1      38.038  33.554  38.047  1.00  0.00     0.006 A 
ENDBRANCH  42  59
ENDBRANCH  16  17
ENDBRANCH   9  11
ENDBRANCH   8   9
ENDBRANCH   7   8
ENDBRANCH   6   7
ENDBRANCH   5   6
ENDBRANCH   3   5
ENDBRANCH   2   3
BRANCH   2  67
ATOM     67  C   UNL A   1      40.804  20.341  26.471  1.00  0.00    -0.031 A 
ATOM     68  C   UNL A   1      40.553  21.706  26.683  1.00  0.00     0.005 A 
ATOM     69  C   UNL A   1      39.829  19.600  25.795  1.00  0.00     0.044 A 
ATOM     70  C   UNL A   1      39.368  22.309  26.232  1.00  0.00     0.012 A 
ATOM     71  C   UNL A   1      38.657  20.208  25.342  1.00  0.00     0.131 A 
ATOM     72  C   UNL A   1      38.390  21.576  25.540  1.00  0.00     0.018 A 
ATOM     73  F   UNL A   1      37.813  19.443  24.631  1.00  0.00    -0.206 F 
BRANCH  72  74
ATOM     74  C   UNL A   1      37.154  22.214  25.030  1.00  0.00    -0.012 A 
ATOM     75  C   UNL A   1      37.009  22.619  23.690  1.00  0.00     0.009 A 
ATOM     76  C   UNL A   1      36.066  22.436  25.889  1.00  0.00     0.056 A 
ATOM     77  C   UNL A   1      35.825  23.210  23.232  1.00  0.00     0.004 A 
ATOM     78  C   UNL A   1      34.899  23.052  25.440  1.00  0.00     0.133 A 
ATOM     79  C   UNL A   1      34.763  23.419  24.105  1.00  0.00     0.047 A 
BRANCH  78  80
ATOM     80  O   UNL A   1      33.798  23.341  26.274  1.00  0.00    -0.410 OA
BRANCH  80  81
ATOM     81  C   UNL A   1      33.211  22.411  27.125  1.00  0.00     0.412 C 
ATOM     82  O   UNL A   1      33.380  22.303  28.334  1.00  0.00    -0.224 OA
ATOM     83  N   UNL A   1      32.322  21.590  26.496  1.00  0.00    -0.321 N 
ATOM     84  H   UNL A   1      31.969  20.830  27.013  1.00  0.00     0.167 HD
BRANCH  83  85
ATOM     85  C   UNL A   1      31.852  21.736  25.141  1.00  0.00     0.120 C 
BRANCH  85  86
ATOM     86  C   UNL A   1      32.260  20.593  24.211  1.00  0.00     0.026 C 
BRANCH  86  87
ATOM     87  C   UNL A   1      33.633  19.936  24.422  1.00  0.00     0.037 C 
BRANCH  87  88
ATOM     88  C   UNL A   1      33.747  18.460  24.733  1.00  0.00    -0.048 A 
ATOM     89  C   UNL A   1      34.882  17.680  24.500  1.00  0.00     0.004 A 
ATOM     90  C   UNL A   1      32.603  17.818  25.244  1.00  0.00     0.004 A 
ATOM     91  C   UNL A   1      34.879  16.306  24.768  1.00  0.00     0.000 A 
ATOM     92  C   UNL A   1      32.600  16.449  25.522  1.00  0.00     0.000 A 
ATOM     93  C   UNL A   1      33.740  15.691  25.280  1.00  0.00     0.000 A 
ENDBRANCH  87  88
ENDBRANCH  86  87
ENDBRANCH  85  86
ENDBRANCH  83  85
ENDBRANCH  80  81
ENDBRANCH  78  80
ENDBRANCH  72  74
ENDBRANCH   2  67
TORSDOF 19
ENDMDL
MODEL 2
REMARK VINA RESULT:     -12.3      5.196     11.008
REMARK SMILES C[C@@H](C(=O)OCCOC(=O)c1ccc(-c2c3nc(c(-c4c(F)cccc4F)c4ccc([nH]4)c(-c4c(F)cccc4F)c4nc(c(-c5c(F)cccc5F)c5ccc2[nH]5)C=C4)C=C3)cc1)c1ccc(-c2cccc(OC(=O)NCCCc3ccccc3)c2)c(F)c1
REMARK SMILES IDX 1 1 2 2 3 3 4 4 5 5 6 6 7 7 8 8 9 9 10 10 11 11 12 12 64 13
REMARK SMILES IDX 13 14 63 15 14 16 15 17 16 18 57 19 17 20 62 21 56 22 58 23
REMARK SMILES IDX 18 24 61 25 55 26 54 27 19 29 45 30 28 31 44 32 29 33 32 34
REMARK SMILES IDX 43 35 59 36 30 37 31 38 42 40 60 41 33 42 20 43 21 44 26 45
REMARK SMILES IDX 22 46 23 47 25 48 27 49 24 50 46 51 47 52 52 53 48 54 49 55
REMARK SMILES IDX 51 56 53 57 50 58 34 59 35 60 40 61 36 62 37 63 39 64 41 65
REMARK SMILES IDX 38 66 65 67 66 68 90 69 67 70 88 71 68 72 89 73 69 74 70 75
REMARK SMILES IDX 87 76 71 77 73 78 72 79 74 80 75 81 76 82 77 83 78 85 79 86
REMARK SMILES IDX 80 87 81 88 82 89 86 90 83 91 85 92 84 93
REMARK H PARENT 58 28 32 39 77 84
REMARK Flexibility Score: inf
ROOT
ATOM      1  C   UNL A   1      34.399  36.114  28.038  1.00  0.00     0.025 C 
ATOM      2  C   UNL A   1      34.125  34.967  29.019  1.00  0.00     0.126 C 
ENDROOT
BRANCH   2   3
ATOM      3  C   UNL A   1      33.144  35.343  30.138  1.00  0.00     0.313 C 
ATOM      4  O   UNL A   1      32.360  36.284  30.061  1.00  0.00    -0.252 OA
BRANCH   3   5
ATOM      5  O   UNL A   1      33.211  34.496  31.200  1.00  0.00    -0.462 OA
BRANCH   5   6
ATOM      6  C   UNL A   1      34.469  34.421  31.898  1.00  0.00     0.274 C 
BRANCH   6   7
ATOM      7  C   UNL A   1      34.469  33.244  32.872  1.00  0.00     0.275 C 
BRANCH   7   8
ATOM      8  O   UNL A   1      35.264  32.167  32.347  1.00  0.00    -0.458 OA
BRANCH   8   9
ATOM      9  C   UNL A   1      36.394  31.886  33.033  1.00  0.00     0.338 C 
ATOM     10  O   UNL A   1      36.633  32.120  34.205  1.00  0.00    -0.246 OA
BRANCH   9  11
ATOM     11  C   UNL A   1      37.344  31.187  32.154  1.00  0.00     0.060 A 
ATOM     12  C   UNL A   1      38.359  30.431  32.727  1.00  0.00     0.016 A 
ATOM     13  C   UNL A   1      37.332  31.418  30.778  1.00  0.00     0.016 A 
ATOM     14  C   UNL A   1      39.428  30.012  31.938  1.00  0.00     0.010 A 
ATOM     15  C   UNL A   1      38.365  30.906  29.977  1.00  0.00     0.010 A 
ATOM     16  C   UNL A   1      39.463  30.246  30.554  1.00  0.00    -0.014 A 
BRANCH  16  17
ATOM     17  C   UNL A   1      40.668  29.858  29.750  1.00  0.00     0.031 A 
ATOM     18  C   UNL A   1      40.761  28.496  29.098  1.00  0.00     0.074 A 
ATOM     19  C   UNL A   1      41.671  30.738  29.540  1.00  0.00     0.049 A 
ATOM     20  N   UNL A   1      41.793  27.915  28.530  1.00  0.00    -0.248 NA
ATOM     21  C   UNL A   1      39.549  27.663  29.110  1.00  0.00     0.031 C 
ATOM     22  C   UNL A   1      41.711  32.114  30.032  1.00  0.00     0.029 A 
ATOM     23  N   UNL A   1      42.833  30.618  28.815  1.00  0.00    -0.354 N 
ATOM     24  C   UNL A   1      41.378  26.627  28.206  1.00  0.00     0.074 A 
ATOM     25  C   UNL A   1      39.998  26.515  28.624  1.00  0.00     0.031 C 
ATOM     26  C   UNL A   1      42.769  32.743  29.502  1.00  0.00     0.029 A 
ATOM     27  C   UNL A   1      43.558  31.782  28.740  1.00  0.00     0.049 A 
ATOM     28  H   UNL A   1      43.117  29.778  28.388  1.00  0.00     0.167 HD
ATOM     29  C   UNL A   1      42.089  25.628  27.625  1.00  0.00     0.037 A 
ATOM     30  C   UNL A   1      44.739  32.052  28.152  1.00  0.00     0.037 A 
ATOM     31  C   UNL A   1      43.428  25.775  27.111  1.00  0.00     0.049 A 
ATOM     32  C   UNL A   1      45.499  30.941  27.488  1.00  0.00     0.074 A 
ATOM     33  C   UNL A   1      44.235  24.818  26.519  1.00  0.00     0.029 A 
ATOM     34  N   UNL A   1      44.143  26.962  27.098  1.00  0.00    -0.354 N 
ATOM     35  N   UNL A   1      45.141  29.697  27.288  1.00  0.00    -0.248 NA
ATOM     36  C   UNL A   1      46.848  31.263  27.000  1.00  0.00     0.031 C 
ATOM     37  C   UNL A   1      45.452  25.419  26.177  1.00  0.00     0.029 A 
ATOM     38  C   UNL A   1      45.384  26.760  26.515  1.00  0.00     0.049 A 
ATOM     39  H   UNL A   1      43.816  27.822  27.450  1.00  0.00     0.167 HD
ATOM     40  C   UNL A   1      46.223  29.084  26.672  1.00  0.00     0.074 A 
ATOM     41  C   UNL A   1      47.230  30.107  26.479  1.00  0.00     0.031 C 
ATOM     42  C   UNL A   1      46.378  27.784  26.323  1.00  0.00     0.037 A 
BRANCH  29  43
ATOM     43  C   UNL A   1      41.462  24.263  27.564  1.00  0.00     0.057 A 
ATOM     44  C   UNL A   1      40.457  23.930  26.651  1.00  0.00     0.134 A 
ATOM     45  C   UNL A   1      41.923  23.246  28.414  1.00  0.00     0.134 A 
ATOM     46  F   UNL A   1      39.972  24.853  25.806  1.00  0.00    -0.206 F 
ATOM     47  C   UNL A   1      39.911  22.644  26.604  1.00  0.00     0.040 A 
ATOM     48  C   UNL A   1      41.409  21.950  28.354  1.00  0.00     0.040 A 
ATOM     49  F   UNL A   1      42.899  23.489  29.303  1.00  0.00    -0.206 F 
ATOM     50  C   UNL A   1      40.393  21.647  27.452  1.00  0.00     0.006 A 
ENDBRANCH  29  43
BRANCH  30  51
ATOM     51  C   UNL A   1      45.293  33.431  28.194  1.00  0.00     0.057 A 
ATOM     52  C   UNL A   1      44.885  34.398  27.268  1.00  0.00     0.134 A 
ATOM     53  C   UNL A   1      46.232  33.820  29.158  1.00  0.00     0.134 A 
ATOM     54  F   UNL A   1      44.007  34.082  26.303  1.00  0.00    -0.206 F 
ATOM     55  C   UNL A   1      45.391  35.699  27.297  1.00  0.00     0.040 A 
ATOM     56  C   UNL A   1      46.717  35.127  29.223  1.00  0.00     0.040 A 
ATOM     57  F   UNL A   1      46.668  32.942  30.073  1.00  0.00    -0.206 F 
ATOM     58  C   UNL A   1      46.301  36.069  28.286  1.00  0.00     0.006 A 
ENDBRANCH  30  51
BRANCH  42  59
ATOM     59  C   UNL A   1      47.680  27.397  25.686  1.00  0.00     0.057 A 
ATOM     60  C   UNL A   1      47.865  27.452  24.298  1.00  0.00     0.134 A 
ATOM     61  C   UNL A   1      48.768  26.992  26.468  1.00  0.00     0.134 A 
ATOM     62  F   UNL A   1      46.858  27.821  23.492  1.00  0.00    -0.206 F 
ATOM     63  C   UNL A   1      49.079  27.093  23.709  1.00  0.00     0.040 A 
ATOM     64  C   UNL A   1      49.994  26.655  25.893  1.00  0.00     0.040 A 
ATOM     65  F   UNL A   1      48.660  26.927  27.804  1.00  0.00    -0.206 F 
ATOM     66  C   UNL A   1      50.149  26.698  24.508  1.00  0.00     0.006 A 
ENDBRANCH  42  59
ENDBRANCH  16  17
ENDBRANCH   9  11
ENDBRANCH   8   9
ENDBRANCH   7   8
ENDBRANCH   6   7
ENDBRANCH   5   6
ENDBRANCH   3   5
ENDBRANCH   2   3
BRANCH   2  67
ATOM     67  C   UNL A   1      33.699  33.677  28.324  1.00  0.00    -0.031 A 
ATOM     68  C   UNL A   1      34.482  32.518  28.456  1.00  0.00     0.005 A 
ATOM     69  C   UNL A   1      32.507  33.575  27.599  1.00  0.00     0.044 A 
ATOM     70  C   UNL A   1      34.083  31.300  27.884  1.00  0.00     0.012 A 
ATOM     71  C   UNL A   1      32.114  32.358  27.040  1.00  0.00     0.131 A 
ATOM     72  C   UNL A   1      32.881  31.185  27.167  1.00  0.00     0.018 A 
ATOM     73  F   UNL A   1      30.917  32.331  26.432  1.00  0.00    -0.206 F 
BRANCH  72  74
ATOM     74  C   UNL A   1      32.438  29.894  26.591  1.00  0.00    -0.012 A 
ATOM     75  C   UNL A   1      31.825  28.891  27.366  1.00  0.00     0.009 A 
ATOM     76  C   UNL A   1      32.618  29.629  25.225  1.00  0.00     0.056 A 
ATOM     77  C   UNL A   1      31.405  27.683  26.793  1.00  0.00     0.004 A 
ATOM     78  C   UNL A   1      32.227  28.416  24.661  1.00  0.00     0.133 A 
ATOM     79  C   UNL A   1      31.598  27.447  25.436  1.00  0.00     0.047 A 
BRANCH  78  80
ATOM     80  O   UNL A   1      32.431  28.083  23.304  1.00  0.00    -0.410 OA
BRANCH  80  81
ATOM     81  C   UNL A   1      31.396  27.884  22.397  1.00  0.00     0.412 C 
ATOM     82  O   UNL A   1      30.476  28.652  22.144  1.00  0.00    -0.224 OA
ATOM     83  N   UNL A   1      31.501  26.712  21.707  1.00  0.00    -0.321 N 
ATOM     84  H   UNL A   1      30.736  26.453  21.144  1.00  0.00     0.167 HD
BRANCH  83  85
ATOM     85  C   UNL A   1      32.632  25.819  21.729  1.00  0.00     0.120 C 
BRANCH  85  86
ATOM     86  C   UNL A   1      32.365  24.489  22.433  1.00  0.00     0.026 C 
BRANCH  86  87
ATOM     87  C   UNL A   1      32.818  24.332  23.893  1.00  0.00     0.037 C 
BRANCH  87  88
ATOM     88  C   UNL A   1      34.252  23.986  24.228  1.00  0.00    -0.048 A 
ATOM     89  C   UNL A   1      34.910  24.358  25.403  1.00  0.00     0.004 A 
ATOM     90  C   UNL A   1      34.990  23.285  23.255  1.00  0.00     0.004 A 
ATOM     91  C   UNL A   1      36.259  24.041  25.603  1.00  0.00     0.000 A 
ATOM     92  C   UNL A   1      36.333  22.959  23.458  1.00  0.00     0.000 A 
ATOM     93  C   UNL A   1      36.969  23.342  24.633  1.00  0.00     0.000 A 
ENDBRANCH  87  88
ENDBRANCH  86  87
ENDBRANCH  85  86
ENDBRANCH  83  85
ENDBRANCH  80  81
ENDBRANCH  78  80
ENDBRANCH  72  74
ENDBRANCH   2  67
TORSDOF 19
ENDMDL
MODEL 3
REMARK VINA RESULT:     -12.3      1.515      6.705
REMARK SMILES C[C@@H](C(=O)OCCOC(=O)c1ccc(-c2c3nc(c(-c4c(F)cccc4F)c4ccc([nH]4)c(-c4c(F)cccc4F)c4nc(c(-c5c(F)cccc5F)c5ccc2[nH]5)C=C4)C=C3)cc1)c1ccc(-c2cccc(OC(=O)NCCCc3ccccc3)c2)c(F)c1
REMARK SMILES IDX 1 1 2 2 3 3 4 4 5 5 6 6 7 7 8 8 9 9 10 10 11 11 12 12 64 13
REMARK SMILES IDX 13 14 63 15 14 16 15 17 16 18 57 19 17 20 62 21 56 22 58 23
REMARK SMILES IDX 18 24 61 25 55 26 54 27 19 29 45 30 28 31 44 32 29 33 32 34
REMARK SMILES IDX 43 35 59 36 30 37 31 38 42 40 60 41 33 42 20 43 21 44 26 45
REMARK SMILES IDX 22 46 23 47 25 48 27 49 24 50 46 51 47 52 52 53 48 54 49 55
REMARK SMILES IDX 51 56 53 57 50 58 34 59 35 60 40 61 36 62 37 63 39 64 41 65
REMARK SMILES IDX 38 66 65 67 66 68 90 69 67 70 88 71 68 72 89 73 69 74 70 75
REMARK SMILES IDX 87 76 71 77 73 78 72 79 74 80 75 81 76 82 77 83 78 85 79 86
REMARK SMILES IDX 80 87 81 88 82 89 86 90 83 91 85 92 84 93
REMARK H PARENT 58 28 32 39 77 84
REMARK Flexibility Score: inf
ROOT
ATOM      1  C   UNL A   1      42.073  19.051  27.991  1.00  0.00     0.025 C 
ATOM      2  C   UNL A   1      42.203  19.946  26.752  1.00  0.00     0.126 C 
ENDROOT
BRANCH   2   3
ATOM      3  C   UNL A   1      43.013  19.303  25.618  1.00  0.00     0.313 C 
ATOM      4  O   UNL A   1      43.156  18.090  25.493  1.00  0.00    -0.252 OA
BRANCH   3   5
ATOM      5  O   UNL A   1      43.516  20.220  24.748  1.00  0.00    -0.462 OA
BRANCH   5   6
ATOM      6  C   UNL A   1      44.223  21.340  25.316  1.00  0.00     0.274 C 
BRANCH   6   7
ATOM      7  C   UNL A   1      44.144  22.547  24.383  1.00  0.00     0.275 C 
BRANCH   7   8
ATOM      8  O   UNL A   1      43.323  23.572  24.969  1.00  0.00    -0.458 OA
BRANCH   8   9
ATOM      9  C   UNL A   1      43.928  24.765  25.168  1.00  0.00     0.338 C 
ATOM     10  O   UNL A   1      44.935  25.189  24.627  1.00  0.00    -0.246 OA
BRANCH   9  11
ATOM     11  C   UNL A   1      43.160  25.552  26.144  1.00  0.00     0.060 A 
ATOM     12  C   UNL A   1      43.411  26.913  26.256  1.00  0.00     0.016 A 
ATOM     13  C   UNL A   1      42.320  24.916  27.059  1.00  0.00     0.016 A 
ATOM     14  C   UNL A   1      42.921  27.611  27.357  1.00  0.00     0.010 A 
ATOM     15  C   UNL A   1      41.751  25.651  28.109  1.00  0.00     0.010 A 
ATOM     16  C   UNL A   1      42.091  27.000  28.311  1.00  0.00    -0.014 A 
BRANCH  16  17
ATOM     17  C   UNL A   1      41.651  27.755  29.530  1.00  0.00     0.031 A 
ATOM     18  C   UNL A   1      40.396  28.600  29.508  1.00  0.00     0.074 A 
ATOM     19  C   UNL A   1      42.333  27.651  30.690  1.00  0.00     0.049 A 
ATOM     20  N   UNL A   1      39.963  29.468  30.394  1.00  0.00    -0.248 NA
ATOM     21  C   UNL A   1      39.529  28.481  28.326  1.00  0.00     0.031 C 
ATOM     22  C   UNL A   1      43.519  26.825  30.909  1.00  0.00     0.029 A 
ATOM     23  N   UNL A   1      42.095  28.210  31.925  1.00  0.00    -0.354 N 
ATOM     24  C   UNL A   1      38.833  30.056  29.835  1.00  0.00     0.074 A 
ATOM     25  C   UNL A   1      38.636  29.437  28.542  1.00  0.00     0.031 C 
ATOM     26  C   UNL A   1      43.834  26.836  32.211  1.00  0.00     0.029 A 
ATOM     27  C   UNL A   1      42.955  27.773  32.902  1.00  0.00     0.049 A 
ATOM     28  H   UNL A   1      41.375  28.861  32.091  1.00  0.00     0.167 HD
ATOM     29  C   UNL A   1      38.042  31.031  30.348  1.00  0.00     0.037 A 
ATOM     30  C   UNL A   1      43.054  28.102  34.204  1.00  0.00     0.037 A 
ATOM     31  C   UNL A   1      38.175  31.569  31.679  1.00  0.00     0.049 A 
ATOM     32  C   UNL A   1      42.151  29.163  34.764  1.00  0.00     0.074 A 
ATOM     33  C   UNL A   1      37.431  32.568  32.285  1.00  0.00     0.029 A 
ATOM     34  N   UNL A   1      39.091  31.129  32.621  1.00  0.00    -0.354 N 
ATOM     35  N   UNL A   1      41.158  29.793  34.188  1.00  0.00    -0.248 NA
ATOM     36  C   UNL A   1      42.410  29.587  36.148  1.00  0.00     0.031 C 
ATOM     37  C   UNL A   1      37.919  32.755  33.583  1.00  0.00     0.029 A 
ATOM     38  C   UNL A   1      38.935  31.841  33.800  1.00  0.00     0.049 A 
ATOM     39  H   UNL A   1      39.753  30.415  32.474  1.00  0.00     0.167 HD
ATOM     40  C   UNL A   1      40.686  30.699  35.128  1.00  0.00     0.074 A 
ATOM     41  C   UNL A   1      41.465  30.498  36.332  1.00  0.00     0.031 C 
ATOM     42  C   UNL A   1      39.712  31.631  34.994  1.00  0.00     0.037 A 
BRANCH  29  43
ATOM     43  C   UNL A   1      36.995  31.631  29.452  1.00  0.00     0.057 A 
ATOM     44  C   UNL A   1      37.142  32.883  28.847  1.00  0.00     0.134 A 
ATOM     45  C   UNL A   1      35.833  30.904  29.153  1.00  0.00     0.134 A 
ATOM     46  F   UNL A   1      38.230  33.631  29.086  1.00  0.00    -0.206 F 
ATOM     47  C   UNL A   1      36.159  33.405  28.001  1.00  0.00     0.040 A 
ATOM     48  C   UNL A   1      34.859  31.399  28.284  1.00  0.00     0.040 A 
ATOM     49  F   UNL A   1      35.634  29.687  29.684  1.00  0.00    -0.206 F 
ATOM     50  C   UNL A   1      35.017  32.657  27.711  1.00  0.00     0.006 A 
ENDBRANCH  29  43
BRANCH  30  51
ATOM     51  C   UNL A   1      44.072  27.442  35.063  1.00  0.00     0.057 A 
ATOM     52  C   UNL A   1      45.355  27.984  35.203  1.00  0.00     0.134 A 
ATOM     53  C   UNL A   1      43.792  26.266  35.770  1.00  0.00     0.134 A 
ATOM     54  F   UNL A   1      45.694  29.097  34.534  1.00  0.00    -0.206 F 
ATOM     55  C   UNL A   1      46.321  27.381  36.011  1.00  0.00     0.040 A 
ATOM     56  C   UNL A   1      44.734  25.673  36.610  1.00  0.00     0.040 A 
ATOM     57  F   UNL A   1      42.583  25.691  35.677  1.00  0.00    -0.206 F 
ATOM     58  C   UNL A   1      46.006  26.228  36.727  1.00  0.00     0.006 A 
ENDBRANCH  30  51
BRANCH  42  59
ATOM     59  C   UNL A   1      39.428  32.498  36.185  1.00  0.00     0.057 A 
ATOM     60  C   UNL A   1      40.099  33.712  36.388  1.00  0.00     0.134 A 
ATOM     61  C   UNL A   1      38.457  32.132  37.124  1.00  0.00     0.134 A 
ATOM     62  F   UNL A   1      41.050  34.115  35.531  1.00  0.00    -0.206 F 
ATOM     63  C   UNL A   1      39.831  34.517  37.497  1.00  0.00     0.040 A 
ATOM     64  C   UNL A   1      38.162  32.940  38.223  1.00  0.00     0.040 A 
ATOM     65  F   UNL A   1      37.771  30.987  36.983  1.00  0.00    -0.206 F 
ATOM     66  C   UNL A   1      38.856  34.134  38.415  1.00  0.00     0.006 A 
ENDBRANCH  42  59
ENDBRANCH  16  17
ENDBRANCH   9  11
ENDBRANCH   8   9
ENDBRANCH   7   8
ENDBRANCH   6   7
ENDBRANCH   5   6
ENDBRANCH   3   5
ENDBRANCH   2   3
BRANCH   2  67
ATOM     67  C   UNL A   1      40.859  20.461  26.245  1.00  0.00    -0.031 A 
ATOM     68  C   UNL A   1      39.951  19.577  25.642  1.00  0.00     0.005 A 
ATOM     69  C   UNL A   1      40.455  21.790  26.415  1.00  0.00     0.044 A 
ATOM     70  C   UNL A   1      38.681  20.006  25.226  1.00  0.00     0.012 A 
ATOM     71  C   UNL A   1      39.188  22.208  26.005  1.00  0.00     0.131 A 
ATOM     72  C   UNL A   1      38.261  21.335  25.405  1.00  0.00     0.018 A 
ATOM     73  F   UNL A   1      38.852  23.479  26.280  1.00  0.00    -0.206 F 
BRANCH  72  74
ATOM     74  C   UNL A   1      36.910  21.786  25.000  1.00  0.00    -0.012 A 
ATOM     75  C   UNL A   1      36.688  22.587  23.864  1.00  0.00     0.009 A 
ATOM     76  C   UNL A   1      35.785  21.416  25.754  1.00  0.00     0.056 A 
ATOM     77  C   UNL A   1      35.397  22.990  23.498  1.00  0.00     0.004 A 
ATOM     78  C   UNL A   1      34.504  21.842  25.407  1.00  0.00     0.133 A 
ATOM     79  C   UNL A   1      34.301  22.610  24.265  1.00  0.00     0.047 A 
BRANCH  78  80
ATOM     80  O   UNL A   1      33.349  21.539  26.159  1.00  0.00    -0.410 OA
BRANCH  80  81
ATOM     81  C   UNL A   1      32.171  21.056  25.601  1.00  0.00     0.412 C 
ATOM     82  O   UNL A   1      32.027  20.025  24.954  1.00  0.00    -0.224 OA
ATOM     83  N   UNL A   1      31.084  21.830  25.879  1.00  0.00    -0.321 N 
ATOM     84  H   UNL A   1      30.246  21.614  25.409  1.00  0.00     0.167 HD
BRANCH  83  85
ATOM     85  C   UNL A   1      31.051  22.938  26.801  1.00  0.00     0.120 C 
BRANCH  85  86
ATOM     86  C   UNL A   1      30.620  24.262  26.173  1.00  0.00     0.026 C 
BRANCH  86  87
ATOM     87  C   UNL A   1      31.662  25.068  25.381  1.00  0.00     0.037 C 
BRANCH  87  88
ATOM     88  C   UNL A   1      32.232  26.355  25.936  1.00  0.00    -0.048 A 
ATOM     89  C   UNL A   1      33.584  26.708  25.905  1.00  0.00     0.004 A 
ATOM     90  C   UNL A   1      31.339  27.233  26.578  1.00  0.00     0.004 A 
ATOM     91  C   UNL A   1      34.030  27.897  26.494  1.00  0.00     0.000 A 
ATOM     92  C   UNL A   1      31.780  28.425  27.157  1.00  0.00     0.000 A 
ATOM     93  C   UNL A   1      33.130  28.755  27.118  1.00  0.00     0.000 A 
ENDBRANCH  87  88
ENDBRANCH  86  87
ENDBRANCH  85  86
ENDBRANCH  83  85
ENDBRANCH  80  81
ENDBRANCH  78  80
ENDBRANCH  72  74
ENDBRANCH   2  67
TORSDOF 19
ENDMDL
