MODEL 1
REMARK VINA RESULT:     -11.8      0.000      0.000
REMARK SMILES C/C(=N/N=c1\[nH]c(O)c(C(=O)OCCOC(=O)c2ccc(-c3c4nc(c(-c5c(F)cccc5F)c5ccc([nH]5)c(-c5c(F)cccc5F)c5nc(c(-c6c(F)cccc6F)c6ccc3[nH]6)C=C5)C=C4)cc2)s1)c1ccc2c(c1)OCO2
REMARK SMILES IDX 13 1 12 2 10 3 11 4 9 5 4 6 5 7 6 8 72 9 7 10 3 12 1 13 2 14
REMARK SMILES IDX 73 15 74 16 78 17 75 18 77 19 76 20 79 21 81 22 80 23 8 24
REMARK SMILES IDX 14 26 15 27 16 28 17 29 18 30 19 31 71 32 20 33 70 34 21 35
REMARK SMILES IDX 22 36 23 37 64 38 24 39 69 40 63 41 65 42 25 43 68 44 62 45
REMARK SMILES IDX 61 46 26 48 52 49 35 50 51 51 36 52 39 53 50 54 66 55 37 56
REMARK SMILES IDX 38 57 49 59 67 60 40 61 27 62 28 63 33 64 29 65 30 66 32 67
REMARK SMILES IDX 34 68 31 69 53 70 54 71 59 72 55 73 56 74 58 75 60 76 57 77
REMARK SMILES IDX 41 78 42 79 47 80 43 81 44 82 46 83 48 84 45 85
REMARK H PARENT 6 11 8 25 65 47 39 58
REMARK Flexibility Score: inf
ROOT
ATOM      1  C   UNL A   1      41.293  19.929  26.866  1.00  0.00     0.275 C 
ENDROOT
BRANCH   1   2
ATOM      2  O   UNL A   1      40.219  20.432  26.059  1.00  0.00    -0.458 OA
BRANCH   2   3
ATOM      3  C   UNL A   1      39.857  21.731  26.247  1.00  0.00     0.354 C 
ATOM      4  O   UNL A   1      40.617  22.627  26.595  1.00  0.00    -0.245 OA
BRANCH   3   5
ATOM      5  C   UNL A   1      38.439  21.923  25.884  1.00  0.00     0.176 A 
ATOM      6  N   UNL A   1      35.029  21.253  24.479  1.00  0.00    -0.121 NA
ATOM      7  C   UNL A   1      36.111  21.714  24.992  1.00  0.00     0.211 A 
ATOM      8  N   UNL A   1      36.368  22.852  25.709  1.00  0.00    -0.300 N 
ATOM      9  S   UNL A   1      37.596  20.758  24.870  1.00  0.00    -0.084 S 
ATOM     10  C   UNL A   1      37.644  22.967  26.194  1.00  0.00     0.216 A 
ATOM     11  H   UNL A   1      35.682  23.540  25.866  1.00  0.00     0.172 HD
BRANCH   6  12
ATOM     12  N   UNL A   1      33.902  22.008  24.784  1.00  0.00    -0.152 NA
ATOM     13  C   UNL A   1      31.531  21.938  25.268  1.00  0.00     0.069 C 
ATOM     14  C   UNL A   1      32.821  21.285  24.833  1.00  0.00     0.067 C 
BRANCH  14  15
ATOM     15  C   UNL A   1      32.739  19.832  24.542  1.00  0.00     0.001 A 
ATOM     16  C   UNL A   1      32.581  19.383  23.213  1.00  0.00     0.014 A 
ATOM     17  C   UNL A   1      32.895  18.930  25.598  1.00  0.00     0.060 A 
ATOM     18  C   UNL A   1      32.615  18.015  22.925  1.00  0.00     0.051 A 
ATOM     19  C   UNL A   1      32.963  17.596  25.273  1.00  0.00     0.166 A 
ATOM     20  C   UNL A   1      32.837  17.151  23.975  1.00  0.00     0.165 A 
ATOM     21  O   UNL A   1      33.205  16.582  26.147  1.00  0.00    -0.454 OA
ATOM     22  O   UNL A   1      32.996  15.803  23.880  1.00  0.00    -0.454 OA
ATOM     23  C   UNL A   1      33.430  15.499  25.222  1.00  0.00     0.468 C 
ENDBRANCH  14  15
ENDBRANCH   6  12
BRANCH  10  24
ATOM     24  O   UNL A   1      38.010  24.070  26.905  1.00  0.00    -0.493 OA
ATOM     25  H   UNL A   1      37.577  24.273  27.710  1.00  0.00     0.295 HD
ENDBRANCH  10  24
ENDBRANCH   3   5
ENDBRANCH   2   3
ENDBRANCH   1   2
BRANCH   1  26
ATOM     26  C   UNL A   1      42.502  19.600  26.002  1.00  0.00     0.275 C 
BRANCH  26  27
ATOM     27  O   UNL A   1      42.863  20.720  25.194  1.00  0.00    -0.458 OA
BRANCH  27  28
ATOM     28  C   UNL A   1      44.187  20.966  25.089  1.00  0.00     0.338 C 
ATOM     29  O   UNL A   1      45.086  20.152  24.968  1.00  0.00    -0.246 OA
BRANCH  28  30
ATOM     30  C   UNL A   1      44.427  22.387  25.358  1.00  0.00     0.060 A 
ATOM     31  C   UNL A   1      45.329  22.699  26.380  1.00  0.00     0.016 A 
ATOM     32  C   UNL A   1      43.558  23.345  24.817  1.00  0.00     0.016 A 
ATOM     33  C   UNL A   1      45.220  23.925  27.001  1.00  0.00     0.010 A 
ATOM     34  C   UNL A   1      43.441  24.560  25.444  1.00  0.00     0.010 A 
ATOM     35  C   UNL A   1      44.216  24.798  26.578  1.00  0.00    -0.014 A 
BRANCH  35  36
ATOM     36  C   UNL A   1      43.994  26.010  27.335  1.00  0.00     0.031 A 
ATOM     37  C   UNL A   1      44.977  27.085  27.069  1.00  0.00     0.074 A 
ATOM     38  C   UNL A   1      42.878  26.167  28.073  1.00  0.00     0.049 A 
ATOM     39  N   UNL A   1      45.716  27.718  27.919  1.00  0.00    -0.248 NA
ATOM     40  C   UNL A   1      45.256  27.419  25.662  1.00  0.00     0.031 C 
ATOM     41  C   UNL A   1      41.719  25.272  28.160  1.00  0.00     0.029 A 
ATOM     42  N   UNL A   1      42.487  27.242  28.802  1.00  0.00    -0.354 N 
ATOM     43  C   UNL A   1      46.428  28.653  27.175  1.00  0.00     0.074 A 
ATOM     44  C   UNL A   1      46.220  28.329  25.790  1.00  0.00     0.031 C 
ATOM     45  C   UNL A   1      40.678  25.949  28.693  1.00  0.00     0.029 A 
ATOM     46  C   UNL A   1      41.128  27.278  29.075  1.00  0.00     0.049 A 
ATOM     47  H   UNL A   1      43.114  27.937  29.110  1.00  0.00     0.167 HD
ATOM     48  C   UNL A   1      46.965  29.761  27.752  1.00  0.00     0.037 A 
ATOM     49  C   UNL A   1      40.425  28.362  29.485  1.00  0.00     0.037 A 
ATOM     50  C   UNL A   1      47.101  29.604  29.174  1.00  0.00     0.049 A 
ATOM     51  C   UNL A   1      41.402  29.354  30.011  1.00  0.00     0.074 A 
ATOM     52  C   UNL A   1      47.785  28.714  29.982  1.00  0.00     0.029 A 
ATOM     53  N   UNL A   1      46.182  30.218  29.988  1.00  0.00    -0.354 N 
ATOM     54  N   UNL A   1      42.079  29.194  31.114  1.00  0.00    -0.248 NA
ATOM     55  C   UNL A   1      41.968  30.314  29.071  1.00  0.00     0.031 C 
ATOM     56  C   UNL A   1      46.924  28.491  31.094  1.00  0.00     0.029 A 
ATOM     57  C   UNL A   1      45.794  29.292  30.922  1.00  0.00     0.049 A 
ATOM     58  H   UNL A   1      45.862  31.147  29.915  1.00  0.00     0.167 HD
ATOM     59  C   UNL A   1      43.344  29.690  30.832  1.00  0.00     0.074 A 
ATOM     60  C   UNL A   1      43.189  30.451  29.595  1.00  0.00     0.031 C 
ATOM     61  C   UNL A   1      44.456  29.198  31.456  1.00  0.00     0.037 A 
BRANCH  48  62
ATOM     62  C   UNL A   1      47.040  31.100  27.071  1.00  0.00     0.057 A 
ATOM     63  C   UNL A   1      48.270  31.778  27.019  1.00  0.00     0.134 A 
ATOM     64  C   UNL A   1      45.911  31.872  26.726  1.00  0.00     0.134 A 
ATOM     65  F   UNL A   1      49.413  31.155  27.341  1.00  0.00    -0.206 F 
ATOM     66  C   UNL A   1      48.358  33.142  26.718  1.00  0.00     0.040 A 
ATOM     67  C   UNL A   1      45.995  33.219  26.372  1.00  0.00     0.040 A 
ATOM     68  F   UNL A   1      44.663  31.396  26.812  1.00  0.00    -0.206 F 
ATOM     69  C   UNL A   1      47.218  33.869  26.400  1.00  0.00     0.006 A 
ENDBRANCH  48  62
BRANCH  49  70
ATOM     70  C   UNL A   1      39.015  28.702  29.179  1.00  0.00     0.057 A 
ATOM     71  C   UNL A   1      38.039  28.730  30.184  1.00  0.00     0.134 A 
ATOM     72  C   UNL A   1      38.626  29.235  27.934  1.00  0.00     0.134 A 
ATOM     73  F   UNL A   1      38.321  28.293  31.420  1.00  0.00    -0.206 F 
ATOM     74  C   UNL A   1      36.759  29.264  29.967  1.00  0.00     0.040 A 
ATOM     75  C   UNL A   1      37.349  29.754  27.700  1.00  0.00     0.040 A 
ATOM     76  F   UNL A   1      39.497  29.349  26.921  1.00  0.00    -0.206 F 
ATOM     77  C   UNL A   1      36.413  29.782  28.724  1.00  0.00     0.006 A 
ENDBRANCH  49  70
BRANCH  61  78
ATOM     78  C   UNL A   1      44.260  28.262  32.616  1.00  0.00     0.057 A 
ATOM     79  C   UNL A   1      44.096  26.875  32.474  1.00  0.00     0.134 A 
ATOM     80  C   UNL A   1      44.414  28.747  33.917  1.00  0.00     0.134 A 
ATOM     81  F   UNL A   1      44.054  26.302  31.266  1.00  0.00    -0.206 F 
ATOM     82  C   UNL A   1      44.040  26.019  33.577  1.00  0.00     0.040 A 
ATOM     83  C   UNL A   1      44.397  27.899  35.027  1.00  0.00     0.040 A 
ATOM     84  F   UNL A   1      44.642  30.053  34.130  1.00  0.00    -0.206 F 
ATOM     85  C   UNL A   1      44.198  26.530  34.859  1.00  0.00     0.006 A 
ENDBRANCH  61  78
ENDBRANCH  35  36
ENDBRANCH  28  30
ENDBRANCH  27  28
ENDBRANCH  26  27
ENDBRANCH   1  26
TORSDOF 14
ENDMDL
MODEL 2
REMARK VINA RESULT:     -11.7      6.210     11.619
REMARK SMILES C/C(=N/N=c1\[nH]c(O)c(C(=O)OCCOC(=O)c2ccc(-c3c4nc(c(-c5c(F)cccc5F)c5ccc([nH]5)c(-c5c(F)cccc5F)c5nc(c(-c6c(F)cccc6F)c6ccc3[nH]6)C=C5)C=C4)cc2)s1)c1ccc2c(c1)OCO2
REMARK SMILES IDX 13 1 12 2 10 3 11 4 9 5 4 6 5 7 6 8 72 9 7 10 3 12 1 13 2 14
REMARK SMILES IDX 73 15 74 16 78 17 75 18 77 19 76 20 79 21 81 22 80 23 8 24
REMARK SMILES IDX 14 26 15 27 16 28 17 29 18 30 19 31 71 32 20 33 70 34 21 35
REMARK SMILES IDX 22 36 23 37 64 38 24 39 69 40 63 41 65 42 25 43 68 44 62 45
REMARK SMILES IDX 61 46 26 48 52 49 35 50 51 51 36 52 39 53 50 54 66 55 37 56
REMARK SMILES IDX 38 57 49 59 67 60 40 61 27 62 28 63 33 64 29 65 30 66 32 67
REMARK SMILES IDX 34 68 31 69 53 70 54 71 59 72 55 73 56 74 58 75 60 76 57 77
REMARK SMILES IDX 41 78 42 79 47 80 43 81 44 82 46 83 48 84 45 85
REMARK H PARENT 6 11 8 25 65 47 39 58
REMARK Flexibility Score: inf
ROOT
ATOM      1  C   UNL A   1      33.681  34.787  28.473  1.00  0.00     0.275 C 
ENDROOT
BRANCH   1   2
ATOM      2  O   UNL A   1      34.501  34.928  29.642  1.00  0.00    -0.458 OA
BRANCH   2   3
ATOM      3  C   UNL A   1      33.870  34.910  30.848  1.00  0.00     0.354 C 
ATOM      4  O   UNL A   1      32.749  35.358  31.061  1.00  0.00    -0.245 OA
BRANCH   3   5
ATOM      5  C   UNL A   1      34.692  34.193  31.844  1.00  0.00     0.176 A 
ATOM      6  N   UNL A   1      36.944  33.568  34.775  1.00  0.00    -0.121 NA
ATOM      7  C   UNL A   1      36.215  33.542  33.719  1.00  0.00     0.211 A 
ATOM      8  N   UNL A   1      35.689  32.503  32.999  1.00  0.00    -0.300 N 
ATOM      9  S   UNL A   1      35.674  35.071  33.010  1.00  0.00    -0.084 S 
ATOM     10  C   UNL A   1      34.858  32.861  31.970  1.00  0.00     0.216 A 
ATOM     11  H   UNL A   1      35.893  31.563  33.206  1.00  0.00     0.172 HD
BRANCH   6  12
ATOM     12  N   UNL A   1      37.164  32.312  35.330  1.00  0.00    -0.152 NA
ATOM     13  C   UNL A   1      38.794  30.564  35.714  1.00  0.00     0.069 C 
ATOM     14  C   UNL A   1      38.360  31.864  35.081  1.00  0.00     0.067 C 
BRANCH  14  15
ATOM     15  C   UNL A   1      39.384  32.547  34.251  1.00  0.00     0.001 A 
ATOM     16  C   UNL A   1      39.396  32.369  32.851  1.00  0.00     0.014 A 
ATOM     17  C   UNL A   1      40.277  33.420  34.879  1.00  0.00     0.060 A 
ATOM     18  C   UNL A   1      40.288  33.097  32.058  1.00  0.00     0.051 A 
ATOM     19  C   UNL A   1      41.112  34.148  34.065  1.00  0.00     0.166 A 
ATOM     20  C   UNL A   1      41.112  34.000  32.695  1.00  0.00     0.165 A 
ATOM     21  O   UNL A   1      41.979  35.111  34.482  1.00  0.00    -0.454 OA
ATOM     22  O   UNL A   1      41.974  34.861  32.088  1.00  0.00    -0.454 OA
ATOM     23  C   UNL A   1      42.349  35.685  33.212  1.00  0.00     0.468 C 
ENDBRANCH  14  15
ENDBRANCH   6  12
BRANCH  10  24
ATOM     24  O   UNL A   1      34.296  31.905  31.179  1.00  0.00    -0.493 OA
ATOM     25  H   UNL A   1      34.213  32.048  30.257  1.00  0.00     0.295 HD
ENDBRANCH  10  24
ENDBRANCH   3   5
ENDBRANCH   2   3
ENDBRANCH   1   2
BRANCH   1  26
ATOM     26  C   UNL A   1      33.684  33.343  27.990  1.00  0.00     0.275 C 
BRANCH  26  27
ATOM     27  O   UNL A   1      35.000  32.795  28.052  1.00  0.00    -0.458 OA
BRANCH  27  28
ATOM     28  C   UNL A   1      35.101  31.479  27.762  1.00  0.00     0.338 C 
ATOM     29  O   UNL A   1      34.347  30.810  27.078  1.00  0.00    -0.246 OA
BRANCH  28  30
ATOM     30  C   UNL A   1      36.169  30.896  28.580  1.00  0.00     0.060 A 
ATOM     31  C   UNL A   1      37.148  31.768  29.067  1.00  0.00     0.016 A 
ATOM     32  C   UNL A   1      36.341  29.504  28.595  1.00  0.00     0.016 A 
ATOM     33  C   UNL A   1      38.386  31.254  29.386  1.00  0.00     0.010 A 
ATOM     34  C   UNL A   1      37.578  28.995  28.900  1.00  0.00     0.010 A 
ATOM     35  C   UNL A   1      38.605  29.886  29.209  1.00  0.00    -0.014 A 
BRANCH  35  36
ATOM     36  C   UNL A   1      39.947  29.375  29.383  1.00  0.00     0.031 A 
ATOM     37  C   UNL A   1      40.359  29.210  30.795  1.00  0.00     0.074 A 
ATOM     38  C   UNL A   1      40.659  28.936  28.328  1.00  0.00     0.049 A 
ATOM     39  N   UNL A   1      41.398  29.700  31.385  1.00  0.00    -0.248 NA
ATOM     40  C   UNL A   1      39.434  28.500  31.696  1.00  0.00     0.031 C 
ATOM     41  C   UNL A   1      40.218  28.795  26.936  1.00  0.00     0.029 A 
ATOM     42  N   UNL A   1      41.900  28.389  28.309  1.00  0.00    -0.354 N 
ATOM     43  C   UNL A   1      41.353  29.218  32.690  1.00  0.00     0.074 A 
ATOM     44  C   UNL A   1      40.060  28.614  32.866  1.00  0.00     0.031 C 
ATOM     45  C   UNL A   1      41.080  27.987  26.280  1.00  0.00     0.029 A 
ATOM     46  C   UNL A   1      42.175  27.645  27.173  1.00  0.00     0.049 A 
ATOM     47  H   UNL A   1      42.549  28.509  29.041  1.00  0.00     0.167 HD
ATOM     48  C   UNL A   1      42.467  29.160  33.466  1.00  0.00     0.037 A 
ATOM     49  C   UNL A   1      43.177  26.742  27.032  1.00  0.00     0.037 A 
ATOM     50  C   UNL A   1      43.501  30.030  32.974  1.00  0.00     0.049 A 
ATOM     51  C   UNL A   1      44.169  27.007  28.109  1.00  0.00     0.074 A 
ATOM     52  C   UNL A   1      43.587  31.392  32.755  1.00  0.00     0.029 A 
ATOM     53  N   UNL A   1      44.545  29.472  32.278  1.00  0.00    -0.354 N 
ATOM     54  N   UNL A   1      44.932  28.064  28.153  1.00  0.00    -0.248 NA
ATOM     55  C   UNL A   1      43.987  26.322  29.384  1.00  0.00     0.031 C 
ATOM     56  C   UNL A   1      44.360  31.526  31.567  1.00  0.00     0.029 A 
ATOM     57  C   UNL A   1      44.738  30.245  31.161  1.00  0.00     0.049 A 
ATOM     58  H   UNL A   1      45.057  28.670  32.532  1.00  0.00     0.167 HD
ATOM     59  C   UNL A   1      44.973  28.420  29.493  1.00  0.00     0.074 A 
ATOM     60  C   UNL A   1      44.453  27.260  30.214  1.00  0.00     0.031 C 
ATOM     61  C   UNL A   1      45.142  29.720  29.879  1.00  0.00     0.037 A 
BRANCH  48  62
ATOM     62  C   UNL A   1      42.734  28.062  34.459  1.00  0.00     0.057 A 
ATOM     63  C   UNL A   1      43.018  26.767  33.993  1.00  0.00     0.134 A 
ATOM     64  C   UNL A   1      42.439  28.157  35.835  1.00  0.00     0.134 A 
ATOM     65  F   UNL A   1      43.296  26.546  32.700  1.00  0.00    -0.206 F 
ATOM     66  C   UNL A   1      42.941  25.643  34.822  1.00  0.00     0.040 A 
ATOM     67  C   UNL A   1      42.414  27.047  36.682  1.00  0.00     0.040 A 
ATOM     68  F   UNL A   1      42.062  29.305  36.411  1.00  0.00    -0.206 F 
ATOM     69  C   UNL A   1      42.632  25.779  36.170  1.00  0.00     0.006 A 
ENDBRANCH  48  62
BRANCH  49  70
ATOM     70  C   UNL A   1      43.177  25.501  26.222  1.00  0.00     0.057 A 
ATOM     71  C   UNL A   1      44.178  25.251  25.275  1.00  0.00     0.134 A 
ATOM     72  C   UNL A   1      42.326  24.416  26.513  1.00  0.00     0.134 A 
ATOM     73  F   UNL A   1      45.072  26.201  24.962  1.00  0.00    -0.206 F 
ATOM     74  C   UNL A   1      44.331  23.998  24.662  1.00  0.00     0.040 A 
ATOM     75  C   UNL A   1      42.457  23.168  25.897  1.00  0.00     0.040 A 
ATOM     76  F   UNL A   1      41.388  24.501  27.467  1.00  0.00    -0.206 F 
ATOM     77  C   UNL A   1      43.472  22.951  24.976  1.00  0.00     0.006 A 
ENDBRANCH  49  70
BRANCH  61  78
ATOM     78  C   UNL A   1      45.504  30.728  28.824  1.00  0.00     0.057 A 
ATOM     79  C   UNL A   1      46.821  30.975  28.405  1.00  0.00     0.134 A 
ATOM     80  C   UNL A   1      44.485  31.341  28.089  1.00  0.00     0.134 A 
ATOM     81  F   UNL A   1      47.857  30.346  28.971  1.00  0.00    -0.206 F 
ATOM     82  C   UNL A   1      47.111  31.828  27.338  1.00  0.00     0.040 A 
ATOM     83  C   UNL A   1      44.759  32.168  26.997  1.00  0.00     0.040 A 
ATOM     84  F   UNL A   1      43.198  31.101  28.387  1.00  0.00    -0.206 F 
ATOM     85  C   UNL A   1      46.077  32.423  26.625  1.00  0.00     0.006 A 
ENDBRANCH  61  78
ENDBRANCH  35  36
ENDBRANCH  28  30
ENDBRANCH  27  28
ENDBRANCH  26  27
ENDBRANCH   1  26
TORSDOF 14
ENDMDL
MODEL 3
REMARK VINA RESULT:     -11.7      1.875      3.028
REMARK SMILES C/C(=N/N=c1\[nH]c(O)c(C(=O)OCCOC(=O)c2ccc(-c3c4nc(c(-c5c(F)cccc5F)c5ccc([nH]5)c(-c5c(F)cccc5F)c5nc(c(-c6c(F)cccc6F)c6ccc3[nH]6)C=C5)C=C4)cc2)s1)c1ccc2c(c1)OCO2
REMARK SMILES IDX 13 1 12 2 10 3 11 4 9 5 4 6 5 7 6 8 72 9 7 10 3 12 1 13 2 14
REMARK SMILES IDX 73 15 74 16 78 17 75 18 77 19 76 20 79 21 81 22 80 23 8 24
REMARK SMILES IDX 14 26 15 27 16 28 17 29 18 30 19 31 71 32 20 33 70 34 21 35
REMARK SMILES IDX 22 36 23 37 64 38 24 39 69 40 63 41 65 42 25 43 68 44 62 45
REMARK SMILES IDX 61 46 26 48 52 49 35 50 51 51 36 52 39 53 50 54 66 55 37 56
REMARK SMILES IDX 38 57 49 59 67 60 40 61 27 62 28 63 33 64 29 65 30 66 32 67
REMARK SMILES IDX 34 68 31 69 53 70 54 71 59 72 55 73 56 74 58 75 60 76 57 77
REMARK SMILES IDX 41 78 42 79 47 80 43 81 44 82 46 83 48 84 45 85
REMARK H PARENT 6 11 8 25 65 47 39 58
REMARK Flexibility Score: inf
ROOT
ATOM      1  C   UNL A   1      40.562  20.857  26.741  1.00  0.00     0.275 C 
ENDROOT
BRANCH   1   2
ATOM      2  O   UNL A   1      39.739  21.434  25.717  1.00  0.00    -0.458 OA
BRANCH   2   3
ATOM      3  C   UNL A   1      38.784  22.320  26.113  1.00  0.00     0.354 C 
ATOM      4  O   UNL A   1      39.003  23.360  26.722  1.00  0.00    -0.245 OA
BRANCH   3   5
ATOM      5  C   UNL A   1      37.458  21.892  25.627  1.00  0.00     0.176 A 
ATOM      6  N   UNL A   1      33.810  21.990  24.765  1.00  0.00    -0.121 NA
ATOM      7  C   UNL A   1      35.039  21.713  25.012  1.00  0.00     0.211 A 
ATOM      8  N   UNL A   1      35.809  20.623  24.703  1.00  0.00    -0.300 N 
ATOM      9  S   UNL A   1      36.040  22.913  25.843  1.00  0.00    -0.084 S 
ATOM     10  C   UNL A   1      37.132  20.721  25.043  1.00  0.00     0.216 A 
ATOM     11  H   UNL A   1      35.436  19.824  24.265  1.00  0.00     0.172 HD
BRANCH   6  12
ATOM     12  N   UNL A   1      33.177  21.046  23.964  1.00  0.00    -0.152 NA
ATOM     13  C   UNL A   1      31.768  20.706  22.025  1.00  0.00     0.069 C 
ATOM     14  C   UNL A   1      32.430  21.595  23.050  1.00  0.00     0.067 C 
BRANCH  14  15
ATOM     15  C   UNL A   1      32.198  23.051  22.883  1.00  0.00     0.001 A 
ATOM     16  C   UNL A   1      31.066  23.659  23.465  1.00  0.00     0.014 A 
ATOM     17  C   UNL A   1      33.159  23.806  22.205  1.00  0.00     0.060 A 
ATOM     18  C   UNL A   1      30.904  25.047  23.403  1.00  0.00     0.051 A 
ATOM     19  C   UNL A   1      32.988  25.170  22.197  1.00  0.00     0.166 A 
ATOM     20  C   UNL A   1      31.899  25.774  22.787  1.00  0.00     0.165 A 
ATOM     21  O   UNL A   1      33.861  26.073  21.674  1.00  0.00    -0.454 OA
ATOM     22  O   UNL A   1      31.966  27.132  22.711  1.00  0.00    -0.454 OA
ATOM     23  C   UNL A   1      33.303  27.296  22.194  1.00  0.00     0.468 C 
ENDBRANCH  14  15
ENDBRANCH   6  12
BRANCH  10  24
ATOM     24  O   UNL A   1      37.981  19.685  24.797  1.00  0.00    -0.493 OA
ATOM     25  H   UNL A   1      38.809  19.644  25.232  1.00  0.00     0.295 HD
ENDBRANCH  10  24
ENDBRANCH   3   5
ENDBRANCH   2   3
ENDBRANCH   1   2
BRANCH   1  26
ATOM     26  C   UNL A   1      41.592  19.916  26.132  1.00  0.00     0.275 C 
BRANCH  26  27
ATOM     27  O   UNL A   1      42.915  20.375  26.405  1.00  0.00    -0.458 OA
BRANCH  27  28
ATOM     28  C   UNL A   1      43.598  20.861  25.345  1.00  0.00     0.338 C 
ATOM     29  O   UNL A   1      44.087  20.230  24.425  1.00  0.00    -0.246 OA
BRANCH  28  30
ATOM     30  C   UNL A   1      43.860  22.287  25.566  1.00  0.00     0.060 A 
ATOM     31  C   UNL A   1      44.806  22.618  26.541  1.00  0.00     0.016 A 
ATOM     32  C   UNL A   1      42.976  23.238  25.037  1.00  0.00     0.016 A 
ATOM     33  C   UNL A   1      44.734  23.860  27.133  1.00  0.00     0.010 A 
ATOM     34  C   UNL A   1      42.896  24.470  25.635  1.00  0.00     0.010 A 
ATOM     35  C   UNL A   1      43.719  24.731  26.730  1.00  0.00    -0.014 A 
BRANCH  35  36
ATOM     36  C   UNL A   1      43.539  25.965  27.463  1.00  0.00     0.031 A 
ATOM     37  C   UNL A   1      44.557  27.000  27.175  1.00  0.00     0.074 A 
ATOM     38  C   UNL A   1      42.431  26.173  28.198  1.00  0.00     0.049 A 
ATOM     39  N   UNL A   1      45.317  27.625  28.011  1.00  0.00    -0.248 NA
ATOM     40  C   UNL A   1      44.844  27.298  25.761  1.00  0.00     0.031 C 
ATOM     41  C   UNL A   1      41.242  25.318  28.305  1.00  0.00     0.029 A 
ATOM     42  N   UNL A   1      42.076  27.274  28.907  1.00  0.00    -0.354 N 
ATOM     43  C   UNL A   1      46.059  28.522  27.248  1.00  0.00     0.074 A 
ATOM     44  C   UNL A   1      45.838  28.178  25.870  1.00  0.00     0.031 C 
ATOM     45  C   UNL A   1      40.226  26.040  28.826  1.00  0.00     0.029 A 
ATOM     46  C   UNL A   1      40.720  27.360  29.180  1.00  0.00     0.049 A 
ATOM     47  H   UNL A   1      42.726  27.953  29.201  1.00  0.00     0.167 HD
ATOM     48  C   UNL A   1      46.633  29.622  27.802  1.00  0.00     0.037 A 
ATOM     49  C   UNL A   1      40.053  28.475  29.570  1.00  0.00     0.037 A 
ATOM     50  C   UNL A   1      46.766  29.489  29.227  1.00  0.00     0.049 A 
ATOM     51  C   UNL A   1      41.063  29.444  30.076  1.00  0.00     0.074 A 
ATOM     52  C   UNL A   1      47.422  28.593  30.052  1.00  0.00     0.029 A 
ATOM     53  N   UNL A   1      45.869  30.149  30.030  1.00  0.00    -0.354 N 
ATOM     54  N   UNL A   1      41.737  29.284  31.181  1.00  0.00    -0.248 NA
ATOM     55  C   UNL A   1      41.659  30.366  29.116  1.00  0.00     0.031 C 
ATOM     56  C   UNL A   1      46.556  28.420  31.169  1.00  0.00     0.029 A 
ATOM     57  C   UNL A   1      45.453  29.254  30.982  1.00  0.00     0.049 A 
ATOM     58  H   UNL A   1      45.580  31.087  29.939  1.00  0.00     0.167 HD
ATOM     59  C   UNL A   1      43.017  29.731  30.888  1.00  0.00     0.074 A 
ATOM     60  C   UNL A   1      42.885  30.473  29.636  1.00  0.00     0.031 C 
ATOM     61  C   UNL A   1      44.113  29.216  31.520  1.00  0.00     0.037 A 
BRANCH  48  62
ATOM     62  C   UNL A   1      46.751  30.945  27.095  1.00  0.00     0.057 A 
ATOM     63  C   UNL A   1      47.998  31.589  27.045  1.00  0.00     0.134 A 
ATOM     64  C   UNL A   1      45.647  31.738  26.721  1.00  0.00     0.134 A 
ATOM     65  F   UNL A   1      49.122  30.944  27.393  1.00  0.00    -0.206 F 
ATOM     66  C   UNL A   1      48.126  32.944  26.717  1.00  0.00     0.040 A 
ATOM     67  C   UNL A   1      45.770  33.075  26.340  1.00  0.00     0.040 A 
ATOM     68  F   UNL A   1      44.385  31.297  26.801  1.00  0.00    -0.206 F 
ATOM     69  C   UNL A   1      47.009  33.693  26.370  1.00  0.00     0.006 A 
ENDBRANCH  48  62
BRANCH  49  70
ATOM     70  C   UNL A   1      38.655  28.855  29.259  1.00  0.00     0.057 A 
ATOM     71  C   UNL A   1      37.682  28.935  30.264  1.00  0.00     0.134 A 
ATOM     72  C   UNL A   1      38.282  29.377  28.005  1.00  0.00     0.134 A 
ATOM     73  F   UNL A   1      37.952  28.512  31.508  1.00  0.00    -0.206 F 
ATOM     74  C   UNL A   1      36.420  29.505  30.039  1.00  0.00     0.040 A 
ATOM     75  C   UNL A   1      37.022  29.933  27.762  1.00  0.00     0.040 A 
ATOM     76  F   UNL A   1      39.154  29.443  26.989  1.00  0.00    -0.206 F 
ATOM     77  C   UNL A   1      36.089  30.011  28.787  1.00  0.00     0.006 A 
ENDBRANCH  49  70
BRANCH  61  78
ATOM     78  C   UNL A   1      43.888  28.309  32.698  1.00  0.00     0.057 A 
ATOM     79  C   UNL A   1      43.766  26.915  32.592  1.00  0.00     0.134 A 
ATOM     80  C   UNL A   1      43.971  28.837  33.989  1.00  0.00     0.134 A 
ATOM     81  F   UNL A   1      43.794  26.306  31.401  1.00  0.00    -0.206 F 
ATOM     82  C   UNL A   1      43.682  26.091  33.717  1.00  0.00     0.040 A 
ATOM     83  C   UNL A   1      43.925  28.022  35.123  1.00  0.00     0.040 A 
ATOM     84  F   UNL A   1      44.156  30.155  34.172  1.00  0.00    -0.206 F 
ATOM     85  C   UNL A   1      43.768  26.644  34.989  1.00  0.00     0.006 A 
ENDBRANCH  61  78
ENDBRANCH  35  36
ENDBRANCH  28  30
ENDBRANCH  27  28
ENDBRANCH  26  27
ENDBRANCH   1  26
TORSDOF 14
ENDMDL
