MODEL 1
REMARK VINA RESULT:     -10.9      0.000      0.000
REMARK SMILES CCC(C)(C)c1ccc(O[C@H](F)C(=O)OCCOC(=O)c2ccc(-c3c4nc(c(-c5c(F)cccc5F)c5ccc([nH]5)c(-c5c(F)cccc5F)c5nc(c(-c6c(F)cccc6F)c6ccc3[nH]6)C=C5)C=C4)cc2)cc1
REMARK SMILES IDX 16 1 15 2 13 3 14 4 11 5 12 6 10 7 9 8 6 9 7 10 76 11 8 12
REMARK SMILES IDX 75 13 3 14 4 15 5 16 2 17 1 18 17 19 18 20 19 21 20 22 21 23
REMARK SMILES IDX 22 24 74 25 23 26 73 27 24 28 25 29 26 30 67 31 27 32 72 33
REMARK SMILES IDX 66 34 68 35 28 36 71 37 65 38 64 39 29 41 55 42 38 43 54 44
REMARK SMILES IDX 39 45 42 46 53 47 69 48 40 49 41 50 52 52 70 53 43 54 30 55
REMARK SMILES IDX 31 56 36 57 32 58 33 59 35 60 37 61 34 62 56 63 57 64 62 65
REMARK SMILES IDX 58 66 59 67 61 68 63 69 60 70 44 71 45 72 50 73 46 74 47 75
REMARK SMILES IDX 49 76 51 77 48 78
REMARK H PARENT 68 40 42 51
REMARK Flexibility Score: inf
ROOT
ATOM      1  C   UNL A   1      44.498  20.823  24.621  1.00  0.00     0.274 C 
ENDROOT
BRANCH   1   2
ATOM      2  O   UNL A   1      43.460  19.829  24.643  1.00  0.00    -0.457 OA
BRANCH   2   3
ATOM      3  C   UNL A   1      43.658  18.731  25.433  1.00  0.00     0.381 C 
ATOM      4  O   UNL A   1      44.702  18.089  25.480  1.00  0.00    -0.244 OA
BRANCH   3   5
ATOM      5  C   UNL A   1      42.442  18.498  26.331  1.00  0.00     0.461 C 
ATOM      6  F   UNL A   1      42.748  17.720  27.412  1.00  0.00    -0.189 F 
BRANCH   5   7
ATOM      7  O   UNL A   1      41.919  19.743  26.790  1.00  0.00    -0.451 OA
BRANCH   7   8
ATOM      8  C   UNL A   1      40.713  20.105  26.258  1.00  0.00     0.123 A 
ATOM      9  C   UNL A   1      38.164  21.027  25.437  1.00  0.00    -0.042 A 
ATOM     10  C   UNL A   1      38.577  19.708  25.191  1.00  0.00     0.008 A 
ATOM     11  C   UNL A   1      39.110  21.900  26.004  1.00  0.00     0.008 A 
ATOM     12  C   UNL A   1      39.836  19.251  25.594  1.00  0.00     0.047 A 
ATOM     13  C   UNL A   1      40.366  21.442  26.417  1.00  0.00     0.047 A 
BRANCH   9  14
ATOM     14  C   UNL A   1      36.737  21.505  25.114  1.00  0.00    -0.011 C 
ATOM     15  C   UNL A   1      35.718  20.343  25.008  1.00  0.00     0.016 C 
ATOM     16  C   UNL A   1      36.777  22.212  23.742  1.00  0.00     0.016 C 
BRANCH  14  17
ATOM     17  C   UNL A   1      36.195  22.519  26.173  1.00  0.00     0.008 C 
ATOM     18  C   UNL A   1      35.976  23.941  25.658  1.00  0.00     0.005 C 
ENDBRANCH  14  17
ENDBRANCH   9  14
ENDBRANCH   7   8
ENDBRANCH   5   7
ENDBRANCH   3   5
ENDBRANCH   2   3
ENDBRANCH   1   2
BRANCH   1  19
ATOM     19  C   UNL A   1      44.271  21.844  25.740  1.00  0.00     0.275 C 
BRANCH  19  20
ATOM     20  O   UNL A   1      43.315  22.855  25.360  1.00  0.00    -0.458 OA
BRANCH  20  21
ATOM     21  C   UNL A   1      43.805  24.110  25.237  1.00  0.00     0.338 C 
ATOM     22  O   UNL A   1      44.520  24.541  24.347  1.00  0.00    -0.246 OA
BRANCH  21  23
ATOM     23  C   UNL A   1      43.234  24.978  26.279  1.00  0.00     0.060 A 
ATOM     24  C   UNL A   1      43.748  26.274  26.408  1.00  0.00     0.016 A 
ATOM     25  C   UNL A   1      42.258  24.511  27.162  1.00  0.00     0.016 A 
ATOM     26  C   UNL A   1      43.298  27.102  27.431  1.00  0.00     0.010 A 
ATOM     27  C   UNL A   1      41.799  25.348  28.181  1.00  0.00     0.010 A 
ATOM     28  C   UNL A   1      42.325  26.643  28.329  1.00  0.00    -0.014 A 
BRANCH  28  29
ATOM     29  C   UNL A   1      41.882  27.517  29.440  1.00  0.00     0.031 A 
ATOM     30  C   UNL A   1      42.583  27.462  30.765  1.00  0.00     0.074 A 
ATOM     31  C   UNL A   1      40.856  28.365  29.249  1.00  0.00     0.049 A 
ATOM     32  N   UNL A   1      42.305  28.096  31.875  1.00  0.00    -0.248 NA
ATOM     33  C   UNL A   1      43.751  26.572  30.854  1.00  0.00     0.031 C 
ATOM     34  C   UNL A   1      40.116  28.524  27.998  1.00  0.00     0.029 A 
ATOM     35  N   UNL A   1      40.257  29.248  30.111  1.00  0.00    -0.354 N 
ATOM     36  C   UNL A   1      43.252  27.673  32.799  1.00  0.00     0.074 A 
ATOM     37  C   UNL A   1      44.099  26.712  32.125  1.00  0.00     0.031 C 
ATOM     38  C   UNL A   1      39.156  29.446  28.173  1.00  0.00     0.029 A 
ATOM     39  C   UNL A   1      39.189  29.910  29.558  1.00  0.00     0.049 A 
ATOM     40  H   UNL A   1      40.561  29.392  31.035  1.00  0.00     0.167 HD
ATOM     41  C   UNL A   1      43.402  28.058  34.089  1.00  0.00     0.037 A 
ATOM     42  C   UNL A   1      38.317  30.772  30.113  1.00  0.00     0.037 A 
ATOM     43  C   UNL A   1      42.560  29.021  34.751  1.00  0.00     0.049 A 
ATOM     44  C   UNL A   1      38.476  31.151  31.558  1.00  0.00     0.074 A 
ATOM     45  C   UNL A   1      42.642  29.490  36.051  1.00  0.00     0.029 A 
ATOM     46  N   UNL A   1      41.478  29.660  34.163  1.00  0.00    -0.354 N 
ATOM     47  N   UNL A   1      39.380  30.752  32.420  1.00  0.00    -0.248 NA
ATOM     48  C   UNL A   1      37.497  32.098  32.107  1.00  0.00     0.031 C 
ATOM     49  C   UNL A   1      41.584  30.383  36.261  1.00  0.00     0.029 A 
ATOM     50  C   UNL A   1      40.870  30.502  35.079  1.00  0.00     0.049 A 
ATOM     51  H   UNL A   1      41.186  29.533  33.232  1.00  0.00     0.167 HD
ATOM     52  C   UNL A   1      39.087  31.407  33.609  1.00  0.00     0.074 A 
ATOM     53  C   UNL A   1      37.932  32.243  33.351  1.00  0.00     0.031 C 
ATOM     54  C   UNL A   1      39.717  31.322  34.806  1.00  0.00     0.037 A 
BRANCH  41  55
ATOM     55  C   UNL A   1      44.505  27.411  34.873  1.00  0.00     0.057 A 
ATOM     56  C   UNL A   1      45.798  27.947  34.916  1.00  0.00     0.134 A 
ATOM     57  C   UNL A   1      44.267  26.239  35.603  1.00  0.00     0.134 A 
ATOM     58  F   UNL A   1      46.096  29.059  34.227  1.00  0.00    -0.206 F 
ATOM     59  C   UNL A   1      46.822  27.327  35.635  1.00  0.00     0.040 A 
ATOM     60  C   UNL A   1      45.275  25.622  36.345  1.00  0.00     0.040 A 
ATOM     61  F   UNL A   1      43.049  25.676  35.607  1.00  0.00    -0.206 F 
ATOM     62  C   UNL A   1      46.560  26.163  36.355  1.00  0.00     0.006 A 
ENDBRANCH  41  55
BRANCH  42  63
ATOM     63  C   UNL A   1      37.203  31.312  29.298  1.00  0.00     0.057 A 
ATOM     64  C   UNL A   1      36.043  30.565  29.063  1.00  0.00     0.134 A 
ATOM     65  C   UNL A   1      37.264  32.599  28.749  1.00  0.00     0.134 A 
ATOM     66  F   UNL A   1      35.936  29.317  29.545  1.00  0.00    -0.206 F 
ATOM     67  C   UNL A   1      34.987  31.075  28.307  1.00  0.00     0.040 A 
ATOM     68  C   UNL A   1      36.206  33.132  28.012  1.00  0.00     0.040 A 
ATOM     69  F   UNL A   1      38.348  33.366  28.943  1.00  0.00    -0.206 F 
ATOM     70  C   UNL A   1      35.064  32.366  27.785  1.00  0.00     0.006 A 
ENDBRANCH  42  63
BRANCH  54  71
ATOM     71  C   UNL A   1      39.178  32.169  35.921  1.00  0.00     0.057 A 
ATOM     72  C   UNL A   1      39.586  33.497  36.100  1.00  0.00     0.134 A 
ATOM     73  C   UNL A   1      38.217  31.662  36.803  1.00  0.00     0.134 A 
ATOM     74  F   UNL A   1      40.515  34.037  35.297  1.00  0.00    -0.206 F 
ATOM     75  C   UNL A   1      39.071  34.284  37.132  1.00  0.00     0.040 A 
ATOM     76  C   UNL A   1      37.678  32.445  37.824  1.00  0.00     0.040 A 
ATOM     77  F   UNL A   1      37.778  30.399  36.681  1.00  0.00    -0.206 F 
ATOM     78  C   UNL A   1      38.109  33.760  37.993  1.00  0.00     0.006 A 
ENDBRANCH  54  71
ENDBRANCH  28  29
ENDBRANCH  21  23
ENDBRANCH  20  21
ENDBRANCH  19  20
ENDBRANCH   1  19
TORSDOF 15
ENDMDL
MODEL 2
REMARK VINA RESULT:     -10.7      1.483      2.443
REMARK SMILES CCC(C)(C)c1ccc(O[C@H](F)C(=O)OCCOC(=O)c2ccc(-c3c4nc(c(-c5c(F)cccc5F)c5ccc([nH]5)c(-c5c(F)cccc5F)c5nc(c(-c6c(F)cccc6F)c6ccc3[nH]6)C=C5)C=C4)cc2)cc1
REMARK SMILES IDX 16 1 15 2 13 3 14 4 11 5 12 6 10 7 9 8 6 9 7 10 76 11 8 12
REMARK SMILES IDX 75 13 3 14 4 15 5 16 2 17 1 18 17 19 18 20 19 21 20 22 21 23
REMARK SMILES IDX 22 24 74 25 23 26 73 27 24 28 25 29 26 30 67 31 27 32 72 33
REMARK SMILES IDX 66 34 68 35 28 36 71 37 65 38 64 39 29 41 55 42 38 43 54 44
REMARK SMILES IDX 39 45 42 46 53 47 69 48 40 49 41 50 52 52 70 53 43 54 30 55
REMARK SMILES IDX 31 56 36 57 32 58 33 59 35 60 37 61 34 62 56 63 57 64 62 65
REMARK SMILES IDX 58 66 59 67 61 68 63 69 60 70 44 71 45 72 50 73 46 74 47 75
REMARK SMILES IDX 49 76 51 77 48 78
REMARK H PARENT 68 40 42 51
REMARK Flexibility Score: inf
ROOT
ATOM      1  C   UNL A   1      42.685  21.060  26.098  1.00  0.00     0.274 C 
ENDROOT
BRANCH   1   2
ATOM      2  O   UNL A   1      41.352  21.514  25.815  1.00  0.00    -0.457 OA
BRANCH   2   3
ATOM      3  C   UNL A   1      40.443  21.469  26.834  1.00  0.00     0.381 C 
ATOM      4  O   UNL A   1      40.680  21.036  27.957  1.00  0.00    -0.244 OA
BRANCH   3   5
ATOM      5  C   UNL A   1      39.137  22.144  26.411  1.00  0.00     0.461 C 
ATOM      6  F   UNL A   1      39.317  23.469  26.128  1.00  0.00    -0.189 F 
BRANCH   5   7
ATOM      7  O   UNL A   1      38.593  21.496  25.263  1.00  0.00    -0.451 OA
BRANCH   7   8
ATOM      8  C   UNL A   1      37.322  21.869  24.925  1.00  0.00     0.123 A 
ATOM      9  C   UNL A   1      34.602  22.324  24.284  1.00  0.00    -0.042 A 
ATOM     10  C   UNL A   1      35.636  22.896  23.526  1.00  0.00     0.008 A 
ATOM     11  C   UNL A   1      34.972  21.611  25.438  1.00  0.00     0.008 A 
ATOM     12  C   UNL A   1      36.980  22.674  23.842  1.00  0.00     0.047 A 
ATOM     13  C   UNL A   1      36.315  21.380  25.750  1.00  0.00     0.047 A 
BRANCH   9  14
ATOM     14  C   UNL A   1      33.124  22.456  23.872  1.00  0.00    -0.011 C 
ATOM     15  C   UNL A   1      32.924  23.315  22.599  1.00  0.00     0.016 C 
ATOM     16  C   UNL A   1      32.374  23.157  25.026  1.00  0.00     0.016 C 
BRANCH  14  17
ATOM     17  C   UNL A   1      32.450  21.068  23.621  1.00  0.00     0.008 C 
ATOM     18  C   UNL A   1      32.035  20.800  22.175  1.00  0.00     0.005 C 
ENDBRANCH  14  17
ENDBRANCH   9  14
ENDBRANCH   7   8
ENDBRANCH   5   7
ENDBRANCH   3   5
ENDBRANCH   2   3
ENDBRANCH   1   2
BRANCH   1  19
ATOM     19  C   UNL A   1      43.707  21.939  25.368  1.00  0.00     0.275 C 
BRANCH  19  20
ATOM     20  O   UNL A   1      43.150  23.216  24.999  1.00  0.00    -0.458 OA
BRANCH  20  21
ATOM     21  C   UNL A   1      43.943  24.289  25.224  1.00  0.00     0.338 C 
ATOM     22  O   UNL A   1      44.945  24.611  24.607  1.00  0.00    -0.246 OA
BRANCH  21  23
ATOM     23  C   UNL A   1      43.350  25.145  26.265  1.00  0.00     0.060 A 
ATOM     24  C   UNL A   1      43.861  26.438  26.422  1.00  0.00     0.016 A 
ATOM     25  C   UNL A   1      42.354  24.667  27.120  1.00  0.00     0.016 A 
ATOM     26  C   UNL A   1      43.389  27.253  27.446  1.00  0.00     0.010 A 
ATOM     27  C   UNL A   1      41.874  25.491  28.140  1.00  0.00     0.010 A 
ATOM     28  C   UNL A   1      42.397  26.783  28.317  1.00  0.00    -0.014 A 
BRANCH  28  29
ATOM     29  C   UNL A   1      41.930  27.643  29.429  1.00  0.00     0.031 A 
ATOM     30  C   UNL A   1      42.630  27.602  30.755  1.00  0.00     0.074 A 
ATOM     31  C   UNL A   1      40.884  28.466  29.238  1.00  0.00     0.049 A 
ATOM     32  N   UNL A   1      42.334  28.226  31.866  1.00  0.00    -0.248 NA
ATOM     33  C   UNL A   1      43.820  26.742  30.843  1.00  0.00     0.031 C 
ATOM     34  C   UNL A   1      40.142  28.609  27.986  1.00  0.00     0.029 A 
ATOM     35  N   UNL A   1      40.261  29.330  30.101  1.00  0.00    -0.354 N 
ATOM     36  C   UNL A   1      43.290  27.825  32.790  1.00  0.00     0.074 A 
ATOM     37  C   UNL A   1      44.162  26.887  32.115  1.00  0.00     0.031 C 
ATOM     38  C   UNL A   1      39.158  29.506  28.162  1.00  0.00     0.029 A 
ATOM     39  C   UNL A   1      39.177  29.967  29.548  1.00  0.00     0.049 A 
ATOM     40  H   UNL A   1      40.560  29.480  31.027  1.00  0.00     0.167 HD
ATOM     41  C   UNL A   1      43.429  28.210  34.082  1.00  0.00     0.037 A 
ATOM     42  C   UNL A   1      38.283  30.805  30.104  1.00  0.00     0.037 A 
ATOM     43  C   UNL A   1      42.562  29.150  34.744  1.00  0.00     0.049 A 
ATOM     44  C   UNL A   1      38.431  31.184  31.550  1.00  0.00     0.074 A 
ATOM     45  C   UNL A   1      42.629  29.618  36.046  1.00  0.00     0.029 A 
ATOM     46  N   UNL A   1      41.465  29.763  34.156  1.00  0.00    -0.354 N 
ATOM     47  N   UNL A   1      39.343  30.806  32.413  1.00  0.00    -0.248 NA
ATOM     48  C   UNL A   1      37.427  32.105  32.099  1.00  0.00     0.031 C 
ATOM     49  C   UNL A   1      41.549  30.483  36.256  1.00  0.00     0.029 A 
ATOM     50  C   UNL A   1      40.834  30.587  35.074  1.00  0.00     0.049 A 
ATOM     51  H   UNL A   1      41.177  29.631  33.225  1.00  0.00     0.167 HD
ATOM     52  C   UNL A   1      39.031  31.450  33.603  1.00  0.00     0.074 A 
ATOM     53  C   UNL A   1      37.856  32.258  33.345  1.00  0.00     0.031 C 
ATOM     54  C   UNL A   1      39.661  31.379  34.801  1.00  0.00     0.037 A 
BRANCH  41  55
ATOM     55  C   UNL A   1      44.546  27.589  34.866  1.00  0.00     0.057 A 
ATOM     56  C   UNL A   1      44.383  26.385  35.562  1.00  0.00     0.134 A 
ATOM     57  C   UNL A   1      45.805  28.201  34.918  1.00  0.00     0.134 A 
ATOM     58  F   UNL A   1      43.198  25.756  35.566  1.00  0.00    -0.206 F 
ATOM     59  C   UNL A   1      45.425  25.824  36.304  1.00  0.00     0.040 A 
ATOM     60  C   UNL A   1      46.862  27.638  35.637  1.00  0.00     0.040 A 
ATOM     61  F   UNL A   1      46.029  29.354  34.271  1.00  0.00    -0.206 F 
ATOM     62  C   UNL A   1      46.670  26.450  36.339  1.00  0.00     0.006 A 
ENDBRANCH  41  55
BRANCH  42  63
ATOM     63  C   UNL A   1      37.157  31.319  29.288  1.00  0.00     0.057 A 
ATOM     64  C   UNL A   1      36.009  30.551  29.067  1.00  0.00     0.134 A 
ATOM     65  C   UNL A   1      37.196  32.601  28.726  1.00  0.00     0.134 A 
ATOM     66  F   UNL A   1      35.923  29.307  29.561  1.00  0.00    -0.206 F 
ATOM     67  C   UNL A   1      34.941  31.037  28.310  1.00  0.00     0.040 A 
ATOM     68  C   UNL A   1      36.126  33.109  27.988  1.00  0.00     0.040 A 
ATOM     69  F   UNL A   1      38.268  33.387  28.907  1.00  0.00    -0.206 F 
ATOM     70  C   UNL A   1      34.996  32.323  27.774  1.00  0.00     0.006 A 
ENDBRANCH  42  63
BRANCH  54  71
ATOM     71  C   UNL A   1      39.099  32.209  35.916  1.00  0.00     0.057 A 
ATOM     72  C   UNL A   1      39.446  33.557  36.078  1.00  0.00     0.134 A 
ATOM     73  C   UNL A   1      38.177  31.664  36.818  1.00  0.00     0.134 A 
ATOM     74  F   UNL A   1      40.335  34.133  35.256  1.00  0.00    -0.206 F 
ATOM     75  C   UNL A   1      38.910  34.327  37.111  1.00  0.00     0.040 A 
ATOM     76  C   UNL A   1      37.617  32.430  37.841  1.00  0.00     0.040 A 
ATOM     77  F   UNL A   1      37.798  30.381  36.714  1.00  0.00    -0.206 F 
ATOM     78  C   UNL A   1      37.987  33.765  37.992  1.00  0.00     0.006 A 
ENDBRANCH  54  71
ENDBRANCH  28  29
ENDBRANCH  21  23
ENDBRANCH  20  21
ENDBRANCH  19  20
ENDBRANCH   1  19
TORSDOF 15
ENDMDL
MODEL 3
REMARK VINA RESULT:     -10.7      5.736     11.239
REMARK SMILES CCC(C)(C)c1ccc(O[C@H](F)C(=O)OCCOC(=O)c2ccc(-c3c4nc(c(-c5c(F)cccc5F)c5ccc([nH]5)c(-c5c(F)cccc5F)c5nc(c(-c6c(F)cccc6F)c6ccc3[nH]6)C=C5)C=C4)cc2)cc1
REMARK SMILES IDX 16 1 15 2 13 3 14 4 11 5 12 6 10 7 9 8 6 9 7 10 76 11 8 12
REMARK SMILES IDX 75 13 3 14 4 15 5 16 2 17 1 18 17 19 18 20 19 21 20 22 21 23
REMARK SMILES IDX 22 24 74 25 23 26 73 27 24 28 25 29 26 30 67 31 27 32 72 33
REMARK SMILES IDX 66 34 68 35 28 36 71 37 65 38 64 39 29 41 55 42 38 43 54 44
REMARK SMILES IDX 39 45 42 46 53 47 69 48 40 49 41 50 52 52 70 53 43 54 30 55
REMARK SMILES IDX 31 56 36 57 32 58 33 59 35 60 37 61 34 62 56 63 57 64 62 65
REMARK SMILES IDX 58 66 59 67 61 68 63 69 60 70 44 71 45 72 50 73 46 74 47 75
REMARK SMILES IDX 49 76 51 77 48 78
REMARK H PARENT 68 40 42 51
REMARK Flexibility Score: inf
ROOT
ATOM      1  C   UNL A   1      34.476  34.571  31.559  1.00  0.00     0.274 C 
ENDROOT
BRANCH   1   2
ATOM      2  O   UNL A   1      34.849  34.247  30.210  1.00  0.00    -0.457 OA
BRANCH   2   3
ATOM      3  C   UNL A   1      33.844  34.119  29.293  1.00  0.00     0.381 C 
ATOM      4  O   UNL A   1      32.800  34.762  29.313  1.00  0.00    -0.244 OA
BRANCH   3   5
ATOM      5  C   UNL A   1      34.260  33.155  28.181  1.00  0.00     0.461 C 
ATOM      6  F   UNL A   1      35.435  33.531  27.593  1.00  0.00    -0.189 F 
BRANCH   5   7
ATOM      7  O   UNL A   1      34.404  31.834  28.697  1.00  0.00    -0.451 OA
BRANCH   7   8
ATOM      8  C   UNL A   1      34.144  30.825  27.812  1.00  0.00     0.123 A 
ATOM      9  C   UNL A   1      33.289  28.756  26.078  1.00  0.00    -0.042 A 
ATOM     10  C   UNL A   1      34.502  28.666  26.779  1.00  0.00     0.008 A 
ATOM     11  C   UNL A   1      32.574  29.963  26.185  1.00  0.00     0.008 A 
ATOM     12  C   UNL A   1      34.927  29.688  27.634  1.00  0.00     0.047 A 
ATOM     13  C   UNL A   1      32.993  30.981  27.047  1.00  0.00     0.047 A 
BRANCH   9  14
ATOM     14  C   UNL A   1      32.749  27.586  25.235  1.00  0.00    -0.011 C 
ATOM     15  C   UNL A   1      31.281  27.788  24.787  1.00  0.00     0.016 C 
ATOM     16  C   UNL A   1      32.796  26.314  26.109  1.00  0.00     0.016 C 
BRANCH  14  17
ATOM     17  C   UNL A   1      33.607  27.332  23.953  1.00  0.00     0.008 C 
ATOM     18  C   UNL A   1      33.996  28.586  23.172  1.00  0.00     0.005 C 
ENDBRANCH  14  17
ENDBRANCH   9  14
ENDBRANCH   7   8
ENDBRANCH   5   7
ENDBRANCH   3   5
ENDBRANCH   2   3
ENDBRANCH   1   2
BRANCH   1  19
ATOM     19  C   UNL A   1      34.116  33.294  32.327  1.00  0.00     0.275 C 
BRANCH  19  20
ATOM     20  O   UNL A   1      35.001  32.204  32.000  1.00  0.00    -0.458 OA
BRANCH  20  21
ATOM     21  C   UNL A   1      36.090  32.074  32.791  1.00  0.00     0.338 C 
ATOM     22  O   UNL A   1      36.160  32.276  33.993  1.00  0.00    -0.246 OA
BRANCH  21  23
ATOM     23  C   UNL A   1      37.206  31.498  32.023  1.00  0.00     0.060 A 
ATOM     24  C   UNL A   1      38.246  30.887  32.733  1.00  0.00     0.016 A 
ATOM     25  C   UNL A   1      37.268  31.612  30.633  1.00  0.00     0.016 A 
ATOM     26  C   UNL A   1      39.360  30.402  32.056  1.00  0.00     0.010 A 
ATOM     27  C   UNL A   1      38.382  31.114  29.953  1.00  0.00     0.010 A 
ATOM     28  C   UNL A   1      39.440  30.518  30.662  1.00  0.00    -0.014 A 
BRANCH  28  29
ATOM     29  C   UNL A   1      40.648  30.036  29.953  1.00  0.00     0.031 A 
ATOM     30  C   UNL A   1      41.796  30.969  29.705  1.00  0.00     0.074 A 
ATOM     31  C   UNL A   1      40.712  28.756  29.545  1.00  0.00     0.049 A 
ATOM     32  N   UNL A   1      42.908  30.757  29.049  1.00  0.00    -0.248 NA
ATOM     33  C   UNL A   1      41.675  32.323  30.268  1.00  0.00     0.031 C 
ATOM     34  C   UNL A   1      39.669  27.752  29.752  1.00  0.00     0.029 A 
ATOM     35  N   UNL A   1      41.695  28.086  28.864  1.00  0.00    -0.354 N 
ATOM     36  C   UNL A   1      43.614  31.951  29.106  1.00  0.00     0.074 A 
ATOM     37  C   UNL A   1      42.794  32.891  29.842  1.00  0.00     0.031 C 
ATOM     38  C   UNL A   1      40.066  26.592  29.205  1.00  0.00     0.029 A 
ATOM     39  C   UNL A   1      41.369  26.784  28.575  1.00  0.00     0.049 A 
ATOM     40  H   UNL A   1      42.552  28.497  28.607  1.00  0.00     0.167 HD
ATOM     41  C   UNL A   1      44.836  32.234  28.595  1.00  0.00     0.037 A 
ATOM     42  C   UNL A   1      42.033  25.859  27.858  1.00  0.00     0.037 A 
ATOM     43  C   UNL A   1      45.649  31.291  27.870  1.00  0.00     0.049 A 
ATOM     44  C   UNL A   1      43.367  26.209  27.262  1.00  0.00     0.074 A 
ATOM     45  C   UNL A   1      46.909  31.476  27.326  1.00  0.00     0.029 A 
ATOM     46  N   UNL A   1      45.278  29.986  27.583  1.00  0.00    -0.354 N 
ATOM     47  N   UNL A   1      44.030  27.338  27.329  1.00  0.00    -0.248 NA
ATOM     48  C   UNL A   1      44.045  25.157  26.493  1.00  0.00     0.031 C 
ATOM     49  C   UNL A   1      47.282  30.294  26.677  1.00  0.00     0.029 A 
ATOM     50  C   UNL A   1      46.274  29.360  26.851  1.00  0.00     0.049 A 
ATOM     51  H   UNL A   1      44.432  29.566  27.858  1.00  0.00     0.167 HD
ATOM     52  C   UNL A   1      45.207  27.131  26.622  1.00  0.00     0.074 A 
ATOM     53  C   UNL A   1      45.175  25.761  26.151  1.00  0.00     0.031 C 
ATOM     54  C   UNL A   1      46.222  27.997  26.385  1.00  0.00     0.037 A 
BRANCH  41  55
ATOM     55  C   UNL A   1      45.351  33.630  28.782  1.00  0.00     0.057 A 
ATOM     56  C   UNL A   1      46.139  33.988  29.883  1.00  0.00     0.134 A 
ATOM     57  C   UNL A   1      45.061  34.627  27.842  1.00  0.00     0.134 A 
ATOM     58  F   UNL A   1      46.440  33.085  30.827  1.00  0.00    -0.206 F 
ATOM     59  C   UNL A   1      46.599  35.296  30.056  1.00  0.00     0.040 A 
ATOM     60  C   UNL A   1      45.534  35.932  27.992  1.00  0.00     0.040 A 
ATOM     61  F   UNL A   1      44.315  34.349  26.763  1.00  0.00    -0.206 F 
ATOM     62  C   UNL A   1      46.300  36.270  29.106  1.00  0.00     0.006 A 
ENDBRANCH  41  55
BRANCH  42  63
ATOM     63  C   UNL A   1      41.426  24.523  27.647  1.00  0.00     0.057 A 
ATOM     64  C   UNL A   1      41.826  23.414  28.400  1.00  0.00     0.134 A 
ATOM     65  C   UNL A   1      40.415  24.329  26.697  1.00  0.00     0.134 A 
ATOM     66  F   UNL A   1      42.805  23.534  29.309  1.00  0.00    -0.206 F 
ATOM     67  C   UNL A   1      41.248  22.158  28.212  1.00  0.00     0.040 A 
ATOM     68  C   UNL A   1      39.810  23.085  26.516  1.00  0.00     0.040 A 
ATOM     69  F   UNL A   1      39.985  25.355  25.947  1.00  0.00    -0.206 F 
ATOM     70  C   UNL A   1      40.231  21.993  27.272  1.00  0.00     0.006 A 
ENDBRANCH  42  63
BRANCH  54  71
ATOM     71  C   UNL A   1      47.387  27.481  25.593  1.00  0.00     0.057 A 
ATOM     72  C   UNL A   1      47.443  27.606  24.199  1.00  0.00     0.134 A 
ATOM     73  C   UNL A   1      48.479  26.884  26.235  1.00  0.00     0.134 A 
ATOM     74  F   UNL A   1      46.422  28.155  23.524  1.00  0.00    -0.206 F 
ATOM     75  C   UNL A   1      48.536  27.135  23.469  1.00  0.00     0.040 A 
ATOM     76  C   UNL A   1      49.587  26.431  25.519  1.00  0.00     0.040 A 
ATOM     77  F   UNL A   1      48.491  26.741  27.569  1.00  0.00    -0.206 F 
ATOM     78  C   UNL A   1      49.615  26.552  24.131  1.00  0.00     0.006 A 
ENDBRANCH  54  71
ENDBRANCH  28  29
ENDBRANCH  21  23
ENDBRANCH  20  21
ENDBRANCH  19  20
ENDBRANCH   1  19
TORSDOF 15
ENDMDL
