MODEL 1
REMARK VINA RESULT:     -11.5      0.000      0.000
REMARK SMILES C=C(C)COc1ccc2nc(C)n(-c3cccc(C(=O)OCCOC(=O)c4ccc(-c5c6nc(c(-c7c(F)cccc7F)c7ccc([nH]7)c(-c7c(F)cccc7F)c7nc(c(-c8c(F)cccc8F)c8ccc5[nH]8)C=C7)C=C6)cc4)c3)c(=O)c2c1
REMARK SMILES IDX 22 1 21 2 19 3 20 4 18 5 14 6 15 7 81 8 16 9 17 10 13 11
REMARK SMILES IDX 6 12 7 13 85 14 8 15 84 16 9 17 82 18 10 19 83 20 11 21
REMARK SMILES IDX 12 22 5 23 4 24 2 25 1 26 3 27 23 28 24 29 25 30 26 31 27 32
REMARK SMILES IDX 28 33 80 34 29 35 79 36 30 37 31 38 32 39 73 40 33 41 78 42
REMARK SMILES IDX 72 43 74 44 34 45 77 46 71 47 70 48 35 50 61 51 44 52 60 53
REMARK SMILES IDX 45 54 48 55 59 56 75 57 46 58 47 59 58 61 76 62 49 63 36 64
REMARK SMILES IDX 37 65 42 66 38 67 39 68 41 69 43 70 40 71 62 72 63 73 68 74
REMARK SMILES IDX 64 75 65 76 67 77 69 78 66 79 50 80 51 81 56 82 52 83 53 84
REMARK SMILES IDX 55 85 57 86 54 87
REMARK H PARENT 74 49 48 60
REMARK Flexibility Score: inf
ROOT
ATOM      1  C   UNL A   1      39.275  21.806  26.489  1.00  0.00     0.275 C 
ENDROOT
BRANCH   1   2
ATOM      2  O   UNL A   1      38.122  22.095  25.676  1.00  0.00    -0.458 OA
BRANCH   2   3
ATOM      3  C   UNL A   1      37.576  21.051  24.998  1.00  0.00     0.338 C 
ATOM      4  O   UNL A   1      38.132  20.021  24.681  1.00  0.00    -0.246 OA
BRANCH   3   5
ATOM      5  C   UNL A   1      36.116  21.280  24.811  1.00  0.00     0.062 A 
ATOM      6  C   UNL A   1      34.212  22.726  24.420  1.00  0.00     0.051 A 
ATOM      7  C   UNL A   1      33.345  21.668  24.720  1.00  0.00     0.027 A 
ATOM      8  C   UNL A   1      35.599  22.534  24.484  1.00  0.00     0.042 A 
ATOM      9  C   UNL A   1      33.859  20.404  24.999  1.00  0.00     0.003 A 
ATOM     10  C   UNL A   1      35.240  20.203  25.007  1.00  0.00     0.016 A 
BRANCH   6  11
ATOM     11  N   UNL A   1      33.693  23.954  23.924  1.00  0.00    -0.264 N 
ATOM     12  C   UNL A   1      32.973  28.697  24.537  1.00  0.00     0.120 A 
ATOM     13  C   UNL A   1      32.704  28.794  23.172  1.00  0.00     0.049 A 
ATOM     14  C   UNL A   1      33.282  27.467  25.103  1.00  0.00     0.062 A 
ATOM     15  C   UNL A   1      32.697  27.648  22.376  1.00  0.00     0.033 A 
ATOM     16  C   UNL A   1      33.279  26.327  24.290  1.00  0.00     0.070 A 
ATOM     17  C   UNL A   1      32.992  26.403  22.931  1.00  0.00     0.078 A 
ATOM     18  C   UNL A   1      33.625  25.012  24.841  1.00  0.00     0.266 A 
ATOM     19  N   UNL A   1      33.004  25.283  22.096  1.00  0.00    -0.234 NA
ATOM     20  O   UNL A   1      33.871  24.932  26.044  1.00  0.00    -0.268 OA
ATOM     21  C   UNL A   1      33.342  24.135  22.596  1.00  0.00     0.113 A 
ATOM     22  C   UNL A   1      33.300  22.953  21.650  1.00  0.00     0.088 C 
BRANCH  12  23
ATOM     23  O   UNL A   1      33.030  29.815  25.324  1.00  0.00    -0.489 OA
BRANCH  23  24
ATOM     24  C   UNL A   1      33.124  29.481  26.718  1.00  0.00     0.260 C 
BRANCH  24  25
ATOM     25  C   UNL A   1      34.405  30.002  27.334  1.00  0.00    -0.043 C 
ATOM     26  C   UNL A   1      35.480  29.219  27.530  1.00  0.00     0.011 C 
ATOM     27  C   UNL A   1      34.425  31.468  27.654  1.00  0.00     0.042 C 
ENDBRANCH  24  25
ENDBRANCH  23  24
ENDBRANCH  12  23
ENDBRANCH   6  11
ENDBRANCH   3   5
ENDBRANCH   2   3
ENDBRANCH   1   2
BRANCH   1  28
ATOM     28  C   UNL A   1      40.349  22.885  26.325  1.00  0.00     0.275 C 
BRANCH  28  29
ATOM     29  O   UNL A   1      39.769  24.202  26.385  1.00  0.00    -0.458 OA
BRANCH  29  30
ATOM     30  C   UNL A   1      40.632  25.230  26.219  1.00  0.00     0.338 C 
ATOM     31  O   UNL A   1      41.353  25.455  25.262  1.00  0.00    -0.246 OA
BRANCH  30  32
ATOM     32  C   UNL A   1      40.450  26.180  27.328  1.00  0.00     0.060 A 
ATOM     33  C   UNL A   1      39.624  25.913  28.415  1.00  0.00     0.016 A 
ATOM     34  C   UNL A   1      41.190  27.360  27.280  1.00  0.00     0.016 A 
ATOM     35  C   UNL A   1      39.520  26.865  29.440  1.00  0.00     0.010 A 
ATOM     36  C   UNL A   1      41.101  28.300  28.302  1.00  0.00     0.010 A 
ATOM     37  C   UNL A   1      40.252  28.070  29.389  1.00  0.00    -0.014 A 
BRANCH  37  38
ATOM     38  C   UNL A   1      40.171  29.068  30.487  1.00  0.00     0.031 A 
ATOM     39  C   UNL A   1      39.143  30.170  30.465  1.00  0.00     0.074 A 
ATOM     40  C   UNL A   1      41.071  29.016  31.488  1.00  0.00     0.049 A 
ATOM     41  N   UNL A   1      38.894  31.083  31.371  1.00  0.00    -0.248 NA
ATOM     42  C   UNL A   1      38.310  30.282  29.258  1.00  0.00     0.031 C 
ATOM     43  C   UNL A   1      42.186  28.071  31.572  1.00  0.00     0.029 A 
ATOM     44  N   UNL A   1      41.186  29.770  32.628  1.00  0.00    -0.354 N 
ATOM     45  C   UNL A   1      37.880  31.875  30.845  1.00  0.00     0.074 A 
ATOM     46  C   UNL A   1      37.605  31.375  29.516  1.00  0.00     0.031 C 
ATOM     47  C   UNL A   1      42.842  28.269  32.726  1.00  0.00     0.029 A 
ATOM     48  C   UNL A   1      42.204  29.362  33.455  1.00  0.00     0.049 A 
ATOM     49  H   UNL A   1      40.596  30.531  32.834  1.00  0.00     0.167 HD
ATOM     50  C   UNL A   1      37.219  32.906  31.426  1.00  0.00     0.037 A 
ATOM     51  C   UNL A   1      42.566  29.801  34.674  1.00  0.00     0.037 A 
ATOM     52  C   UNL A   1      37.478  33.391  32.758  1.00  0.00     0.049 A 
ATOM     53  C   UNL A   1      41.778  30.905  35.322  1.00  0.00     0.074 A 
ATOM     54  C   UNL A   1      36.809  34.373  33.468  1.00  0.00     0.029 A 
ATOM     55  N   UNL A   1      38.492  32.925  33.582  1.00  0.00    -0.354 N 
ATOM     56  N   UNL A   1      40.746  31.568  34.860  1.00  0.00    -0.248 NA
ATOM     57  C   UNL A   1      42.200  31.311  36.670  1.00  0.00     0.031 C 
ATOM     58  C   UNL A   1      37.440  34.526  34.708  1.00  0.00     0.029 A 
ATOM     59  C   UNL A   1      38.476  33.609  34.786  1.00  0.00     0.049 A 
ATOM     60  H   UNL A   1      39.130  32.214  33.345  1.00  0.00     0.167 HD
ATOM     61  C   UNL A   1      40.379  32.449  35.869  1.00  0.00     0.074 A 
ATOM     62  C   UNL A   1      41.286  32.221  36.975  1.00  0.00     0.031 C 
ATOM     63  C   UNL A   1      39.384  33.369  35.878  1.00  0.00     0.037 A 
BRANCH  50  64
ATOM     64  C   UNL A   1      36.126  33.566  30.632  1.00  0.00     0.057 A 
ATOM     65  C   UNL A   1      34.778  33.389  30.970  1.00  0.00     0.134 A 
ATOM     66  C   UNL A   1      36.409  34.349  29.504  1.00  0.00     0.134 A 
ATOM     67  F   UNL A   1      34.433  32.642  32.030  1.00  0.00    -0.206 F 
ATOM     68  C   UNL A   1      33.754  33.968  30.218  1.00  0.00     0.040 A 
ATOM     69  C   UNL A   1      35.395  34.955  28.760  1.00  0.00     0.040 A 
ATOM     70  F   UNL A   1      37.678  34.562  29.127  1.00  0.00    -0.206 F 
ATOM     71  C   UNL A   1      34.062  34.761  29.114  1.00  0.00     0.006 A 
ENDBRANCH  50  64
BRANCH  51  72
ATOM     72  C   UNL A   1      43.690  29.155  35.395  1.00  0.00     0.057 A 
ATOM     73  C   UNL A   1      43.481  28.088  36.274  1.00  0.00     0.134 A 
ATOM     74  C   UNL A   1      45.008  29.586  35.203  1.00  0.00     0.134 A 
ATOM     75  F   UNL A   1      42.239  27.636  36.509  1.00  0.00    -0.206 F 
ATOM     76  C   UNL A   1      44.543  27.467  36.933  1.00  0.00     0.040 A 
ATOM     77  C   UNL A   1      46.082  28.959  35.836  1.00  0.00     0.040 A 
ATOM     78  F   UNL A   1      45.273  30.595  34.360  1.00  0.00    -0.206 F 
ATOM     79  C   UNL A   1      45.849  27.896  36.706  1.00  0.00     0.006 A 
ENDBRANCH  51  72
BRANCH  63  80
ATOM     80  C   UNL A   1      39.213  34.171  37.134  1.00  0.00     0.057 A 
ATOM     81  C   UNL A   1      38.523  33.642  38.232  1.00  0.00     0.134 A 
ATOM     82  C   UNL A   1      39.730  35.467  37.259  1.00  0.00     0.134 A 
ATOM     83  F   UNL A   1      37.996  32.409  38.175  1.00  0.00    -0.206 F 
ATOM     84  C   UNL A   1      38.358  34.371  39.411  1.00  0.00     0.040 A 
ATOM     85  C   UNL A   1      39.596  36.195  38.443  1.00  0.00     0.040 A 
ATOM     86  F   UNL A   1      40.416  36.025  36.250  1.00  0.00    -0.206 F 
ATOM     87  C   UNL A   1      38.905  35.647  39.521  1.00  0.00     0.006 A 
ENDBRANCH  63  80
ENDBRANCH  37  38
ENDBRANCH  30  32
ENDBRANCH  29  30
ENDBRANCH  28  29
ENDBRANCH   1  28
TORSDOF 15
ENDMDL
MODEL 2
REMARK VINA RESULT:     -11.5      4.136      7.936
REMARK SMILES C=C(C)COc1ccc2nc(C)n(-c3cccc(C(=O)OCCOC(=O)c4ccc(-c5c6nc(c(-c7c(F)cccc7F)c7ccc([nH]7)c(-c7c(F)cccc7F)c7nc(c(-c8c(F)cccc8F)c8ccc5[nH]8)C=C7)C=C6)cc4)c3)c(=O)c2c1
REMARK SMILES IDX 22 1 21 2 19 3 20 4 18 5 14 6 15 7 81 8 16 9 17 10 13 11
REMARK SMILES IDX 6 12 7 13 85 14 8 15 84 16 9 17 82 18 10 19 83 20 11 21
REMARK SMILES IDX 12 22 5 23 4 24 2 25 1 26 3 27 23 28 24 29 25 30 26 31 27 32
REMARK SMILES IDX 28 33 80 34 29 35 79 36 30 37 31 38 32 39 73 40 33 41 78 42
REMARK SMILES IDX 72 43 74 44 34 45 77 46 71 47 70 48 35 50 61 51 44 52 60 53
REMARK SMILES IDX 45 54 48 55 59 56 75 57 46 58 47 59 58 61 76 62 49 63 36 64
REMARK SMILES IDX 37 65 42 66 38 67 39 68 41 69 43 70 40 71 62 72 63 73 68 74
REMARK SMILES IDX 64 75 65 76 67 77 69 78 66 79 50 80 51 81 56 82 52 83 53 84
REMARK SMILES IDX 55 85 57 86 54 87
REMARK H PARENT 74 49 48 60
REMARK Flexibility Score: inf
ROOT
ATOM      1  C   UNL A   1      34.917  21.092  25.627  1.00  0.00     0.275 C 
ENDROOT
BRANCH   1   2
ATOM      2  O   UNL A   1      33.997  20.584  24.643  1.00  0.00    -0.458 OA
BRANCH   2   3
ATOM      3  C   UNL A   1      32.755  21.137  24.625  1.00  0.00     0.338 C 
ATOM      4  O   UNL A   1      31.757  20.696  25.152  1.00  0.00    -0.246 OA
BRANCH   3   5
ATOM      5  C   UNL A   1      32.810  22.475  23.972  1.00  0.00     0.062 A 
ATOM      6  C   UNL A   1      32.401  24.863  23.955  1.00  0.00     0.051 A 
ATOM      7  C   UNL A   1      32.717  24.909  22.590  1.00  0.00     0.027 A 
ATOM      8  C   UNL A   1      32.432  23.641  24.639  1.00  0.00     0.042 A 
ATOM      9  C   UNL A   1      33.141  23.755  21.935  1.00  0.00     0.003 A 
ATOM     10  C   UNL A   1      33.224  22.550  22.635  1.00  0.00     0.016 A 
BRANCH   6  11
ATOM     11  N   UNL A   1      32.180  26.070  24.674  1.00  0.00    -0.264 N 
ATOM     12  C   UNL A   1      34.002  29.878  27.034  1.00  0.00     0.120 A 
ATOM     13  C   UNL A   1      32.760  30.501  26.910  1.00  0.00     0.049 A 
ATOM     14  C   UNL A   1      34.198  28.602  26.524  1.00  0.00     0.062 A 
ATOM     15  C   UNL A   1      31.694  29.826  26.313  1.00  0.00     0.033 A 
ATOM     16  C   UNL A   1      33.121  27.940  25.921  1.00  0.00     0.070 A 
ATOM     17  C   UNL A   1      31.870  28.539  25.807  1.00  0.00     0.078 A 
ATOM     18  C   UNL A   1      33.291  26.601  25.344  1.00  0.00     0.266 A 
ATOM     19  N   UNL A   1      30.788  27.906  25.191  1.00  0.00    -0.234 NA
ATOM     20  O   UNL A   1      34.391  26.059  25.448  1.00  0.00    -0.268 OA
ATOM     21  C   UNL A   1      30.967  26.737  24.661  1.00  0.00     0.113 A 
ATOM     22  C   UNL A   1      29.747  26.088  24.041  1.00  0.00     0.088 C 
BRANCH  12  23
ATOM     23  O   UNL A   1      35.070  30.541  27.574  1.00  0.00    -0.489 OA
BRANCH  23  24
ATOM     24  C   UNL A   1      34.691  31.313  28.725  1.00  0.00     0.260 C 
BRANCH  24  25
ATOM     25  C   UNL A   1      35.027  32.779  28.552  1.00  0.00    -0.043 C 
ATOM     26  C   UNL A   1      36.137  33.193  27.916  1.00  0.00     0.011 C 
ATOM     27  C   UNL A   1      34.009  33.747  29.079  1.00  0.00     0.042 C 
ENDBRANCH  24  25
ENDBRANCH  23  24
ENDBRANCH  12  23
ENDBRANCH   6  11
ENDBRANCH   3   5
ENDBRANCH   2   3
ENDBRANCH   1   2
BRANCH   1  28
ATOM     28  C   UNL A   1      36.366  20.782  25.238  1.00  0.00     0.275 C 
BRANCH  28  29
ATOM     29  O   UNL A   1      37.259  21.802  25.723  1.00  0.00    -0.458 OA
BRANCH  29  30
ATOM     30  C   UNL A   1      38.528  21.401  25.968  1.00  0.00     0.338 C 
ATOM     31  O   UNL A   1      39.041  20.331  25.690  1.00  0.00    -0.246 OA
BRANCH  30  32
ATOM     32  C   UNL A   1      39.291  22.547  26.486  1.00  0.00     0.060 A 
ATOM     33  C   UNL A   1      40.389  22.399  27.327  1.00  0.00     0.016 A 
ATOM     34  C   UNL A   1      38.903  23.814  26.054  1.00  0.00     0.016 A 
ATOM     35  C   UNL A   1      41.073  23.544  27.762  1.00  0.00     0.010 A 
ATOM     36  C   UNL A   1      39.588  24.951  26.471  1.00  0.00     0.010 A 
ATOM     37  C   UNL A   1      40.674  24.831  27.343  1.00  0.00    -0.014 A 
BRANCH  37  38
ATOM     38  C   UNL A   1      41.413  26.045  27.774  1.00  0.00     0.031 A 
ATOM     39  C   UNL A   1      42.822  26.307  27.309  1.00  0.00     0.074 A 
ATOM     40  C   UNL A   1      40.829  26.894  28.642  1.00  0.00     0.049 A 
ATOM     41  N   UNL A   1      43.587  27.346  27.537  1.00  0.00    -0.248 NA
ATOM     42  C   UNL A   1      43.468  25.254  26.510  1.00  0.00     0.031 C 
ATOM     43  C   UNL A   1      39.516  26.700  29.258  1.00  0.00     0.029 A 
ATOM     44  N   UNL A   1      41.263  28.092  29.151  1.00  0.00    -0.354 N 
ATOM     45  C   UNL A   1      44.799  27.073  26.915  1.00  0.00     0.074 A 
ATOM     46  C   UNL A   1      44.690  25.743  26.354  1.00  0.00     0.031 C 
ATOM     47  C   UNL A   1      39.228  27.766  30.022  1.00  0.00     0.029 A 
ATOM     48  C   UNL A   1      40.342  28.708  29.962  1.00  0.00     0.049 A 
ATOM     49  H   UNL A   1      42.149  28.473  28.955  1.00  0.00     0.167 HD
ATOM     50  C   UNL A   1      45.892  27.866  26.797  1.00  0.00     0.037 A 
ATOM     51  C   UNL A   1      40.379  29.910  30.567  1.00  0.00     0.037 A 
ATOM     52  C   UNL A   1      45.992  29.198  27.337  1.00  0.00     0.049 A 
ATOM     53  C   UNL A   1      41.577  30.796  30.371  1.00  0.00     0.074 A 
ATOM     54  C   UNL A   1      47.022  30.113  27.201  1.00  0.00     0.029 A 
ATOM     55  N   UNL A   1      45.021  29.805  28.120  1.00  0.00    -0.354 N 
ATOM     56  N   UNL A   1      42.670  30.572  29.683  1.00  0.00    -0.248 NA
ATOM     57  C   UNL A   1      41.538  32.111  31.026  1.00  0.00     0.031 C 
ATOM     58  C   UNL A   1      46.689  31.261  27.930  1.00  0.00     0.029 A 
ATOM     59  C   UNL A   1      45.433  31.076  28.486  1.00  0.00     0.049 A 
ATOM     60  H   UNL A   1      44.166  29.393  28.378  1.00  0.00     0.167 HD
ATOM     61  C   UNL A   1      43.436  31.725  29.799  1.00  0.00     0.074 A 
ATOM     62  C   UNL A   1      42.672  32.654  30.607  1.00  0.00     0.031 C 
ATOM     63  C   UNL A   1      44.662  31.989  29.288  1.00  0.00     0.037 A 
BRANCH  50  64
ATOM     64  C   UNL A   1      47.063  27.323  26.027  1.00  0.00     0.057 A 
ATOM     65  C   UNL A   1      48.087  26.617  26.672  1.00  0.00     0.134 A 
ATOM     66  C   UNL A   1      47.197  27.533  24.648  1.00  0.00     0.134 A 
ATOM     67  F   UNL A   1      48.031  26.389  27.993  1.00  0.00    -0.206 F 
ATOM     68  C   UNL A   1      49.197  26.138  25.973  1.00  0.00     0.040 A 
ATOM     69  C   UNL A   1      48.288  27.036  23.934  1.00  0.00     0.040 A 
ATOM     70  F   UNL A   1      46.252  28.198  23.968  1.00  0.00    -0.206 F 
ATOM     71  C   UNL A   1      49.296  26.340  24.598  1.00  0.00     0.006 A 
ENDBRANCH  50  64
BRANCH  51  72
ATOM     72  C   UNL A   1      39.220  30.378  31.366  1.00  0.00     0.057 A 
ATOM     73  C   UNL A   1      38.168  31.092  30.783  1.00  0.00     0.134 A 
ATOM     74  C   UNL A   1      39.133  30.101  32.736  1.00  0.00     0.134 A 
ATOM     75  F   UNL A   1      38.199  31.398  29.477  1.00  0.00    -0.206 F 
ATOM     76  C   UNL A   1      37.068  31.511  31.532  1.00  0.00     0.040 A 
ATOM     77  C   UNL A   1      38.027  30.492  33.492  1.00  0.00     0.040 A 
ATOM     78  F   UNL A   1      40.104  29.406  33.347  1.00  0.00    -0.206 F 
ATOM     79  C   UNL A   1      36.991  31.202  32.889  1.00  0.00     0.006 A 
ENDBRANCH  51  72
BRANCH  63  80
ATOM     80  C   UNL A   1      45.235  33.348  29.568  1.00  0.00     0.057 A 
ATOM     81  C   UNL A   1      44.978  34.423  28.708  1.00  0.00     0.134 A 
ATOM     82  C   UNL A   1      46.041  33.593  30.688  1.00  0.00     0.134 A 
ATOM     83  F   UNL A   1      44.219  34.253  27.614  1.00  0.00    -0.206 F 
ATOM     84  C   UNL A   1      45.496  35.695  28.954  1.00  0.00     0.040 A 
ATOM     85  C   UNL A   1      46.543  34.868  30.959  1.00  0.00     0.040 A 
ATOM     86  F   UNL A   1      46.311  32.610  31.559  1.00  0.00    -0.206 F 
ATOM     87  C   UNL A   1      46.273  35.921  30.089  1.00  0.00     0.006 A 
ENDBRANCH  63  80
ENDBRANCH  37  38
ENDBRANCH  30  32
ENDBRANCH  29  30
ENDBRANCH  28  29
ENDBRANCH   1  28
TORSDOF 15
ENDMDL
MODEL 3
REMARK VINA RESULT:     -11.5      2.312      7.591
REMARK SMILES C=C(C)COc1ccc2nc(C)n(-c3cccc(C(=O)OCCOC(=O)c4ccc(-c5c6nc(c(-c7c(F)cccc7F)c7ccc([nH]7)c(-c7c(F)cccc7F)c7nc(c(-c8c(F)cccc8F)c8ccc5[nH]8)C=C7)C=C6)cc4)c3)c(=O)c2c1
REMARK SMILES IDX 22 1 21 2 19 3 20 4 18 5 14 6 15 7 81 8 16 9 17 10 13 11
REMARK SMILES IDX 6 12 7 13 85 14 8 15 84 16 9 17 82 18 10 19 83 20 11 21
REMARK SMILES IDX 12 22 5 23 4 24 2 25 1 26 3 27 23 28 24 29 25 30 26 31 27 32
REMARK SMILES IDX 28 33 80 34 29 35 79 36 30 37 31 38 32 39 73 40 33 41 78 42
REMARK SMILES IDX 72 43 74 44 34 45 77 46 71 47 70 48 35 50 61 51 44 52 60 53
REMARK SMILES IDX 45 54 48 55 59 56 75 57 46 58 47 59 58 61 76 62 49 63 36 64
REMARK SMILES IDX 37 65 42 66 38 67 39 68 41 69 43 70 40 71 62 72 63 73 68 74
REMARK SMILES IDX 64 75 65 76 67 77 69 78 66 79 50 80 51 81 56 82 52 83 53 84
REMARK SMILES IDX 55 85 57 86 54 87
REMARK H PARENT 74 49 48 60
REMARK Flexibility Score: inf
ROOT
ATOM      1  C   UNL A   1      31.709  29.229  23.816  1.00  0.00     0.275 C 
ENDROOT
BRANCH   1   2
ATOM      2  O   UNL A   1      30.549  28.426  23.524  1.00  0.00    -0.458 OA
BRANCH   2   3
ATOM      3  C   UNL A   1      30.773  27.227  22.924  1.00  0.00     0.338 C 
ATOM      4  O   UNL A   1      30.805  27.007  21.732  1.00  0.00    -0.246 OA
BRANCH   3   5
ATOM      5  C   UNL A   1      31.129  26.208  23.952  1.00  0.00     0.062 A 
ATOM      6  C   UNL A   1      32.422  24.310  24.722  1.00  0.00     0.051 A 
ATOM      7  C   UNL A   1      31.570  24.176  25.826  1.00  0.00     0.027 A 
ATOM      8  C   UNL A   1      32.187  25.317  23.776  1.00  0.00     0.042 A 
ATOM      9  C   UNL A   1      30.542  25.094  26.028  1.00  0.00     0.003 A 
ATOM     10  C   UNL A   1      30.348  26.130  25.112  1.00  0.00     0.016 A 
BRANCH   6  11
ATOM     11  N   UNL A   1      33.596  23.514  24.629  1.00  0.00    -0.264 N 
ATOM     12  C   UNL A   1      38.152  22.673  26.019  1.00  0.00     0.120 A 
ATOM     13  C   UNL A   1      38.035  21.388  25.490  1.00  0.00     0.049 A 
ATOM     14  C   UNL A   1      37.086  23.560  25.941  1.00  0.00     0.062 A 
ATOM     15  C   UNL A   1      36.863  21.001  24.839  1.00  0.00     0.033 A 
ATOM     16  C   UNL A   1      35.914  23.155  25.291  1.00  0.00     0.070 A 
ATOM     17  C   UNL A   1      35.789  21.883  24.740  1.00  0.00     0.078 A 
ATOM     18  C   UNL A   1      34.754  24.050  25.209  1.00  0.00     0.266 A 
ATOM     19  N   UNL A   1      34.622  21.451  24.106  1.00  0.00    -0.234 NA
ATOM     20  O   UNL A   1      34.858  25.181  25.685  1.00  0.00    -0.268 OA
ATOM     21  C   UNL A   1      33.598  22.246  24.071  1.00  0.00     0.113 A 
ATOM     22  C   UNL A   1      32.376  21.734  23.338  1.00  0.00     0.088 C 
BRANCH  12  23
ATOM     23  O   UNL A   1      39.274  23.054  26.701  1.00  0.00    -0.489 OA
BRANCH  23  24
ATOM     24  C   UNL A   1      40.456  22.431  26.172  1.00  0.00     0.260 C 
BRANCH  24  25
ATOM     25  C   UNL A   1      41.191  21.635  27.229  1.00  0.00    -0.043 C 
ATOM     26  C   UNL A   1      41.667  22.197  28.354  1.00  0.00     0.011 C 
ATOM     27  C   UNL A   1      41.300  20.159  26.975  1.00  0.00     0.042 C 
ENDBRANCH  24  25
ENDBRANCH  23  24
ENDBRANCH  12  23
ENDBRANCH   6  11
ENDBRANCH   3   5
ENDBRANCH   2   3
ENDBRANCH   1   2
BRANCH   1  28
ATOM     28  C   UNL A   1      31.748  29.619  25.297  1.00  0.00     0.275 C 
BRANCH  28  29
ATOM     29  O   UNL A   1      33.045  30.127  25.661  1.00  0.00    -0.458 OA
BRANCH  29  30
ATOM     30  C   UNL A   1      33.065  30.989  26.704  1.00  0.00     0.338 C 
ATOM     31  O   UNL A   1      32.146  31.665  27.133  1.00  0.00    -0.246 OA
BRANCH  30  32
ATOM     32  C   UNL A   1      34.361  30.867  27.390  1.00  0.00     0.060 A 
ATOM     33  C   UNL A   1      35.152  31.968  27.701  1.00  0.00     0.016 A 
ATOM     34  C   UNL A   1      34.756  29.587  27.775  1.00  0.00     0.016 A 
ATOM     35  C   UNL A   1      36.366  31.766  28.373  1.00  0.00     0.010 A 
ATOM     36  C   UNL A   1      35.953  29.384  28.454  1.00  0.00     0.010 A 
ATOM     37  C   UNL A   1      36.781  30.471  28.749  1.00  0.00    -0.014 A 
BRANCH  37  38
ATOM     38  C   UNL A   1      38.051  30.253  29.488  1.00  0.00     0.031 A 
ATOM     39  C   UNL A   1      38.239  30.778  30.888  1.00  0.00     0.074 A 
ATOM     40  C   UNL A   1      39.069  29.625  28.870  1.00  0.00     0.049 A 
ATOM     41  N   UNL A   1      39.256  30.622  31.698  1.00  0.00    -0.248 NA
ATOM     42  C   UNL A   1      37.159  31.612  31.439  1.00  0.00     0.031 C 
ATOM     43  C   UNL A   1      39.060  29.167  27.480  1.00  0.00     0.029 A 
ATOM     44  N   UNL A   1      40.308  29.257  29.334  1.00  0.00    -0.354 N 
ATOM     45  C   UNL A   1      38.942  31.335  32.849  1.00  0.00     0.074 A 
ATOM     46  C   UNL A   1      37.668  31.977  32.607  1.00  0.00     0.031 C 
ATOM     47  C   UNL A   1      40.215  28.536  27.218  1.00  0.00     0.029 A 
ATOM     48  C   UNL A   1      41.051  28.557  28.415  1.00  0.00     0.049 A 
ATOM     49  H   UNL A   1      40.632  29.473  30.238  1.00  0.00     0.167 HD
ATOM     50  C   UNL A   1      39.636  31.425  34.010  1.00  0.00     0.037 A 
ATOM     51  C   UNL A   1      42.259  27.976  28.532  1.00  0.00     0.037 A 
ATOM     52  C   UNL A   1      40.894  30.768  34.257  1.00  0.00     0.049 A 
ATOM     53  C   UNL A   1      42.981  28.038  29.849  1.00  0.00     0.074 A 
ATOM     54  C   UNL A   1      41.635  30.729  35.426  1.00  0.00     0.029 A 
ATOM     55  N   UNL A   1      41.598  30.034  33.315  1.00  0.00    -0.354 N 
ATOM     56  N   UNL A   1      42.618  28.619  30.967  1.00  0.00    -0.248 NA
ATOM     57  C   UNL A   1      44.277  27.348  29.923  1.00  0.00     0.031 C 
ATOM     58  C   UNL A   1      42.804  29.999  35.181  1.00  0.00     0.029 A 
ATOM     59  C   UNL A   1      42.771  29.550  33.870  1.00  0.00     0.049 A 
ATOM     60  H   UNL A   1      41.308  29.881  32.387  1.00  0.00     0.167 HD
ATOM     61  C   UNL A   1      43.625  28.343  31.882  1.00  0.00     0.074 A 
ATOM     62  C   UNL A   1      44.603  27.525  31.195  1.00  0.00     0.031 C 
ATOM     63  C   UNL A   1      43.734  28.736  33.175  1.00  0.00     0.037 A 
BRANCH  50  64
ATOM     64  C   UNL A   1      39.034  32.245  35.117  1.00  0.00     0.057 A 
ATOM     65  C   UNL A   1      39.200  33.635  35.159  1.00  0.00     0.134 A 
ATOM     66  C   UNL A   1      38.318  31.650  36.165  1.00  0.00     0.134 A 
ATOM     67  F   UNL A   1      39.884  34.270  34.195  1.00  0.00    -0.206 F 
ATOM     68  C   UNL A   1      38.674  34.402  36.201  1.00  0.00     0.040 A 
ATOM     69  C   UNL A   1      37.765  32.410  37.197  1.00  0.00     0.040 A 
ATOM     70  F   UNL A   1      38.118  30.324  36.185  1.00  0.00    -0.206 F 
ATOM     71  C   UNL A   1      37.947  33.791  37.220  1.00  0.00     0.006 A 
ENDBRANCH  50  64
BRANCH  51  72
ATOM     72  C   UNL A   1      42.839  27.226  27.391  1.00  0.00     0.057 A 
ATOM     73  C   UNL A   1      42.472  25.904  27.120  1.00  0.00     0.134 A 
ATOM     74  C   UNL A   1      43.764  27.829  26.531  1.00  0.00     0.134 A 
ATOM     75  F   UNL A   1      41.598  25.267  27.914  1.00  0.00    -0.206 F 
ATOM     76  C   UNL A   1      43.002  25.208  26.032  1.00  0.00     0.040 A 
ATOM     77  C   UNL A   1      44.283  27.155  25.426  1.00  0.00     0.040 A 
ATOM     78  F   UNL A   1      44.142  29.101  26.731  1.00  0.00    -0.206 F 
ATOM     79  C   UNL A   1      43.903  25.839  25.175  1.00  0.00     0.006 A 
ENDBRANCH  51  72
BRANCH  63  80
ATOM     80  C   UNL A   1      44.940  28.259  33.929  1.00  0.00     0.057 A 
ATOM     81  C   UNL A   1      44.916  27.040  34.618  1.00  0.00     0.134 A 
ATOM     82  C   UNL A   1      46.125  29.005  33.975  1.00  0.00     0.134 A 
ATOM     83  F   UNL A   1      43.810  26.281  34.621  1.00  0.00    -0.206 F 
ATOM     84  C   UNL A   1      46.029  26.577  35.321  1.00  0.00     0.040 A 
ATOM     85  C   UNL A   1      47.254  28.539  34.652  1.00  0.00     0.040 A 
ATOM     86  F   UNL A   1      46.219  30.173  33.322  1.00  0.00    -0.206 F 
ATOM     87  C   UNL A   1      47.206  27.323  35.330  1.00  0.00     0.006 A 
ENDBRANCH  63  80
ENDBRANCH  37  38
ENDBRANCH  30  32
ENDBRANCH  29  30
ENDBRANCH  28  29
ENDBRANCH   1  28
TORSDOF 15
ENDMDL
