MODEL 1
REMARK VINA RESULT:     -10.7      0.000      0.000
REMARK SMILES O=C(Cc1ccccc1Nc1c(Cl)cccc1Cl)OCCOC(=O)c1ccc(-c2c3nc(c(-c4c(F)cccc4F)c4ccc([nH]4)c(-c4c(F)cccc4F)c4nc(c(-c5c(F)cccc5F)c5ccc2[nH]5)C=C4)C=C3)cc1
REMARK SMILES IDX 20 1 19 2 2 3 1 4 3 5 4 6 5 7 9 8 6 9 8 10 7 11 10 12 11 14
REMARK SMILES IDX 12 15 17 16 13 17 14 18 16 19 18 20 15 21 21 22 22 23 23 24
REMARK SMILES IDX 24 25 25 26 26 27 78 28 27 29 77 30 28 31 29 32 30 33 71 34
REMARK SMILES IDX 31 35 76 36 70 37 72 38 32 39 75 40 69 41 68 42 33 44 59 45
REMARK SMILES IDX 42 46 58 47 43 48 46 49 57 50 73 51 44 52 45 53 56 55 74 56
REMARK SMILES IDX 47 57 34 58 35 59 40 60 36 61 37 62 39 63 41 64 38 65 60 66
REMARK SMILES IDX 61 67 66 68 62 69 63 70 65 71 67 72 64 73 48 74 49 75 54 76
REMARK SMILES IDX 50 77 51 78 53 79 55 80 52 81
REMARK H PARENT 10 13 72 43 46 54
REMARK Flexibility Score: inf
ROOT
ATOM      1  C   UNL A   1      37.886  21.525  25.305  1.00  0.00     0.274 C 
ENDROOT
BRANCH   1   2
ATOM      2  O   UNL A   1      36.992  21.834  24.214  1.00  0.00    -0.462 OA
BRANCH   2   3
ATOM      3  C   UNL A   1      36.304  22.991  24.065  1.00  0.00     0.310 C 
ATOM      4  O   UNL A   1      35.893  23.326  22.953  1.00  0.00    -0.252 OA
BRANCH   3   5
ATOM      5  C   UNL A   1      36.060  23.878  25.266  1.00  0.00     0.160 C 
BRANCH   5   6
ATOM      6  C   UNL A   1      34.767  23.565  25.975  1.00  0.00    -0.013 A 
ATOM      7  C   UNL A   1      34.727  22.460  26.845  1.00  0.00     0.006 A 
ATOM      8  C   UNL A   1      33.612  24.358  25.797  1.00  0.00     0.042 A 
ATOM      9  C   UNL A   1      33.561  22.130  27.526  1.00  0.00     0.000 A 
ATOM     10  C   UNL A   1      32.443  23.991  26.478  1.00  0.00     0.026 A 
ATOM     11  C   UNL A   1      32.416  22.892  27.338  1.00  0.00     0.002 A 
BRANCH   8  12
ATOM     12  N   UNL A   1      33.659  25.514  24.989  1.00  0.00    -0.353 N 
ATOM     13  H   UNL A   1      34.530  25.669  24.558  1.00  0.00     0.167 HD
BRANCH  12  14
ATOM     14  C   UNL A   1      32.678  26.492  24.686  1.00  0.00     0.076 A 
ATOM     15  C   UNL A   1      32.726  27.735  25.360  1.00  0.00     0.066 A 
ATOM     16  C   UNL A   1      31.658  26.337  23.722  1.00  0.00     0.066 A 
ATOM     17  Cl  UNL A   1      33.896  28.026  26.604  1.00  0.00    -0.082 Cl
ATOM     18  C   UNL A   1      31.839  28.777  25.060  1.00  0.00     0.023 A 
ATOM     19  C   UNL A   1      30.779  27.388  23.413  1.00  0.00     0.023 A 
ATOM     20  Cl  UNL A   1      31.307  24.825  22.944  1.00  0.00    -0.082 Cl
ATOM     21  C   UNL A   1      30.873  28.609  24.075  1.00  0.00     0.003 A 
ENDBRANCH  12  14
ENDBRANCH   8  12
ENDBRANCH   5   6
ENDBRANCH   3   5
ENDBRANCH   2   3
ENDBRANCH   1   2
BRANCH   1  22
ATOM     22  C   UNL A   1      38.610  20.193  25.094  1.00  0.00     0.275 C 
BRANCH  22  23
ATOM     23  O   UNL A   1      39.320  19.812  26.285  1.00  0.00    -0.458 OA
BRANCH  23  24
ATOM     24  C   UNL A   1      40.669  19.746  26.156  1.00  0.00     0.338 C 
ATOM     25  O   UNL A   1      41.307  18.873  25.594  1.00  0.00    -0.246 OA
BRANCH  24  26
ATOM     26  C   UNL A   1      41.267  21.008  26.646  1.00  0.00     0.060 A 
ATOM     27  C   UNL A   1      41.209  21.271  28.021  1.00  0.00     0.016 A 
ATOM     28  C   UNL A   1      41.898  21.911  25.785  1.00  0.00     0.016 A 
ATOM     29  C   UNL A   1      41.758  22.449  28.534  1.00  0.00     0.010 A 
ATOM     30  C   UNL A   1      42.441  23.092  26.299  1.00  0.00     0.010 A 
ATOM     31  C   UNL A   1      42.353  23.378  27.671  1.00  0.00    -0.014 A 
BRANCH  31  32
ATOM     32  C   UNL A   1      42.774  24.707  28.176  1.00  0.00     0.031 A 
ATOM     33  C   UNL A   1      41.734  25.769  28.386  1.00  0.00     0.074 A 
ATOM     34  C   UNL A   1      44.068  24.984  28.415  1.00  0.00     0.049 A 
ATOM     35  N   UNL A   1      41.885  27.013  28.764  1.00  0.00    -0.248 NA
ATOM     36  C   UNL A   1      40.339  25.381  28.131  1.00  0.00     0.031 C 
ATOM     37  C   UNL A   1      45.177  24.047  28.261  1.00  0.00     0.029 A 
ATOM     38  N   UNL A   1      44.665  26.154  28.820  1.00  0.00    -0.354 N 
ATOM     39  C   UNL A   1      40.608  27.555  28.792  1.00  0.00     0.074 A 
ATOM     40  C   UNL A   1      39.695  26.514  28.369  1.00  0.00     0.031 C 
ATOM     41  C   UNL A   1      46.324  24.689  28.540  1.00  0.00     0.029 A 
ATOM     42  C   UNL A   1      46.034  26.080  28.875  1.00  0.00     0.049 A 
ATOM     43  H   UNL A   1      44.159  26.967  29.049  1.00  0.00     0.167 HD
ATOM     44  C   UNL A   1      40.228  28.804  29.147  1.00  0.00     0.037 A 
ATOM     45  C   UNL A   1      46.954  27.029  29.137  1.00  0.00     0.037 A 
ATOM     46  C   UNL A   1      41.126  29.846  29.568  1.00  0.00     0.049 A 
ATOM     47  C   UNL A   1      46.511  28.433  29.453  1.00  0.00     0.074 A 
ATOM     48  C   UNL A   1      40.818  31.122  30.005  1.00  0.00     0.029 A 
ATOM     49  N   UNL A   1      42.507  29.737  29.586  1.00  0.00    -0.354 N 
ATOM     50  N   UNL A   1      45.296  28.913  29.550  1.00  0.00    -0.248 NA
ATOM     51  C   UNL A   1      47.569  29.427  29.691  1.00  0.00     0.031 C 
ATOM     52  C   UNL A   1      42.016  31.805  30.240  1.00  0.00     0.029 A 
ATOM     53  C   UNL A   1      43.068  30.938  29.988  1.00  0.00     0.049 A 
ATOM     54  H   UNL A   1      43.014  28.928  29.349  1.00  0.00     0.167 HD
ATOM     55  C   UNL A   1      45.443  30.255  29.881  1.00  0.00     0.074 A 
ATOM     56  C   UNL A   1      46.863  30.512  29.978  1.00  0.00     0.031 C 
ATOM     57  C   UNL A   1      44.482  31.187  30.086  1.00  0.00     0.037 A 
BRANCH  44  58
ATOM     58  C   UNL A   1      38.766  29.122  29.077  1.00  0.00     0.057 A 
ATOM     59  C   UNL A   1      37.938  29.020  30.200  1.00  0.00     0.134 A 
ATOM     60  C   UNL A   1      38.194  29.576  27.883  1.00  0.00     0.134 A 
ATOM     61  F   UNL A   1      38.427  28.577  31.368  1.00  0.00    -0.206 F 
ATOM     62  C   UNL A   1      36.583  29.344  30.135  1.00  0.00     0.040 A 
ATOM     63  C   UNL A   1      36.845  29.923  27.811  1.00  0.00     0.040 A 
ATOM     64  F   UNL A   1      38.938  29.698  26.773  1.00  0.00    -0.206 F 
ATOM     65  C   UNL A   1      36.035  29.805  28.938  1.00  0.00     0.006 A 
ENDBRANCH  44  58
BRANCH  45  66
ATOM     66  C   UNL A   1      48.400  26.699  29.085  1.00  0.00     0.057 A 
ATOM     67  C   UNL A   1      49.133  26.838  27.902  1.00  0.00     0.134 A 
ATOM     68  C   UNL A   1      49.071  26.200  30.208  1.00  0.00     0.134 A 
ATOM     69  F   UNL A   1      48.538  27.287  26.787  1.00  0.00    -0.206 F 
ATOM     70  C   UNL A   1      50.478  26.471  27.829  1.00  0.00     0.040 A 
ATOM     71  C   UNL A   1      50.422  25.853  30.156  1.00  0.00     0.040 A 
ATOM     72  F   UNL A   1      48.421  26.038  31.369  1.00  0.00    -0.206 F 
ATOM     73  C   UNL A   1      51.127  25.979  28.961  1.00  0.00     0.006 A 
ENDBRANCH  45  66
BRANCH  57  74
ATOM     74  C   UNL A   1      44.926  32.571  30.457  1.00  0.00     0.057 A 
ATOM     75  C   UNL A   1      45.095  33.572  29.492  1.00  0.00     0.134 A 
ATOM     76  C   UNL A   1      45.129  32.923  31.798  1.00  0.00     0.134 A 
ATOM     77  F   UNL A   1      44.930  33.296  28.190  1.00  0.00    -0.206 F 
ATOM     78  C   UNL A   1      45.461  34.872  29.847  1.00  0.00     0.040 A 
ATOM     79  C   UNL A   1      45.473  34.223  32.167  1.00  0.00     0.040 A 
ATOM     80  F   UNL A   1      44.976  32.012  32.771  1.00  0.00    -0.206 F 
ATOM     81  C   UNL A   1      45.642  35.202  31.190  1.00  0.00     0.006 A 
ENDBRANCH  57  74
ENDBRANCH  31  32
ENDBRANCH  24  26
ENDBRANCH  23  24
ENDBRANCH  22  23
ENDBRANCH   1  22
TORSDOF 14
ENDMDL
MODEL 2
REMARK VINA RESULT:     -10.7      4.563      9.465
REMARK SMILES O=C(Cc1ccccc1Nc1c(Cl)cccc1Cl)OCCOC(=O)c1ccc(-c2c3nc(c(-c4c(F)cccc4F)c4ccc([nH]4)c(-c4c(F)cccc4F)c4nc(c(-c5c(F)cccc5F)c5ccc2[nH]5)C=C4)C=C3)cc1
REMARK SMILES IDX 20 1 19 2 2 3 1 4 3 5 4 6 5 7 9 8 6 9 8 10 7 11 10 12 11 14
REMARK SMILES IDX 12 15 17 16 13 17 14 18 16 19 18 20 15 21 21 22 22 23 23 24
REMARK SMILES IDX 24 25 25 26 26 27 78 28 27 29 77 30 28 31 29 32 30 33 71 34
REMARK SMILES IDX 31 35 76 36 70 37 72 38 32 39 75 40 69 41 68 42 33 44 59 45
REMARK SMILES IDX 42 46 58 47 43 48 46 49 57 50 73 51 44 52 45 53 56 55 74 56
REMARK SMILES IDX 47 57 34 58 35 59 40 60 36 61 37 62 39 63 41 64 38 65 60 66
REMARK SMILES IDX 61 67 66 68 62 69 63 70 65 71 67 72 64 73 48 74 49 75 54 76
REMARK SMILES IDX 50 77 51 78 53 79 55 80 52 81
REMARK H PARENT 10 13 72 43 46 54
REMARK Flexibility Score: inf
ROOT
ATOM      1  C   UNL A   1      33.588  33.842  28.680  1.00  0.00     0.274 C 
ENDROOT
BRANCH   1   2
ATOM      2  O   UNL A   1      34.403  34.354  29.756  1.00  0.00    -0.462 OA
BRANCH   2   3
ATOM      3  C   UNL A   1      34.615  33.736  30.943  1.00  0.00     0.310 C 
ATOM      4  O   UNL A   1      33.868  33.959  31.897  1.00  0.00    -0.252 OA
BRANCH   3   5
ATOM      5  C   UNL A   1      35.783  32.787  31.096  1.00  0.00     0.160 C 
BRANCH   5   6
ATOM      6  C   UNL A   1      37.111  33.436  30.796  1.00  0.00    -0.013 A 
ATOM      7  C   UNL A   1      37.491  33.600  29.451  1.00  0.00     0.006 A 
ATOM      8  C   UNL A   1      37.964  33.890  31.826  1.00  0.00     0.042 A 
ATOM      9  C   UNL A   1      38.703  34.196  29.121  1.00  0.00     0.000 A 
ATOM     10  C   UNL A   1      39.190  34.467  31.466  1.00  0.00     0.026 A 
ATOM     11  C   UNL A   1      39.556  34.624  30.128  1.00  0.00     0.002 A 
BRANCH   8  12
ATOM     12  N   UNL A   1      37.561  33.804  33.175  1.00  0.00    -0.353 N 
ATOM     13  H   UNL A   1      36.805  34.388  33.409  1.00  0.00     0.167 HD
BRANCH  12  14
ATOM     14  C   UNL A   1      38.049  33.026  34.256  1.00  0.00     0.076 A 
ATOM     15  C   UNL A   1      38.831  33.659  35.251  1.00  0.00     0.066 A 
ATOM     16  C   UNL A   1      37.784  31.651  34.444  1.00  0.00     0.066 A 
ATOM     17  Cl  UNL A   1      39.272  35.328  35.105  1.00  0.00    -0.082 Cl
ATOM     18  C   UNL A   1      39.284  32.975  36.387  1.00  0.00     0.023 A 
ATOM     19  C   UNL A   1      38.228  30.972  35.590  1.00  0.00     0.023 A 
ATOM     20  Cl  UNL A   1      37.025  30.657  33.240  1.00  0.00    -0.082 Cl
ATOM     21  C   UNL A   1      38.970  31.633  36.564  1.00  0.00     0.003 A 
ENDBRANCH  12  14
ENDBRANCH   8  12
ENDBRANCH   5   6
ENDBRANCH   3   5
ENDBRANCH   2   3
ENDBRANCH   1   2
BRANCH   1  22
ATOM     22  C   UNL A   1      34.314  32.762  27.873  1.00  0.00     0.275 C 
BRANCH  22  23
ATOM     23  O   UNL A   1      33.976  31.454  28.366  1.00  0.00    -0.458 OA
BRANCH  23  24
ATOM     24  C   UNL A   1      34.482  30.419  27.648  1.00  0.00     0.338 C 
ATOM     25  O   UNL A   1      34.016  29.942  26.627  1.00  0.00    -0.246 OA
BRANCH  24  26
ATOM     26  C   UNL A   1      35.811  30.057  28.187  1.00  0.00     0.060 A 
ATOM     27  C   UNL A   1      36.928  30.253  27.364  1.00  0.00     0.016 A 
ATOM     28  C   UNL A   1      35.973  29.560  29.484  1.00  0.00     0.016 A 
ATOM     29  C   UNL A   1      38.206  29.927  27.826  1.00  0.00     0.010 A 
ATOM     30  C   UNL A   1      37.251  29.228  29.942  1.00  0.00     0.010 A 
ATOM     31  C   UNL A   1      38.371  29.387  29.108  1.00  0.00    -0.014 A 
BRANCH  31  32
ATOM     32  C   UNL A   1      39.691  28.869  29.540  1.00  0.00     0.031 A 
ATOM     33  C   UNL A   1      40.498  29.661  30.527  1.00  0.00     0.074 A 
ATOM     34  C   UNL A   1      40.187  27.723  29.040  1.00  0.00     0.049 A 
ATOM     35  N   UNL A   1      41.697  29.425  30.996  1.00  0.00    -0.248 NA
ATOM     36  C   UNL A   1      39.875  30.886  31.051  1.00  0.00     0.031 C 
ATOM     37  C   UNL A   1      39.508  26.854  28.083  1.00  0.00     0.029 A 
ATOM     38  N   UNL A   1      41.398  27.111  29.258  1.00  0.00    -0.354 N 
ATOM     39  C   UNL A   1      41.971  30.468  31.868  1.00  0.00     0.074 A 
ATOM     40  C   UNL A   1      40.826  31.354  31.845  1.00  0.00     0.031 C 
ATOM     41  C   UNL A   1      40.327  25.834  27.774  1.00  0.00     0.029 A 
ATOM     42  C   UNL A   1      41.588  25.986  28.495  1.00  0.00     0.049 A 
ATOM     43  H   UNL A   1      42.065  27.446  29.900  1.00  0.00     0.167 HD
ATOM     44  C   UNL A   1      43.074  30.667  32.628  1.00  0.00     0.037 A 
ATOM     45  C   UNL A   1      42.663  25.183  28.368  1.00  0.00     0.037 A 
ATOM     46  C   UNL A   1      44.216  29.795  32.658  1.00  0.00     0.049 A 
ATOM     47  C   UNL A   1      43.908  25.469  29.165  1.00  0.00     0.074 A 
ATOM     48  C   UNL A   1      45.350  29.890  33.445  1.00  0.00     0.029 A 
ATOM     49  N   UNL A   1      44.379  28.680  31.852  1.00  0.00    -0.354 N 
ATOM     50  N   UNL A   1      44.127  26.416  30.042  1.00  0.00    -0.248 NA
ATOM     51  C   UNL A   1      45.056  24.576  28.948  1.00  0.00     0.031 C 
ATOM     52  C   UNL A   1      46.223  28.859  33.082  1.00  0.00     0.029 A 
ATOM     53  C   UNL A   1      45.614  28.100  32.095  1.00  0.00     0.049 A 
ATOM     54  H   UNL A   1      43.717  28.348  31.204  1.00  0.00     0.167 HD
ATOM     55  C   UNL A   1      45.425  26.220  30.498  1.00  0.00     0.074 A 
ATOM     56  C   UNL A   1      45.942  25.060  29.808  1.00  0.00     0.031 C 
ATOM     57  C   UNL A   1      46.122  26.942  31.408  1.00  0.00     0.037 A 
BRANCH  44  58
ATOM     58  C   UNL A   1      43.105  31.897  33.482  1.00  0.00     0.057 A 
ATOM     59  C   UNL A   1      42.582  31.902  34.780  1.00  0.00     0.134 A 
ATOM     60  C   UNL A   1      43.704  33.072  33.014  1.00  0.00     0.134 A 
ATOM     61  F   UNL A   1      41.984  30.810  35.277  1.00  0.00    -0.206 F 
ATOM     62  C   UNL A   1      42.639  33.043  35.581  1.00  0.00     0.040 A 
ATOM     63  C   UNL A   1      43.785  34.213  33.813  1.00  0.00     0.040 A 
ATOM     64  F   UNL A   1      44.225  33.128  31.779  1.00  0.00    -0.206 F 
ATOM     65  C   UNL A   1      43.249  34.201  35.100  1.00  0.00     0.006 A 
ENDBRANCH  44  58
BRANCH  45  66
ATOM     66  C   UNL A   1      42.631  24.038  27.424  1.00  0.00     0.057 A 
ATOM     67  C   UNL A   1      42.256  22.759  27.848  1.00  0.00     0.134 A 
ATOM     68  C   UNL A   1      43.013  24.190  26.086  1.00  0.00     0.134 A 
ATOM     69  F   UNL A   1      41.904  22.547  29.125  1.00  0.00    -0.206 F 
ATOM     70  C   UNL A   1      42.282  21.665  26.981  1.00  0.00     0.040 A 
ATOM     71  C   UNL A   1      43.021  23.111  25.202  1.00  0.00     0.040 A 
ATOM     72  F   UNL A   1      43.390  25.390  25.620  1.00  0.00    -0.206 F 
ATOM     73  C   UNL A   1      42.663  21.841  25.652  1.00  0.00     0.006 A 
ENDBRANCH  45  66
BRANCH  57  74
ATOM     74  C   UNL A   1      47.515  26.491  31.732  1.00  0.00     0.057 A 
ATOM     75  C   UNL A   1      47.770  25.566  32.751  1.00  0.00     0.134 A 
ATOM     76  C   UNL A   1      48.607  26.941  30.978  1.00  0.00     0.134 A 
ATOM     77  F   UNL A   1      46.769  25.106  33.518  1.00  0.00    -0.206 F 
ATOM     78  C   UNL A   1      49.063  25.111  33.017  1.00  0.00     0.040 A 
ATOM     79  C   UNL A   1      49.901  26.478  31.220  1.00  0.00     0.040 A 
ATOM     80  F   UNL A   1      48.429  27.823  29.983  1.00  0.00    -0.206 F 
ATOM     81  C   UNL A   1      50.132  25.562  32.243  1.00  0.00     0.006 A 
ENDBRANCH  57  74
ENDBRANCH  31  32
ENDBRANCH  24  26
ENDBRANCH  23  24
ENDBRANCH  22  23
ENDBRANCH   1  22
TORSDOF 14
ENDMDL
MODEL 3
REMARK VINA RESULT:     -10.6      4.732      8.635
REMARK SMILES O=C(Cc1ccccc1Nc1c(Cl)cccc1Cl)OCCOC(=O)c1ccc(-c2c3nc(c(-c4c(F)cccc4F)c4ccc([nH]4)c(-c4c(F)cccc4F)c4nc(c(-c5c(F)cccc5F)c5ccc2[nH]5)C=C4)C=C3)cc1
REMARK SMILES IDX 20 1 19 2 2 3 1 4 3 5 4 6 5 7 9 8 6 9 8 10 7 11 10 12 11 14
REMARK SMILES IDX 12 15 17 16 13 17 14 18 16 19 18 20 15 21 21 22 22 23 23 24
REMARK SMILES IDX 24 25 25 26 26 27 78 28 27 29 77 30 28 31 29 32 30 33 71 34
REMARK SMILES IDX 31 35 76 36 70 37 72 38 32 39 75 40 69 41 68 42 33 44 59 45
REMARK SMILES IDX 42 46 58 47 43 48 46 49 57 50 73 51 44 52 45 53 56 55 74 56
REMARK SMILES IDX 47 57 34 58 35 59 40 60 36 61 37 62 39 63 41 64 38 65 60 66
REMARK SMILES IDX 61 67 66 68 62 69 63 70 65 71 67 72 64 73 48 74 49 75 54 76
REMARK SMILES IDX 50 77 51 78 53 79 55 80 52 81
REMARK H PARENT 10 13 72 43 46 54
REMARK Flexibility Score: inf
ROOT
ATOM      1  C   UNL A   1      31.769  31.970  26.867  1.00  0.00     0.274 C 
ENDROOT
BRANCH   1   2
ATOM      2  O   UNL A   1      32.902  31.114  27.129  1.00  0.00    -0.462 OA
BRANCH   2   3
ATOM      3  C   UNL A   1      33.011  29.818  26.750  1.00  0.00     0.310 C 
ATOM      4  O   UNL A   1      34.066  29.402  26.270  1.00  0.00    -0.252 OA
BRANCH   3   5
ATOM      5  C   UNL A   1      31.826  28.890  26.902  1.00  0.00     0.160 C 
BRANCH   5   6
ATOM      6  C   UNL A   1      31.323  28.358  25.583  1.00  0.00    -0.013 A 
ATOM      7  C   UNL A   1      31.026  29.276  24.558  1.00  0.00     0.006 A 
ATOM      8  C   UNL A   1      31.160  26.975  25.355  1.00  0.00     0.042 A 
ATOM      9  C   UNL A   1      30.562  28.837  23.322  1.00  0.00     0.000 A 
ATOM     10  C   UNL A   1      30.670  26.561  24.108  1.00  0.00     0.026 A 
ATOM     11  C   UNL A   1      30.378  27.480  23.099  1.00  0.00     0.002 A 
BRANCH   8  12
ATOM     12  N   UNL A   1      31.528  26.040  26.346  1.00  0.00    -0.353 N 
ATOM     13  H   UNL A   1      31.282  26.305  27.261  1.00  0.00     0.167 HD
BRANCH  12  14
ATOM     14  C   UNL A   1      32.188  24.788  26.262  1.00  0.00     0.076 A 
ATOM     15  C   UNL A   1      33.546  24.760  25.868  1.00  0.00     0.066 A 
ATOM     16  C   UNL A   1      31.598  23.544  26.579  1.00  0.00     0.066 A 
ATOM     17  Cl  UNL A   1      34.365  26.213  25.400  1.00  0.00    -0.082 Cl
ATOM     18  C   UNL A   1      34.286  23.570  25.836  1.00  0.00     0.023 A 
ATOM     19  C   UNL A   1      32.346  22.356  26.559  1.00  0.00     0.023 A 
ATOM     20  Cl  UNL A   1      29.900  23.346  26.880  1.00  0.00    -0.082 Cl
ATOM     21  C   UNL A   1      33.689  22.368  26.195  1.00  0.00     0.003 A 
ENDBRANCH  12  14
ENDBRANCH   8  12
ENDBRANCH   5   6
ENDBRANCH   3   5
ENDBRANCH   2   3
ENDBRANCH   1   2
BRANCH   1  22
ATOM     22  C   UNL A   1      32.154  33.452  26.884  1.00  0.00     0.275 C 
BRANCH  22  23
ATOM     23  O   UNL A   1      32.234  33.935  28.236  1.00  0.00    -0.458 OA
BRANCH  23  24
ATOM     24  C   UNL A   1      33.308  34.721  28.505  1.00  0.00     0.338 C 
ATOM     25  O   UNL A   1      33.330  35.939  28.543  1.00  0.00    -0.246 OA
BRANCH  24  26
ATOM     26  C   UNL A   1      34.436  33.868  28.940  1.00  0.00     0.060 A 
ATOM     27  C   UNL A   1      34.137  32.674  29.610  1.00  0.00     0.016 A 
ATOM     28  C   UNL A   1      35.766  34.211  28.677  1.00  0.00     0.016 A 
ATOM     29  C   UNL A   1      35.167  31.834  30.041  1.00  0.00     0.010 A 
ATOM     30  C   UNL A   1      36.795  33.372  29.115  1.00  0.00     0.010 A 
ATOM     31  C   UNL A   1      36.503  32.193  29.819  1.00  0.00    -0.014 A 
BRANCH  31  32
ATOM     32  C   UNL A   1      37.601  31.407  30.430  1.00  0.00     0.031 A 
ATOM     33  C   UNL A   1      37.997  31.688  31.850  1.00  0.00     0.074 A 
ATOM     34  C   UNL A   1      38.265  30.473  29.725  1.00  0.00     0.049 A 
ATOM     35  N   UNL A   1      38.963  31.162  32.561  1.00  0.00    -0.248 NA
ATOM     36  C   UNL A   1      37.205  32.700  32.564  1.00  0.00     0.031 C 
ATOM     37  C   UNL A   1      37.981  30.095  28.343  1.00  0.00     0.029 A 
ATOM     38  N   UNL A   1      39.337  29.690  30.078  1.00  0.00    -0.354 N 
ATOM     39  C   UNL A   1      38.894  31.778  33.802  1.00  0.00     0.074 A 
ATOM     40  C   UNL A   1      37.809  32.735  33.742  1.00  0.00     0.031 C 
ATOM     41  C   UNL A   1      38.878  29.171  27.958  1.00  0.00     0.029 A 
ATOM     42  C   UNL A   1      39.806  28.906  29.054  1.00  0.00     0.049 A 
ATOM     43  H   UNL A   1      39.732  29.691  30.980  1.00  0.00     0.167 HD
ATOM     44  C   UNL A   1      39.659  31.560  34.896  1.00  0.00     0.037 A 
ATOM     45  C   UNL A   1      40.874  28.089  28.993  1.00  0.00     0.037 A 
ATOM     46  C   UNL A   1      40.739  30.613  34.967  1.00  0.00     0.049 A 
ATOM     47  C   UNL A   1      41.758  27.921  30.200  1.00  0.00     0.074 A 
ATOM     48  C   UNL A   1      41.525  30.285  36.057  1.00  0.00     0.029 A 
ATOM     49  N   UNL A   1      41.195  29.857  33.899  1.00  0.00    -0.354 N 
ATOM     50  N   UNL A   1      41.637  28.452  31.391  1.00  0.00    -0.248 NA
ATOM     51  C   UNL A   1      42.929  27.044  30.051  1.00  0.00     0.031 C 
ATOM     52  C   UNL A   1      42.493  29.365  35.637  1.00  0.00     0.029 A 
ATOM     53  C   UNL A   1      42.281  29.092  34.296  1.00  0.00     0.049 A 
ATOM     54  H   UNL A   1      40.807  29.861  32.995  1.00  0.00     0.167 HD
ATOM     55  C   UNL A   1      42.700  27.958  32.137  1.00  0.00     0.074 A 
ATOM     56  C   UNL A   1      43.450  27.077  31.269  1.00  0.00     0.031 C 
ATOM     57  C   UNL A   1      43.022  28.214  33.428  1.00  0.00     0.037 A 
BRANCH  44  58
ATOM     58  C   UNL A   1      39.365  32.382  36.113  1.00  0.00     0.057 A 
ATOM     59  C   UNL A   1      39.991  33.613  36.338  1.00  0.00     0.134 A 
ATOM     60  C   UNL A   1      38.413  31.954  37.047  1.00  0.00     0.134 A 
ATOM     61  F   UNL A   1      40.921  34.068  35.486  1.00  0.00    -0.206 F 
ATOM     62  C   UNL A   1      39.691  34.386  37.459  1.00  0.00     0.040 A 
ATOM     63  C   UNL A   1      38.090  32.728  38.161  1.00  0.00     0.040 A 
ATOM     64  F   UNL A   1      37.778  30.783  36.885  1.00  0.00    -0.206 F 
ATOM     65  C   UNL A   1      38.733  33.947  38.371  1.00  0.00     0.006 A 
ENDBRANCH  44  58
BRANCH  45  66
ATOM     66  C   UNL A   1      41.198  27.378  27.730  1.00  0.00     0.057 A 
ATOM     67  C   UNL A   1      40.776  26.062  27.511  1.00  0.00     0.134 A 
ATOM     68  C   UNL A   1      41.969  27.985  26.733  1.00  0.00     0.134 A 
ATOM     69  F   UNL A   1      40.055  25.419  28.442  1.00  0.00    -0.206 F 
ATOM     70  C   UNL A   1      41.128  25.366  26.353  1.00  0.00     0.040 A 
ATOM     71  C   UNL A   1      42.308  27.310  25.559  1.00  0.00     0.040 A 
ATOM     72  F   UNL A   1      42.410  29.242  26.887  1.00  0.00    -0.206 F 
ATOM     73  C   UNL A   1      41.895  25.992  25.371  1.00  0.00     0.006 A 
ENDBRANCH  45  66
BRANCH  57  74
ATOM     74  C   UNL A   1      44.224  27.521  33.995  1.00  0.00     0.057 A 
ATOM     75  C   UNL A   1      45.486  28.127  34.004  1.00  0.00     0.134 A 
ATOM     76  C   UNL A   1      44.108  26.258  34.590  1.00  0.00     0.134 A 
ATOM     77  F   UNL A   1      45.667  29.330  33.438  1.00  0.00    -0.206 F 
ATOM     78  C   UNL A   1      46.593  27.498  34.577  1.00  0.00     0.040 A 
ATOM     79  C   UNL A   1      45.202  25.628  35.185  1.00  0.00     0.040 A 
ATOM     80  F   UNL A   1      42.925  25.626  34.620  1.00  0.00    -0.206 F 
ATOM     81  C   UNL A   1      46.449  26.247  35.178  1.00  0.00     0.006 A 
ENDBRANCH  57  74
ENDBRANCH  31  32
ENDBRANCH  24  26
ENDBRANCH  23  24
ENDBRANCH  22  23
ENDBRANCH   1  22
TORSDOF 14
ENDMDL
