MODEL 1
REMARK VINA RESULT:     -10.0      0.000      0.000
REMARK SMILES CC[NH2+][C@]1(C(=O)OCCOC(=O)c2ccc(-c3c4nc(c(-c5c(F)cccc5F)c5ccc([nH]5)c(-c5c(F)cccc5F)c5nc(c(-c6c(F)cccc6F)c6ccc3[nH]6)C=C5)C=C4)cc2)CC[C@@H]([N@@H+](C)CC(C)(C)C)C1
REMARK SMILES IDX 8 1 7 2 5 3 6 4 4 5 67 6 77 7 68 8 69 9 3 10 2 13 1 14 70 15
REMARK SMILES IDX 71 16 72 18 73 19 74 20 75 21 76 22 9 23 10 24 11 25 12 26
REMARK SMILES IDX 13 27 14 28 66 29 15 30 65 31 16 32 17 33 18 34 59 35 19 36
REMARK SMILES IDX 64 37 58 38 60 39 20 40 63 41 57 42 56 43 21 45 47 46 30 47
REMARK SMILES IDX 46 48 31 49 34 50 45 51 61 52 32 53 33 54 44 56 62 57 35 58
REMARK SMILES IDX 22 59 23 60 28 61 24 62 25 63 27 64 29 65 26 66 48 67 49 68
REMARK SMILES IDX 54 69 50 70 51 71 53 72 55 73 52 74 36 75 37 76 42 77 38 78
REMARK SMILES IDX 39 79 41 80 43 81 40 82
REMARK H PARENT 3 11 3 12 70 17 60 44 34 55
REMARK Flexibility Score: inf
ROOT
ATOM      1  C   UNL A   1      32.517  31.179  26.903  1.00  0.00     0.274 C 
ENDROOT
BRANCH   1   2
ATOM      2  O   UNL A   1      31.685  30.493  25.947  1.00  0.00    -0.457 OA
BRANCH   2   3
ATOM      3  C   UNL A   1      31.784  29.135  25.963  1.00  0.00     0.368 C 
ATOM      4  O   UNL A   1      31.740  28.469  26.993  1.00  0.00    -0.245 OA
BRANCH   3   5
ATOM      5  C   UNL A   1      31.920  28.530  24.539  1.00  0.00     0.200 C 
ATOM      6  C   UNL A   1      33.343  28.010  24.315  1.00  0.00     0.087 C 
ATOM      7  C   UNL A   1      31.063  27.230  24.481  1.00  0.00     0.146 C 
ATOM      8  C   UNL A   1      33.210  26.817  23.386  1.00  0.00     0.072 C 
ATOM      9  C   UNL A   1      31.890  26.152  23.759  1.00  0.00     0.191 C 
BRANCH   5  10
ATOM     10  N   UNL A   1      31.420  29.455  23.483  1.00  0.00    -0.332 N 
ATOM     11  H   UNL A   1      31.439  30.402  23.862  1.00  0.00     0.347 HD
ATOM     12  H   UNL A   1      32.033  29.317  22.680  1.00  0.00     0.347 HD
BRANCH  10  13
ATOM     13  C   UNL A   1      30.063  29.191  22.999  1.00  0.00     0.257 C 
ATOM     14  C   UNL A   1      29.164  30.396  23.250  1.00  0.00     0.071 C 
ENDBRANCH  10  13
ENDBRANCH   5  10
BRANCH   9  15
ATOM     15  N   UNL A   1      31.992  24.859  24.432  1.00  0.00    -0.334 N 
ATOM     16  C   UNL A   1      32.116  24.931  25.876  1.00  0.00     0.332 C 
ATOM     17  H   UNL A   1      32.866  24.674  23.939  1.00  0.00     0.348 HD
BRANCH  15  18
ATOM     18  C   UNL A   1      31.596  23.575  23.863  1.00  0.00     0.268 C 
BRANCH  18  19
ATOM     19  C   UNL A   1      32.607  22.455  23.431  1.00  0.00     0.011 C 
ATOM     20  C   UNL A   1      32.037  21.532  22.347  1.00  0.00     0.017 C 
ATOM     21  C   UNL A   1      33.836  23.158  22.805  1.00  0.00     0.017 C 
ATOM     22  C   UNL A   1      33.102  21.581  24.590  1.00  0.00     0.017 C 
ENDBRANCH  18  19
ENDBRANCH  15  18
ENDBRANCH   9  15
ENDBRANCH   3   5
ENDBRANCH   2   3
ENDBRANCH   1   2
BRANCH   1  23
ATOM     23  C   UNL A   1      31.976  32.572  27.247  1.00  0.00     0.275 C 
BRANCH  23  24
ATOM     24  O   UNL A   1      33.005  33.580  27.233  1.00  0.00    -0.458 OA
BRANCH  24  25
ATOM     25  C   UNL A   1      33.237  34.189  28.417  1.00  0.00     0.338 C 
ATOM     26  O   UNL A   1      32.557  35.043  28.957  1.00  0.00    -0.246 OA
BRANCH  25  27
ATOM     27  C   UNL A   1      34.433  33.627  29.056  1.00  0.00     0.060 A 
ATOM     28  C   UNL A   1      35.685  34.170  28.754  1.00  0.00     0.016 A 
ATOM     29  C   UNL A   1      34.323  32.498  29.868  1.00  0.00     0.016 A 
ATOM     30  C   UNL A   1      36.839  33.593  29.278  1.00  0.00     0.010 A 
ATOM     31  C   UNL A   1      35.480  31.926  30.401  1.00  0.00     0.010 A 
ATOM     32  C   UNL A   1      36.744  32.472  30.112  1.00  0.00    -0.014 A 
BRANCH  32  33
ATOM     33  C   UNL A   1      37.957  31.880  30.718  1.00  0.00     0.031 A 
ATOM     34  C   UNL A   1      38.724  30.813  29.999  1.00  0.00     0.074 A 
ATOM     35  C   UNL A   1      38.335  32.280  31.945  1.00  0.00     0.049 A 
ATOM     36  N   UNL A   1      39.715  30.075  30.432  1.00  0.00    -0.248 NA
ATOM     37  C   UNL A   1      38.323  30.535  28.612  1.00  0.00     0.031 C 
ATOM     38  C   UNL A   1      37.682  33.331  32.728  1.00  0.00     0.029 A 
ATOM     39  N   UNL A   1      39.345  31.833  32.758  1.00  0.00    -0.354 N 
ATOM     40  C   UNL A   1      40.046  29.234  29.379  1.00  0.00     0.074 A 
ATOM     41  C   UNL A   1      39.144  29.544  28.289  1.00  0.00     0.031 C 
ATOM     42  C   UNL A   1      38.295  33.433  33.918  1.00  0.00     0.029 A 
ATOM     43  C   UNL A   1      39.349  32.427  33.996  1.00  0.00     0.049 A 
ATOM     44  H   UNL A   1      40.001  31.153  32.481  1.00  0.00     0.167 HD
ATOM     45  C   UNL A   1      41.017  28.291  29.331  1.00  0.00     0.037 A 
ATOM     46  C   UNL A   1      40.093  32.160  35.085  1.00  0.00     0.037 A 
ATOM     47  C   UNL A   1      41.917  27.994  30.415  1.00  0.00     0.049 A 
ATOM     48  C   UNL A   1      41.116  31.063  35.029  1.00  0.00     0.074 A 
ATOM     49  C   UNL A   1      42.958  27.083  30.449  1.00  0.00     0.029 A 
ATOM     50  N   UNL A   1      41.876  28.600  31.662  1.00  0.00    -0.354 N 
ATOM     51  N   UNL A   1      41.430  30.279  34.026  1.00  0.00    -0.248 NA
ATOM     52  C   UNL A   1      41.880  30.806  36.256  1.00  0.00     0.031 C 
ATOM     53  C   UNL A   1      43.522  27.108  31.730  1.00  0.00     0.029 A 
ATOM     54  C   UNL A   1      42.856  28.062  32.481  1.00  0.00     0.049 A 
ATOM     55  H   UNL A   1      41.245  29.308  31.926  1.00  0.00     0.167 HD
ATOM     56  C   UNL A   1      42.434  29.445  34.497  1.00  0.00     0.074 A 
ATOM     57  C   UNL A   1      42.689  29.829  35.871  1.00  0.00     0.031 C 
ATOM     58  C   UNL A   1      43.087  28.449  33.850  1.00  0.00     0.037 A 
BRANCH  45  59
ATOM     59  C   UNL A   1      41.145  27.492  28.069  1.00  0.00     0.057 A 
ATOM     60  C   UNL A   1      40.444  26.296  27.878  1.00  0.00     0.134 A 
ATOM     61  C   UNL A   1      41.945  27.952  27.015  1.00  0.00     0.134 A 
ATOM     62  F   UNL A   1      39.670  25.799  28.853  1.00  0.00    -0.206 F 
ATOM     63  C   UNL A   1      40.544  25.575  26.685  1.00  0.00     0.040 A 
ATOM     64  C   UNL A   1      42.039  27.251  25.812  1.00  0.00     0.040 A 
ATOM     65  F   UNL A   1      42.640  29.093  27.133  1.00  0.00    -0.206 F 
ATOM     66  C   UNL A   1      41.339  26.057  25.646  1.00  0.00     0.006 A 
ENDBRANCH  45  59
BRANCH  46  67
ATOM     67  C   UNL A   1      39.867  32.925  36.334  1.00  0.00     0.057 A 
ATOM     68  C   UNL A   1      38.900  32.526  37.262  1.00  0.00     0.134 A 
ATOM     69  C   UNL A   1      40.614  34.073  36.630  1.00  0.00     0.134 A 
ATOM     70  F   UNL A   1      38.138  31.448  37.020  1.00  0.00    -0.206 F 
ATOM     71  C   UNL A   1      38.676  33.243  38.437  1.00  0.00     0.040 A 
ATOM     72  C   UNL A   1      40.416  34.788  37.810  1.00  0.00     0.040 A 
ATOM     73  F   UNL A   1      41.556  34.505  35.779  1.00  0.00    -0.206 F 
ATOM     74  C   UNL A   1      39.441  34.375  38.717  1.00  0.00     0.006 A 
ENDBRANCH  46  67
BRANCH  58  75
ATOM     75  C   UNL A   1      44.144  27.717  34.620  1.00  0.00     0.057 A 
ATOM     76  C   UNL A   1      45.462  28.184  34.680  1.00  0.00     0.134 A 
ATOM     77  C   UNL A   1      43.835  26.550  35.329  1.00  0.00     0.134 A 
ATOM     78  F   UNL A   1      45.824  29.289  34.008  1.00  0.00    -0.206 F 
ATOM     79  C   UNL A   1      46.442  27.504  35.403  1.00  0.00     0.040 A 
ATOM     80  C   UNL A   1      44.801  25.874  36.073  1.00  0.00     0.040 A 
ATOM     81  F   UNL A   1      42.588  26.055  35.315  1.00  0.00    -0.206 F 
ATOM     82  C   UNL A   1      46.111  26.348  36.107  1.00  0.00     0.006 A 
ENDBRANCH  58  75
ENDBRANCH  32  33
ENDBRANCH  25  27
ENDBRANCH  24  25
ENDBRANCH  23  24
ENDBRANCH   1  23
TORSDOF 16
ENDMDL
MODEL 2
REMARK VINA RESULT:      -9.9      3.947      7.662
REMARK SMILES CC[NH2+][C@]1(C(=O)OCCOC(=O)c2ccc(-c3c4nc(c(-c5c(F)cccc5F)c5ccc([nH]5)c(-c5c(F)cccc5F)c5nc(c(-c6c(F)cccc6F)c6ccc3[nH]6)C=C5)C=C4)cc2)CC[C@@H]([N@@H+](C)CC(C)(C)C)C1
REMARK SMILES IDX 8 1 7 2 5 3 6 4 4 5 67 6 77 7 68 8 69 9 3 10 2 13 1 14 70 15
REMARK SMILES IDX 71 16 72 18 73 19 74 20 75 21 76 22 9 23 10 24 11 25 12 26
REMARK SMILES IDX 13 27 14 28 66 29 15 30 65 31 16 32 17 33 18 34 59 35 19 36
REMARK SMILES IDX 64 37 58 38 60 39 20 40 63 41 57 42 56 43 21 45 47 46 30 47
REMARK SMILES IDX 46 48 31 49 34 50 45 51 61 52 32 53 33 54 44 56 62 57 35 58
REMARK SMILES IDX 22 59 23 60 28 61 24 62 25 63 27 64 29 65 26 66 48 67 49 68
REMARK SMILES IDX 54 69 50 70 51 71 53 72 55 73 52 74 36 75 37 76 42 77 38 78
REMARK SMILES IDX 39 79 41 80 43 81 40 82
REMARK H PARENT 3 11 3 12 70 17 60 44 34 55
REMARK Flexibility Score: inf
ROOT
ATOM      1  C   UNL A   1      32.635  29.700  25.571  1.00  0.00     0.274 C 
ENDROOT
BRANCH   1   2
ATOM      2  O   UNL A   1      33.032  28.433  25.009  1.00  0.00    -0.457 OA
BRANCH   2   3
ATOM      3  C   UNL A   1      33.138  28.410  23.651  1.00  0.00     0.368 C 
ATOM      4  O   UNL A   1      33.794  29.228  23.013  1.00  0.00    -0.245 OA
BRANCH   3   5
ATOM      5  C   UNL A   1      32.369  27.220  23.013  1.00  0.00     0.200 C 
ATOM      6  C   UNL A   1      33.352  26.159  22.509  1.00  0.00     0.087 C 
ATOM      7  C   UNL A   1      31.605  26.474  24.147  1.00  0.00     0.146 C 
ATOM      8  C   UNL A   1      32.646  24.826  22.670  1.00  0.00     0.072 C 
ATOM      9  C   UNL A   1      31.794  24.963  23.927  1.00  0.00     0.191 C 
BRANCH   5  10
ATOM     10  N   UNL A   1      31.367  27.670  22.006  1.00  0.00    -0.332 N 
ATOM     11  H   UNL A   1      31.803  28.393  21.433  1.00  0.00     0.347 HD
ATOM     12  H   UNL A   1      31.099  26.834  21.487  1.00  0.00     0.347 HD
BRANCH  10  13
ATOM     13  C   UNL A   1      30.122  28.219  22.551  1.00  0.00     0.257 C 
ATOM     14  C   UNL A   1      29.958  29.678  22.142  1.00  0.00     0.071 C 
ENDBRANCH  10  13
ENDBRANCH   5  10
BRANCH   9  15
ATOM     15  N   UNL A   1      32.236  24.192  25.087  1.00  0.00    -0.334 N 
ATOM     16  C   UNL A   1      31.541  24.498  26.324  1.00  0.00     0.332 C 
ATOM     17  H   UNL A   1      33.164  24.606  25.008  1.00  0.00     0.348 HD
BRANCH  15  18
ATOM     18  C   UNL A   1      32.977  22.936  25.036  1.00  0.00     0.268 C 
BRANCH  18  19
ATOM     19  C   UNL A   1      34.469  22.776  25.499  1.00  0.00     0.011 C 
ATOM     20  C   UNL A   1      35.213  24.115  25.565  1.00  0.00     0.017 C 
ATOM     21  C   UNL A   1      34.447  22.216  26.943  1.00  0.00     0.017 C 
ATOM     22  C   UNL A   1      35.291  21.816  24.632  1.00  0.00     0.017 C 
ENDBRANCH  18  19
ENDBRANCH  15  18
ENDBRANCH   9  15
ENDBRANCH   3   5
ENDBRANCH   2   3
ENDBRANCH   1   2
BRANCH   1  23
ATOM     23  C   UNL A   1      32.691  29.695  27.103  1.00  0.00     0.275 C 
BRANCH  23  24
ATOM     24  O   UNL A   1      33.988  29.316  27.605  1.00  0.00    -0.458 OA
BRANCH  24  25
ATOM     25  C   UNL A   1      34.746  30.330  28.078  1.00  0.00     0.338 C 
ATOM     26  O   UNL A   1      34.380  31.455  28.368  1.00  0.00    -0.246 OA
BRANCH  25  27
ATOM     27  C   UNL A   1      36.128  29.883  28.284  1.00  0.00     0.060 A 
ATOM     28  C   UNL A   1      36.508  29.402  29.541  1.00  0.00     0.016 A 
ATOM     29  C   UNL A   1      37.070  30.040  27.267  1.00  0.00     0.016 A 
ATOM     30  C   UNL A   1      37.836  29.060  29.784  1.00  0.00     0.010 A 
ATOM     31  C   UNL A   1      38.400  29.687  27.509  1.00  0.00     0.010 A 
ATOM     32  C   UNL A   1      38.789  29.192  28.767  1.00  0.00    -0.014 A 
BRANCH  32  33
ATOM     33  C   UNL A   1      40.192  28.781  28.994  1.00  0.00     0.031 A 
ATOM     34  C   UNL A   1      41.198  29.763  29.515  1.00  0.00     0.074 A 
ATOM     35  C   UNL A   1      40.565  27.528  28.680  1.00  0.00     0.049 A 
ATOM     36  N   UNL A   1      42.494  29.632  29.633  1.00  0.00    -0.248 NA
ATOM     37  C   UNL A   1      40.677  31.066  29.958  1.00  0.00     0.031 C 
ATOM     38  C   UNL A   1      39.668  26.479  28.192  1.00  0.00     0.029 A 
ATOM     39  N   UNL A   1      41.799  26.932  28.703  1.00  0.00    -0.354 N 
ATOM     40  C   UNL A   1      42.949  30.838  30.148  1.00  0.00     0.074 A 
ATOM     41  C   UNL A   1      41.791  31.693  30.309  1.00  0.00     0.031 C 
ATOM     42  C   UNL A   1      40.386  25.373  27.941  1.00  0.00     0.029 A 
ATOM     43  C   UNL A   1      41.794  25.652  28.206  1.00  0.00     0.049 A 
ATOM     44  H   UNL A   1      42.609  27.378  29.041  1.00  0.00     0.167 HD
ATOM     45  C   UNL A   1      44.219  31.193  30.457  1.00  0.00     0.037 A 
ATOM     46  C   UNL A   1      42.816  24.813  27.954  1.00  0.00     0.037 A 
ATOM     47  C   UNL A   1      45.364  30.334  30.302  1.00  0.00     0.049 A 
ATOM     48  C   UNL A   1      44.221  25.256  28.241  1.00  0.00     0.074 A 
ATOM     49  C   UNL A   1      46.686  30.591  30.623  1.00  0.00     0.029 A 
ATOM     50  N   UNL A   1      45.323  29.052  29.774  1.00  0.00    -0.354 N 
ATOM     51  N   UNL A   1      44.643  26.394  28.736  1.00  0.00    -0.248 NA
ATOM     52  C   UNL A   1      45.293  24.304  27.923  1.00  0.00     0.031 C 
ATOM     53  C   UNL A   1      47.451  29.479  30.253  1.00  0.00     0.029 A 
ATOM     54  C   UNL A   1      46.600  28.516  29.735  1.00  0.00     0.049 A 
ATOM     55  H   UNL A   1      44.508  28.591  29.472  1.00  0.00     0.167 HD
ATOM     56  C   UNL A   1      46.024  26.291  28.802  1.00  0.00     0.074 A 
ATOM     57  C   UNL A   1      46.371  24.973  28.310  1.00  0.00     0.031 C 
ATOM     58  C   UNL A   1      46.927  27.207  29.231  1.00  0.00     0.037 A 
BRANCH  45  59
ATOM     59  C   UNL A   1      44.443  32.581  30.975  1.00  0.00     0.057 A 
ATOM     60  C   UNL A   1      44.672  33.663  30.116  1.00  0.00     0.134 A 
ATOM     61  C   UNL A   1      44.383  32.846  32.349  1.00  0.00     0.134 A 
ATOM     62  F   UNL A   1      44.751  33.473  28.790  1.00  0.00    -0.206 F 
ATOM     63  C   UNL A   1      44.847  34.959  30.606  1.00  0.00     0.040 A 
ATOM     64  C   UNL A   1      44.538  34.140  32.850  1.00  0.00     0.040 A 
ATOM     65  F   UNL A   1      44.163  31.855  33.225  1.00  0.00    -0.206 F 
ATOM     66  C   UNL A   1      44.774  35.200  31.977  1.00  0.00     0.006 A 
ENDBRANCH  45  59
BRANCH  46  67
ATOM     67  C   UNL A   1      42.544  23.482  27.362  1.00  0.00     0.057 A 
ATOM     68  C   UNL A   1      42.549  23.291  25.977  1.00  0.00     0.134 A 
ATOM     69  C   UNL A   1      42.275  22.369  28.169  1.00  0.00     0.134 A 
ATOM     70  F   UNL A   1      42.777  24.326  25.155  1.00  0.00    -0.206 F 
ATOM     71  C   UNL A   1      42.288  22.043  25.412  1.00  0.00     0.040 A 
ATOM     72  C   UNL A   1      42.033  21.111  27.619  1.00  0.00     0.040 A 
ATOM     73  F   UNL A   1      42.256  22.489  29.504  1.00  0.00    -0.206 F 
ATOM     74  C   UNL A   1      42.036  20.946  26.234  1.00  0.00     0.006 A 
ENDBRANCH  46  67
BRANCH  58  75
ATOM     75  C   UNL A   1      48.371  26.805  29.194  1.00  0.00     0.057 A 
ATOM     76  C   UNL A   1      49.200  27.149  28.120  1.00  0.00     0.134 A 
ATOM     77  C   UNL A   1      48.942  26.090  30.253  1.00  0.00     0.134 A 
ATOM     78  F   UNL A   1      48.706  27.820  27.067  1.00  0.00    -0.206 F 
ATOM     79  C   UNL A   1      50.545  26.779  28.092  1.00  0.00     0.040 A 
ATOM     80  C   UNL A   1      50.290  25.733  30.246  1.00  0.00     0.040 A 
ATOM     81  F   UNL A   1      48.201  25.734  31.314  1.00  0.00    -0.206 F 
ATOM     82  C   UNL A   1      51.095  26.074  29.160  1.00  0.00     0.006 A 
ENDBRANCH  58  75
ENDBRANCH  32  33
ENDBRANCH  25  27
ENDBRANCH  24  25
ENDBRANCH  23  24
ENDBRANCH   1  23
TORSDOF 16
ENDMDL
MODEL 3
REMARK VINA RESULT:      -9.9      4.705      9.317
REMARK SMILES CC[NH2+][C@]1(C(=O)OCCOC(=O)c2ccc(-c3c4nc(c(-c5c(F)cccc5F)c5ccc([nH]5)c(-c5c(F)cccc5F)c5nc(c(-c6c(F)cccc6F)c6ccc3[nH]6)C=C5)C=C4)cc2)CC[C@@H]([N@@H+](C)CC(C)(C)C)C1
REMARK SMILES IDX 8 1 7 2 5 3 6 4 4 5 67 6 77 7 68 8 69 9 3 10 2 13 1 14 70 15
REMARK SMILES IDX 71 16 72 18 73 19 74 20 75 21 76 22 9 23 10 24 11 25 12 26
REMARK SMILES IDX 13 27 14 28 66 29 15 30 65 31 16 32 17 33 18 34 59 35 19 36
REMARK SMILES IDX 64 37 58 38 60 39 20 40 63 41 57 42 56 43 21 45 47 46 30 47
REMARK SMILES IDX 46 48 31 49 34 50 45 51 61 52 32 53 33 54 44 56 62 57 35 58
REMARK SMILES IDX 22 59 23 60 28 61 24 62 25 63 27 64 29 65 26 66 48 67 49 68
REMARK SMILES IDX 54 69 50 70 51 71 53 72 55 73 52 74 36 75 37 76 42 77 38 78
REMARK SMILES IDX 39 79 41 80 43 81 40 82
REMARK H PARENT 3 11 3 12 70 17 60 44 34 55
REMARK Flexibility Score: inf
ROOT
ATOM      1  C   UNL A   1      34.885  21.984  25.283  1.00  0.00     0.274 C 
ENDROOT
BRANCH   1   2
ATOM      2  O   UNL A   1      34.153  21.885  24.045  1.00  0.00    -0.457 OA
BRANCH   2   3
ATOM      3  C   UNL A   1      34.313  22.934  23.191  1.00  0.00     0.368 C 
ATOM      4  O   UNL A   1      35.405  23.284  22.753  1.00  0.00    -0.245 OA
BRANCH   3   5
ATOM      5  C   UNL A   1      32.966  23.607  22.813  1.00  0.00     0.200 C 
ATOM      6  C   UNL A   1      31.790  22.779  23.340  1.00  0.00     0.087 C 
ATOM      7  C   UNL A   1      32.844  24.934  23.620  1.00  0.00     0.146 C 
ATOM      8  C   UNL A   1      30.692  23.774  23.667  1.00  0.00     0.072 C 
ATOM      9  C   UNL A   1      31.408  25.026  24.163  1.00  0.00     0.191 C 
BRANCH   5  10
ATOM     10  N   UNL A   1      32.891  23.945  21.364  1.00  0.00    -0.332 N 
ATOM     11  H   UNL A   1      33.728  23.577  20.913  1.00  0.00     0.347 HD
ATOM     12  H   UNL A   1      32.022  23.532  21.026  1.00  0.00     0.347 HD
BRANCH  10  13
ATOM     13  C   UNL A   1      32.803  25.374  21.048  1.00  0.00     0.257 C 
ATOM     14  C   UNL A   1      32.528  25.576  19.563  1.00  0.00     0.071 C 
ENDBRANCH  10  13
ENDBRANCH   5  10
BRANCH   9  15
ATOM     15  N   UNL A   1      31.273  25.317  25.589  1.00  0.00    -0.334 N 
ATOM     16  C   UNL A   1      31.805  24.296  26.473  1.00  0.00     0.332 C 
ATOM     17  H   UNL A   1      30.258  25.309  25.493  1.00  0.00     0.348 HD
BRANCH  15  18
ATOM     18  C   UNL A   1      31.040  26.637  26.164  1.00  0.00     0.268 C 
BRANCH  18  19
ATOM     19  C   UNL A   1      32.052  27.833  26.061  1.00  0.00     0.011 C 
ATOM     20  C   UNL A   1      31.845  28.673  24.796  1.00  0.00     0.017 C 
ATOM     21  C   UNL A   1      31.779  28.774  27.261  1.00  0.00     0.017 C 
ATOM     22  C   UNL A   1      33.524  27.410  26.117  1.00  0.00     0.017 C 
ENDBRANCH  18  19
ENDBRANCH  15  18
ENDBRANCH   9  15
ENDBRANCH   3   5
ENDBRANCH   2   3
ENDBRANCH   1   2
BRANCH   1  23
ATOM     23  C   UNL A   1      36.047  20.988  25.348  1.00  0.00     0.275 C 
BRANCH  23  24
ATOM     24  O   UNL A   1      37.293  21.567  24.912  1.00  0.00    -0.458 OA
BRANCH  24  25
ATOM     25  C   UNL A   1      38.388  21.176  25.601  1.00  0.00     0.338 C 
ATOM     26  O   UNL A   1      38.803  20.040  25.750  1.00  0.00    -0.246 OA
BRANCH  25  27
ATOM     27  C   UNL A   1      39.106  22.343  26.126  1.00  0.00     0.060 A 
ATOM     28  C   UNL A   1      38.666  23.625  25.782  1.00  0.00     0.016 A 
ATOM     29  C   UNL A   1      40.274  22.166  26.869  1.00  0.00     0.016 A 
ATOM     30  C   UNL A   1      39.387  24.743  26.194  1.00  0.00     0.010 A 
ATOM     31  C   UNL A   1      40.991  23.288  27.289  1.00  0.00     0.010 A 
ATOM     32  C   UNL A   1      40.550  24.582  26.957  1.00  0.00    -0.014 A 
BRANCH  32  33
ATOM     33  C   UNL A   1      41.297  25.762  27.447  1.00  0.00     0.031 A 
ATOM     34  C   UNL A   1      40.606  26.817  28.257  1.00  0.00     0.074 A 
ATOM     35  C   UNL A   1      42.593  25.899  27.114  1.00  0.00     0.049 A 
ATOM     36  N   UNL A   1      41.052  27.985  28.641  1.00  0.00    -0.248 NA
ATOM     37  C   UNL A   1      39.231  26.521  28.688  1.00  0.00     0.031 C 
ATOM     38  C   UNL A   1      43.376  24.924  26.354  1.00  0.00     0.029 A 
ATOM     39  N   UNL A   1      43.471  26.925  27.352  1.00  0.00    -0.354 N 
ATOM     40  C   UNL A   1      40.011  28.573  29.346  1.00  0.00     0.074 A 
ATOM     41  C   UNL A   1      38.905  27.637  29.326  1.00  0.00     0.031 C 
ATOM     42  C   UNL A   1      44.614  25.408  26.169  1.00  0.00     0.029 A 
ATOM     43  C   UNL A   1      44.695  26.741  26.757  1.00  0.00     0.049 A 
ATOM     44  H   UNL A   1      43.246  27.714  27.895  1.00  0.00     0.167 HD
ATOM     45  C   UNL A   1      39.985  29.783  29.953  1.00  0.00     0.037 A 
ATOM     46  C   UNL A   1      45.748  27.574  26.660  1.00  0.00     0.037 A 
ATOM     47  C   UNL A   1      41.091  30.705  29.976  1.00  0.00     0.049 A 
ATOM     48  C   UNL A   1      45.670  28.937  27.283  1.00  0.00     0.074 A 
ATOM     49  C   UNL A   1      41.174  31.939  30.598  1.00  0.00     0.029 A 
ATOM     50  N   UNL A   1      42.307  30.494  29.343  1.00  0.00    -0.354 N 
ATOM     51  N   UNL A   1      44.685  29.481  27.955  1.00  0.00    -0.248 NA
ATOM     52  C   UNL A   1      46.843  29.805  27.124  1.00  0.00     0.031 C 
ATOM     53  C   UNL A   1      42.426  32.493  30.307  1.00  0.00     0.029 A 
ATOM     54  C   UNL A   1      43.136  31.588  29.535  1.00  0.00     0.049 A 
ATOM     55  H   UNL A   1      42.546  29.687  28.832  1.00  0.00     0.167 HD
ATOM     56  C   UNL A   1      45.122  30.749  28.310  1.00  0.00     0.074 A 
ATOM     57  C   UNL A   1      46.469  30.888  27.792  1.00  0.00     0.031 C 
ATOM     58  C   UNL A   1      44.469  31.713  29.002  1.00  0.00     0.037 A 
BRANCH  45  59
ATOM     59  C   UNL A   1      38.711  30.194  30.626  1.00  0.00     0.057 A 
ATOM     60  C   UNL A   1      37.745  30.966  29.970  1.00  0.00     0.134 A 
ATOM     61  C   UNL A   1      38.427  29.771  31.931  1.00  0.00     0.134 A 
ATOM     62  F   UNL A   1      37.961  31.410  28.724  1.00  0.00    -0.206 F 
ATOM     63  C   UNL A   1      36.545  31.316  30.594  1.00  0.00     0.040 A 
ATOM     64  C   UNL A   1      37.224  30.098  32.558  1.00  0.00     0.040 A 
ATOM     65  F   UNL A   1      39.309  29.025  32.613  1.00  0.00    -0.206 F 
ATOM     66  C   UNL A   1      36.280  30.876  31.890  1.00  0.00     0.006 A 
ENDBRANCH  45  59
BRANCH  46  67
ATOM     67  C   UNL A   1      46.954  27.148  25.911  1.00  0.00     0.057 A 
ATOM     68  C   UNL A   1      47.997  26.468  26.546  1.00  0.00     0.134 A 
ATOM     69  C   UNL A   1      47.089  27.409  24.541  1.00  0.00     0.134 A 
ATOM     70  F   UNL A   1      47.933  26.211  27.861  1.00  0.00    -0.206 F 
ATOM     71  C   UNL A   1      49.138  26.068  25.849  1.00  0.00     0.040 A 
ATOM     72  C   UNL A   1      48.213  26.997  23.827  1.00  0.00     0.040 A 
ATOM     73  F   UNL A   1      46.121  28.058  23.877  1.00  0.00    -0.206 F 
ATOM     74  C   UNL A   1      49.245  26.327  24.484  1.00  0.00     0.006 A 
ENDBRANCH  46  67
BRANCH  58  75
ATOM     75  C   UNL A   1      45.208  32.994  29.245  1.00  0.00     0.057 A 
ATOM     76  C   UNL A   1      45.093  34.083  28.373  1.00  0.00     0.134 A 
ATOM     77  C   UNL A   1      46.021  33.149  30.373  1.00  0.00     0.134 A 
ATOM     78  F   UNL A   1      44.340  33.990  27.265  1.00  0.00    -0.206 F 
ATOM     79  C   UNL A   1      45.777  35.276  28.605  1.00  0.00     0.040 A 
ATOM     80  C   UNL A   1      46.693  34.344  30.628  1.00  0.00     0.040 A 
ATOM     81  F   UNL A   1      46.169  32.143  31.250  1.00  0.00    -0.206 F 
ATOM     82  C   UNL A   1      46.576  35.411  29.739  1.00  0.00     0.006 A 
ENDBRANCH  58  75
ENDBRANCH  32  33
ENDBRANCH  25  27
ENDBRANCH  24  25
ENDBRANCH  23  24
ENDBRANCH   1  23
TORSDOF 16
ENDMDL
