MODEL 1
REMARK VINA RESULT:     -11.2      0.000      0.000
REMARK SMILES O=C(OCCOC(=O)c1cc(SCc2csc(-c3ccsc3)n2)ccn1)c1ccc(-c2c3nc(c(-c4c(F)cccc4F)c4ccc([nH]4)c(-c4c(F)cccc4F)c4nc(c(-c5c(F)cccc5F)c5ccc2[nH]5)C=C4)C=C3)cc1
REMARK SMILES IDX 5 1 4 2 3 3 2 4 1 5 27 6 28 7 80 8 29 9 79 10 30 11 31 12
REMARK SMILES IDX 32 13 73 14 33 15 78 16 72 17 74 18 34 19 77 20 71 21 70 22
REMARK SMILES IDX 35 24 61 25 44 26 60 27 45 28 48 29 59 30 75 31 46 32 47 33
REMARK SMILES IDX 58 35 76 36 49 37 36 38 37 39 42 40 38 41 39 42 41 43 43 44
REMARK SMILES IDX 40 45 62 46 63 47 68 48 64 49 65 50 67 51 69 52 66 53 50 54
REMARK SMILES IDX 51 55 56 56 52 57 53 58 55 59 57 60 54 61 6 62 7 63 8 64
REMARK SMILES IDX 9 65 10 66 26 67 11 68 25 69 24 70 12 71 13 72 14 73 15 74
REMARK SMILES IDX 23 75 16 76 17 77 18 78 19 79 22 80 20 81 21 82
REMARK H PARENT 74 23 48 34
REMARK Flexibility Score: inf
ROOT
ATOM      1  C   UNL A   1      42.868  21.117  25.933  1.00  0.00     0.275 C 
ENDROOT
BRANCH   1   2
ATOM      2  C   UNL A   1      43.951  21.947  25.240  1.00  0.00     0.275 C 
BRANCH   2   3
ATOM      3  O   UNL A   1      43.484  23.265  24.895  1.00  0.00    -0.458 OA
BRANCH   3   4
ATOM      4  C   UNL A   1      44.014  24.486  25.140  1.00  0.00     0.338 C 
ATOM      5  O   UNL A   1      45.034  24.803  24.528  1.00  0.00    -0.246 OA
BRANCH   4   6
ATOM      6  C   UNL A   1      43.492  25.468  26.155  1.00  0.00     0.060 A 
ATOM      7  C   UNL A   1      43.837  26.813  26.270  1.00  0.00     0.016 A 
ATOM      8  C   UNL A   1      42.551  24.970  27.083  1.00  0.00     0.016 A 
ATOM      9  C   UNL A   1      43.290  27.617  27.279  1.00  0.00     0.010 A 
ATOM     10  C   UNL A   1      41.995  25.777  28.091  1.00  0.00     0.010 A 
ATOM     11  C   UNL A   1      42.384  27.110  28.216  1.00  0.00    -0.014 A 
BRANCH  11  12
ATOM     12  C   UNL A   1      41.964  27.932  29.387  1.00  0.00     0.031 A 
ATOM     13  C   UNL A   1      40.742  28.780  29.274  1.00  0.00     0.074 A 
ATOM     14  C   UNL A   1      42.543  27.816  30.597  1.00  0.00     0.049 A 
ATOM     15  N   UNL A   1      40.137  29.469  30.205  1.00  0.00    -0.248 NA
ATOM     16  C   UNL A   1      40.081  28.805  27.963  1.00  0.00     0.031 C 
ATOM     17  C   UNL A   1      43.608  26.881  30.872  1.00  0.00     0.029 A 
ATOM     18  N   UNL A   1      42.299  28.403  31.816  1.00  0.00    -0.354 N 
ATOM     19  C   UNL A   1      39.028  30.022  29.593  1.00  0.00     0.074 A 
ATOM     20  C   UNL A   1      39.047  29.593  28.209  1.00  0.00     0.031 C 
ATOM     21  C   UNL A   1      43.939  26.945  32.166  1.00  0.00     0.029 A 
ATOM     22  C   UNL A   1      43.115  27.935  32.824  1.00  0.00     0.049 A 
ATOM     23  H   UNL A   1      41.610  29.092  31.957  1.00  0.00     0.167 HD
ATOM     24  C   UNL A   1      38.082  30.819  30.140  1.00  0.00     0.037 A 
ATOM     25  C   UNL A   1      43.203  28.224  34.136  1.00  0.00     0.037 A 
ATOM     26  C   UNL A   1      38.093  31.275  31.503  1.00  0.00     0.049 A 
ATOM     27  C   UNL A   1      42.222  29.202  34.695  1.00  0.00     0.074 A 
ATOM     28  C   UNL A   1      37.240  32.175  32.116  1.00  0.00     0.029 A 
ATOM     29  N   UNL A   1      39.013  30.877  32.467  1.00  0.00    -0.354 N 
ATOM     30  N   UNL A   1      41.211  29.770  34.084  1.00  0.00    -0.248 NA
ATOM     31  C   UNL A   1      42.380  29.588  36.102  1.00  0.00     0.031 C 
ATOM     32  C   UNL A   1      37.679  32.367  33.432  1.00  0.00     0.029 A 
ATOM     33  C   UNL A   1      38.770  31.544  33.659  1.00  0.00     0.049 A 
ATOM     34  H   UNL A   1      39.730  30.219  32.325  1.00  0.00     0.167 HD
ATOM     35  C   UNL A   1      40.603  30.574  35.030  1.00  0.00     0.074 A 
ATOM     36  C   UNL A   1      41.347  30.405  36.264  1.00  0.00     0.031 C 
ATOM     37  C   UNL A   1      39.526  31.379  34.877  1.00  0.00     0.037 A 
BRANCH  24  38
ATOM     38  C   UNL A   1      37.039  31.319  29.189  1.00  0.00     0.057 A 
ATOM     39  C   UNL A   1      37.035  32.639  28.717  1.00  0.00     0.134 A 
ATOM     40  C   UNL A   1      35.955  30.501  28.851  1.00  0.00     0.134 A 
ATOM     41  F   UNL A   1      38.025  33.482  29.046  1.00  0.00    -0.206 F 
ATOM     42  C   UNL A   1      35.960  33.141  27.981  1.00  0.00     0.040 A 
ATOM     43  C   UNL A   1      34.888  30.985  28.096  1.00  0.00     0.040 A 
ATOM     44  F   UNL A   1      35.897  29.234  29.285  1.00  0.00    -0.206 F 
ATOM     45  C   UNL A   1      34.881  32.312  27.673  1.00  0.00     0.006 A 
ENDBRANCH  24  38
BRANCH  25  46
ATOM     46  C   UNL A   1      44.241  27.571  34.987  1.00  0.00     0.057 A 
ATOM     47  C   UNL A   1      45.544  28.076  35.083  1.00  0.00     0.134 A 
ATOM     48  C   UNL A   1      43.939  26.447  35.770  1.00  0.00     0.134 A 
ATOM     49  F   UNL A   1      45.915  29.138  34.352  1.00  0.00    -0.206 F 
ATOM     50  C   UNL A   1      46.500  27.493  35.922  1.00  0.00     0.040 A 
ATOM     51  C   UNL A   1      44.873  25.873  36.636  1.00  0.00     0.040 A 
ATOM     52  F   UNL A   1      42.711  25.908  35.734  1.00  0.00    -0.206 F 
ATOM     53  C   UNL A   1      46.162  26.394  36.711  1.00  0.00     0.006 A 
ENDBRANCH  25  46
BRANCH  37  54
ATOM     54  C   UNL A   1      39.087  32.149  36.083  1.00  0.00     0.057 A 
ATOM     55  C   UNL A   1      39.531  33.455  36.324  1.00  0.00     0.134 A 
ATOM     56  C   UNL A   1      38.171  31.594  36.984  1.00  0.00     0.134 A 
ATOM     57  F   UNL A   1      40.424  34.032  35.506  1.00  0.00    -0.206 F 
ATOM     58  C   UNL A   1      39.083  34.181  37.427  1.00  0.00     0.040 A 
ATOM     59  C   UNL A   1      37.699  32.320  38.077  1.00  0.00     0.040 A 
ATOM     60  F   UNL A   1      37.711  30.346  36.807  1.00  0.00    -0.206 F 
ATOM     61  C   UNL A   1      38.156  33.617  38.301  1.00  0.00     0.006 A 
ENDBRANCH  37  54
ENDBRANCH  11  12
ENDBRANCH   4   6
ENDBRANCH   3   4
ENDBRANCH   2   3
ENDBRANCH   1   2
BRANCH   1  62
ATOM     62  O   UNL A   1      41.564  21.683  25.756  1.00  0.00    -0.457 OA
BRANCH  62  63
ATOM     63  C   UNL A   1      40.627  21.272  26.659  1.00  0.00     0.357 C 
ATOM     64  O   UNL A   1      40.765  20.442  27.531  1.00  0.00    -0.244 OA
BRANCH  63  65
ATOM     65  C   UNL A   1      39.411  22.090  26.430  1.00  0.00     0.149 A 
ATOM     66  C   UNL A   1      38.339  21.532  25.747  1.00  0.00     0.051 A 
ATOM     67  N   UNL A   1      39.464  23.371  26.873  1.00  0.00    -0.249 NA
ATOM     68  C   UNL A   1      37.250  22.343  25.489  1.00  0.00     0.012 A 
ATOM     69  C   UNL A   1      38.393  24.139  26.614  1.00  0.00     0.113 A 
ATOM     70  C   UNL A   1      37.272  23.668  25.954  1.00  0.00     0.035 A 
BRANCH  68  71
ATOM     71  S   UNL A   1      35.787  21.790  24.654  1.00  0.00    -0.120 SA
BRANCH  71  72
ATOM     72  C   UNL A   1      34.365  21.922  25.780  1.00  0.00     0.132 C 
BRANCH  72  73
ATOM     73  C   UNL A   1      33.319  23.011  25.740  1.00  0.00     0.062 A 
ATOM     74  C   UNL A   1      31.994  22.791  26.080  1.00  0.00     0.091 A 
ATOM     75  N   UNL A   1      33.647  24.374  25.664  1.00  0.00    -0.240 NA
ATOM     76  S   UNL A   1      31.218  24.255  26.499  1.00  0.00    -0.122 S 
ATOM     77  C   UNL A   1      32.647  25.128  26.094  1.00  0.00     0.124 A 
BRANCH  77  78
ATOM     78  C   UNL A   1      32.656  26.638  26.184  1.00  0.00     0.021 A 
ATOM     79  C   UNL A   1      33.575  27.512  25.539  1.00  0.00     0.023 A 
ATOM     80  C   UNL A   1      31.686  27.359  26.853  1.00  0.00     0.076 A 
ATOM     81  C   UNL A   1      33.248  28.845  25.671  1.00  0.00     0.065 A 
ATOM     82  S   UNL A   1      31.880  29.055  26.670  1.00  0.00    -0.152 S 
ENDBRANCH  77  78
ENDBRANCH  72  73
ENDBRANCH  71  72
ENDBRANCH  68  71
ENDBRANCH  63  65
ENDBRANCH  62  63
ENDBRANCH   1  62
TORSDOF 15
ENDMDL
MODEL 2
REMARK VINA RESULT:     -11.0      1.838      3.424
REMARK SMILES O=C(OCCOC(=O)c1cc(SCc2csc(-c3ccsc3)n2)ccn1)c1ccc(-c2c3nc(c(-c4c(F)cccc4F)c4ccc([nH]4)c(-c4c(F)cccc4F)c4nc(c(-c5c(F)cccc5F)c5ccc2[nH]5)C=C4)C=C3)cc1
REMARK SMILES IDX 5 1 4 2 3 3 2 4 1 5 27 6 28 7 80 8 29 9 79 10 30 11 31 12
REMARK SMILES IDX 32 13 73 14 33 15 78 16 72 17 74 18 34 19 77 20 71 21 70 22
REMARK SMILES IDX 35 24 61 25 44 26 60 27 45 28 48 29 59 30 75 31 46 32 47 33
REMARK SMILES IDX 58 35 76 36 49 37 36 38 37 39 42 40 38 41 39 42 41 43 43 44
REMARK SMILES IDX 40 45 62 46 63 47 68 48 64 49 65 50 67 51 69 52 66 53 50 54
REMARK SMILES IDX 51 55 56 56 52 57 53 58 55 59 57 60 54 61 6 62 7 63 8 64
REMARK SMILES IDX 9 65 10 66 26 67 11 68 25 69 24 70 12 71 13 72 14 73 15 74
REMARK SMILES IDX 23 75 16 76 17 77 18 78 19 79 22 80 20 81 21 82
REMARK H PARENT 74 23 48 34
REMARK Flexibility Score: inf
ROOT
ATOM      1  C   UNL A   1      46.357  22.339  24.238  1.00  0.00     0.275 C 
ENDROOT
BRANCH   1   2
ATOM      2  C   UNL A   1      46.200  23.589  25.105  1.00  0.00     0.275 C 
BRANCH   2   3
ATOM      3  O   UNL A   1      45.119  24.428  24.656  1.00  0.00    -0.458 OA
BRANCH   3   4
ATOM      4  C   UNL A   1      43.839  24.530  25.083  1.00  0.00     0.338 C 
ATOM      5  O   UNL A   1      42.999  23.798  24.558  1.00  0.00    -0.246 OA
BRANCH   4   6
ATOM      6  C   UNL A   1      43.345  25.516  26.107  1.00  0.00     0.060 A 
ATOM      7  C   UNL A   1      43.792  26.823  26.292  1.00  0.00     0.016 A 
ATOM      8  C   UNL A   1      42.317  25.067  26.965  1.00  0.00     0.016 A 
ATOM      9  C   UNL A   1      43.259  27.634  27.301  1.00  0.00     0.010 A 
ATOM     10  C   UNL A   1      41.774  25.882  27.973  1.00  0.00     0.010 A 
ATOM     11  C   UNL A   1      42.264  27.173  28.170  1.00  0.00    -0.014 A 
BRANCH  11  12
ATOM     12  C   UNL A   1      41.850  27.986  29.348  1.00  0.00     0.031 A 
ATOM     13  C   UNL A   1      40.633  28.844  29.244  1.00  0.00     0.074 A 
ATOM     14  C   UNL A   1      42.428  27.856  30.557  1.00  0.00     0.049 A 
ATOM     15  N   UNL A   1      40.033  29.527  30.181  1.00  0.00    -0.248 NA
ATOM     16  C   UNL A   1      39.972  28.886  27.934  1.00  0.00     0.031 C 
ATOM     17  C   UNL A   1      43.486  26.911  30.823  1.00  0.00     0.029 A 
ATOM     18  N   UNL A   1      42.188  28.432  31.782  1.00  0.00    -0.354 N 
ATOM     19  C   UNL A   1      38.927  30.093  29.575  1.00  0.00     0.074 A 
ATOM     20  C   UNL A   1      38.944  29.678  28.187  1.00  0.00     0.031 C 
ATOM     21  C   UNL A   1      43.818  26.961  32.118  1.00  0.00     0.029 A 
ATOM     22  C   UNL A   1      43.001  27.949  32.785  1.00  0.00     0.049 A 
ATOM     23  H   UNL A   1      41.503  29.124  31.929  1.00  0.00     0.167 HD
ATOM     24  C   UNL A   1      37.987  30.891  30.130  1.00  0.00     0.037 A 
ATOM     25  C   UNL A   1      43.090  28.225  34.100  1.00  0.00     0.037 A 
ATOM     26  C   UNL A   1      38.000  31.335  31.497  1.00  0.00     0.049 A 
ATOM     27  C   UNL A   1      42.116  29.204  34.668  1.00  0.00     0.074 A 
ATOM     28  C   UNL A   1      37.153  32.235  32.119  1.00  0.00     0.029 A 
ATOM     29  N   UNL A   1      38.918  30.922  32.457  1.00  0.00    -0.354 N 
ATOM     30  N   UNL A   1      41.109  29.784  34.063  1.00  0.00    -0.248 NA
ATOM     31  C   UNL A   1      42.276  29.575  36.079  1.00  0.00     0.031 C 
ATOM     32  C   UNL A   1      37.593  32.411  33.436  1.00  0.00     0.029 A 
ATOM     33  C   UNL A   1      38.680  31.578  33.655  1.00  0.00     0.049 A 
ATOM     34  H   UNL A   1      39.630  30.260  32.309  1.00  0.00     0.167 HD
ATOM     35  C   UNL A   1      40.506  30.583  35.017  1.00  0.00     0.074 A 
ATOM     36  C   UNL A   1      41.248  30.397  36.249  1.00  0.00     0.031 C 
ATOM     37  C   UNL A   1      39.434  31.397  34.872  1.00  0.00     0.037 A 
BRANCH  24  38
ATOM     38  C   UNL A   1      36.947  31.408  29.184  1.00  0.00     0.057 A 
ATOM     39  C   UNL A   1      36.940  32.737  28.740  1.00  0.00     0.134 A 
ATOM     40  C   UNL A   1      35.868  30.593  28.823  1.00  0.00     0.134 A 
ATOM     41  F   UNL A   1      37.926  33.577  29.091  1.00  0.00    -0.206 F 
ATOM     42  C   UNL A   1      35.868  33.250  28.008  1.00  0.00     0.040 A 
ATOM     43  C   UNL A   1      34.803  31.088  28.072  1.00  0.00     0.040 A 
ATOM     44  F   UNL A   1      35.812  29.317  29.231  1.00  0.00    -0.206 F 
ATOM     45  C   UNL A   1      34.794  32.425  27.677  1.00  0.00     0.006 A 
ENDBRANCH  24  38
BRANCH  25  46
ATOM     46  C   UNL A   1      44.125  27.557  34.945  1.00  0.00     0.057 A 
ATOM     47  C   UNL A   1      43.927  26.282  35.489  1.00  0.00     0.134 A 
ATOM     48  C   UNL A   1      45.366  28.164  35.188  1.00  0.00     0.134 A 
ATOM     49  F   UNL A   1      42.760  25.645  35.314  1.00  0.00    -0.206 F 
ATOM     50  C   UNL A   1      44.919  25.638  36.236  1.00  0.00     0.040 A 
ATOM     51  C   UNL A   1      46.378  27.521  35.906  1.00  0.00     0.040 A 
ATOM     52  F   UNL A   1      45.631  29.384  34.698  1.00  0.00    -0.206 F 
ATOM     53  C   UNL A   1      46.154  26.253  36.437  1.00  0.00     0.006 A 
ENDBRANCH  25  46
BRANCH  37  54
ATOM     54  C   UNL A   1      39.001  32.158  36.085  1.00  0.00     0.057 A 
ATOM     55  C   UNL A   1      38.150  31.592  37.043  1.00  0.00     0.134 A 
ATOM     56  C   UNL A   1      39.482  33.451  36.322  1.00  0.00     0.134 A 
ATOM     57  F   UNL A   1      37.641  30.364  36.860  1.00  0.00    -0.206 F 
ATOM     58  C   UNL A   1      37.786  32.291  38.193  1.00  0.00     0.040 A 
ATOM     59  C   UNL A   1      39.142  34.150  37.480  1.00  0.00     0.040 A 
ATOM     60  F   UNL A   1      40.299  34.046  35.441  1.00  0.00    -0.206 F 
ATOM     61  C   UNL A   1      38.291  33.569  38.419  1.00  0.00     0.006 A 
ENDBRANCH  37  54
ENDBRANCH  11  12
ENDBRANCH   4   6
ENDBRANCH   3   4
ENDBRANCH   2   3
ENDBRANCH   1   2
BRANCH   1  62
ATOM     62  O   UNL A   1      45.191  21.507  24.281  1.00  0.00    -0.457 OA
BRANCH  62  63
ATOM     63  C   UNL A   1      45.425  20.198  24.586  1.00  0.00     0.357 C 
ATOM     64  O   UNL A   1      46.416  19.551  24.325  1.00  0.00    -0.244 OA
BRANCH  63  65
ATOM     65  C   UNL A   1      44.264  19.720  25.375  1.00  0.00     0.149 A 
ATOM     66  C   UNL A   1      43.263  20.619  25.720  1.00  0.00     0.051 A 
ATOM     67  N   UNL A   1      44.296  18.417  25.751  1.00  0.00    -0.249 NA
ATOM     68  C   UNL A   1      42.231  20.157  26.514  1.00  0.00     0.012 A 
ATOM     69  C   UNL A   1      43.279  17.989  26.519  1.00  0.00     0.113 A 
ATOM     70  C   UNL A   1      42.231  18.806  26.901  1.00  0.00     0.035 A 
BRANCH  68  71
ATOM     71  S   UNL A   1      40.860  21.158  27.026  1.00  0.00    -0.120 SA
BRANCH  71  72
ATOM     72  C   UNL A   1      39.564  21.102  25.751  1.00  0.00     0.132 C 
BRANCH  72  73
ATOM     73  C   UNL A   1      38.228  21.803  25.833  1.00  0.00     0.062 A 
ATOM     74  C   UNL A   1      38.109  23.161  26.076  1.00  0.00     0.091 A 
ATOM     75  N   UNL A   1      37.038  21.221  25.368  1.00  0.00    -0.240 NA
ATOM     76  S   UNL A   1      36.595  23.747  25.542  1.00  0.00    -0.122 S 
ATOM     77  C   UNL A   1      36.123  22.145  25.119  1.00  0.00     0.124 A 
BRANCH  77  78
ATOM     78  C   UNL A   1      34.734  21.888  24.578  1.00  0.00     0.021 A 
ATOM     79  C   UNL A   1      34.039  22.695  23.634  1.00  0.00     0.023 A 
ATOM     80  C   UNL A   1      34.003  20.758  24.884  1.00  0.00     0.076 A 
ATOM     81  C   UNL A   1      32.855  22.135  23.203  1.00  0.00     0.065 A 
ATOM     82  S   UNL A   1      32.522  20.673  24.019  1.00  0.00    -0.152 S 
ENDBRANCH  77  78
ENDBRANCH  72  73
ENDBRANCH  71  72
ENDBRANCH  68  71
ENDBRANCH  63  65
ENDBRANCH  62  63
ENDBRANCH   1  62
TORSDOF 15
ENDMDL
MODEL 3
REMARK VINA RESULT:     -11.0      3.892      8.947
REMARK SMILES O=C(OCCOC(=O)c1cc(SCc2csc(-c3ccsc3)n2)ccn1)c1ccc(-c2c3nc(c(-c4c(F)cccc4F)c4ccc([nH]4)c(-c4c(F)cccc4F)c4nc(c(-c5c(F)cccc5F)c5ccc2[nH]5)C=C4)C=C3)cc1
REMARK SMILES IDX 5 1 4 2 3 3 2 4 1 5 27 6 28 7 80 8 29 9 79 10 30 11 31 12
REMARK SMILES IDX 32 13 73 14 33 15 78 16 72 17 74 18 34 19 77 20 71 21 70 22
REMARK SMILES IDX 35 24 61 25 44 26 60 27 45 28 48 29 59 30 75 31 46 32 47 33
REMARK SMILES IDX 58 35 76 36 49 37 36 38 37 39 42 40 38 41 39 42 41 43 43 44
REMARK SMILES IDX 40 45 62 46 63 47 68 48 64 49 65 50 67 51 69 52 66 53 50 54
REMARK SMILES IDX 51 55 56 56 52 57 53 58 55 59 57 60 54 61 6 62 7 63 8 64
REMARK SMILES IDX 9 65 10 66 26 67 11 68 25 69 24 70 12 71 13 72 14 73 15 74
REMARK SMILES IDX 23 75 16 76 17 77 18 78 19 79 22 80 20 81 21 82
REMARK H PARENT 74 23 48 34
REMARK Flexibility Score: inf
ROOT
ATOM      1  C   UNL A   1      31.735  31.683  27.052  1.00  0.00     0.275 C 
ENDROOT
BRANCH   1   2
ATOM      2  C   UNL A   1      32.033  33.138  26.685  1.00  0.00     0.275 C 
BRANCH   2   3
ATOM      3  O   UNL A   1      32.173  33.972  27.851  1.00  0.00    -0.458 OA
BRANCH   3   4
ATOM      4  C   UNL A   1      33.277  34.444  28.476  1.00  0.00     0.338 C 
ATOM      5  O   UNL A   1      33.370  35.662  28.635  1.00  0.00    -0.246 OA
BRANCH   4   6
ATOM      6  C   UNL A   1      34.437  33.603  28.936  1.00  0.00     0.060 A 
ATOM      7  C   UNL A   1      34.372  32.348  29.539  1.00  0.00     0.016 A 
ATOM      8  C   UNL A   1      35.725  34.144  28.730  1.00  0.00     0.016 A 
ATOM      9  C   UNL A   1      35.534  31.677  29.941  1.00  0.00     0.010 A 
ATOM     10  C   UNL A   1      36.893  33.469  29.125  1.00  0.00     0.010 A 
ATOM     11  C   UNL A   1      36.805  32.233  29.765  1.00  0.00    -0.014 A 
BRANCH  11  12
ATOM     12  C   UNL A   1      38.005  31.587  30.368  1.00  0.00     0.031 A 
ATOM     13  C   UNL A   1      38.312  31.831  31.808  1.00  0.00     0.074 A 
ATOM     14  C   UNL A   1      38.733  30.660  29.716  1.00  0.00     0.049 A 
ATOM     15  N   UNL A   1      39.227  31.273  32.554  1.00  0.00    -0.248 NA
ATOM     16  C   UNL A   1      37.436  32.775  32.513  1.00  0.00     0.031 C 
ATOM     17  C   UNL A   1      38.409  30.201  28.386  1.00  0.00     0.029 A 
ATOM     18  N   UNL A   1      39.819  29.895  30.072  1.00  0.00    -0.354 N 
ATOM     19  C   UNL A   1      39.049  31.805  33.817  1.00  0.00     0.074 A 
ATOM     20  C   UNL A   1      37.942  32.736  33.734  1.00  0.00     0.031 C 
ATOM     21  C   UNL A   1      39.265  29.239  28.022  1.00  0.00     0.029 A 
ATOM     22  C   UNL A   1      40.212  29.011  29.091  1.00  0.00     0.049 A 
ATOM     23  H   UNL A   1      40.271  29.971  30.942  1.00  0.00     0.167 HD
ATOM     24  C   UNL A   1      39.752  31.540  34.942  1.00  0.00     0.037 A 
ATOM     25  C   UNL A   1      41.195  28.092  29.030  1.00  0.00     0.037 A 
ATOM     26  C   UNL A   1      40.877  30.648  35.007  1.00  0.00     0.049 A 
ATOM     27  C   UNL A   1      42.039  27.903  30.247  1.00  0.00     0.074 A 
ATOM     28  C   UNL A   1      41.721  30.404  36.075  1.00  0.00     0.029 A 
ATOM     29  N   UNL A   1      41.328  29.860  33.954  1.00  0.00    -0.354 N 
ATOM     30  N   UNL A   1      41.897  28.465  31.423  1.00  0.00    -0.248 NA
ATOM     31  C   UNL A   1      43.169  26.972  30.148  1.00  0.00     0.031 C 
ATOM     32  C   UNL A   1      42.716  29.514  35.651  1.00  0.00     0.029 A 
ATOM     33  C   UNL A   1      42.461  29.158  34.336  1.00  0.00     0.049 A 
ATOM     34  H   UNL A   1      40.904  29.807  33.067  1.00  0.00     0.167 HD
ATOM     35  C   UNL A   1      42.912  27.952  32.210  1.00  0.00     0.074 A 
ATOM     36  C   UNL A   1      43.651  27.016  31.384  1.00  0.00     0.031 C 
ATOM     37  C   UNL A   1      43.198  28.241  33.501  1.00  0.00     0.037 A 
BRANCH  24  38
ATOM     38  C   UNL A   1      39.360  32.342  36.144  1.00  0.00     0.057 A 
ATOM     39  C   UNL A   1      38.353  31.920  37.023  1.00  0.00     0.134 A 
ATOM     40  C   UNL A   1      39.911  33.613  36.343  1.00  0.00     0.134 A 
ATOM     41  F   UNL A   1      37.758  30.730  36.855  1.00  0.00    -0.206 F 
ATOM     42  C   UNL A   1      37.874  32.759  38.031  1.00  0.00     0.040 A 
ATOM     43  C   UNL A   1      39.456  34.450  37.361  1.00  0.00     0.040 A 
ATOM     44  F   UNL A   1      40.866  34.077  35.525  1.00  0.00    -0.206 F 
ATOM     45  C   UNL A   1      38.424  34.030  38.198  1.00  0.00     0.006 A 
ENDBRANCH  24  38
BRANCH  25  46
ATOM     46  C   UNL A   1      41.411  27.295  27.786  1.00  0.00     0.057 A 
ATOM     47  C   UNL A   1      40.810  26.045  27.594  1.00  0.00     0.134 A 
ATOM     48  C   UNL A   1      42.189  27.792  26.730  1.00  0.00     0.134 A 
ATOM     49  F   UNL A   1      40.065  25.496  28.565  1.00  0.00    -0.206 F 
ATOM     50  C   UNL A   1      40.971  25.324  26.406  1.00  0.00     0.040 A 
ATOM     51  C   UNL A   1      42.335  27.098  25.526  1.00  0.00     0.040 A 
ATOM     52  F   UNL A   1      42.795  28.984  26.838  1.00  0.00    -0.206 F 
ATOM     53  C   UNL A   1      41.728  25.856  25.362  1.00  0.00     0.006 A 
ENDBRANCH  25  46
BRANCH  37  54
ATOM     54  C   UNL A   1      44.372  27.534  34.102  1.00  0.00     0.057 A 
ATOM     55  C   UNL A   1      45.655  28.096  34.089  1.00  0.00     0.134 A 
ATOM     56  C   UNL A   1      44.206  26.303  34.746  1.00  0.00     0.134 A 
ATOM     57  F   UNL A   1      45.879  29.265  33.469  1.00  0.00    -0.206 F 
ATOM     58  C   UNL A   1      46.736  27.452  34.690  1.00  0.00     0.040 A 
ATOM     59  C   UNL A   1      45.275  25.661  35.370  1.00  0.00     0.040 A 
ATOM     60  F   UNL A   1      43.002  25.714  34.790  1.00  0.00    -0.206 F 
ATOM     61  C   UNL A   1      46.544  26.236  35.342  1.00  0.00     0.006 A 
ENDBRANCH  37  54
ENDBRANCH  11  12
ENDBRANCH   4   6
ENDBRANCH   3   4
ENDBRANCH   2   3
ENDBRANCH   1   2
BRANCH   1  62
ATOM     62  O   UNL A   1      31.443  30.889  25.895  1.00  0.00    -0.457 OA
BRANCH  62  63
ATOM     63  C   UNL A   1      32.275  29.825  25.699  1.00  0.00     0.357 C 
ATOM     64  O   UNL A   1      33.451  29.752  25.982  1.00  0.00    -0.244 OA
BRANCH  63  65
ATOM     65  C   UNL A   1      31.452  28.726  25.137  1.00  0.00     0.149 A 
ATOM     66  C   UNL A   1      31.513  27.468  25.722  1.00  0.00     0.051 A 
ATOM     67  N   UNL A   1      30.723  29.032  24.035  1.00  0.00    -0.249 NA
ATOM     68  C   UNL A   1      30.788  26.450  25.131  1.00  0.00     0.012 A 
ATOM     69  C   UNL A   1      30.022  28.029  23.482  1.00  0.00     0.113 A 
ATOM     70  C   UNL A   1      30.009  26.746  24.000  1.00  0.00     0.035 A 
BRANCH  68  71
ATOM     71  S   UNL A   1      30.730  24.792  25.757  1.00  0.00    -0.120 SA
BRANCH  71  72
ATOM     72  C   UNL A   1      31.304  23.643  24.470  1.00  0.00     0.132 C 
BRANCH  72  73
ATOM     73  C   UNL A   1      32.320  22.542  24.673  1.00  0.00     0.062 A 
ATOM     74  C   UNL A   1      33.393  22.663  25.541  1.00  0.00     0.091 A 
ATOM     75  N   UNL A   1      32.098  21.221  24.253  1.00  0.00    -0.240 NA
ATOM     76  S   UNL A   1      33.992  21.126  25.990  1.00  0.00    -0.122 S 
ATOM     77  C   UNL A   1      32.872  20.376  24.916  1.00  0.00     0.124 A 
BRANCH  77  78
ATOM     78  C   UNL A   1      32.883  18.873  24.750  1.00  0.00     0.021 A 
ATOM     79  C   UNL A   1      33.215  18.162  23.562  1.00  0.00     0.023 A 
ATOM     80  C   UNL A   1      32.652  17.997  25.792  1.00  0.00     0.076 A 
ATOM     81  C   UNL A   1      33.295  16.798  23.746  1.00  0.00     0.065 A 
ATOM     82  S   UNL A   1      32.864  16.355  25.337  1.00  0.00    -0.152 S 
ENDBRANCH  77  78
ENDBRANCH  72  73
ENDBRANCH  71  72
ENDBRANCH  68  71
ENDBRANCH  63  65
ENDBRANCH  62  63
ENDBRANCH   1  62
TORSDOF 15
ENDMDL
