MODEL 1
REMARK VINA RESULT:     -16.2      0.000      0.000
REMARK SMILES O=C(OCCOC(=O)[C@H]1CC=CC[C@H]1C(=O)Nc1ccc(S(=O)(=O)N2CCc3ccccc32)cc1)c1ccc(-c2c3nc(c(-c4c(F)cccc4F)c4ccc([nH]4)c(-c4c(F)cccc4F)c4nc(c(-c5c(F)cccc5F)c5ccc2[nH]5)C=C4)C=C3)cc1
REMARK SMILES IDX 5 1 4 2 3 3 2 4 1 5 36 6 37 7 89 8 38 9 88 10 39 11 40 12
REMARK SMILES IDX 41 13 82 14 42 15 87 16 81 17 83 18 43 19 86 20 80 21 79 22
REMARK SMILES IDX 44 24 70 25 53 26 69 27 54 28 57 29 68 30 84 31 55 32 56 33
REMARK SMILES IDX 67 35 85 36 58 37 45 38 46 39 51 40 47 41 48 42 50 43 52 44
REMARK SMILES IDX 49 45 71 46 72 47 77 48 73 49 74 50 76 51 78 52 75 53 59 54
REMARK SMILES IDX 60 55 65 56 61 57 62 58 64 59 66 60 63 61 6 62 7 63 8 64
REMARK SMILES IDX 9 65 10 66 14 67 11 68 13 69 12 70 15 71 16 72 17 73 18 75
REMARK SMILES IDX 19 76 35 77 20 78 34 79 21 80 22 81 23 82 24 83 25 84 26 85
REMARK SMILES IDX 33 86 27 87 28 88 32 89 29 90 31 91 30 92
REMARK H PARENT 83 23 57 34 17 74
REMARK Flexibility Score: inf
ROOT
ATOM      1  C   UNL A   1      39.824  20.957  26.304  1.00  0.00     0.274 C 
ENDROOT
BRANCH   1   2
ATOM      2  C   UNL A   1      41.972  21.280  25.987  1.00  0.00     0.275 C 
BRANCH   2   3
ATOM      3  O   UNL A   1      42.667  22.441  25.024  1.00  0.00    -0.458 OA
BRANCH   3   4
ATOM      4  C   UNL A   1      43.207  23.670  25.346  1.00  0.00     0.338 C 
ATOM      5  O   UNL A   1      44.201  24.096  24.776  1.00  0.00    -0.246 OA
BRANCH   4   6
ATOM      6  C   UNL A   1      42.494  24.539  26.419  1.00  0.00     0.060 A 
ATOM      7  C   UNL A   1      40.907  24.409  27.533  1.00  0.00     0.016 A 
ATOM      8  C   UNL A   1      43.063  26.171  25.992  1.00  0.00     0.016 A 
ATOM      9  C   UNL A   1      40.033  25.889  28.035  1.00  0.00     0.010 A 
ATOM     10  C   UNL A   1      42.192  27.579  26.595  1.00  0.00     0.010 A 
ATOM     11  C   UNL A   1      40.731  27.448  27.660  1.00  0.00    -0.014 A 
BRANCH  11  12
ATOM     12  C   UNL A   1      40.491  28.477  28.743  1.00  0.00     0.031 A 
ATOM     13  C   UNL A   1      41.335  28.365  29.970  1.00  0.00     0.074 A 
ATOM     14  C   UNL A   1      39.395  29.293  28.737  1.00  0.00     0.049 A 
ATOM     15  N   UNL A   1      41.068  28.769  31.177  1.00  0.00    -0.248 NA
ATOM     16  C   UNL A   1      42.543  27.523  29.881  1.00  0.00     0.031 C 
ATOM     17  C   UNL A   1      38.289  29.326  27.759  1.00  0.00     0.029 A 
ATOM     18  N   UNL A   1      38.994  30.283  29.606  1.00  0.00    -0.354 N 
ATOM     19  C   UNL A   1      42.003  28.122  31.965  1.00  0.00     0.074 A 
ATOM     20  C   UNL A   1      42.657  27.138  31.144  1.00  0.00     0.031 C 
ATOM     21  C   UNL A   1      37.480  30.367  27.958  1.00  0.00     0.029 A 
ATOM     22  C   UNL A   1      37.863  30.974  29.202  1.00  0.00     0.049 A 
ATOM     23  H   UNL A   1      39.472  30.483  30.443  1.00  0.00     0.167 HD
ATOM     24  C   UNL A   1      42.408  28.448  33.207  1.00  0.00     0.037 A 
ATOM     25  C   UNL A   1      37.162  31.955  29.794  1.00  0.00     0.037 A 
ATOM     26  C   UNL A   1      41.893  29.607  33.869  1.00  0.00     0.049 A 
ATOM     27  C   UNL A   1      37.672  32.371  31.132  1.00  0.00     0.074 A 
ATOM     28  C   UNL A   1      42.322  30.201  35.034  1.00  0.00     0.029 A 
ATOM     29  N   UNL A   1      40.852  30.381  33.363  1.00  0.00    -0.354 N 
ATOM     30  N   UNL A   1      38.665  31.851  31.816  1.00  0.00    -0.248 NA
ATOM     31  C   UNL A   1      36.998  33.492  31.784  1.00  0.00     0.031 C 
ATOM     32  C   UNL A   1      41.504  31.311  35.262  1.00  0.00     0.029 A 
ATOM     33  C   UNL A   1      40.603  31.438  34.210  1.00  0.00     0.049 A 
ATOM     34  H   UNL A   1      40.367  30.199  32.527  1.00  0.00     0.167 HD
ATOM     35  C   UNL A   1      38.755  32.596  32.972  1.00  0.00     0.074 A 
ATOM     36  C   UNL A   1      37.737  33.629  32.874  1.00  0.00     0.031 C 
ATOM     37  C   UNL A   1      39.587  32.441  34.027  1.00  0.00     0.037 A 
BRANCH  24  38
ATOM     38  C   UNL A   1      43.513  27.638  33.816  1.00  0.00     0.057 A 
ATOM     39  C   UNL A   1      43.263  26.472  34.561  1.00  0.00     0.134 A 
ATOM     40  C   UNL A   1      44.844  28.045  33.691  1.00  0.00     0.134 A 
ATOM     41  F   UNL A   1      42.007  26.034  34.744  1.00  0.00    -0.206 F 
ATOM     42  C   UNL A   1      44.288  25.775  35.201  1.00  0.00     0.040 A 
ATOM     43  C   UNL A   1      45.882  27.331  34.292  1.00  0.00     0.040 A 
ATOM     44  F   UNL A   1      45.156  29.150  32.997  1.00  0.00    -0.206 F 
ATOM     45  C   UNL A   1      45.605  26.202  35.059  1.00  0.00     0.006 A 
ENDBRANCH  24  38
BRANCH  25  46
ATOM     46  C   UNL A   1      35.972  32.595  29.152  1.00  0.00     0.057 A 
ATOM     47  C   UNL A   1      34.764  31.896  29.026  1.00  0.00     0.134 A 
ATOM     48  C   UNL A   1      35.996  33.900  28.639  1.00  0.00     0.134 A 
ATOM     49  F   UNL A   1      34.654  30.649  29.508  1.00  0.00    -0.206 F 
ATOM     50  C   UNL A   1      33.655  32.440  28.369  1.00  0.00     0.040 A 
ATOM     51  C   UNL A   1      34.883  34.472  28.011  1.00  0.00     0.040 A 
ATOM     52  F   UNL A   1      37.099  34.656  28.755  1.00  0.00    -0.206 F 
ATOM     53  C   UNL A   1      33.714  33.732  27.856  1.00  0.00     0.006 A 
ENDBRANCH  25  46
BRANCH  37  54
ATOM     54  C   UNL A   1      39.429  33.433  35.123  1.00  0.00     0.057 A 
ATOM     55  C   UNL A   1      38.622  33.163  36.231  1.00  0.00     0.134 A 
ATOM     56  C   UNL A   1      40.151  34.630  35.095  1.00  0.00     0.134 A 
ATOM     57  F   UNL A   1      37.895  32.035  36.287  1.00  0.00    -0.206 F 
ATOM     58  C   UNL A   1      38.526  34.066  37.281  1.00  0.00     0.040 A 
ATOM     59  C   UNL A   1      40.097  35.521  36.160  1.00  0.00     0.040 A 
ATOM     60  F   UNL A   1      40.945  34.926  34.054  1.00  0.00    -0.206 F 
ATOM     61  C   UNL A   1      39.278  35.240  37.254  1.00  0.00     0.006 A 
ENDBRANCH  37  54
ENDBRANCH  11  12
ENDBRANCH   4   6
ENDBRANCH   3   4
ENDBRANCH   2   3
ENDBRANCH   1   2
BRANCH   1  62
ATOM     62  O   UNL A   1      38.507  21.829  25.347  1.00  0.00    -0.462 OA
BRANCH  62  63
ATOM     63  C   UNL A   1      37.139  22.090  24.995  1.00  0.00     0.310 C 
ATOM     64  O   UNL A   1      36.990  22.653  23.898  1.00  0.00    -0.252 OA
BRANCH  63  65
ATOM     65  C   UNL A   1      35.587  21.810  25.897  1.00  0.00     0.116 C 
ATOM     66  C   UNL A   1      35.352  23.023  26.830  1.00  0.00     0.043 C 
ATOM     67  C   UNL A   1      34.026  20.955  25.789  1.00  0.00     0.097 C 
ATOM     68  C   UNL A   1      34.105  23.802  26.571  1.00  0.00    -0.030 C 
ATOM     69  C   UNL A   1      32.750  21.757  26.210  1.00  0.00     0.041 C 
ATOM     70  C   UNL A   1      32.925  23.224  26.336  1.00  0.00    -0.030 C 
BRANCH  67  71
ATOM     71  C   UNL A   1      33.341  19.747  24.515  1.00  0.00     0.228 C 
ATOM     72  O   UNL A   1      33.618  18.601  24.956  1.00  0.00    -0.274 OA
ATOM     73  N   UNL A   1      32.343  20.394  22.915  1.00  0.00    -0.326 N 
ATOM     74  H   UNL A   1      32.011  19.709  22.290  1.00  0.00     0.169 HD
BRANCH  73  75
ATOM     75  C   UNL A   1      32.002  22.051  22.519  1.00  0.00     0.041 A 
ATOM     76  C   UNL A   1      30.657  22.943  23.262  1.00  0.00     0.027 A 
ATOM     77  C   UNL A   1      33.255  23.044  21.493  1.00  0.00     0.027 A 
ATOM     78  C   UNL A   1      30.656  24.722  23.119  1.00  0.00     0.024 A 
ATOM     79  C   UNL A   1      33.176  24.816  21.383  1.00  0.00     0.024 A 
ATOM     80  C   UNL A   1      31.919  25.655  22.241  1.00  0.00     0.088 A 
BRANCH  80  81
ATOM     81  S   UNL A   1      32.855  27.032  23.259  1.00  0.00     0.264 S 
ATOM     82  O   UNL A   1      33.726  26.301  24.157  1.00  0.00    -0.201 OA
ATOM     83  O   UNL A   1      33.417  27.914  22.256  1.00  0.00    -0.201 OA
BRANCH  81  84
ATOM     84  N   UNL A   1      31.645  27.930  24.092  1.00  0.00    -0.266 N 
ATOM     85  C   UNL A   1      30.516  27.076  24.606  1.00  0.00     0.140 C 
ATOM     86  C   UNL A   1      32.219  28.576  25.215  1.00  0.00     0.055 A 
ATOM     87  C   UNL A   1      30.653  27.074  26.143  1.00  0.00     0.060 C 
ATOM     88  C   UNL A   1      31.914  27.852  26.353  1.00  0.00    -0.022 A 
ATOM     89  C   UNL A   1      33.261  29.478  25.118  1.00  0.00     0.027 A 
ATOM     90  C   UNL A   1      32.838  27.823  27.374  1.00  0.00     0.006 A 
ATOM     91  C   UNL A   1      34.200  29.442  26.131  1.00  0.00     0.002 A 
ATOM     92  C   UNL A   1      34.013  28.582  27.226  1.00  0.00     0.000 A 
ENDBRANCH  81  84
ENDBRANCH  80  81
ENDBRANCH  73  75
ENDBRANCH  67  71
ENDBRANCH  63  65
ENDBRANCH  62  63
ENDBRANCH   1  62
TORSDOF 15
ENDMDL
MODEL 2
REMARK VINA RESULT:     -16.2      2.831      8.314
REMARK SMILES O=C(OCCOC(=O)[C@H]1CC=CC[C@H]1C(=O)Nc1ccc(S(=O)(=O)N2CCc3ccccc32)cc1)c1ccc(-c2c3nc(c(-c4c(F)cccc4F)c4ccc([nH]4)c(-c4c(F)cccc4F)c4nc(c(-c5c(F)cccc5F)c5ccc2[nH]5)C=C4)C=C3)cc1
REMARK SMILES IDX 5 1 4 2 3 3 2 4 1 5 36 6 37 7 89 8 38 9 88 10 39 11 40 12
REMARK SMILES IDX 41 13 82 14 42 15 87 16 81 17 83 18 43 19 86 20 80 21 79 22
REMARK SMILES IDX 44 24 70 25 53 26 69 27 54 28 57 29 68 30 84 31 55 32 56 33
REMARK SMILES IDX 67 35 85 36 58 37 45 38 46 39 51 40 47 41 48 42 50 43 52 44
REMARK SMILES IDX 49 45 71 46 72 47 77 48 73 49 74 50 76 51 78 52 75 53 59 54
REMARK SMILES IDX 60 55 65 56 61 57 62 58 64 59 66 60 63 61 6 62 7 63 8 64
REMARK SMILES IDX 9 65 10 66 14 67 11 68 13 69 12 70 15 71 16 72 17 73 18 75
REMARK SMILES IDX 19 76 35 77 20 78 34 79 21 80 22 81 23 82 24 83 25 84 26 85
REMARK SMILES IDX 33 86 27 87 28 88 32 89 29 90 31 91 30 92
REMARK H PARENT 83 23 57 34 17 74
REMARK Flexibility Score: inf
ROOT
ATOM      1  C   UNL A   1      34.339  31.988  27.669  1.00  0.00     0.274 C 
ENDROOT
BRANCH   1   2
ATOM      2  C   UNL A   1      33.094  33.775  27.946  1.00  0.00     0.275 C 
BRANCH   2   3
ATOM      3  O   UNL A   1      33.169  34.847  29.213  1.00  0.00    -0.458 OA
BRANCH   3   4
ATOM      4  C   UNL A   1      33.820  34.758  30.427  1.00  0.00     0.338 C 
ATOM      5  O   UNL A   1      33.310  35.180  31.454  1.00  0.00    -0.246 OA
BRANCH   4   6
ATOM      6  C   UNL A   1      35.206  34.057  30.479  1.00  0.00     0.060 A 
ATOM      7  C   UNL A   1      36.910  34.198  29.555  1.00  0.00     0.016 A 
ATOM      8  C   UNL A   1      34.778  32.472  31.169  1.00  0.00     0.016 A 
ATOM      9  C   UNL A   1      37.955  32.757  29.362  1.00  0.00     0.010 A 
ATOM     10  C   UNL A   1      35.900  31.123  31.005  1.00  0.00     0.010 A 
ATOM     11  C   UNL A   1      37.501  31.274  30.170  1.00  0.00    -0.014 A 
BRANCH  11  12
ATOM     12  C   UNL A   1      38.693  30.490  30.675  1.00  0.00     0.031 A 
ATOM     13  C   UNL A   1      39.246  30.896  32.002  1.00  0.00     0.074 A 
ATOM     14  C   UNL A   1      39.402  29.648  29.865  1.00  0.00     0.049 A 
ATOM     15  N   UNL A   1      40.457  30.748  32.455  1.00  0.00    -0.248 NA
ATOM     16  C   UNL A   1      38.395  31.748  32.853  1.00  0.00     0.031 C 
ATOM     17  C   UNL A   1      39.184  29.362  28.433  1.00  0.00     0.029 A 
ATOM     18  N   UNL A   1      40.496  28.850  30.118  1.00  0.00    -0.354 N 
ATOM     19  C   UNL A   1      40.510  31.585  33.555  1.00  0.00     0.074 A 
ATOM     20  C   UNL A   1      39.323  32.398  33.541  1.00  0.00     0.031 C 
ATOM     21  C   UNL A   1      39.946  28.354  28.005  1.00  0.00     0.029 A 
ATOM     22  C   UNL A   1      40.872  28.043  29.057  1.00  0.00     0.049 A 
ATOM     23  H   UNL A   1      40.969  28.853  30.982  1.00  0.00     0.167 HD
ATOM     24  C   UNL A   1      41.379  31.548  34.583  1.00  0.00     0.037 A 
ATOM     25  C   UNL A   1      41.894  27.183  28.913  1.00  0.00     0.037 A 
ATOM     26  C   UNL A   1      42.388  30.537  34.658  1.00  0.00     0.049 A 
ATOM     27  C   UNL A   1      42.801  27.083  30.092  1.00  0.00     0.074 A 
ATOM     28  C   UNL A   1      43.223  30.223  35.707  1.00  0.00     0.029 A 
ATOM     29  N   UNL A   1      42.645  29.631  33.633  1.00  0.00    -0.354 N 
ATOM     30  N   UNL A   1      42.758  27.777  31.206  1.00  0.00    -0.248 NA
ATOM     31  C   UNL A   1      43.881  26.100  30.023  1.00  0.00     0.031 C 
ATOM     32  C   UNL A   1      44.024  29.155  35.296  1.00  0.00     0.029 A 
ATOM     33  C   UNL A   1      43.650  28.770  34.013  1.00  0.00     0.049 A 
ATOM     34  H   UNL A   1      42.179  29.610  32.767  1.00  0.00     0.167 HD
ATOM     35  C   UNL A   1      43.790  27.299  31.986  1.00  0.00     0.074 A 
ATOM     36  C   UNL A   1      44.415  26.229  31.228  1.00  0.00     0.031 C 
ATOM     37  C   UNL A   1      44.198  27.710  33.208  1.00  0.00     0.037 A 
BRANCH  24  38
ATOM     38  C   UNL A   1      41.168  32.514  35.710  1.00  0.00     0.057 A 
ATOM     39  C   UNL A   1      40.177  32.319  36.688  1.00  0.00     0.134 A 
ATOM     40  C   UNL A   1      41.939  33.676  35.802  1.00  0.00     0.134 A 
ATOM     41  F   UNL A   1      39.382  31.238  36.650  1.00  0.00    -0.206 F 
ATOM     42  C   UNL A   1      39.927  33.267  37.679  1.00  0.00     0.040 A 
ATOM     43  C   UNL A   1      41.726  34.612  36.816  1.00  0.00     0.040 A 
ATOM     44  F   UNL A   1      42.900  33.930  34.902  1.00  0.00    -0.206 F 
ATOM     45  C   UNL A   1      40.710  34.416  37.749  1.00  0.00     0.006 A 
ENDBRANCH  24  38
BRANCH  25  46
ATOM     46  C   UNL A   1      42.096  26.373  27.673  1.00  0.00     0.057 A 
ATOM     47  C   UNL A   1      41.546  25.088  27.558  1.00  0.00     0.134 A 
ATOM     48  C   UNL A   1      42.840  26.834  26.577  1.00  0.00     0.134 A 
ATOM     49  F   UNL A   1      40.805  24.583  28.555  1.00  0.00    -0.206 F 
ATOM     50  C   UNL A   1      41.774  24.278  26.441  1.00  0.00     0.040 A 
ATOM     51  C   UNL A   1      43.048  26.048  25.437  1.00  0.00     0.040 A 
ATOM     52  F   UNL A   1      43.367  28.068  26.584  1.00  0.00    -0.206 F 
ATOM     53  C   UNL A   1      42.531  24.757  25.376  1.00  0.00     0.006 A 
ENDBRANCH  25  46
BRANCH  37  54
ATOM     54  C   UNL A   1      45.352  26.969  33.783  1.00  0.00     0.057 A 
ATOM     55  C   UNL A   1      46.662  27.417  33.600  1.00  0.00     0.134 A 
ATOM     56  C   UNL A   1      45.133  25.844  34.585  1.00  0.00     0.134 A 
ATOM     57  F   UNL A   1      46.917  28.479  32.820  1.00  0.00    -0.206 F 
ATOM     58  C   UNL A   1      47.731  26.756  34.192  1.00  0.00     0.040 A 
ATOM     59  C   UNL A   1      46.191  25.202  35.217  1.00  0.00     0.040 A 
ATOM     60  F   UNL A   1      43.889  25.384  34.795  1.00  0.00    -0.206 F 
ATOM     61  C   UNL A   1      47.494  25.656  35.015  1.00  0.00     0.006 A 
ENDBRANCH  37  54
ENDBRANCH  11  12
ENDBRANCH   4   6
ENDBRANCH   3   4
ENDBRANCH   2   3
ENDBRANCH   1   2
BRANCH   1  62
ATOM     62  O   UNL A   1      33.678  30.360  27.104  1.00  0.00    -0.462 OA
BRANCH  62  63
ATOM     63  C   UNL A   1      32.781  29.535  26.343  1.00  0.00     0.310 C 
ATOM     64  O   UNL A   1      31.857  29.035  27.004  1.00  0.00    -0.252 OA
BRANCH  63  65
ATOM     65  C   UNL A   1      32.795  29.032  24.596  1.00  0.00     0.116 C 
ATOM     66  C   UNL A   1      34.135  28.308  24.319  1.00  0.00     0.043 C 
ATOM     67  C   UNL A   1      31.716  28.620  23.237  1.00  0.00     0.097 C 
ATOM     68  C   UNL A   1      34.019  26.886  23.878  1.00  0.00    -0.030 C 
ATOM     69  C   UNL A   1      32.107  27.373  22.376  1.00  0.00     0.041 C 
ATOM     70  C   UNL A   1      33.132  26.480  22.968  1.00  0.00    -0.030 C 
BRANCH  67  71
ATOM     71  C   UNL A   1      29.840  28.655  23.069  1.00  0.00     0.228 C 
ATOM     72  O   UNL A   1      29.570  29.771  22.553  1.00  0.00    -0.274 OA
ATOM     73  N   UNL A   1      28.730  27.083  23.592  1.00  0.00    -0.326 N 
ATOM     74  H   UNL A   1      27.756  27.168  23.477  1.00  0.00     0.169 HD
BRANCH  73  75
ATOM     75  C   UNL A   1      29.318  25.578  24.232  1.00  0.00     0.041 A 
ATOM     76  C   UNL A   1      30.290  24.454  23.259  1.00  0.00     0.027 A 
ATOM     77  C   UNL A   1      29.183  25.238  26.096  1.00  0.00     0.027 A 
ATOM     78  C   UNL A   1      31.190  23.173  24.116  1.00  0.00     0.024 A 
ATOM     79  C   UNL A   1      30.098  23.928  26.874  1.00  0.00     0.024 A 
ATOM     80  C   UNL A   1      31.143  22.940  25.899  1.00  0.00     0.088 A 
BRANCH  80  81
ATOM     81  S   UNL A   1      32.857  22.970  26.831  1.00  0.00     0.264 S 
ATOM     82  O   UNL A   1      33.484  24.207  26.412  1.00  0.00    -0.201 OA
ATOM     83  O   UNL A   1      32.523  22.759  28.225  1.00  0.00    -0.201 OA
BRANCH  81  84
ATOM     84  N   UNL A   1      33.720  21.576  26.307  1.00  0.00    -0.266 N 
ATOM     85  C   UNL A   1      32.919  20.683  25.397  1.00  0.00     0.140 C 
ATOM     86  C   UNL A   1      34.874  21.972  25.586  1.00  0.00     0.055 A 
ATOM     87  C   UNL A   1      33.567  20.811  24.002  1.00  0.00     0.060 C 
ATOM     88  C   UNL A   1      34.622  21.846  24.232  1.00  0.00    -0.022 A 
ATOM     89  C   UNL A   1      35.867  22.767  26.126  1.00  0.00     0.027 A 
ATOM     90  C   UNL A   1      35.213  22.746  23.373  1.00  0.00     0.006 A 
ATOM     91  C   UNL A   1      36.452  23.683  25.273  1.00  0.00     0.002 A 
ATOM     92  C   UNL A   1      36.088  23.704  23.915  1.00  0.00     0.000 A 
ENDBRANCH  81  84
ENDBRANCH  80  81
ENDBRANCH  73  75
ENDBRANCH  67  71
ENDBRANCH  63  65
ENDBRANCH  62  63
ENDBRANCH   1  62
TORSDOF 15
ENDMDL
MODEL 3
REMARK VINA RESULT:     -16.0      1.048      6.072
REMARK SMILES O=C(OCCOC(=O)[C@H]1CC=CC[C@H]1C(=O)Nc1ccc(S(=O)(=O)N2CCc3ccccc32)cc1)c1ccc(-c2c3nc(c(-c4c(F)cccc4F)c4ccc([nH]4)c(-c4c(F)cccc4F)c4nc(c(-c5c(F)cccc5F)c5ccc2[nH]5)C=C4)C=C3)cc1
REMARK SMILES IDX 5 1 4 2 3 3 2 4 1 5 36 6 37 7 89 8 38 9 88 10 39 11 40 12
REMARK SMILES IDX 41 13 82 14 42 15 87 16 81 17 83 18 43 19 86 20 80 21 79 22
REMARK SMILES IDX 44 24 70 25 53 26 69 27 54 28 57 29 68 30 84 31 55 32 56 33
REMARK SMILES IDX 67 35 85 36 58 37 45 38 46 39 51 40 47 41 48 42 50 43 52 44
REMARK SMILES IDX 49 45 71 46 72 47 77 48 73 49 74 50 76 51 78 52 75 53 59 54
REMARK SMILES IDX 60 55 65 56 61 57 62 58 64 59 66 60 63 61 6 62 7 63 8 64
REMARK SMILES IDX 9 65 10 66 14 67 11 68 13 69 12 70 15 71 16 72 17 73 18 75
REMARK SMILES IDX 19 76 35 77 20 78 34 79 21 80 22 81 23 82 24 83 25 84 26 85
REMARK SMILES IDX 33 86 27 87 28 88 32 89 29 90 31 91 30 92
REMARK H PARENT 83 23 57 34 17 74
REMARK Flexibility Score: inf
ROOT
ATOM      1  C   UNL A   1      39.841  20.717  26.078  1.00  0.00     0.274 C 
ENDROOT
BRANCH   1   2
ATOM      2  C   UNL A   1      41.883  21.523  26.091  1.00  0.00     0.275 C 
BRANCH   2   3
ATOM      3  O   UNL A   1      42.432  22.842  25.245  1.00  0.00    -0.458 OA
BRANCH   3   4
ATOM      4  C   UNL A   1      42.956  24.039  25.689  1.00  0.00     0.338 C 
ATOM      5  O   UNL A   1      43.882  24.583  25.104  1.00  0.00    -0.246 OA
BRANCH   4   6
ATOM      6  C   UNL A   1      42.311  24.723  26.926  1.00  0.00     0.060 A 
ATOM      7  C   UNL A   1      40.700  24.509  27.993  1.00  0.00     0.016 A 
ATOM      8  C   UNL A   1      43.036  26.347  26.856  1.00  0.00     0.016 A 
ATOM      9  C   UNL A   1      39.960  25.923  28.805  1.00  0.00     0.010 A 
ATOM     10  C   UNL A   1      42.291  27.670  27.751  1.00  0.00     0.010 A 
ATOM     11  C   UNL A   1      40.808  27.453  28.769  1.00  0.00    -0.014 A 
BRANCH  11  12
ATOM     12  C   UNL A   1      40.648  28.244  30.049  1.00  0.00     0.031 A 
ATOM     13  C   UNL A   1      39.552  29.259  30.074  1.00  0.00     0.074 A 
ATOM     14  C   UNL A   1      41.602  28.241  31.027  1.00  0.00     0.049 A 
ATOM     15  N   UNL A   1      39.466  30.342  30.791  1.00  0.00    -0.248 NA
ATOM     16  C   UNL A   1      38.517  29.158  29.028  1.00  0.00     0.031 C 
ATOM     17  C   UNL A   1      42.899  27.535  31.033  1.00  0.00     0.029 A 
ATOM     18  N   UNL A   1      41.653  28.874  32.249  1.00  0.00    -0.354 N 
ATOM     19  C   UNL A   1      38.457  31.068  30.186  1.00  0.00     0.074 A 
ATOM     20  C   UNL A   1      38.150  30.428  28.935  1.00  0.00     0.031 C 
ATOM     21  C   UNL A   1      43.499  27.606  32.222  1.00  0.00     0.029 A 
ATOM     22  C   UNL A   1      42.753  28.536  33.021  1.00  0.00     0.049 A 
ATOM     23  H   UNL A   1      40.965  29.511  32.548  1.00  0.00     0.167 HD
ATOM     24  C   UNL A   1      37.725  32.068  30.714  1.00  0.00     0.037 A 
ATOM     25  C   UNL A   1      43.161  28.971  34.225  1.00  0.00     0.037 A 
ATOM     26  C   UNL A   1      37.915  32.484  32.070  1.00  0.00     0.049 A 
ATOM     27  C   UNL A   1      42.294  30.016  34.842  1.00  0.00     0.074 A 
ATOM     28  C   UNL A   1      37.146  33.334  32.831  1.00  0.00     0.029 A 
ATOM     29  N   UNL A   1      38.942  32.009  32.880  1.00  0.00    -0.354 N 
ATOM     30  N   UNL A   1      41.238  30.600  34.324  1.00  0.00    -0.248 NA
ATOM     31  C   UNL A   1      42.644  30.465  36.188  1.00  0.00     0.031 C 
ATOM     32  C   UNL A   1      37.738  33.415  34.093  1.00  0.00     0.029 A 
ATOM     33  C   UNL A   1      38.844  32.573  34.133  1.00  0.00     0.049 A 
ATOM     34  H   UNL A   1      39.634  31.369  32.601  1.00  0.00     0.167 HD
ATOM     35  C   UNL A   1      40.778  31.469  35.289  1.00  0.00     0.074 A 
ATOM     36  C   UNL A   1      41.652  31.305  36.438  1.00  0.00     0.031 C 
ATOM     37  C   UNL A   1      39.741  32.336  35.234  1.00  0.00     0.037 A 
BRANCH  24  38
ATOM     38  C   UNL A   1      36.616  32.636  29.880  1.00  0.00     0.057 A 
ATOM     39  C   UNL A   1      35.268  32.298  30.095  1.00  0.00     0.134 A 
ATOM     40  C   UNL A   1      36.897  33.505  28.822  1.00  0.00     0.134 A 
ATOM     41  F   UNL A   1      34.925  31.450  31.079  1.00  0.00    -0.206 F 
ATOM     42  C   UNL A   1      34.252  32.759  29.259  1.00  0.00     0.040 A 
ATOM     43  C   UNL A   1      35.883  34.006  28.004  1.00  0.00     0.040 A 
ATOM     44  F   UNL A   1      38.160  33.868  28.556  1.00  0.00    -0.206 F 
ATOM     45  C   UNL A   1      34.560  33.624  28.213  1.00  0.00     0.006 A 
ENDBRANCH  24  38
BRANCH  25  46
ATOM     46  C   UNL A   1      44.381  28.436  34.904  1.00  0.00     0.057 A 
ATOM     47  C   UNL A   1      44.305  27.301  35.723  1.00  0.00     0.134 A 
ATOM     48  C   UNL A   1      45.645  29.029  34.774  1.00  0.00     0.134 A 
ATOM     49  F   UNL A   1      43.136  26.664  35.884  1.00  0.00    -0.206 F 
ATOM     50  C   UNL A   1      45.412  26.816  36.427  1.00  0.00     0.040 A 
ATOM     51  C   UNL A   1      46.771  28.534  35.444  1.00  0.00     0.040 A 
ATOM     52  F   UNL A   1      45.818  30.094  33.976  1.00  0.00    -0.206 F 
ATOM     53  C   UNL A   1      46.650  27.435  36.291  1.00  0.00     0.006 A 
ENDBRANCH  25  46
BRANCH  37  54
ATOM     54  C   UNL A   1      39.503  33.133  36.467  1.00  0.00     0.057 A 
ATOM     55  C   UNL A   1      40.093  34.388  36.641  1.00  0.00     0.134 A 
ATOM     56  C   UNL A   1      38.620  32.666  37.445  1.00  0.00     0.134 A 
ATOM     57  F   UNL A   1      40.964  34.863  35.736  1.00  0.00    -0.206 F 
ATOM     58  C   UNL A   1      39.819  35.155  37.765  1.00  0.00     0.040 A 
ATOM     59  C   UNL A   1      38.305  33.444  38.551  1.00  0.00     0.040 A 
ATOM     60  F   UNL A   1      38.025  31.469  37.314  1.00  0.00    -0.206 F 
ATOM     61  C   UNL A   1      38.910  34.690  38.715  1.00  0.00     0.006 A 
ENDBRANCH  37  54
ENDBRANCH  11  12
ENDBRANCH   4   6
ENDBRANCH   3   4
ENDBRANCH   2   3
ENDBRANCH   1   2
BRANCH   1  62
ATOM     62  O   UNL A   1      38.508  21.328  24.956  1.00  0.00    -0.462 OA
BRANCH  62  63
ATOM     63  C   UNL A   1      37.173  21.780  24.680  1.00  0.00     0.310 C 
ATOM     64  O   UNL A   1      37.016  22.255  23.543  1.00  0.00    -0.252 OA
BRANCH  63  65
ATOM     65  C   UNL A   1      35.683  21.848  25.719  1.00  0.00     0.116 C 
ATOM     66  C   UNL A   1      35.728  23.163  26.532  1.00  0.00     0.043 C 
ATOM     67  C   UNL A   1      34.003  21.258  25.817  1.00  0.00     0.097 C 
ATOM     68  C   UNL A   1      34.602  24.112  26.284  1.00  0.00    -0.030 C 
ATOM     69  C   UNL A   1      32.913  22.298  26.243  1.00  0.00     0.041 C 
ATOM     70  C   UNL A   1      33.329  23.720  26.199  1.00  0.00    -0.030 C 
BRANCH  67  71
ATOM     71  C   UNL A   1      33.024  20.069  24.732  1.00  0.00     0.228 C 
ATOM     72  O   UNL A   1      33.198  18.930  25.241  1.00  0.00    -0.274 OA
ATOM     73  N   UNL A   1      31.939  20.731  23.196  1.00  0.00    -0.326 N 
ATOM     74  H   UNL A   1      31.451  20.055  22.672  1.00  0.00     0.169 HD
BRANCH  73  75
ATOM     75  C   UNL A   1      31.773  22.386  22.695  1.00  0.00     0.041 A 
ATOM     76  C   UNL A   1      30.725  23.533  23.555  1.00  0.00     0.027 A 
ATOM     77  C   UNL A   1      32.951  23.088  21.380  1.00  0.00     0.027 A 
ATOM     78  C   UNL A   1      30.952  25.274  23.233  1.00  0.00     0.024 A 
ATOM     79  C   UNL A   1      33.108  24.836  21.104  1.00  0.00     0.024 A 
ATOM     80  C   UNL A   1      32.158  25.926  22.069  1.00  0.00     0.088 A 
BRANCH  80  81
ATOM     81  S   UNL A   1      33.448  27.210  22.771  1.00  0.00     0.264 S 
ATOM     82  O   UNL A   1      34.033  26.554  23.923  1.00  0.00    -0.201 OA
ATOM     83  O   UNL A   1      34.275  27.562  21.636  1.00  0.00    -0.201 OA
BRANCH  81  84
ATOM     84  N   UNL A   1      32.552  28.619  23.192  1.00  0.00    -0.266 N 
ATOM     85  C   UNL A   1      31.125  28.585  22.715  1.00  0.00     0.140 C 
ATOM     86  C   UNL A   1      32.512  28.755  24.603  1.00  0.00     0.055 A 
ATOM     87  C   UNL A   1      30.257  28.444  23.983  1.00  0.00     0.060 C 
ATOM     88  C   UNL A   1      31.286  28.312  25.061  1.00  0.00    -0.022 A 
ATOM     89  C   UNL A   1      33.647  28.865  25.384  1.00  0.00     0.027 A 
ATOM     90  C   UNL A   1      31.234  27.702  26.295  1.00  0.00     0.006 A 
ATOM     91  C   UNL A   1      33.606  28.240  26.616  1.00  0.00     0.002 A 
ATOM     92  C   UNL A   1      32.421  27.619  27.045  1.00  0.00     0.000 A 
ENDBRANCH  81  84
ENDBRANCH  80  81
ENDBRANCH  73  75
ENDBRANCH  67  71
ENDBRANCH  63  65
ENDBRANCH  62  63
ENDBRANCH   1  62
TORSDOF 15
ENDMDL
