MODEL 1
REMARK VINA RESULT:     -11.8      0.000      0.000
REMARK SMILES COc1ccc(-c2nc(SCC(=O)OCCOC(=O)c3ccc(-c4c5nc(c(-c6c(F)cccc6F)c6ccc([nH]6)c(-c6c(F)cccc6F)c6nc(c(-c7c(F)cccc7F)c7ccc4[nH]7)C=C6)C=C5)cc3)cc(-c3ccncc3)n2)cc1
REMARK SMILES IDX 15 1 14 2 12 3 13 4 11 5 10 6 9 7 7 8 8 9 82 10 75 11 74 12
REMARK SMILES IDX 6 13 3 14 4 15 84 16 5 17 83 18 2 19 1 20 76 21 77 22 81 23
REMARK SMILES IDX 78 24 80 25 79 26 16 27 17 28 18 29 19 30 20 31 21 32 73 33
REMARK SMILES IDX 22 34 72 35 23 36 24 37 25 38 66 39 26 40 71 41 65 42 67 43
REMARK SMILES IDX 27 44 70 45 64 46 63 47 28 49 54 50 37 51 53 52 38 53 41 54
REMARK SMILES IDX 52 55 68 56 39 57 40 58 51 60 69 61 42 62 29 63 30 64 35 65
REMARK SMILES IDX 31 66 32 67 34 68 36 69 33 70 55 71 56 72 61 73 57 74 58 75
REMARK SMILES IDX 60 76 62 77 59 78 43 79 44 80 49 81 45 82 46 83 48 84 50 85
REMARK SMILES IDX 47 86
REMARK H PARENT 67 48 41 59
REMARK Flexibility Score: inf
ROOT
ATOM      1  C   UNL A   1      42.814  20.020  25.877  1.00  0.00     0.274 C 
ENDROOT
BRANCH   1   2
ATOM      2  O   UNL A   1      41.430  20.112  25.479  1.00  0.00    -0.461 OA
BRANCH   2   3
ATOM      3  C   UNL A   1      40.525  20.156  26.490  1.00  0.00     0.316 C 
ATOM      4  O   UNL A   1      40.806  19.962  27.670  1.00  0.00    -0.251 OA
BRANCH   3   5
ATOM      5  C   UNL A   1      39.122  20.556  26.082  1.00  0.00     0.199 C 
BRANCH   5   6
ATOM      6  S   UNL A   1      38.838  22.336  25.921  1.00  0.00    -0.094 SA
BRANCH   6   7
ATOM      7  C   UNL A   1      37.096  22.495  25.567  1.00  0.00     0.101 A 
ATOM      8  C   UNL A   1      35.199  21.305  25.091  1.00  0.00     0.161 A 
ATOM      9  N   UNL A   1      36.475  21.306  25.500  1.00  0.00    -0.222 NA
ATOM     10  N   UNL A   1      34.486  22.391  24.776  1.00  0.00    -0.228 NA
ATOM     11  C   UNL A   1      35.118  23.570  24.872  1.00  0.00     0.076 A 
ATOM     12  C   UNL A   1      36.437  23.672  25.283  1.00  0.00     0.064 A 
BRANCH   8  13
ATOM     13  C   UNL A   1      34.568  20.014  24.849  1.00  0.00     0.019 A 
ATOM     14  C   UNL A   1      33.318  17.546  24.358  1.00  0.00     0.118 A 
ATOM     15  C   UNL A   1      34.708  17.629  24.415  1.00  0.00     0.047 A 
ATOM     16  C   UNL A   1      32.543  18.682  24.580  1.00  0.00     0.047 A 
ATOM     17  C   UNL A   1      35.331  18.858  24.638  1.00  0.00     0.016 A 
ATOM     18  C   UNL A   1      33.166  19.906  24.827  1.00  0.00     0.016 A 
BRANCH  14  19
ATOM     19  O   UNL A   1      32.799  16.302  24.124  1.00  0.00    -0.497 OA
ATOM     20  C   UNL A   1      32.743  15.479  25.285  1.00  0.00     0.278 C 
ENDBRANCH  14  19
ENDBRANCH   8  13
BRANCH  11  21
ATOM     21  C   UNL A   1      34.323  24.705  24.397  1.00  0.00     0.003 A 
ATOM     22  C   UNL A   1      33.895  24.761  23.067  1.00  0.00     0.030 A 
ATOM     23  C   UNL A   1      33.883  25.708  25.263  1.00  0.00     0.030 A 
ATOM     24  C   UNL A   1      33.118  25.828  22.650  1.00  0.00     0.111 A 
ATOM     25  C   UNL A   1      33.100  26.736  24.755  1.00  0.00     0.111 A 
ATOM     26  N   UNL A   1      32.728  26.830  23.462  1.00  0.00    -0.265 NA
ENDBRANCH  11  21
ENDBRANCH   6   7
ENDBRANCH   5   6
ENDBRANCH   3   5
ENDBRANCH   2   3
ENDBRANCH   1   2
BRANCH   1  27
ATOM     27  C   UNL A   1      43.527  21.368  25.776  1.00  0.00     0.275 C 
BRANCH  27  28
ATOM     28  O   UNL A   1      42.584  22.444  25.602  1.00  0.00    -0.458 OA
BRANCH  28  29
ATOM     29  C   UNL A   1      43.174  23.645  25.413  1.00  0.00     0.338 C 
ATOM     30  O   UNL A   1      43.836  23.978  24.444  1.00  0.00    -0.246 OA
BRANCH  29  31
ATOM     31  C   UNL A   1      42.909  24.583  26.515  1.00  0.00     0.060 A 
ATOM     32  C   UNL A   1      41.930  24.312  27.475  1.00  0.00     0.016 A 
ATOM     33  C   UNL A   1      43.526  25.833  26.473  1.00  0.00     0.016 A 
ATOM     34  C   UNL A   1      41.547  25.309  28.378  1.00  0.00     0.010 A 
ATOM     35  C   UNL A   1      43.171  26.815  27.396  1.00  0.00     0.010 A 
ATOM     36  C   UNL A   1      42.177  26.562  28.355  1.00  0.00    -0.014 A 
BRANCH  36  37
ATOM     37  C   UNL A   1      41.935  27.567  29.416  1.00  0.00     0.031 A 
ATOM     38  C   UNL A   1      42.656  27.521  30.727  1.00  0.00     0.074 A 
ATOM     39  C   UNL A   1      40.948  28.457  29.217  1.00  0.00     0.049 A 
ATOM     40  N   UNL A   1      42.376  28.135  31.848  1.00  0.00    -0.248 NA
ATOM     41  C   UNL A   1      43.849  26.670  30.791  1.00  0.00     0.031 C 
ATOM     42  C   UNL A   1      40.178  28.595  27.978  1.00  0.00     0.029 A 
ATOM     43  N   UNL A   1      40.388  29.374  30.068  1.00  0.00    -0.354 N 
ATOM     44  C   UNL A   1      43.330  27.711  32.764  1.00  0.00     0.074 A 
ATOM     45  C   UNL A   1      44.206  26.792  32.065  1.00  0.00     0.031 C 
ATOM     46  C   UNL A   1      39.213  29.506  28.165  1.00  0.00     0.029 A 
ATOM     47  C   UNL A   1      39.271  29.975  29.544  1.00  0.00     0.049 A 
ATOM     48  H   UNL A   1      40.750  29.579  30.960  1.00  0.00     0.167 HD
ATOM     49  C   UNL A   1      43.458  28.065  34.065  1.00  0.00     0.037 A 
ATOM     50  C   UNL A   1      38.356  30.769  30.127  1.00  0.00     0.037 A 
ATOM     51  C   UNL A   1      42.617  29.029  34.731  1.00  0.00     0.049 A 
ATOM     52  C   UNL A   1      38.509  31.136  31.568  1.00  0.00     0.074 A 
ATOM     53  C   UNL A   1      42.728  29.530  36.018  1.00  0.00     0.029 A 
ATOM     54  N   UNL A   1      41.512  29.640  34.159  1.00  0.00    -0.354 N 
ATOM     55  N   UNL A   1      39.417  30.740  32.425  1.00  0.00    -0.248 NA
ATOM     56  C   UNL A   1      37.513  32.060  32.124  1.00  0.00     0.031 C 
ATOM     57  C   UNL A   1      41.675  30.427  36.232  1.00  0.00     0.029 A 
ATOM     58  C   UNL A   1      40.924  30.501  35.071  1.00  0.00     0.049 A 
ATOM     59  H   UNL A   1      41.194  29.485  33.241  1.00  0.00     0.167 HD
ATOM     60  C   UNL A   1      39.111  31.372  33.620  1.00  0.00     0.074 A 
ATOM     61  C   UNL A   1      37.935  32.184  33.375  1.00  0.00     0.031 C 
ATOM     62  C   UNL A   1      39.749  31.291  34.811  1.00  0.00     0.037 A 
BRANCH  49  63
ATOM     63  C   UNL A   1      44.539  27.416  34.875  1.00  0.00     0.057 A 
ATOM     64  C   UNL A   1      44.332  26.209  35.553  1.00  0.00     0.134 A 
ATOM     65  C   UNL A   1      45.832  27.954  34.893  1.00  0.00     0.134 A 
ATOM     66  F   UNL A   1      43.116  25.645  35.579  1.00  0.00    -0.206 F 
ATOM     67  C   UNL A   1      45.372  25.561  36.223  1.00  0.00     0.040 A 
ATOM     68  C   UNL A   1      46.884  27.310  35.546  1.00  0.00     0.040 A 
ATOM     69  F   UNL A   1      46.098  29.105  34.255  1.00  0.00    -0.206 F 
ATOM     70  C   UNL A   1      46.656  26.108  36.212  1.00  0.00     0.006 A 
ENDBRANCH  49  63
BRANCH  50  71
ATOM     71  C   UNL A   1      37.192  31.220  29.333  1.00  0.00     0.057 A 
ATOM     72  C   UNL A   1      37.160  32.492  28.758  1.00  0.00     0.134 A 
ATOM     73  C   UNL A   1      36.116  30.359  29.080  1.00  0.00     0.134 A 
ATOM     74  F   UNL A   1      38.161  33.357  28.978  1.00  0.00    -0.206 F 
ATOM     75  C   UNL A   1      36.094  32.897  27.955  1.00  0.00     0.040 A 
ATOM     76  C   UNL A   1      35.054  30.745  28.265  1.00  0.00     0.040 A 
ATOM     77  F   UNL A   1      36.103  29.122  29.597  1.00  0.00    -0.206 F 
ATOM     78  C   UNL A   1      35.041  32.019  27.700  1.00  0.00     0.006 A 
ENDBRANCH  50  71
BRANCH  62  79
ATOM     79  C   UNL A   1      39.193  32.118  35.926  1.00  0.00     0.057 A 
ATOM     80  C   UNL A   1      38.249  31.600  36.820  1.00  0.00     0.134 A 
ATOM     81  C   UNL A   1      39.606  33.444  36.107  1.00  0.00     0.134 A 
ATOM     82  F   UNL A   1      37.804  30.341  36.684  1.00  0.00    -0.206 F 
ATOM     83  C   UNL A   1      37.720  32.380  37.848  1.00  0.00     0.040 A 
ATOM     84  C   UNL A   1      39.095  34.228  37.140  1.00  0.00     0.040 A 
ATOM     85  F   UNL A   1      40.508  33.994  35.281  1.00  0.00    -0.206 F 
ATOM     86  C   UNL A   1      38.146  33.698  38.011  1.00  0.00     0.006 A 
ENDBRANCH  62  79
ENDBRANCH  36  37
ENDBRANCH  29  31
ENDBRANCH  28  29
ENDBRANCH  27  28
ENDBRANCH   1  27
TORSDOF 16
ENDMDL
MODEL 2
REMARK VINA RESULT:     -11.7      3.169      7.356
REMARK SMILES COc1ccc(-c2nc(SCC(=O)OCCOC(=O)c3ccc(-c4c5nc(c(-c6c(F)cccc6F)c6ccc([nH]6)c(-c6c(F)cccc6F)c6nc(c(-c7c(F)cccc7F)c7ccc4[nH]7)C=C6)C=C5)cc3)cc(-c3ccncc3)n2)cc1
REMARK SMILES IDX 15 1 14 2 12 3 13 4 11 5 10 6 9 7 7 8 8 9 82 10 75 11 74 12
REMARK SMILES IDX 6 13 3 14 4 15 84 16 5 17 83 18 2 19 1 20 76 21 77 22 81 23
REMARK SMILES IDX 78 24 80 25 79 26 16 27 17 28 18 29 19 30 20 31 21 32 73 33
REMARK SMILES IDX 22 34 72 35 23 36 24 37 25 38 66 39 26 40 71 41 65 42 67 43
REMARK SMILES IDX 27 44 70 45 64 46 63 47 28 49 54 50 37 51 53 52 38 53 41 54
REMARK SMILES IDX 52 55 68 56 39 57 40 58 51 60 69 61 42 62 29 63 30 64 35 65
REMARK SMILES IDX 31 66 32 67 34 68 36 69 33 70 55 71 56 72 61 73 57 74 58 75
REMARK SMILES IDX 60 76 62 77 59 78 43 79 44 80 49 81 45 82 46 83 48 84 50 85
REMARK SMILES IDX 47 86
REMARK H PARENT 67 48 41 59
REMARK Flexibility Score: inf
ROOT
ATOM      1  C   UNL A   1      33.317  27.883  24.976  1.00  0.00     0.274 C 
ENDROOT
BRANCH   1   2
ATOM      2  O   UNL A   1      33.548  27.630  23.575  1.00  0.00    -0.461 OA
BRANCH   2   3
ATOM      3  C   UNL A   1      33.549  26.324  23.202  1.00  0.00     0.316 C 
ATOM      4  O   UNL A   1      33.987  25.918  22.128  1.00  0.00    -0.251 OA
BRANCH   3   5
ATOM      5  C   UNL A   1      33.044  25.354  24.250  1.00  0.00     0.199 C 
BRANCH   5   6
ATOM      6  S   UNL A   1      32.604  23.709  23.637  1.00  0.00    -0.094 SA
BRANCH   6   7
ATOM      7  C   UNL A   1      33.991  22.671  24.066  1.00  0.00     0.101 A 
ATOM      8  C   UNL A   1      34.604  20.509  24.507  1.00  0.00     0.161 A 
ATOM      9  N   UNL A   1      33.677  21.364  24.054  1.00  0.00    -0.222 NA
ATOM     10  N   UNL A   1      35.823  20.846  24.939  1.00  0.00    -0.228 NA
ATOM     11  C   UNL A   1      36.123  22.153  24.922  1.00  0.00     0.076 A 
ATOM     12  C   UNL A   1      35.231  23.113  24.474  1.00  0.00     0.064 A 
BRANCH   8  13
ATOM     13  C   UNL A   1      34.217  19.113  24.659  1.00  0.00     0.019 A 
ATOM     14  C   UNL A   1      33.431  16.429  24.937  1.00  0.00     0.118 A 
ATOM     15  C   UNL A   1      34.735  16.742  24.555  1.00  0.00     0.047 A 
ATOM     16  C   UNL A   1      32.524  17.449  25.217  1.00  0.00     0.047 A 
ATOM     17  C   UNL A   1      35.120  18.074  24.397  1.00  0.00     0.016 A 
ATOM     18  C   UNL A   1      32.918  18.781  25.081  1.00  0.00     0.016 A 
BRANCH  14  19
ATOM     19  O   UNL A   1      33.142  15.098  25.056  1.00  0.00    -0.497 OA
ATOM     20  C   UNL A   1      31.933  14.837  25.762  1.00  0.00     0.278 C 
ENDBRANCH  14  19
ENDBRANCH   8  13
BRANCH  11  21
ATOM     21  C   UNL A   1      37.423  22.465  25.522  1.00  0.00     0.003 A 
ATOM     22  C   UNL A   1      37.655  23.720  26.093  1.00  0.00     0.030 A 
ATOM     23  C   UNL A   1      38.431  21.505  25.634  1.00  0.00     0.030 A 
ATOM     24  C   UNL A   1      38.882  23.981  26.680  1.00  0.00     0.111 A 
ATOM     25  C   UNL A   1      39.626  21.856  26.248  1.00  0.00     0.111 A 
ATOM     26  N   UNL A   1      39.882  23.081  26.751  1.00  0.00    -0.265 NA
ENDBRANCH  11  21
ENDBRANCH   6   7
ENDBRANCH   5   6
ENDBRANCH   3   5
ENDBRANCH   2   3
ENDBRANCH   1   2
BRANCH   1  27
ATOM     27  C   UNL A   1      32.836  29.312  25.227  1.00  0.00     0.275 C 
BRANCH  27  28
ATOM     28  O   UNL A   1      32.602  29.544  26.630  1.00  0.00    -0.458 OA
BRANCH  28  29
ATOM     29  C   UNL A   1      32.975  30.777  27.036  1.00  0.00     0.338 C 
ATOM     30  O   UNL A   1      32.323  31.802  26.919  1.00  0.00    -0.246 OA
BRANCH  29  31
ATOM     31  C   UNL A   1      34.288  30.779  27.701  1.00  0.00     0.060 A 
ATOM     32  C   UNL A   1      35.082  31.928  27.730  1.00  0.00     0.016 A 
ATOM     33  C   UNL A   1      34.802  29.557  28.135  1.00  0.00     0.016 A 
ATOM     34  C   UNL A   1      36.407  31.847  28.169  1.00  0.00     0.010 A 
ATOM     35  C   UNL A   1      36.112  29.483  28.608  1.00  0.00     0.010 A 
ATOM     36  C   UNL A   1      36.925  30.627  28.626  1.00  0.00    -0.014 A 
BRANCH  36  37
ATOM     37  C   UNL A   1      38.253  30.548  29.278  1.00  0.00     0.031 A 
ATOM     38  C   UNL A   1      39.366  29.723  28.710  1.00  0.00     0.074 A 
ATOM     39  C   UNL A   1      38.394  31.142  30.476  1.00  0.00     0.049 A 
ATOM     40  N   UNL A   1      40.474  29.323  29.280  1.00  0.00    -0.248 NA
ATOM     41  C   UNL A   1      39.213  29.284  27.319  1.00  0.00     0.031 C 
ATOM     42  C   UNL A   1      37.378  31.972  31.126  1.00  0.00     0.029 A 
ATOM     43  N   UNL A   1      39.423  31.095  31.380  1.00  0.00    -0.354 N 
ATOM     44  C   UNL A   1      41.131  28.549  28.333  1.00  0.00     0.074 A 
ATOM     45  C   UNL A   1      40.301  28.542  27.145  1.00  0.00     0.031 C 
ATOM     46  C   UNL A   1      37.812  32.317  32.346  1.00  0.00     0.029 A 
ATOM     47  C   UNL A   1      39.110  31.692  32.575  1.00  0.00     0.049 A 
ATOM     48  H   UNL A   1      40.293  30.677  31.191  1.00  0.00     0.167 HD
ATOM     49  C   UNL A   1      42.321  27.911  28.451  1.00  0.00     0.037 A 
ATOM     50  C   UNL A   1      39.766  31.687  33.748  1.00  0.00     0.037 A 
ATOM     51  C   UNL A   1      43.165  27.979  29.617  1.00  0.00     0.049 A 
ATOM     52  C   UNL A   1      41.071  30.965  33.861  1.00  0.00     0.074 A 
ATOM     53  C   UNL A   1      44.434  27.450  29.797  1.00  0.00     0.029 A 
ATOM     54  N   UNL A   1      42.829  28.618  30.799  1.00  0.00    -0.354 N 
ATOM     55  N   UNL A   1      41.690  30.243  32.960  1.00  0.00    -0.248 NA
ATOM     56  C   UNL A   1      41.767  31.055  35.150  1.00  0.00     0.031 C 
ATOM     57  C   UNL A   1      44.853  27.750  31.099  1.00  0.00     0.029 A 
ATOM     58  C   UNL A   1      43.857  28.485  31.718  1.00  0.00     0.049 A 
ATOM     59  H   UNL A   1      41.984  29.097  30.961  1.00  0.00     0.167 HD
ATOM     60  C   UNL A   1      42.855  29.800  33.567  1.00  0.00     0.074 A 
ATOM     61  C   UNL A   1      42.859  30.341  34.912  1.00  0.00     0.031 C 
ATOM     62  C   UNL A   1      43.836  29.021  33.054  1.00  0.00     0.037 A 
BRANCH  49  63
ATOM     63  C   UNL A   1      42.795  27.074  27.301  1.00  0.00     0.057 A 
ATOM     64  C   UNL A   1      43.574  27.610  26.269  1.00  0.00     0.134 A 
ATOM     65  C   UNL A   1      42.554  25.694  27.282  1.00  0.00     0.134 A 
ATOM     66  F   UNL A   1      43.836  28.924  26.228  1.00  0.00    -0.206 F 
ATOM     67  C   UNL A   1      44.094  26.802  25.255  1.00  0.00     0.040 A 
ATOM     68  C   UNL A   1      43.079  24.874  26.282  1.00  0.00     0.040 A 
ATOM     69  F   UNL A   1      41.821  25.119  28.247  1.00  0.00    -0.206 F 
ATOM     70  C   UNL A   1      43.855  25.428  25.265  1.00  0.00     0.006 A 
ENDBRANCH  49  63
BRANCH  50  71
ATOM     71  C   UNL A   1      39.152  32.360  34.914  1.00  0.00     0.057 A 
ATOM     72  C   UNL A   1      38.401  31.643  35.849  1.00  0.00     0.134 A 
ATOM     73  C   UNL A   1      39.358  33.725  35.148  1.00  0.00     0.134 A 
ATOM     74  F   UNL A   1      38.166  30.335  35.665  1.00  0.00    -0.206 F 
ATOM     75  C   UNL A   1      37.876  32.261  36.983  1.00  0.00     0.040 A 
ATOM     76  C   UNL A   1      38.853  34.351  36.286  1.00  0.00     0.040 A 
ATOM     77  F   UNL A   1      40.082  34.458  34.288  1.00  0.00    -0.206 F 
ATOM     78  C   UNL A   1      38.108  33.618  37.207  1.00  0.00     0.006 A 
ENDBRANCH  50  71
BRANCH  62  79
ATOM     79  C   UNL A   1      44.997  28.728  33.951  1.00  0.00     0.057 A 
ATOM     80  C   UNL A   1      45.028  27.582  34.754  1.00  0.00     0.134 A 
ATOM     81  C   UNL A   1      46.091  29.599  34.011  1.00  0.00     0.134 A 
ATOM     82  F   UNL A   1      43.999  26.721  34.751  1.00  0.00    -0.206 F 
ATOM     83  C   UNL A   1      46.104  27.322  35.602  1.00  0.00     0.040 A 
ATOM     84  C   UNL A   1      47.179  29.341  34.844  1.00  0.00     0.040 A 
ATOM     85  F   UNL A   1      46.116  30.712  33.263  1.00  0.00    -0.206 F 
ATOM     86  C   UNL A   1      47.185  28.202  35.646  1.00  0.00     0.006 A 
ENDBRANCH  62  79
ENDBRANCH  36  37
ENDBRANCH  29  31
ENDBRANCH  28  29
ENDBRANCH  27  28
ENDBRANCH   1  27
TORSDOF 16
ENDMDL
MODEL 3
REMARK VINA RESULT:     -11.6      4.954      7.711
REMARK SMILES COc1ccc(-c2nc(SCC(=O)OCCOC(=O)c3ccc(-c4c5nc(c(-c6c(F)cccc6F)c6ccc([nH]6)c(-c6c(F)cccc6F)c6nc(c(-c7c(F)cccc7F)c7ccc4[nH]7)C=C6)C=C5)cc3)cc(-c3ccncc3)n2)cc1
REMARK SMILES IDX 15 1 14 2 12 3 13 4 11 5 10 6 9 7 7 8 8 9 82 10 75 11 74 12
REMARK SMILES IDX 6 13 3 14 4 15 84 16 5 17 83 18 2 19 1 20 76 21 77 22 81 23
REMARK SMILES IDX 78 24 80 25 79 26 16 27 17 28 18 29 19 30 20 31 21 32 73 33
REMARK SMILES IDX 22 34 72 35 23 36 24 37 25 38 66 39 26 40 71 41 65 42 67 43
REMARK SMILES IDX 27 44 70 45 64 46 63 47 28 49 54 50 37 51 53 52 38 53 41 54
REMARK SMILES IDX 52 55 68 56 39 57 40 58 51 60 69 61 42 62 29 63 30 64 35 65
REMARK SMILES IDX 31 66 32 67 34 68 36 69 33 70 55 71 56 72 61 73 57 74 58 75
REMARK SMILES IDX 60 76 62 77 59 78 43 79 44 80 49 81 45 82 46 83 48 84 50 85
REMARK SMILES IDX 47 86
REMARK H PARENT 67 48 41 59
REMARK Flexibility Score: inf
ROOT
ATOM      1  C   UNL A   1      41.763  18.978  25.896  1.00  0.00     0.274 C 
ENDROOT
BRANCH   1   2
ATOM      2  O   UNL A   1      41.494  20.070  26.799  1.00  0.00    -0.461 OA
BRANCH   2   3
ATOM      3  C   UNL A   1      40.900  21.161  26.249  1.00  0.00     0.316 C 
ATOM      4  O   UNL A   1      41.510  22.165  25.890  1.00  0.00    -0.251 OA
BRANCH   3   5
ATOM      5  C   UNL A   1      39.409  21.033  26.016  1.00  0.00     0.199 C 
BRANCH   5   6
ATOM      6  S   UNL A   1      38.491  22.593  25.995  1.00  0.00    -0.094 SA
BRANCH   6   7
ATOM      7  C   UNL A   1      36.833  22.146  25.511  1.00  0.00     0.101 A 
ATOM      8  C   UNL A   1      34.665  22.881  25.476  1.00  0.00     0.161 A 
ATOM      9  N   UNL A   1      35.962  23.157  25.667  1.00  0.00    -0.222 NA
ATOM     10  N   UNL A   1      34.172  21.693  25.112  1.00  0.00    -0.228 NA
ATOM     11  C   UNL A   1      35.060  20.704  24.940  1.00  0.00     0.076 A 
ATOM     12  C   UNL A   1      36.421  20.890  25.116  1.00  0.00     0.064 A 
BRANCH   8  13
ATOM     13  C   UNL A   1      33.698  23.919  25.807  1.00  0.00     0.019 A 
ATOM     14  C   UNL A   1      31.816  25.895  26.478  1.00  0.00     0.118 A 
ATOM     15  C   UNL A   1      33.099  26.257  26.074  1.00  0.00     0.047 A 
ATOM     16  C   UNL A   1      31.452  24.550  26.516  1.00  0.00     0.047 A 
ATOM     17  C   UNL A   1      34.041  25.277  25.760  1.00  0.00     0.016 A 
ATOM     18  C   UNL A   1      32.387  23.571  26.179  1.00  0.00     0.016 A 
BRANCH  14  19
ATOM     19  O   UNL A   1      30.965  26.923  26.776  1.00  0.00    -0.497 OA
ATOM     20  C   UNL A   1      31.627  28.092  27.252  1.00  0.00     0.278 C 
ENDBRANCH  14  19
ENDBRANCH   8  13
BRANCH  11  21
ATOM     21  C   UNL A   1      34.445  19.403  24.663  1.00  0.00     0.003 A 
ATOM     22  C   UNL A   1      33.082  19.314  24.364  1.00  0.00     0.030 A 
ATOM     23  C   UNL A   1      35.204  18.233  24.590  1.00  0.00     0.030 A 
ATOM     24  C   UNL A   1      32.532  18.077  24.076  1.00  0.00     0.111 A 
ATOM     25  C   UNL A   1      34.564  17.038  24.286  1.00  0.00     0.111 A 
ATOM     26  N   UNL A   1      33.240  16.932  24.051  1.00  0.00    -0.265 NA
ENDBRANCH  11  21
ENDBRANCH   6   7
ENDBRANCH   5   6
ENDBRANCH   3   5
ENDBRANCH   2   3
ENDBRANCH   1   2
BRANCH   1  27
ATOM     27  C   UNL A   1      43.261  18.787  25.660  1.00  0.00     0.275 C 
BRANCH  27  28
ATOM     28  O   UNL A   1      43.644  19.247  24.349  1.00  0.00    -0.458 OA
BRANCH  28  29
ATOM     29  C   UNL A   1      44.949  19.588  24.263  1.00  0.00     0.338 C 
ATOM     30  O   UNL A   1      45.862  18.858  23.914  1.00  0.00    -0.246 OA
BRANCH  29  31
ATOM     31  C   UNL A   1      45.187  20.998  24.609  1.00  0.00     0.060 A 
ATOM     32  C   UNL A   1      45.650  21.363  25.877  1.00  0.00     0.016 A 
ATOM     33  C   UNL A   1      44.762  21.973  23.708  1.00  0.00     0.016 A 
ATOM     34  C   UNL A   1      45.659  22.710  26.252  1.00  0.00     0.010 A 
ATOM     35  C   UNL A   1      44.805  23.320  24.068  1.00  0.00     0.010 A 
ATOM     36  C   UNL A   1      45.251  23.698  25.344  1.00  0.00    -0.014 A 
BRANCH  36  37
ATOM     37  C   UNL A   1      45.433  25.139  25.638  1.00  0.00     0.031 A 
ATOM     38  C   UNL A   1      46.782  25.788  25.609  1.00  0.00     0.074 A 
ATOM     39  C   UNL A   1      44.360  25.827  26.063  1.00  0.00     0.049 A 
ATOM     40  N   UNL A   1      47.157  26.942  26.099  1.00  0.00    -0.248 NA
ATOM     41  C   UNL A   1      47.855  25.042  24.942  1.00  0.00     0.031 C 
ATOM     42  C   UNL A   1      42.996  25.298  26.131  1.00  0.00     0.029 A 
ATOM     43  N   UNL A   1      44.256  27.098  26.564  1.00  0.00    -0.354 N 
ATOM     44  C   UNL A   1      48.518  27.042  25.842  1.00  0.00     0.074 A 
ATOM     45  C   UNL A   1      48.903  25.833  25.141  1.00  0.00     0.031 C 
ATOM     46  C   UNL A   1      42.199  26.219  26.692  1.00  0.00     0.029 A 
ATOM     47  C   UNL A   1      43.007  27.376  27.061  1.00  0.00     0.049 A 
ATOM     48  H   UNL A   1      44.999  27.744  26.568  1.00  0.00     0.167 HD
ATOM     49  C   UNL A   1      49.359  28.055  26.160  1.00  0.00     0.037 A 
ATOM     50  C   UNL A   1      42.572  28.418  27.790  1.00  0.00     0.037 A 
ATOM     51  C   UNL A   1      48.949  29.279  26.801  1.00  0.00     0.049 A 
ATOM     52  C   UNL A   1      43.520  29.519  28.142  1.00  0.00     0.074 A 
ATOM     53  C   UNL A   1      49.705  30.407  27.076  1.00  0.00     0.029 A 
ATOM     54  N   UNL A   1      47.668  29.537  27.264  1.00  0.00    -0.354 N 
ATOM     55  N   UNL A   1      44.803  29.612  27.888  1.00  0.00    -0.248 NA
ATOM     56  C   UNL A   1      42.965  30.660  28.881  1.00  0.00     0.031 C 
ATOM     57  C   UNL A   1      48.887  31.337  27.727  1.00  0.00     0.029 A 
ATOM     58  C   UNL A   1      47.616  30.797  27.835  1.00  0.00     0.049 A 
ATOM     59  H   UNL A   1      46.907  28.915  27.196  1.00  0.00     0.167 HD
ATOM     60  C   UNL A   1      45.208  30.824  28.425  1.00  0.00     0.074 A 
ATOM     61  C   UNL A   1      44.032  31.435  29.013  1.00  0.00     0.031 C 
ATOM     62  C   UNL A   1      46.441  31.382  28.425  1.00  0.00     0.037 A 
BRANCH  49  63
ATOM     63  C   UNL A   1      50.813  27.901  25.831  1.00  0.00     0.057 A 
ATOM     64  C   UNL A   1      51.321  28.206  24.563  1.00  0.00     0.134 A 
ATOM     65  C   UNL A   1      51.730  27.539  26.826  1.00  0.00     0.134 A 
ATOM     66  F   UNL A   1      50.495  28.554  23.566  1.00  0.00    -0.206 F 
ATOM     67  C   UNL A   1      52.691  28.154  24.295  1.00  0.00     0.040 A 
ATOM     68  C   UNL A   1      53.103  27.497  26.576  1.00  0.00     0.040 A 
ATOM     69  F   UNL A   1      51.307  27.242  28.065  1.00  0.00    -0.206 F 
ATOM     70  C   UNL A   1      53.587  27.808  25.307  1.00  0.00     0.006 A 
ENDBRANCH  49  63
BRANCH  50  71
ATOM     71  C   UNL A   1      41.171  28.423  28.264  1.00  0.00     0.057 A 
ATOM     72  C   UNL A   1      40.130  28.854  27.438  1.00  0.00     0.134 A 
ATOM     73  C   UNL A   1      40.839  27.933  29.534  1.00  0.00     0.134 A 
ATOM     74  F   UNL A   1      40.396  29.340  26.217  1.00  0.00    -0.206 F 
ATOM     75  C   UNL A   1      38.802  28.798  27.859  1.00  0.00     0.040 A 
ATOM     76  C   UNL A   1      39.515  27.856  29.960  1.00  0.00     0.040 A 
ATOM     77  F   UNL A   1      41.799  27.495  30.362  1.00  0.00    -0.206 F 
ATOM     78  C   UNL A   1      38.491  28.290  29.120  1.00  0.00     0.006 A 
ENDBRANCH  50  71
BRANCH  62  79
ATOM     79  C   UNL A   1      46.566  32.727  29.067  1.00  0.00     0.057 A 
ATOM     80  C   UNL A   1      46.908  32.862  30.418  1.00  0.00     0.134 A 
ATOM     81  C   UNL A   1      46.344  33.895  28.329  1.00  0.00     0.134 A 
ATOM     82  F   UNL A   1      47.115  31.777  31.179  1.00  0.00    -0.206 F 
ATOM     83  C   UNL A   1      47.008  34.117  31.017  1.00  0.00     0.040 A 
ATOM     84  C   UNL A   1      46.455  35.156  28.914  1.00  0.00     0.040 A 
ATOM     85  F   UNL A   1      46.014  33.826  27.030  1.00  0.00    -0.206 F 
ATOM     86  C   UNL A   1      46.783  35.269  30.263  1.00  0.00     0.006 A 
ENDBRANCH  62  79
ENDBRANCH  36  37
ENDBRANCH  29  31
ENDBRANCH  28  29
ENDBRANCH  27  28
ENDBRANCH   1  27
TORSDOF 16
ENDMDL
