MODEL 1
REMARK VINA RESULT:     -10.6      0.000      0.000
REMARK SMILES CCn1nc(C(C)C)cc1C(=O)N[C@@H](CC(N)=O)C(=O)OCCOC(=O)c1ccc(-c2c3nc(c(-c4c(F)cccc4F)c4ccc([nH]4)c(-c4c(F)cccc4F)c4nc(c(-c5c(F)cccc5F)c5ccc2[nH]5)C=C4)C=C3)cc1
REMARK SMILES IDX 22 1 21 2 19 3 20 4 14 5 13 6 11 7 12 8 10 10 3 11 4 12 5 13
REMARK SMILES IDX 9 14 2 15 1 16 6 17 7 18 8 19 15 20 16 21 17 22 18 23 23 26
REMARK SMILES IDX 24 27 25 28 26 29 27 30 28 31 80 32 29 33 79 34 30 35 31 36
REMARK SMILES IDX 32 37 73 38 33 39 78 40 72 41 74 42 34 43 77 44 71 45 70 46
REMARK SMILES IDX 35 48 61 49 44 50 60 51 45 52 48 53 59 54 75 55 46 56 47 57
REMARK SMILES IDX 58 59 76 60 49 61 36 62 37 63 42 64 38 65 39 66 41 67 43 68
REMARK SMILES IDX 40 69 62 70 63 71 68 72 64 73 65 74 67 75 69 76 66 77 50 78
REMARK SMILES IDX 51 79 56 80 52 81 53 82 55 83 57 84 54 85
REMARK H PARENT 13 9 17 24 17 25 74 47 48 58
REMARK Flexibility Score: inf
ROOT
ATOM      1  C   UNL A   1      32.813  29.922  25.764  1.00  0.00     0.274 C 
ENDROOT
BRANCH   1   2
ATOM      2  O   UNL A   1      31.921  28.800  25.863  1.00  0.00    -0.461 OA
BRANCH   2   3
ATOM      3  C   UNL A   1      32.514  27.594  26.044  1.00  0.00     0.329 C 
ATOM      4  O   UNL A   1      33.658  27.439  26.469  1.00  0.00    -0.250 OA
BRANCH   3   5
ATOM      5  C   UNL A   1      31.689  26.415  25.509  1.00  0.00     0.201 C 
BRANCH   5   6
ATOM      6  N   UNL A   1      31.412  25.295  26.408  1.00  0.00    -0.337 N 
ATOM      7  C   UNL A   1      32.044  24.099  26.649  1.00  0.00     0.270 C 
ATOM      8  O   UNL A   1      31.561  23.424  27.561  1.00  0.00    -0.268 OA
ATOM      9  H   UNL A   1      30.602  25.424  26.954  1.00  0.00     0.164 HD
BRANCH   7  10
ATOM     10  C   UNL A   1      33.217  23.656  25.907  1.00  0.00     0.126 A 
ATOM     11  N   UNL A   1      33.193  22.634  24.967  1.00  0.00    -0.260 N 
ATOM     12  N   UNL A   1      34.423  22.239  24.561  1.00  0.00    -0.177 NA
ATOM     13  C   UNL A   1      35.255  23.102  25.140  1.00  0.00     0.066 A 
ATOM     14  C   UNL A   1      34.540  24.068  25.879  1.00  0.00     0.059 A 
BRANCH  11  15
ATOM     15  C   UNL A   1      32.047  21.938  24.401  1.00  0.00     0.142 C 
ATOM     16  C   UNL A   1      32.335  20.478  24.083  1.00  0.00     0.029 C 
ENDBRANCH  11  15
BRANCH  13  17
ATOM     17  C   UNL A   1      36.749  22.995  25.005  1.00  0.00     0.034 C 
ATOM     18  C   UNL A   1      37.498  23.794  26.075  1.00  0.00     0.014 C 
ATOM     19  C   UNL A   1      37.220  21.543  24.980  1.00  0.00     0.014 C 
ENDBRANCH  13  17
ENDBRANCH   7  10
ENDBRANCH   5   6
BRANCH   5  20
ATOM     20  C   UNL A   1      30.385  26.973  24.941  1.00  0.00     0.136 C 
BRANCH  20  21
ATOM     21  C   UNL A   1      29.692  25.924  24.101  1.00  0.00     0.220 C 
ATOM     22  N   UNL A   1      28.343  26.068  23.975  1.00  0.00    -0.370 N 
ATOM     23  O   UNL A   1      30.270  24.962  23.610  1.00  0.00    -0.275 OA
ATOM     24  H   UNL A   1      27.892  26.847  24.374  1.00  0.00     0.159 HD
ATOM     25  H   UNL A   1      27.819  25.392  23.485  1.00  0.00     0.159 HD
ENDBRANCH  20  21
ENDBRANCH   5  20
ENDBRANCH   3   5
ENDBRANCH   2   3
ENDBRANCH   1   2
BRANCH   1  26
ATOM     26  C   UNL A   1      32.733  30.776  27.022  1.00  0.00     0.275 C 
BRANCH  26  27
ATOM     27  O   UNL A   1      33.800  30.510  27.941  1.00  0.00    -0.458 OA
BRANCH  27  28
ATOM     28  C   UNL A   1      34.606  31.577  28.148  1.00  0.00     0.338 C 
ATOM     29  O   UNL A   1      34.284  32.750  28.153  1.00  0.00    -0.246 OA
BRANCH  28  30
ATOM     30  C   UNL A   1      36.012  31.182  28.120  1.00  0.00     0.060 A 
ATOM     31  C   UNL A   1      36.297  29.858  27.768  1.00  0.00     0.016 A 
ATOM     32  C   UNL A   1      36.976  32.017  28.698  1.00  0.00     0.016 A 
ATOM     33  C   UNL A   1      37.532  29.335  28.091  1.00  0.00     0.010 A 
ATOM     34  C   UNL A   1      38.205  31.490  29.028  1.00  0.00     0.010 A 
ATOM     35  C   UNL A   1      38.455  30.143  28.762  1.00  0.00    -0.014 A 
BRANCH  35  36
ATOM     36  C   UNL A   1      39.746  29.565  29.084  1.00  0.00     0.031 A 
ATOM     37  C   UNL A   1      40.057  29.511  30.531  1.00  0.00     0.074 A 
ATOM     38  C   UNL A   1      40.538  28.971  28.174  1.00  0.00     0.049 A 
ATOM     39  N   UNL A   1      41.068  30.025  31.147  1.00  0.00    -0.248 NA
ATOM     40  C   UNL A   1      39.076  28.857  31.411  1.00  0.00     0.031 C 
ATOM     41  C   UNL A   1      40.224  28.658  26.779  1.00  0.00     0.029 A 
ATOM     42  N   UNL A   1      41.763  28.406  28.359  1.00  0.00    -0.354 N 
ATOM     43  C   UNL A   1      40.949  29.615  32.470  1.00  0.00     0.074 A 
ATOM     44  C   UNL A   1      39.650  29.008  32.604  1.00  0.00     0.031 C 
ATOM     45  C   UNL A   1      41.139  27.778  26.313  1.00  0.00     0.029 A 
ATOM     46  C   UNL A   1      42.152  27.561  27.333  1.00  0.00     0.049 A 
ATOM     47  H   UNL A   1      42.322  28.583  29.150  1.00  0.00     0.167 HD
ATOM     48  C   UNL A   1      42.015  29.604  33.311  1.00  0.00     0.037 A 
ATOM     49  C   UNL A   1      43.188  26.689  27.358  1.00  0.00     0.037 A 
ATOM     50  C   UNL A   1      43.078  30.457  32.851  1.00  0.00     0.049 A 
ATOM     51  C   UNL A   1      44.108  27.097  28.448  1.00  0.00     0.074 A 
ATOM     52  C   UNL A   1      43.183  31.799  32.537  1.00  0.00     0.029 A 
ATOM     53  N   UNL A   1      44.207  29.869  32.340  1.00  0.00    -0.354 N 
ATOM     54  N   UNL A   1      44.876  28.149  28.414  1.00  0.00    -0.248 NA
ATOM     55  C   UNL A   1      43.922  26.508  29.766  1.00  0.00     0.031 C 
ATOM     56  C   UNL A   1      44.117  31.860  31.461  1.00  0.00     0.029 A 
ATOM     57  C   UNL A   1      44.537  30.555  31.201  1.00  0.00     0.049 A 
ATOM     58  H   UNL A   1      44.690  29.100  32.721  1.00  0.00     0.167 HD
ATOM     59  C   UNL A   1      44.911  28.602  29.724  1.00  0.00     0.074 A 
ATOM     60  C   UNL A   1      44.427  27.483  30.524  1.00  0.00     0.031 C 
ATOM     61  C   UNL A   1      45.056  29.929  30.008  1.00  0.00     0.037 A 
BRANCH  48  62
ATOM     62  C   UNL A   1      42.224  28.542  34.355  1.00  0.00     0.057 A 
ATOM     63  C   UNL A   1      42.509  27.226  33.956  1.00  0.00     0.134 A 
ATOM     64  C   UNL A   1      41.865  28.698  35.710  1.00  0.00     0.134 A 
ATOM     65  F   UNL A   1      42.833  26.948  32.683  1.00  0.00    -0.206 F 
ATOM     66  C   UNL A   1      42.388  26.137  34.828  1.00  0.00     0.040 A 
ATOM     67  C   UNL A   1      41.794  27.627  36.602  1.00  0.00     0.040 A 
ATOM     68  F   UNL A   1      41.466  29.874  36.212  1.00  0.00    -0.206 F 
ATOM     69  C   UNL A   1      42.025  26.336  36.155  1.00  0.00     0.006 A 
ENDBRANCH  48  62
BRANCH  49  70
ATOM     70  C   UNL A   1      43.333  25.398  26.652  1.00  0.00     0.057 A 
ATOM     71  C   UNL A   1      42.528  24.299  26.985  1.00  0.00     0.134 A 
ATOM     72  C   UNL A   1      44.081  25.278  25.467  1.00  0.00     0.134 A 
ATOM     73  F   UNL A   1      41.744  24.332  28.072  1.00  0.00    -0.206 F 
ATOM     74  C   UNL A   1      42.454  23.157  26.178  1.00  0.00     0.040 A 
ATOM     75  C   UNL A   1      44.028  24.137  24.661  1.00  0.00     0.040 A 
ATOM     76  F   UNL A   1      44.821  26.294  25.003  1.00  0.00    -0.206 F 
ATOM     77  C   UNL A   1      43.201  23.077  25.006  1.00  0.00     0.006 A 
ENDBRANCH  49  70
BRANCH  61  78
ATOM     78  C   UNL A   1      45.522  30.834  28.905  1.00  0.00     0.057 A 
ATOM     79  C   UNL A   1      46.870  31.080  28.605  1.00  0.00     0.134 A 
ATOM     80  C   UNL A   1      44.570  31.389  28.041  1.00  0.00     0.134 A 
ATOM     81  F   UNL A   1      47.855  30.504  29.307  1.00  0.00    -0.206 F 
ATOM     82  C   UNL A   1      47.248  31.896  27.534  1.00  0.00     0.040 A 
ATOM     83  C   UNL A   1      44.936  32.173  26.946  1.00  0.00     0.040 A 
ATOM     84  F   UNL A   1      43.262  31.145  28.229  1.00  0.00    -0.206 F 
ATOM     85  C   UNL A   1      46.280  32.443  26.699  1.00  0.00     0.006 A 
ENDBRANCH  61  78
ENDBRANCH  35  36
ENDBRANCH  28  30
ENDBRANCH  27  28
ENDBRANCH  26  27
ENDBRANCH   1  26
TORSDOF 17
ENDMDL
MODEL 2
REMARK VINA RESULT:     -10.5      2.735      7.688
REMARK SMILES CCn1nc(C(C)C)cc1C(=O)N[C@@H](CC(N)=O)C(=O)OCCOC(=O)c1ccc(-c2c3nc(c(-c4c(F)cccc4F)c4ccc([nH]4)c(-c4c(F)cccc4F)c4nc(c(-c5c(F)cccc5F)c5ccc2[nH]5)C=C4)C=C3)cc1
REMARK SMILES IDX 22 1 21 2 19 3 20 4 14 5 13 6 11 7 12 8 10 10 3 11 4 12 5 13
REMARK SMILES IDX 9 14 2 15 1 16 6 17 7 18 8 19 15 20 16 21 17 22 18 23 23 26
REMARK SMILES IDX 24 27 25 28 26 29 27 30 28 31 80 32 29 33 79 34 30 35 31 36
REMARK SMILES IDX 32 37 73 38 33 39 78 40 72 41 74 42 34 43 77 44 71 45 70 46
REMARK SMILES IDX 35 48 61 49 44 50 60 51 45 52 48 53 59 54 75 55 46 56 47 57
REMARK SMILES IDX 58 59 76 60 49 61 36 62 37 63 42 64 38 65 39 66 41 67 43 68
REMARK SMILES IDX 40 69 62 70 63 71 68 72 64 73 65 74 67 75 69 76 66 77 50 78
REMARK SMILES IDX 51 79 56 80 52 81 53 82 55 83 57 84 54 85
REMARK H PARENT 13 9 17 24 17 25 74 47 48 58
REMARK Flexibility Score: inf
ROOT
ATOM      1  C   UNL A   1      37.259  21.113  24.977  1.00  0.00     0.274 C 
ENDROOT
BRANCH   1   2
ATOM      2  O   UNL A   1      36.250  21.813  25.722  1.00  0.00    -0.461 OA
BRANCH   2   3
ATOM      3  C   UNL A   1      35.792  22.958  25.157  1.00  0.00     0.329 C 
ATOM      4  O   UNL A   1      36.276  23.479  24.153  1.00  0.00    -0.250 OA
BRANCH   3   5
ATOM      5  C   UNL A   1      34.703  23.659  25.980  1.00  0.00     0.201 C 
BRANCH   5   6
ATOM      6  N   UNL A   1      33.367  23.791  25.399  1.00  0.00    -0.337 N 
ATOM      7  C   UNL A   1      32.564  24.869  25.112  1.00  0.00     0.270 C 
ATOM      8  O   UNL A   1      31.510  24.599  24.532  1.00  0.00    -0.268 OA
ATOM      9  H   UNL A   1      32.957  22.927  25.165  1.00  0.00     0.164 HD
BRANCH   7  10
ATOM     10  C   UNL A   1      32.927  26.241  25.440  1.00  0.00     0.126 A 
ATOM     11  N   UNL A   1      33.401  27.157  24.510  1.00  0.00    -0.260 N 
ATOM     12  N   UNL A   1      33.882  28.295  25.062  1.00  0.00    -0.177 NA
ATOM     13  C   UNL A   1      33.597  28.180  26.358  1.00  0.00     0.066 A 
ATOM     14  C   UNL A   1      32.896  26.982  26.611  1.00  0.00     0.059 A 
BRANCH  11  15
ATOM     15  C   UNL A   1      33.469  27.037  23.061  1.00  0.00     0.142 C 
ATOM     16  C   UNL A   1      33.954  28.308  22.380  1.00  0.00     0.029 C 
ENDBRANCH  11  15
BRANCH  13  17
ATOM     17  C   UNL A   1      34.012  29.212  27.369  1.00  0.00     0.034 C 
ATOM     18  C   UNL A   1      35.532  29.378  27.454  1.00  0.00     0.014 C 
ATOM     19  C   UNL A   1      33.330  30.557  27.130  1.00  0.00     0.014 C 
ENDBRANCH  13  17
ENDBRANCH   7  10
ENDBRANCH   5   6
BRANCH   5  20
ATOM     20  C   UNL A   1      34.623  22.967  27.340  1.00  0.00     0.136 C 
BRANCH  20  21
ATOM     21  C   UNL A   1      33.337  22.178  27.447  1.00  0.00     0.220 C 
ATOM     22  N   UNL A   1      33.428  20.859  27.117  1.00  0.00    -0.370 N 
ATOM     23  O   UNL A   1      32.260  22.679  27.743  1.00  0.00    -0.275 OA
ATOM     24  H   UNL A   1      34.301  20.469  26.882  1.00  0.00     0.159 HD
ATOM     25  H   UNL A   1      32.620  20.296  27.113  1.00  0.00     0.159 HD
ENDBRANCH  20  21
ENDBRANCH   5  20
ENDBRANCH   3   5
ENDBRANCH   2   3
ENDBRANCH   1   2
BRANCH   1  26
ATOM     26  C   UNL A   1      38.560  21.059  25.767  1.00  0.00     0.275 C 
BRANCH  26  27
ATOM     27  O   UNL A   1      39.228  22.326  25.821  1.00  0.00    -0.458 OA
BRANCH  27  28
ATOM     28  C   UNL A   1      40.051  22.452  26.888  1.00  0.00     0.338 C 
ATOM     29  O   UNL A   1      40.365  21.583  27.679  1.00  0.00    -0.246 OA
BRANCH  28  30
ATOM     30  C   UNL A   1      40.347  23.857  27.156  1.00  0.00     0.060 A 
ATOM     31  C   UNL A   1      41.465  24.134  27.951  1.00  0.00     0.016 A 
ATOM     32  C   UNL A   1      39.387  24.833  26.864  1.00  0.00     0.016 A 
ATOM     33  C   UNL A   1      41.569  25.376  28.543  1.00  0.00     0.010 A 
ATOM     34  C   UNL A   1      39.488  26.070  27.464  1.00  0.00     0.010 A 
ATOM     35  C   UNL A   1      40.553  26.314  28.332  1.00  0.00    -0.014 A 
BRANCH  35  36
ATOM     36  C   UNL A   1      40.694  27.612  28.963  1.00  0.00     0.031 A 
ATOM     37  C   UNL A   1      41.745  28.475  28.377  1.00  0.00     0.074 A 
ATOM     38  C   UNL A   1      39.842  28.078  29.893  1.00  0.00     0.049 A 
ATOM     39  N   UNL A   1      42.761  29.006  28.970  1.00  0.00    -0.248 NA
ATOM     40  C   UNL A   1      41.691  28.720  26.927  1.00  0.00     0.031 C 
ATOM     41  C   UNL A   1      38.580  27.482  30.333  1.00  0.00     0.029 A 
ATOM     42  N   UNL A   1      39.880  29.268  30.554  1.00  0.00    -0.354 N 
ATOM     43  C   UNL A   1      43.384  29.796  28.011  1.00  0.00     0.074 A 
ATOM     44  C   UNL A   1      42.765  29.489  26.749  1.00  0.00     0.031 C 
ATOM     45  C   UNL A   1      37.876  28.410  31.021  1.00  0.00     0.029 A 
ATOM     46  C   UNL A   1      38.683  29.611  31.161  1.00  0.00     0.049 A 
ATOM     47  H   UNL A   1      40.685  29.834  30.597  1.00  0.00     0.167 HD
ATOM     48  C   UNL A   1      44.218  30.812  28.357  1.00  0.00     0.037 A 
ATOM     49  C   UNL A   1      38.357  30.824  31.669  1.00  0.00     0.037 A 
ATOM     50  C   UNL A   1      44.719  30.669  29.698  1.00  0.00     0.049 A 
ATOM     51  C   UNL A   1      39.613  31.581  31.896  1.00  0.00     0.074 A 
ATOM     52  C   UNL A   1      45.427  29.694  30.374  1.00  0.00     0.029 A 
ATOM     53  N   UNL A   1      44.231  31.509  30.666  1.00  0.00    -0.354 N 
ATOM     54  N   UNL A   1      40.478  31.319  32.834  1.00  0.00    -0.248 NA
ATOM     55  C   UNL A   1      40.097  32.449  30.832  1.00  0.00     0.031 C 
ATOM     56  C   UNL A   1      44.933  29.732  31.712  1.00  0.00     0.029 A 
ATOM     57  C   UNL A   1      43.971  30.741  31.771  1.00  0.00     0.049 A 
ATOM     58  H   UNL A   1      44.094  32.480  30.583  1.00  0.00     0.167 HD
ATOM     59  C   UNL A   1      41.709  31.618  32.271  1.00  0.00     0.074 A 
ATOM     60  C   UNL A   1      41.403  32.433  31.102  1.00  0.00     0.031 C 
ATOM     61  C   UNL A   1      42.836  30.941  32.639  1.00  0.00     0.037 A 
BRANCH  48  62
ATOM     62  C   UNL A   1      44.283  32.111  27.602  1.00  0.00     0.057 A 
ATOM     63  C   UNL A   1      45.276  32.294  26.625  1.00  0.00     0.134 A 
ATOM     64  C   UNL A   1      43.605  33.281  28.003  1.00  0.00     0.134 A 
ATOM     65  F   UNL A   1      46.009  31.259  26.188  1.00  0.00    -0.206 F 
ATOM     66  C   UNL A   1      45.609  33.559  26.127  1.00  0.00     0.040 A 
ATOM     67  C   UNL A   1      43.893  34.541  27.473  1.00  0.00     0.040 A 
ATOM     68  F   UNL A   1      42.708  33.282  28.997  1.00  0.00    -0.206 F 
ATOM     69  C   UNL A   1      44.920  34.688  26.554  1.00  0.00     0.006 A 
ENDBRANCH  48  62
BRANCH  49  70
ATOM     70  C   UNL A   1      37.027  31.462  31.770  1.00  0.00     0.057 A 
ATOM     71  C   UNL A   1      36.511  31.860  33.011  1.00  0.00     0.134 A 
ATOM     72  C   UNL A   1      36.338  31.929  30.637  1.00  0.00     0.134 A 
ATOM     73  F   UNL A   1      37.121  31.503  34.150  1.00  0.00    -0.206 F 
ATOM     74  C   UNL A   1      35.389  32.692  33.120  1.00  0.00     0.040 A 
ATOM     75  C   UNL A   1      35.207  32.746  30.731  1.00  0.00     0.040 A 
ATOM     76  F   UNL A   1      36.785  31.683  29.397  1.00  0.00    -0.206 F 
ATOM     77  C   UNL A   1      34.738  33.143  31.976  1.00  0.00     0.006 A 
ENDBRANCH  49  70
BRANCH  61  78
ATOM     78  C   UNL A   1      42.781  30.122  33.897  1.00  0.00     0.057 A 
ATOM     79  C   UNL A   1      42.278  28.814  33.964  1.00  0.00     0.134 A 
ATOM     80  C   UNL A   1      43.366  30.636  35.060  1.00  0.00     0.134 A 
ATOM     81  F   UNL A   1      41.801  28.196  32.875  1.00  0.00    -0.206 F 
ATOM     82  C   UNL A   1      42.296  28.080  35.154  1.00  0.00     0.040 A 
ATOM     83  C   UNL A   1      43.425  29.898  36.244  1.00  0.00     0.040 A 
ATOM     84  F   UNL A   1      43.924  31.858  35.055  1.00  0.00    -0.206 F 
ATOM     85  C   UNL A   1      42.873  28.621  36.298  1.00  0.00     0.006 A 
ENDBRANCH  61  78
ENDBRANCH  35  36
ENDBRANCH  28  30
ENDBRANCH  27  28
ENDBRANCH  26  27
ENDBRANCH   1  26
TORSDOF 17
ENDMDL
MODEL 3
REMARK VINA RESULT:     -10.5      2.525      7.456
REMARK SMILES CCn1nc(C(C)C)cc1C(=O)N[C@@H](CC(N)=O)C(=O)OCCOC(=O)c1ccc(-c2c3nc(c(-c4c(F)cccc4F)c4ccc([nH]4)c(-c4c(F)cccc4F)c4nc(c(-c5c(F)cccc5F)c5ccc2[nH]5)C=C4)C=C3)cc1
REMARK SMILES IDX 22 1 21 2 19 3 20 4 14 5 13 6 11 7 12 8 10 10 3 11 4 12 5 13
REMARK SMILES IDX 9 14 2 15 1 16 6 17 7 18 8 19 15 20 16 21 17 22 18 23 23 26
REMARK SMILES IDX 24 27 25 28 26 29 27 30 28 31 80 32 29 33 79 34 30 35 31 36
REMARK SMILES IDX 32 37 73 38 33 39 78 40 72 41 74 42 34 43 77 44 71 45 70 46
REMARK SMILES IDX 35 48 61 49 44 50 60 51 45 52 48 53 59 54 75 55 46 56 47 57
REMARK SMILES IDX 58 59 76 60 49 61 36 62 37 63 42 64 38 65 39 66 41 67 43 68
REMARK SMILES IDX 40 69 62 70 63 71 68 72 64 73 65 74 67 75 69 76 66 77 50 78
REMARK SMILES IDX 51 79 56 80 52 81 53 82 55 83 57 84 54 85
REMARK H PARENT 13 9 17 24 17 25 74 47 48 58
REMARK Flexibility Score: inf
ROOT
ATOM      1  C   UNL A   1      36.408  20.793  24.993  1.00  0.00     0.274 C 
ENDROOT
BRANCH   1   2
ATOM      2  O   UNL A   1      35.411  21.226  25.933  1.00  0.00    -0.461 OA
BRANCH   2   3
ATOM      3  C   UNL A   1      34.123  21.069  25.535  1.00  0.00     0.329 C 
ATOM      4  O   UNL A   1      33.597  19.983  25.296  1.00  0.00    -0.250 OA
BRANCH   3   5
ATOM      5  C   UNL A   1      33.404  22.392  25.240  1.00  0.00     0.201 C 
BRANCH   5   6
ATOM      6  N   UNL A   1      33.811  23.159  24.063  1.00  0.00    -0.337 N 
ATOM      7  C   UNL A   1      33.814  24.500  23.763  1.00  0.00     0.270 C 
ATOM      8  O   UNL A   1      34.321  24.794  22.679  1.00  0.00    -0.268 OA
ATOM      9  H   UNL A   1      34.153  22.596  23.330  1.00  0.00     0.164 HD
BRANCH   7  10
ATOM     10  C   UNL A   1      33.284  25.516  24.662  1.00  0.00     0.126 A 
ATOM     11  N   UNL A   1      32.029  26.094  24.516  1.00  0.00    -0.260 N 
ATOM     12  N   UNL A   1      31.825  27.163  25.321  1.00  0.00    -0.177 NA
ATOM     13  C   UNL A   1      32.906  27.204  26.097  1.00  0.00     0.066 A 
ATOM     14  C   UNL A   1      33.773  26.129  25.805  1.00  0.00     0.059 A 
BRANCH  11  15
ATOM     15  C   UNL A   1      30.949  25.722  23.614  1.00  0.00     0.142 C 
ATOM     16  C   UNL A   1      31.101  26.323  22.224  1.00  0.00     0.029 C 
ENDBRANCH  11  15
BRANCH  13  17
ATOM     17  C   UNL A   1      33.127  28.288  27.115  1.00  0.00     0.034 C 
ATOM     18  C   UNL A   1      34.460  29.017  26.923  1.00  0.00     0.014 C 
ATOM     19  C   UNL A   1      31.966  29.278  27.160  1.00  0.00     0.014 C 
ENDBRANCH  13  17
ENDBRANCH   7  10
ENDBRANCH   5   6
BRANCH   5  20
ATOM     20  C   UNL A   1      31.902  22.113  25.198  1.00  0.00     0.136 C 
BRANCH  20  21
ATOM     21  C   UNL A   1      31.228  22.705  26.415  1.00  0.00     0.220 C 
ATOM     22  N   UNL A   1      29.928  22.342  26.602  1.00  0.00    -0.370 N 
ATOM     23  O   UNL A   1      31.768  23.513  27.160  1.00  0.00    -0.275 OA
ATOM     24  H   UNL A   1      29.507  21.691  25.995  1.00  0.00     0.159 HD
ATOM     25  H   UNL A   1      29.411  22.729  27.345  1.00  0.00     0.159 HD
ENDBRANCH  20  21
ENDBRANCH   5  20
ENDBRANCH   3   5
ENDBRANCH   2   3
ENDBRANCH   1   2
BRANCH   1  26
ATOM     26  C   UNL A   1      37.569  21.777  24.962  1.00  0.00     0.275 C 
BRANCH  26  27
ATOM     27  O   UNL A   1      38.001  22.166  26.272  1.00  0.00    -0.458 OA
BRANCH  27  28
ATOM     28  C   UNL A   1      39.344  22.105  26.433  1.00  0.00     0.338 C 
ATOM     29  O   UNL A   1      40.027  21.102  26.520  1.00  0.00    -0.246 OA
BRANCH  28  30
ATOM     30  C   UNL A   1      39.891  23.420  26.752  1.00  0.00     0.060 A 
ATOM     31  C   UNL A   1      41.060  23.456  27.521  1.00  0.00     0.016 A 
ATOM     32  C   UNL A   1      39.113  24.564  26.537  1.00  0.00     0.016 A 
ATOM     33  C   UNL A   1      41.398  24.630  28.163  1.00  0.00     0.010 A 
ATOM     34  C   UNL A   1      39.447  25.732  27.187  1.00  0.00     0.010 A 
ATOM     35  C   UNL A   1      40.561  25.741  28.029  1.00  0.00    -0.014 A 
BRANCH  35  36
ATOM     36  C   UNL A   1      40.946  26.961  28.712  1.00  0.00     0.031 A 
ATOM     37  C   UNL A   1      42.162  27.614  28.175  1.00  0.00     0.074 A 
ATOM     38  C   UNL A   1      40.184  27.557  29.646  1.00  0.00     0.049 A 
ATOM     39  N   UNL A   1      43.251  27.907  28.804  1.00  0.00    -0.248 NA
ATOM     40  C   UNL A   1      42.191  27.914  26.735  1.00  0.00     0.031 C 
ATOM     41  C   UNL A   1      38.818  27.213  30.044  1.00  0.00     0.029 A 
ATOM     42  N   UNL A   1      40.447  28.691  30.353  1.00  0.00    -0.354 N 
ATOM     43  C   UNL A   1      44.042  28.588  27.886  1.00  0.00     0.074 A 
ATOM     44  C   UNL A   1      43.402  28.457  26.603  1.00  0.00     0.031 C 
ATOM     45  C   UNL A   1      38.300  28.240  30.756  1.00  0.00     0.029 A 
ATOM     46  C   UNL A   1      39.330  29.248  30.955  1.00  0.00     0.049 A 
ATOM     47  H   UNL A   1      41.348  29.080  30.430  1.00  0.00     0.167 HD
ATOM     48  C   UNL A   1      45.055  29.402  28.284  1.00  0.00     0.037 A 
ATOM     49  C   UNL A   1      39.244  30.482  31.505  1.00  0.00     0.037 A 
ATOM     50  C   UNL A   1      45.487  29.114  29.625  1.00  0.00     0.049 A 
ATOM     51  C   UNL A   1      40.620  30.962  31.779  1.00  0.00     0.074 A 
ATOM     52  C   UNL A   1      45.968  27.992  30.274  1.00  0.00     0.029 A 
ATOM     53  N   UNL A   1      45.156  30.001  30.617  1.00  0.00    -0.354 N 
ATOM     54  N   UNL A   1      41.394  30.498  32.720  1.00  0.00    -0.248 NA
ATOM     55  C   UNL A   1      41.293  31.751  30.757  1.00  0.00     0.031 C 
ATOM     56  C   UNL A   1      45.462  28.083  31.604  1.00  0.00     0.029 A 
ATOM     57  C   UNL A   1      44.722  29.262  31.687  1.00  0.00     0.049 A 
ATOM     58  H   UNL A   1      45.220  30.982  30.570  1.00  0.00     0.167 HD
ATOM     59  C   UNL A   1      42.672  30.561  32.187  1.00  0.00     0.074 A 
ATOM     60  C   UNL A   1      42.563  31.462  31.046  1.00  0.00     0.031 C 
ATOM     61  C   UNL A   1      43.631  29.657  32.546  1.00  0.00     0.037 A 
BRANCH  48  62
ATOM     62  C   UNL A   1      45.398  30.686  27.580  1.00  0.00     0.057 A 
ATOM     63  C   UNL A   1      46.719  30.915  27.163  1.00  0.00     0.134 A 
ATOM     64  C   UNL A   1      44.554  31.816  27.564  1.00  0.00     0.134 A 
ATOM     65  F   UNL A   1      47.623  29.922  27.165  1.00  0.00    -0.206 F 
ATOM     66  C   UNL A   1      47.182  32.189  26.813  1.00  0.00     0.040 A 
ATOM     67  C   UNL A   1      44.991  33.081  27.165  1.00  0.00     0.040 A 
ATOM     68  F   UNL A   1      43.299  31.777  28.031  1.00  0.00    -0.206 F 
ATOM     69  C   UNL A   1      46.318  33.277  26.817  1.00  0.00     0.006 A 
ENDBRANCH  48  62
BRANCH  49  70
ATOM     70  C   UNL A   1      38.068  31.372  31.610  1.00  0.00     0.057 A 
ATOM     71  C   UNL A   1      37.544  32.014  30.479  1.00  0.00     0.134 A 
ATOM     72  C   UNL A   1      37.272  31.419  32.769  1.00  0.00     0.134 A 
ATOM     73  F   UNL A   1      38.206  31.989  29.314  1.00  0.00    -0.206 F 
ATOM     74  C   UNL A   1      36.295  32.646  30.492  1.00  0.00     0.040 A 
ATOM     75  C   UNL A   1      36.030  32.060  32.800  1.00  0.00     0.040 A 
ATOM     76  F   UNL A   1      37.628  30.771  33.887  1.00  0.00    -0.206 F 
ATOM     77  C   UNL A   1      35.530  32.664  31.654  1.00  0.00     0.006 A 
ENDBRANCH  49  70
BRANCH  61  78
ATOM     78  C   UNL A   1      43.384  28.824  33.770  1.00  0.00     0.057 A 
ATOM     79  C   UNL A   1      43.769  29.197  35.067  1.00  0.00     0.134 A 
ATOM     80  C   UNL A   1      42.628  27.652  33.646  1.00  0.00     0.134 A 
ATOM     81  F   UNL A   1      44.399  30.356  35.299  1.00  0.00    -0.206 F 
ATOM     82  C   UNL A   1      43.470  28.403  36.179  1.00  0.00     0.040 A 
ATOM     83  C   UNL A   1      42.291  26.872  34.753  1.00  0.00     0.040 A 
ATOM     84  F   UNL A   1      42.172  27.265  32.443  1.00  0.00    -0.206 F 
ATOM     85  C   UNL A   1      42.728  27.237  36.024  1.00  0.00     0.006 A 
ENDBRANCH  61  78
ENDBRANCH  35  36
ENDBRANCH  28  30
ENDBRANCH  27  28
ENDBRANCH  26  27
ENDBRANCH   1  26
TORSDOF 17
ENDMDL
