MODEL 1
REMARK VINA RESULT:     -10.2      0.000      0.000
REMARK SMILES CCCC[N@H+](CC)[C@H]1CCC[C@]([NH3+])(C(=O)OCCOC(=O)c2ccc(-c3c4nc(c(-c5c(F)cccc5F)c5ccc([nH]5)c(-c5c(F)cccc5F)c5nc(c(-c6c(F)cccc6F)c6ccc3[nH]6)C=C5)C=C4)cc2)C1
REMARK SMILES IDX 17 1 16 2 14 3 15 4 12 5 8 6 9 7 76 8 10 9 11 10 5 11 4 13
REMARK SMILES IDX 3 14 2 15 1 16 6 17 7 18 13 19 18 23 19 24 20 25 21 26 22 27
REMARK SMILES IDX 23 28 75 29 24 30 74 31 25 32 26 33 27 34 68 35 28 36 73 37
REMARK SMILES IDX 67 38 69 39 29 40 72 41 66 42 65 43 30 45 56 46 39 47 55 48
REMARK SMILES IDX 40 49 43 50 54 51 70 52 41 53 42 54 53 56 71 57 44 58 31 59
REMARK SMILES IDX 32 60 37 61 33 62 34 63 36 64 38 65 35 66 57 67 58 68 63 69
REMARK SMILES IDX 59 70 60 71 62 72 64 73 61 74 45 75 46 76 51 77 47 78 48 79
REMARK SMILES IDX 50 80 52 81 49 82
REMARK H PARENT 5 12 13 20 13 21 13 22 69 44 43 55
REMARK Flexibility Score: inf
ROOT
ATOM      1  C   UNL A   1      32.439  29.166  24.581  1.00  0.00     0.274 C 
ENDROOT
BRANCH   1   2
ATOM      2  O   UNL A   1      31.806  27.887  24.357  1.00  0.00    -0.457 OA
BRANCH   2   3
ATOM      3  C   UNL A   1      32.551  26.802  24.690  1.00  0.00     0.368 C 
ATOM      4  O   UNL A   1      33.724  26.640  24.358  1.00  0.00    -0.245 OA
BRANCH   3   5
ATOM      5  C   UNL A   1      31.758  25.702  25.455  1.00  0.00     0.198 C 
ATOM      6  C   UNL A   1      32.550  23.411  24.475  1.00  0.00     0.190 C 
ATOM      7  C   UNL A   1      31.221  23.320  23.704  1.00  0.00     0.065 C 
ATOM      8  C   UNL A   1      32.486  24.364  25.699  1.00  0.00     0.145 C 
ATOM      9  C   UNL A   1      30.621  24.683  23.443  1.00  0.00     0.013 C 
ATOM     10  C   UNL A   1      30.420  25.462  24.733  1.00  0.00     0.081 C 
BRANCH   6  11
ATOM     11  N   UNL A   1      33.048  22.061  24.793  1.00  0.00    -0.333 N 
ATOM     12  H   UNL A   1      32.943  22.029  25.807  1.00  0.00     0.348 HD
BRANCH  11  13
ATOM     13  C   UNL A   1      34.492  21.872  24.666  1.00  0.00     0.262 C 
BRANCH  13  14
ATOM     14  C   UNL A   1      35.341  22.773  23.751  1.00  0.00     0.061 C 
BRANCH  14  15
ATOM     15  C   UNL A   1      36.846  22.847  24.025  1.00  0.00     0.002 C 
ATOM     16  C   UNL A   1      37.225  23.661  25.253  1.00  0.00     0.004 C 
ENDBRANCH  14  15
ENDBRANCH  13  14
ENDBRANCH  11  13
BRANCH  11  17
ATOM     17  C   UNL A   1      32.141  20.929  24.878  1.00  0.00     0.258 C 
ATOM     18  C   UNL A   1      32.477  19.738  23.983  1.00  0.00     0.071 C 
ENDBRANCH  11  17
ENDBRANCH   6  11
BRANCH   5  19
ATOM     19  N   UNL A   1      31.435  26.287  26.793  1.00  0.00    -0.343 N 
ATOM     20  H   UNL A   1      30.628  26.905  26.708  1.00  0.00     0.345 HD
ATOM     21  H   UNL A   1      32.236  26.819  27.133  1.00  0.00     0.345 HD
ATOM     22  H   UNL A   1      31.221  25.537  27.450  1.00  0.00     0.345 HD
ENDBRANCH   5  19
ENDBRANCH   3   5
ENDBRANCH   2   3
ENDBRANCH   1   2
BRANCH   1  23
ATOM     23  C   UNL A   1      31.551  30.073  25.426  1.00  0.00     0.275 C 
BRANCH  23  24
ATOM     24  O   UNL A   1      32.070  30.136  26.765  1.00  0.00    -0.458 OA
BRANCH  24  25
ATOM     25  C   UNL A   1      32.735  31.269  27.079  1.00  0.00     0.338 C 
ATOM     26  O   UNL A   1      32.263  32.403  27.096  1.00  0.00    -0.246 OA
BRANCH  25  27
ATOM     27  C   UNL A   1      34.132  30.979  27.484  1.00  0.00     0.060 A 
ATOM     28  C   UNL A   1      34.589  29.671  27.668  1.00  0.00     0.016 A 
ATOM     29  C   UNL A   1      34.963  32.046  27.833  1.00  0.00     0.016 A 
ATOM     30  C   UNL A   1      35.787  29.439  28.348  1.00  0.00     0.010 A 
ATOM     31  C   UNL A   1      36.216  31.806  28.407  1.00  0.00     0.010 A 
ATOM     32  C   UNL A   1      36.618  30.501  28.736  1.00  0.00    -0.014 A 
BRANCH  32  33
ATOM     33  C   UNL A   1      37.858  30.278  29.540  1.00  0.00     0.031 A 
ATOM     34  C   UNL A   1      39.013  29.497  28.952  1.00  0.00     0.074 A 
ATOM     35  C   UNL A   1      37.984  30.761  30.792  1.00  0.00     0.049 A 
ATOM     36  N   UNL A   1      40.043  28.959  29.555  1.00  0.00    -0.248 NA
ATOM     37  C   UNL A   1      38.990  29.275  27.498  1.00  0.00     0.031 C 
ATOM     38  C   UNL A   1      36.999  31.584  31.494  1.00  0.00     0.029 A 
ATOM     39  N   UNL A   1      39.010  30.631  31.697  1.00  0.00    -0.354 N 
ATOM     40  C   UNL A   1      40.732  28.251  28.576  1.00  0.00     0.074 A 
ATOM     41  C   UNL A   1      40.019  28.455  27.332  1.00  0.00     0.031 C 
ATOM     42  C   UNL A   1      37.493  31.936  32.690  1.00  0.00     0.029 A 
ATOM     43  C   UNL A   1      38.781  31.280  32.884  1.00  0.00     0.049 A 
ATOM     44  H   UNL A   1      39.832  30.120  31.511  1.00  0.00     0.167 HD
ATOM     45  C   UNL A   1      41.847  27.492  28.705  1.00  0.00     0.037 A 
ATOM     46  C   UNL A   1      39.498  31.311  34.024  1.00  0.00     0.037 A 
ATOM     47  C   UNL A   1      42.620  27.374  29.914  1.00  0.00     0.049 A 
ATOM     48  C   UNL A   1      40.748  30.492  34.141  1.00  0.00     0.074 A 
ATOM     49  C   UNL A   1      43.774  26.641  30.137  1.00  0.00     0.029 A 
ATOM     50  N   UNL A   1      42.339  28.042  31.096  1.00  0.00    -0.354 N 
ATOM     51  N   UNL A   1      41.318  29.722  33.246  1.00  0.00    -0.248 NA
ATOM     52  C   UNL A   1      41.436  30.518  35.439  1.00  0.00     0.031 C 
ATOM     53  C   UNL A   1      44.186  26.857  31.457  1.00  0.00     0.029 A 
ATOM     54  C   UNL A   1      43.302  27.746  32.047  1.00  0.00     0.049 A 
ATOM     55  H   UNL A   1      41.570  28.639  31.238  1.00  0.00     0.167 HD
ATOM     56  C   UNL A   1      42.429  29.174  33.871  1.00  0.00     0.074 A 
ATOM     57  C   UNL A   1      42.466  29.714  35.214  1.00  0.00     0.031 C 
ATOM     58  C   UNL A   1      43.330  28.291  33.377  1.00  0.00     0.037 A 
BRANCH  45  59
ATOM     59  C   UNL A   1      42.280  26.687  27.515  1.00  0.00     0.057 A 
ATOM     60  C   UNL A   1      41.842  25.378  27.292  1.00  0.00     0.134 A 
ATOM     61  C   UNL A   1      43.126  27.260  26.553  1.00  0.00     0.134 A 
ATOM     62  F   UNL A   1      41.044  24.768  28.181  1.00  0.00    -0.206 F 
ATOM     63  C   UNL A   1      42.243  24.658  26.165  1.00  0.00     0.040 A 
ATOM     64  C   UNL A   1      43.516  26.559  25.412  1.00  0.00     0.040 A 
ATOM     65  F   UNL A   1      43.576  28.514  26.703  1.00  0.00    -0.206 F 
ATOM     66  C   UNL A   1      43.078  25.251  25.217  1.00  0.00     0.006 A 
ENDBRANCH  45  59
BRANCH  46  67
ATOM     67  C   UNL A   1      39.022  32.131  35.164  1.00  0.00     0.057 A 
ATOM     68  C   UNL A   1      39.260  33.509  35.201  1.00  0.00     0.134 A 
ATOM     69  C   UNL A   1      38.294  31.569  36.218  1.00  0.00     0.134 A 
ATOM     70  F   UNL A   1      39.974  34.097  34.229  1.00  0.00    -0.206 F 
ATOM     71  C   UNL A   1      38.788  34.301  36.247  1.00  0.00     0.040 A 
ATOM     72  C   UNL A   1      37.797  32.353  37.259  1.00  0.00     0.040 A 
ATOM     73  F   UNL A   1      38.033  30.254  36.235  1.00  0.00    -0.206 F 
ATOM     74  C   UNL A   1      38.045  33.724  37.275  1.00  0.00     0.006 A 
ENDBRANCH  46  67
BRANCH  58  75
ATOM     75  C   UNL A   1      44.446  27.881  34.289  1.00  0.00     0.057 A 
ATOM     76  C   UNL A   1      44.346  26.751  35.108  1.00  0.00     0.134 A 
ATOM     77  C   UNL A   1      45.633  28.621  34.340  1.00  0.00     0.134 A 
ATOM     78  F   UNL A   1      43.227  26.011  35.113  1.00  0.00    -0.206 F 
ATOM     79  C   UNL A   1      45.384  26.381  35.965  1.00  0.00     0.040 A 
ATOM     80  C   UNL A   1      46.684  28.252  35.181  1.00  0.00     0.040 A 
ATOM     81  F   UNL A   1      45.790  29.713  33.577  1.00  0.00    -0.206 F 
ATOM     82  C   UNL A   1      46.558  27.131  36.001  1.00  0.00     0.006 A 
ENDBRANCH  58  75
ENDBRANCH  32  33
ENDBRANCH  25  27
ENDBRANCH  24  25
ENDBRANCH  23  24
ENDBRANCH   1  23
TORSDOF 17
ENDMDL
MODEL 2
REMARK VINA RESULT:     -10.1      3.959      8.751
REMARK SMILES CCCC[N@H+](CC)[C@H]1CCC[C@]([NH3+])(C(=O)OCCOC(=O)c2ccc(-c3c4nc(c(-c5c(F)cccc5F)c5ccc([nH]5)c(-c5c(F)cccc5F)c5nc(c(-c6c(F)cccc6F)c6ccc3[nH]6)C=C5)C=C4)cc2)C1
REMARK SMILES IDX 17 1 16 2 14 3 15 4 12 5 8 6 9 7 76 8 10 9 11 10 5 11 4 13
REMARK SMILES IDX 3 14 2 15 1 16 6 17 7 18 13 19 18 23 19 24 20 25 21 26 22 27
REMARK SMILES IDX 23 28 75 29 24 30 74 31 25 32 26 33 27 34 68 35 28 36 73 37
REMARK SMILES IDX 67 38 69 39 29 40 72 41 66 42 65 43 30 45 56 46 39 47 55 48
REMARK SMILES IDX 40 49 43 50 54 51 70 52 41 53 42 54 53 56 71 57 44 58 31 59
REMARK SMILES IDX 32 60 37 61 33 62 34 63 36 64 38 65 35 66 57 67 58 68 63 69
REMARK SMILES IDX 59 70 60 71 62 72 64 73 61 74 45 75 46 76 51 77 47 78 48 79
REMARK SMILES IDX 50 80 52 81 49 82
REMARK H PARENT 5 12 13 20 13 21 13 22 69 44 43 55
REMARK Flexibility Score: inf
ROOT
ATOM      1  C   UNL A   1      34.837  21.407  25.406  1.00  0.00     0.274 C 
ENDROOT
BRANCH   1   2
ATOM      2  O   UNL A   1      34.435  22.163  24.241  1.00  0.00    -0.457 OA
BRANCH   2   3
ATOM      3  C   UNL A   1      33.113  22.103  23.936  1.00  0.00     0.368 C 
ATOM      4  O   UNL A   1      32.395  21.129  24.158  1.00  0.00    -0.245 OA
BRANCH   3   5
ATOM      5  C   UNL A   1      32.585  23.351  23.168  1.00  0.00     0.198 C 
ATOM      6  C   UNL A   1      32.870  25.383  24.789  1.00  0.00     0.190 C 
ATOM      7  C   UNL A   1      31.353  25.349  25.044  1.00  0.00     0.065 C 
ATOM      8  C   UNL A   1      33.286  24.694  23.462  1.00  0.00     0.145 C 
ATOM      9  C   UNL A   1      30.767  23.975  24.806  1.00  0.00     0.013 C 
ATOM     10  C   UNL A   1      31.070  23.473  23.403  1.00  0.00     0.081 C 
BRANCH   6  11
ATOM     11  N   UNL A   1      33.381  26.757  24.935  1.00  0.00    -0.333 N 
ATOM     12  H   UNL A   1      32.534  27.275  25.168  1.00  0.00     0.348 HD
BRANCH  11  13
ATOM     13  C   UNL A   1      33.772  27.424  23.695  1.00  0.00     0.262 C 
BRANCH  13  14
ATOM     14  C   UNL A   1      33.094  28.730  23.238  1.00  0.00     0.061 C 
BRANCH  14  15
ATOM     15  C   UNL A   1      31.567  28.805  23.324  1.00  0.00     0.002 C 
ATOM     16  C   UNL A   1      30.835  27.807  22.441  1.00  0.00     0.004 C 
ENDBRANCH  14  15
ENDBRANCH  13  14
ENDBRANCH  11  13
BRANCH  11  17
ATOM     17  C   UNL A   1      33.792  27.269  26.232  1.00  0.00     0.258 C 
ATOM     18  C   UNL A   1      32.776  28.154  26.951  1.00  0.00     0.071 C 
ENDBRANCH  11  17
ENDBRANCH   6  11
BRANCH   5  19
ATOM     19  N   UNL A   1      32.781  23.050  21.717  1.00  0.00    -0.343 N 
ATOM     20  H   UNL A   1      32.193  23.669  21.159  1.00  0.00     0.345 HD
ATOM     21  H   UNL A   1      32.525  22.080  21.533  1.00  0.00     0.345 HD
ATOM     22  H   UNL A   1      33.760  23.196  21.468  1.00  0.00     0.345 HD
ENDBRANCH   5  19
ENDBRANCH   3   5
ENDBRANCH   2   3
ENDBRANCH   1   2
BRANCH   1  23
ATOM     23  C   UNL A   1      36.074  20.565  25.108  1.00  0.00     0.275 C 
BRANCH  23  24
ATOM     24  O   UNL A   1      37.188  21.433  24.838  1.00  0.00    -0.458 OA
BRANCH  24  25
ATOM     25  C   UNL A   1      38.335  21.124  25.481  1.00  0.00     0.338 C 
ATOM     26  O   UNL A   1      38.919  20.044  25.439  1.00  0.00    -0.246 OA
BRANCH  25  27
ATOM     27  C   UNL A   1      38.871  22.295  26.215  1.00  0.00     0.060 A 
ATOM     28  C   UNL A   1      38.349  23.579  26.037  1.00  0.00     0.016 A 
ATOM     29  C   UNL A   1      40.022  22.129  26.990  1.00  0.00     0.016 A 
ATOM     30  C   UNL A   1      39.066  24.692  26.484  1.00  0.00     0.010 A 
ATOM     31  C   UNL A   1      40.672  23.241  27.536  1.00  0.00     0.010 A 
ATOM     32  C   UNL A   1      40.242  24.544  27.234  1.00  0.00    -0.014 A 
BRANCH  32  33
ATOM     33  C   UNL A   1      41.068  25.720  27.646  1.00  0.00     0.031 A 
ATOM     34  C   UNL A   1      40.485  26.774  28.561  1.00  0.00     0.074 A 
ATOM     35  C   UNL A   1      42.338  25.873  27.221  1.00  0.00     0.049 A 
ATOM     36  N   UNL A   1      40.914  27.986  28.812  1.00  0.00    -0.248 NA
ATOM     37  C   UNL A   1      39.242  26.424  29.267  1.00  0.00     0.031 C 
ATOM     38  C   UNL A   1      43.081  24.930  26.386  1.00  0.00     0.029 A 
ATOM     39  N   UNL A   1      43.235  26.890  27.449  1.00  0.00    -0.354 N 
ATOM     40  C   UNL A   1      39.946  28.574  29.618  1.00  0.00     0.074 A 
ATOM     41  C   UNL A   1      38.922  27.575  29.841  1.00  0.00     0.031 C 
ATOM     42  C   UNL A   1      44.334  25.378  26.224  1.00  0.00     0.029 A 
ATOM     43  C   UNL A   1      44.455  26.689  26.852  1.00  0.00     0.049 A 
ATOM     44  H   UNL A   1      43.023  27.686  27.988  1.00  0.00     0.167 HD
ATOM     45  C   UNL A   1      39.909  29.834  30.116  1.00  0.00     0.037 A 
ATOM     46  C   UNL A   1      45.540  27.483  26.774  1.00  0.00     0.037 A 
ATOM     47  C   UNL A   1      40.975  30.794  29.989  1.00  0.00     0.049 A 
ATOM     48  C   UNL A   1      45.496  28.863  27.360  1.00  0.00     0.074 A 
ATOM     49  C   UNL A   1      41.034  32.090  30.474  1.00  0.00     0.029 A 
ATOM     50  N   UNL A   1      42.186  30.547  29.364  1.00  0.00    -0.354 N 
ATOM     51  N   UNL A   1      44.523  29.455  28.008  1.00  0.00    -0.248 NA
ATOM     52  C   UNL A   1      46.690  29.699  27.171  1.00  0.00     0.031 C 
ATOM     53  C   UNL A   1      42.280  32.631  30.133  1.00  0.00     0.029 A 
ATOM     54  C   UNL A   1      43.004  31.661  29.459  1.00  0.00     0.049 A 
ATOM     55  H   UNL A   1      42.430  29.704  28.919  1.00  0.00     0.167 HD
ATOM     56  C   UNL A   1      44.985  30.729  28.304  1.00  0.00     0.074 A 
ATOM     57  C   UNL A   1      46.334  30.819  27.784  1.00  0.00     0.031 C 
ATOM     58  C   UNL A   1      44.343  31.738  28.940  1.00  0.00     0.037 A 
BRANCH  45  59
ATOM     59  C   UNL A   1      38.653  30.268  30.812  1.00  0.00     0.057 A 
ATOM     60  C   UNL A   1      37.595  30.888  30.138  1.00  0.00     0.134 A 
ATOM     61  C   UNL A   1      38.491  30.021  32.183  1.00  0.00     0.134 A 
ATOM     62  F   UNL A   1      37.693  31.166  28.830  1.00  0.00    -0.206 F 
ATOM     63  C   UNL A   1      36.427  31.263  30.806  1.00  0.00     0.040 A 
ATOM     64  C   UNL A   1      37.320  30.371  32.856  1.00  0.00     0.040 A 
ATOM     65  F   UNL A   1      39.464  29.423  32.887  1.00  0.00    -0.206 F 
ATOM     66  C   UNL A   1      36.285  30.999  32.168  1.00  0.00     0.006 A 
ENDBRANCH  45  59
BRANCH  46  67
ATOM     67  C   UNL A   1      46.755  26.995  26.080  1.00  0.00     0.057 A 
ATOM     68  C   UNL A   1      47.727  26.263  26.770  1.00  0.00     0.134 A 
ATOM     69  C   UNL A   1      46.958  27.217  24.714  1.00  0.00     0.134 A 
ATOM     70  F   UNL A   1      47.596  26.042  28.087  1.00  0.00    -0.206 F 
ATOM     71  C   UNL A   1      48.858  25.765  26.124  1.00  0.00     0.040 A 
ATOM     72  C   UNL A   1      48.072  26.705  24.050  1.00  0.00     0.040 A 
ATOM     73  F   UNL A   1      46.059  27.910  23.999  1.00  0.00    -0.206 F 
ATOM     74  C   UNL A   1      49.027  25.978  24.757  1.00  0.00     0.006 A 
ENDBRANCH  46  67
BRANCH  58  75
ATOM     75  C   UNL A   1      45.106  33.013  29.132  1.00  0.00     0.057 A 
ATOM     76  C   UNL A   1      45.039  34.054  28.199  1.00  0.00     0.134 A 
ATOM     77  C   UNL A   1      45.907  33.201  30.263  1.00  0.00     0.134 A 
ATOM     78  F   UNL A   1      44.299  33.926  27.088  1.00  0.00    -0.206 F 
ATOM     79  C   UNL A   1      45.763  35.235  28.376  1.00  0.00     0.040 A 
ATOM     80  C   UNL A   1      46.623  34.383  30.459  1.00  0.00     0.040 A 
ATOM     81  F   UNL A   1      46.010  32.241  31.194  1.00  0.00    -0.206 F 
ATOM     82  C   UNL A   1      46.555  35.403  29.510  1.00  0.00     0.006 A 
ENDBRANCH  58  75
ENDBRANCH  32  33
ENDBRANCH  25  27
ENDBRANCH  24  25
ENDBRANCH  23  24
ENDBRANCH   1  23
TORSDOF 17
ENDMDL
MODEL 3
REMARK VINA RESULT:     -10.1      0.662      2.211
REMARK SMILES CCCC[N@H+](CC)[C@H]1CCC[C@]([NH3+])(C(=O)OCCOC(=O)c2ccc(-c3c4nc(c(-c5c(F)cccc5F)c5ccc([nH]5)c(-c5c(F)cccc5F)c5nc(c(-c6c(F)cccc6F)c6ccc3[nH]6)C=C5)C=C4)cc2)C1
REMARK SMILES IDX 17 1 16 2 14 3 15 4 12 5 8 6 9 7 76 8 10 9 11 10 5 11 4 13
REMARK SMILES IDX 3 14 2 15 1 16 6 17 7 18 13 19 18 23 19 24 20 25 21 26 22 27
REMARK SMILES IDX 23 28 75 29 24 30 74 31 25 32 26 33 27 34 68 35 28 36 73 37
REMARK SMILES IDX 67 38 69 39 29 40 72 41 66 42 65 43 30 45 56 46 39 47 55 48
REMARK SMILES IDX 40 49 43 50 54 51 70 52 41 53 42 54 53 56 71 57 44 58 31 59
REMARK SMILES IDX 32 60 37 61 33 62 34 63 36 64 38 65 35 66 57 67 58 68 63 69
REMARK SMILES IDX 59 70 60 71 62 72 64 73 61 74 45 75 46 76 51 77 47 78 48 79
REMARK SMILES IDX 50 80 52 81 49 82
REMARK H PARENT 5 12 13 20 13 21 13 22 69 44 43 55
REMARK Flexibility Score: inf
ROOT
ATOM      1  C   UNL A   1      31.831  29.030  24.523  1.00  0.00     0.274 C 
ENDROOT
BRANCH   1   2
ATOM      2  O   UNL A   1      31.583  27.742  25.130  1.00  0.00    -0.457 OA
BRANCH   2   3
ATOM      3  C   UNL A   1      32.684  26.979  25.347  1.00  0.00     0.368 C 
ATOM      4  O   UNL A   1      33.835  27.414  25.364  1.00  0.00    -0.245 OA
BRANCH   3   5
ATOM      5  C   UNL A   1      32.383  25.456  25.471  1.00  0.00     0.198 C 
ATOM      6  C   UNL A   1      34.521  24.214  24.620  1.00  0.00     0.190 C 
ATOM      7  C   UNL A   1      33.771  23.886  23.317  1.00  0.00     0.065 C 
ATOM      8  C   UNL A   1      33.576  24.538  25.808  1.00  0.00     0.145 C 
ATOM      9  C   UNL A   1      32.671  24.883  23.028  1.00  0.00     0.013 C 
ATOM     10  C   UNL A   1      31.687  24.982  24.183  1.00  0.00     0.081 C 
BRANCH   6  11
ATOM     11  N   UNL A   1      35.514  23.166  24.914  1.00  0.00    -0.333 N 
ATOM     12  H   UNL A   1      35.659  22.747  23.996  1.00  0.00     0.348 HD
BRANCH  11  13
ATOM     13  C   UNL A   1      35.017  22.012  25.661  1.00  0.00     0.262 C 
BRANCH  13  14
ATOM     14  C   UNL A   1      34.936  20.615  25.018  1.00  0.00     0.061 C 
BRANCH  14  15
ATOM     15  C   UNL A   1      33.558  20.113  24.578  1.00  0.00     0.002 C 
ATOM     16  C   UNL A   1      32.390  20.929  25.110  1.00  0.00     0.004 C 
ENDBRANCH  14  15
ENDBRANCH  13  14
ENDBRANCH  11  13
BRANCH  11  17
ATOM     17  C   UNL A   1      36.938  23.426  24.783  1.00  0.00     0.258 C 
ATOM     18  C   UNL A   1      37.674  23.771  26.076  1.00  0.00     0.071 C 
ENDBRANCH  11  17
ENDBRANCH   6  11
BRANCH   5  19
ATOM     19  N   UNL A   1      31.388  25.326  26.580  1.00  0.00    -0.343 N 
ATOM     20  H   UNL A   1      31.660  25.933  27.353  1.00  0.00     0.345 HD
ATOM     21  H   UNL A   1      31.360  24.358  26.900  1.00  0.00     0.345 HD
ATOM     22  H   UNL A   1      30.465  25.599  26.242  1.00  0.00     0.345 HD
ENDBRANCH   5  19
ENDBRANCH   3   5
ENDBRANCH   2   3
ENDBRANCH   1   2
BRANCH   1  23
ATOM     23  C   UNL A   1      31.384  30.161  25.443  1.00  0.00     0.275 C 
BRANCH  23  24
ATOM     24  O   UNL A   1      32.108  30.082  26.683  1.00  0.00    -0.458 OA
BRANCH  24  25
ATOM     25  C   UNL A   1      32.745  31.213  27.058  1.00  0.00     0.338 C 
ATOM     26  O   UNL A   1      32.247  32.334  27.127  1.00  0.00    -0.246 OA
BRANCH  25  27
ATOM     27  C   UNL A   1      34.145  30.934  27.459  1.00  0.00     0.060 A 
ATOM     28  C   UNL A   1      34.597  29.634  27.699  1.00  0.00     0.016 A 
ATOM     29  C   UNL A   1      34.985  32.012  27.748  1.00  0.00     0.016 A 
ATOM     30  C   UNL A   1      35.802  29.427  28.375  1.00  0.00     0.010 A 
ATOM     31  C   UNL A   1      36.244  31.793  28.317  1.00  0.00     0.010 A 
ATOM     32  C   UNL A   1      36.644  30.502  28.703  1.00  0.00    -0.014 A 
BRANCH  32  33
ATOM     33  C   UNL A   1      37.892  30.310  29.501  1.00  0.00     0.031 A 
ATOM     34  C   UNL A   1      39.059  29.548  28.913  1.00  0.00     0.074 A 
ATOM     35  C   UNL A   1      38.015  30.805  30.748  1.00  0.00     0.049 A 
ATOM     36  N   UNL A   1      40.103  29.034  29.515  1.00  0.00    -0.248 NA
ATOM     37  C   UNL A   1      39.033  29.313  27.461  1.00  0.00     0.031 C 
ATOM     38  C   UNL A   1      37.018  31.614  31.450  1.00  0.00     0.029 A 
ATOM     39  N   UNL A   1      39.049  30.703  31.648  1.00  0.00    -0.354 N 
ATOM     40  C   UNL A   1      40.800  28.332  28.537  1.00  0.00     0.074 A 
ATOM     41  C   UNL A   1      40.077  28.512  27.296  1.00  0.00     0.031 C 
ATOM     42  C   UNL A   1      37.511  31.986  32.640  1.00  0.00     0.029 A 
ATOM     43  C   UNL A   1      38.814  31.357  32.832  1.00  0.00     0.049 A 
ATOM     44  H   UNL A   1      39.879  30.208  31.462  1.00  0.00     0.167 HD
ATOM     45  C   UNL A   1      41.931  27.597  28.666  1.00  0.00     0.037 A 
ATOM     46  C   UNL A   1      39.536  31.412  33.968  1.00  0.00     0.037 A 
ATOM     47  C   UNL A   1      42.713  27.505  29.872  1.00  0.00     0.049 A 
ATOM     48  C   UNL A   1      40.803  30.619  34.084  1.00  0.00     0.074 A 
ATOM     49  C   UNL A   1      43.882  26.796  30.094  1.00  0.00     0.029 A 
ATOM     50  N   UNL A   1      42.425  28.176  31.049  1.00  0.00    -0.354 N 
ATOM     51  N   UNL A   1      41.383  29.853  33.192  1.00  0.00    -0.248 NA
ATOM     52  C   UNL A   1      41.497  30.669  35.378  1.00  0.00     0.031 C 
ATOM     53  C   UNL A   1      44.297  27.031  31.410  1.00  0.00     0.029 A 
ATOM     54  C   UNL A   1      43.399  27.907  31.998  1.00  0.00     0.049 A 
ATOM     55  H   UNL A   1      41.645  28.758  31.191  1.00  0.00     0.167 HD
ATOM     56  C   UNL A   1      42.508  29.332  33.815  1.00  0.00     0.074 A 
ATOM     57  C   UNL A   1      42.541  29.884  35.154  1.00  0.00     0.031 C 
ATOM     58  C   UNL A   1      43.424  28.463  33.323  1.00  0.00     0.037 A 
BRANCH  45  59
ATOM     59  C   UNL A   1      42.374  26.792  27.480  1.00  0.00     0.057 A 
ATOM     60  C   UNL A   1      43.254  27.294  26.516  1.00  0.00     0.134 A 
ATOM     61  C   UNL A   1      41.934  25.468  27.329  1.00  0.00     0.134 A 
ATOM     62  F   UNL A   1      43.700  28.557  26.595  1.00  0.00    -0.206 F 
ATOM     63  C   UNL A   1      43.668  26.516  25.432  1.00  0.00     0.040 A 
ATOM     64  C   UNL A   1      42.358  24.674  26.262  1.00  0.00     0.040 A 
ATOM     65  F   UNL A   1      41.095  24.924  28.222  1.00  0.00    -0.206 F 
ATOM     66  C   UNL A   1      43.225  25.200  25.307  1.00  0.00     0.006 A 
ENDBRANCH  45  59
BRANCH  46  67
ATOM     67  C   UNL A   1      39.050  32.231  35.103  1.00  0.00     0.057 A 
ATOM     68  C   UNL A   1      38.306  31.651  36.137  1.00  0.00     0.134 A 
ATOM     69  C   UNL A   1      39.341  33.596  35.201  1.00  0.00     0.134 A 
ATOM     70  F   UNL A   1      37.976  30.352  36.083  1.00  0.00    -0.206 F 
ATOM     71  C   UNL A   1      37.872  32.399  37.230  1.00  0.00     0.040 A 
ATOM     72  C   UNL A   1      38.934  34.351  36.300  1.00  0.00     0.040 A 
ATOM     73  F   UNL A   1      40.053  34.206  34.242  1.00  0.00    -0.206 F 
ATOM     74  C   UNL A   1      38.195  33.753  37.318  1.00  0.00     0.006 A 
ENDBRANCH  46  67
BRANCH  58  75
ATOM     75  C   UNL A   1      44.552  28.083  34.231  1.00  0.00     0.057 A 
ATOM     76  C   UNL A   1      45.733  28.833  34.288  1.00  0.00     0.134 A 
ATOM     77  C   UNL A   1      44.452  26.962  35.063  1.00  0.00     0.134 A 
ATOM     78  F   UNL A   1      45.893  29.910  33.503  1.00  0.00    -0.206 F 
ATOM     79  C   UNL A   1      46.787  28.467  35.126  1.00  0.00     0.040 A 
ATOM     80  C   UNL A   1      45.493  26.595  35.917  1.00  0.00     0.040 A 
ATOM     81  F   UNL A   1      43.345  26.205  35.056  1.00  0.00    -0.206 F 
ATOM     82  C   UNL A   1      46.667  27.346  35.947  1.00  0.00     0.006 A 
ENDBRANCH  58  75
ENDBRANCH  32  33
ENDBRANCH  25  27
ENDBRANCH  24  25
ENDBRANCH  23  24
ENDBRANCH   1  23
TORSDOF 17
ENDMDL
