MODEL 1
REMARK VINA RESULT:     -13.6      0.000      0.000
REMARK SMILES O=C(OCCOC(=O)c1ccc(-c2c3nc(c(-c4c(F)cccc4F)c4ccc([nH]4)c(-c4c(F)cccc4F)c4nc(c(-c5c(F)cccc5F)c5ccc2[nH]5)C=C4)C=C3)cc1)C1=Cc2c(Cl)ccc(Cl)c2O[C@@H]1C(F)(F)F
REMARK SMILES IDX 5 1 4 2 3 3 2 4 1 5 63 6 64 7 74 8 65 9 73 10 66 11 72 12
REMARK SMILES IDX 67 13 68 14 70 15 69 16 71 17 75 18 76 19 77 20 78 21 6 22
REMARK SMILES IDX 7 23 8 24 9 25 10 26 62 27 11 28 61 29 12 30 13 31 14 32
REMARK SMILES IDX 55 33 15 34 60 35 54 36 56 37 16 38 59 39 53 40 52 41 17 43
REMARK SMILES IDX 43 44 26 45 42 46 27 47 30 48 41 49 57 50 28 51 29 52 40 54
REMARK SMILES IDX 58 55 31 56 18 57 19 58 24 59 20 60 21 61 23 62 25 63 22 64
REMARK SMILES IDX 44 65 45 66 50 67 46 68 47 69 49 70 51 71 48 72 32 73 33 74
REMARK SMILES IDX 38 75 34 76 35 77 37 78 39 79 36 80
REMARK H PARENT 56 42 30 53
REMARK Flexibility Score: inf
ROOT
ATOM      1  C   UNL A   1      39.847  22.145  26.128  1.00  0.00     0.275 C 
ENDROOT
BRANCH   1   2
ATOM      2  C   UNL A   1      38.416  23.738  26.438  1.00  0.00     0.275 C 
BRANCH   2   3
ATOM      3  O   UNL A   1      36.860  23.615  26.304  1.00  0.00    -0.459 OA
BRANCH   3   4
ATOM      4  C   UNL A   1      36.456  23.218  25.092  1.00  0.00     0.338 C 
ATOM      5  O   UNL A   1      37.070  23.031  24.074  1.00  0.00    -0.246 OA
BRANCH   4   6
ATOM      6  C   UNL A   1      35.059  23.422  25.358  1.00  0.00     0.087 C 
ATOM      7  C   UNL A   1      34.795  24.858  25.646  1.00  0.00     0.029 C 
ATOM      8  C   UNL A   1      34.380  22.462  23.823  1.00  0.00     0.316 C 
ATOM      9  C   UNL A   1      33.893  25.962  24.508  1.00  0.00     0.037 A 
ATOM     10  O   UNL A   1      33.462  23.617  22.597  1.00  0.00    -0.474 OA
ATOM     11  C   UNL A   1      33.801  27.309  24.763  1.00  0.00     0.052 A 
ATOM     12  C   UNL A   1      33.299  25.392  22.971  1.00  0.00     0.148 A 
ATOM     13  Cl  UNL A   1      34.368  28.036  26.206  1.00  0.00    -0.084 Cl
ATOM     14  C   UNL A   1      33.230  28.088  23.740  1.00  0.00     0.023 A 
ATOM     15  C   UNL A   1      32.747  26.229  22.039  1.00  0.00     0.083 A 
ATOM     16  C   UNL A   1      32.737  27.580  22.462  1.00  0.00     0.026 A 
ATOM     17  Cl  UNL A   1      32.167  25.768  20.514  1.00  0.00    -0.080 Cl
BRANCH   8  18
ATOM     18  C   UNL A   1      33.948  21.115  24.481  1.00  0.00     0.430 C 
ATOM     19  F   UNL A   1      33.170  21.303  25.556  1.00  0.00    -0.167 F 
ATOM     20  F   UNL A   1      33.153  20.451  23.588  1.00  0.00    -0.167 F 
ATOM     21  F   UNL A   1      34.926  20.228  24.743  1.00  0.00    -0.167 F 
ENDBRANCH   8  18
ENDBRANCH   4   6
ENDBRANCH   3   4
ENDBRANCH   2   3
ENDBRANCH   1   2
BRANCH   1  22
ATOM     22  O   UNL A   1      41.532  22.288  26.105  1.00  0.00    -0.458 OA
BRANCH  22  23
ATOM     23  C   UNL A   1      42.569  23.051  25.644  1.00  0.00     0.338 C 
ATOM     24  O   UNL A   1      43.061  23.130  24.538  1.00  0.00    -0.246 OA
BRANCH  23  25
ATOM     25  C   UNL A   1      42.793  24.048  26.726  1.00  0.00     0.060 A 
ATOM     26  C   UNL A   1      43.317  25.306  26.387  1.00  0.00     0.016 A 
ATOM     27  C   UNL A   1      42.137  23.863  27.940  1.00  0.00     0.016 A 
ATOM     28  C   UNL A   1      42.951  26.429  27.144  1.00  0.00     0.010 A 
ATOM     29  C   UNL A   1      41.824  24.972  28.718  1.00  0.00     0.010 A 
ATOM     30  C   UNL A   1      42.159  26.268  28.288  1.00  0.00    -0.014 A 
BRANCH  30  31
ATOM     31  C   UNL A   1      41.849  27.390  29.204  1.00  0.00     0.031 A 
ATOM     32  C   UNL A   1      42.587  27.388  30.504  1.00  0.00     0.074 A 
ATOM     33  C   UNL A   1      40.832  28.248  28.990  1.00  0.00     0.049 A 
ATOM     34  N   UNL A   1      42.336  28.035  31.608  1.00  0.00    -0.248 NA
ATOM     35  C   UNL A   1      43.733  26.469  30.576  1.00  0.00     0.031 C 
ATOM     36  C   UNL A   1      40.033  28.345  27.769  1.00  0.00     0.029 A 
ATOM     37  N   UNL A   1      40.266  29.179  29.830  1.00  0.00    -0.354 N 
ATOM     38  C   UNL A   1      43.269  27.566  32.519  1.00  0.00     0.074 A 
ATOM     39  C   UNL A   1      44.059  26.558  31.850  1.00  0.00     0.031 C 
ATOM     40  C   UNL A   1      39.061  29.260  27.952  1.00  0.00     0.029 A 
ATOM     41  C   UNL A   1      39.146  29.789  29.312  1.00  0.00     0.049 A 
ATOM     42  H   UNL A   1      40.629  29.390  30.721  1.00  0.00     0.167 HD
ATOM     43  C   UNL A   1      43.455  27.935  33.805  1.00  0.00     0.037 A 
ATOM     44  C   UNL A   1      38.282  30.650  29.890  1.00  0.00     0.037 A 
ATOM     45  C   UNL A   1      42.649  28.910  34.475  1.00  0.00     0.049 A 
ATOM     46  C   UNL A   1      38.495  31.049  31.334  1.00  0.00     0.074 A 
ATOM     47  C   UNL A   1      42.750  29.373  35.772  1.00  0.00     0.029 A 
ATOM     48  N   UNL A   1      41.573  29.565  33.890  1.00  0.00    -0.354 N 
ATOM     49  N   UNL A   1      39.417  30.647  32.176  1.00  0.00    -0.248 NA
ATOM     50  C   UNL A   1      37.546  32.017  31.910  1.00  0.00     0.031 C 
ATOM     51  C   UNL A   1      41.711  30.285  35.984  1.00  0.00     0.029 A 
ATOM     52  C   UNL A   1      40.995  30.425  34.802  1.00  0.00     0.049 A 
ATOM     53  H   UNL A   1      41.268  29.435  32.962  1.00  0.00     0.167 HD
ATOM     54  C   UNL A   1      39.187  31.338  33.361  1.00  0.00     0.074 A 
ATOM     55  C   UNL A   1      38.033  32.184  33.132  1.00  0.00     0.031 C 
ATOM     56  C   UNL A   1      39.868  31.283  34.533  1.00  0.00     0.037 A 
BRANCH  43  57
ATOM     57  C   UNL A   1      44.546  27.216  34.536  1.00  0.00     0.057 A 
ATOM     58  C   UNL A   1      44.295  26.035  35.252  1.00  0.00     0.134 A 
ATOM     59  C   UNL A   1      45.821  27.783  34.643  1.00  0.00     0.134 A 
ATOM     60  F   UNL A   1      43.080  25.467  35.220  1.00  0.00    -0.206 F 
ATOM     61  C   UNL A   1      45.252  25.485  36.104  1.00  0.00     0.040 A 
ATOM     62  C   UNL A   1      46.797  27.220  35.465  1.00  0.00     0.040 A 
ATOM     63  F   UNL A   1      46.123  28.915  33.991  1.00  0.00    -0.206 F 
ATOM     64  C   UNL A   1      46.506  26.080  36.215  1.00  0.00     0.006 A 
ENDBRANCH  43  57
BRANCH  44  65
ATOM     65  C   UNL A   1      37.131  31.209  29.126  1.00  0.00     0.057 A 
ATOM     66  C   UNL A   1      37.154  32.530  28.658  1.00  0.00     0.134 A 
ATOM     67  C   UNL A   1      35.969  30.468  28.887  1.00  0.00     0.134 A 
ATOM     68  F   UNL A   1      38.223  33.306  28.882  1.00  0.00    -0.206 F 
ATOM     69  C   UNL A   1      36.059  33.097  27.998  1.00  0.00     0.040 A 
ATOM     70  C   UNL A   1      34.874  31.015  28.210  1.00  0.00     0.040 A 
ATOM     71  F   UNL A   1      35.874  29.200  29.315  1.00  0.00    -0.206 F 
ATOM     72  C   UNL A   1      34.915  32.336  27.769  1.00  0.00     0.006 A 
ENDBRANCH  44  65
BRANCH  56  73
ATOM     73  C   UNL A   1      39.444  32.201  35.641  1.00  0.00     0.057 A 
ATOM     74  C   UNL A   1      39.896  33.522  35.727  1.00  0.00     0.134 A 
ATOM     75  C   UNL A   1      38.466  31.788  36.557  1.00  0.00     0.134 A 
ATOM     76  F   UNL A   1      40.837  33.976  34.885  1.00  0.00    -0.206 F 
ATOM     77  C   UNL A   1      39.389  34.402  36.684  1.00  0.00     0.040 A 
ATOM     78  C   UNL A   1      37.934  32.665  37.500  1.00  0.00     0.040 A 
ATOM     79  F   UNL A   1      37.982  30.537  36.517  1.00  0.00    -0.206 F 
ATOM     80  C   UNL A   1      38.394  33.977  37.565  1.00  0.00     0.006 A 
ENDBRANCH  56  73
ENDBRANCH  30  31
ENDBRANCH  23  25
ENDBRANCH  22  23
ENDBRANCH   1  22
TORSDOF 12
ENDMDL
MODEL 2
REMARK VINA RESULT:     -13.6      3.188      7.980
REMARK SMILES O=C(OCCOC(=O)c1ccc(-c2c3nc(c(-c4c(F)cccc4F)c4ccc([nH]4)c(-c4c(F)cccc4F)c4nc(c(-c5c(F)cccc5F)c5ccc2[nH]5)C=C4)C=C3)cc1)C1=Cc2c(Cl)ccc(Cl)c2O[C@@H]1C(F)(F)F
REMARK SMILES IDX 5 1 4 2 3 3 2 4 1 5 63 6 64 7 74 8 65 9 73 10 66 11 72 12
REMARK SMILES IDX 67 13 68 14 70 15 69 16 71 17 75 18 76 19 77 20 78 21 6 22
REMARK SMILES IDX 7 23 8 24 9 25 10 26 62 27 11 28 61 29 12 30 13 31 14 32
REMARK SMILES IDX 55 33 15 34 60 35 54 36 56 37 16 38 59 39 53 40 52 41 17 43
REMARK SMILES IDX 43 44 26 45 42 46 27 47 30 48 41 49 57 50 28 51 29 52 40 54
REMARK SMILES IDX 58 55 31 56 18 57 19 58 24 59 20 60 21 61 23 62 25 63 22 64
REMARK SMILES IDX 44 65 45 66 50 67 46 68 47 69 49 70 51 71 48 72 32 73 33 74
REMARK SMILES IDX 38 75 34 76 35 77 37 78 39 79 36 80
REMARK H PARENT 56 42 30 53
REMARK Flexibility Score: inf
ROOT
ATOM      1  C   UNL A   1      32.154  30.637  26.335  1.00  0.00     0.275 C 
ENDROOT
BRANCH   1   2
ATOM      2  C   UNL A   1      31.683  28.574  26.789  1.00  0.00     0.275 C 
BRANCH   2   3
ATOM      3  O   UNL A   1      32.643  27.350  26.600  1.00  0.00    -0.459 OA
BRANCH   3   4
ATOM      4  C   UNL A   1      32.024  26.245  26.165  1.00  0.00     0.338 C 
ATOM      5  O   UNL A   1      30.952  25.776  26.446  1.00  0.00    -0.246 OA
BRANCH   4   6
ATOM      6  C   UNL A   1      33.193  25.689  25.543  1.00  0.00     0.087 C 
ATOM      7  C   UNL A   1      33.583  24.423  26.219  1.00  0.00     0.029 C 
ATOM      8  C   UNL A   1      32.575  25.819  23.715  1.00  0.00     0.316 C 
ATOM      9  C   UNL A   1      33.404  22.777  25.452  1.00  0.00     0.037 A 
ATOM     10  O   UNL A   1      32.344  24.095  22.906  1.00  0.00    -0.474 OA
ATOM     11  C   UNL A   1      33.650  21.636  26.176  1.00  0.00     0.052 A 
ATOM     12  C   UNL A   1      32.725  22.589  23.857  1.00  0.00     0.148 A 
ATOM     13  Cl  UNL A   1      34.280  21.646  27.768  1.00  0.00    -0.084 Cl
ATOM     14  C   UNL A   1      33.321  20.425  25.539  1.00  0.00     0.023 A 
ATOM     15  C   UNL A   1      32.447  21.363  23.316  1.00  0.00     0.083 A 
ATOM     16  C   UNL A   1      32.756  20.298  24.197  1.00  0.00     0.026 A 
ATOM     17  Cl  UNL A   1      31.768  21.085  21.788  1.00  0.00    -0.080 Cl
BRANCH   8  18
ATOM     18  C   UNL A   1      33.348  27.084  23.228  1.00  0.00     0.430 C 
ATOM     19  F   UNL A   1      33.732  26.982  21.948  1.00  0.00    -0.167 F 
ATOM     20  F   UNL A   1      32.476  28.138  23.247  1.00  0.00    -0.167 F 
ATOM     21  F   UNL A   1      34.362  27.509  24.004  1.00  0.00    -0.167 F 
ENDBRANCH   8  18
ENDBRANCH   4   6
ENDBRANCH   3   4
ENDBRANCH   2   3
ENDBRANCH   1   2
BRANCH   1  22
ATOM     22  O   UNL A   1      32.822  31.778  27.390  1.00  0.00    -0.458 OA
BRANCH  22  23
ATOM     23  C   UNL A   1      32.883  33.113  27.677  1.00  0.00     0.338 C 
ATOM     24  O   UNL A   1      32.045  33.984  27.568  1.00  0.00    -0.246 OA
BRANCH  23  25
ATOM     25  C   UNL A   1      34.126  33.254  28.483  1.00  0.00     0.060 A 
ATOM     26  C   UNL A   1      34.237  32.538  29.686  1.00  0.00     0.016 A 
ATOM     27  C   UNL A   1      35.263  33.760  27.858  1.00  0.00     0.016 A 
ATOM     28  C   UNL A   1      35.501  32.107  30.115  1.00  0.00     0.010 A 
ATOM     29  C   UNL A   1      36.518  33.378  28.320  1.00  0.00     0.010 A 
ATOM     30  C   UNL A   1      36.644  32.487  29.399  1.00  0.00    -0.014 A 
BRANCH  30  31
ATOM     31  C   UNL A   1      38.014  32.181  29.872  1.00  0.00     0.031 A 
ATOM     32  C   UNL A   1      38.616  30.920  29.342  1.00  0.00     0.074 A 
ATOM     33  C   UNL A   1      38.615  32.867  30.864  1.00  0.00     0.049 A 
ATOM     34  N   UNL A   1      39.638  30.235  29.774  1.00  0.00    -0.248 NA
ATOM     35  C   UNL A   1      37.911  30.318  28.199  1.00  0.00     0.031 C 
ATOM     36  C   UNL A   1      38.127  34.106  31.469  1.00  0.00     0.029 A 
ATOM     37  N   UNL A   1      39.758  32.580  31.574  1.00  0.00    -0.354 N 
ATOM     38  C   UNL A   1      39.672  29.100  28.980  1.00  0.00     0.074 A 
ATOM     39  C   UNL A   1      38.549  29.171  28.073  1.00  0.00     0.031 C 
ATOM     40  C   UNL A   1      38.948  34.454  32.479  1.00  0.00     0.029 A 
ATOM     41  C   UNL A   1      39.999  33.447  32.616  1.00  0.00     0.049 A 
ATOM     42  H   UNL A   1      40.351  31.823  31.357  1.00  0.00     0.167 HD
ATOM     43  C   UNL A   1      40.556  28.079  29.001  1.00  0.00     0.037 A 
ATOM     44  C   UNL A   1      40.945  33.404  33.578  1.00  0.00     0.037 A 
ATOM     45  C   UNL A   1      41.647  27.994  29.924  1.00  0.00     0.049 A 
ATOM     46  C   UNL A   1      41.924  32.250  33.598  1.00  0.00     0.074 A 
ATOM     47  C   UNL A   1      42.613  27.014  30.033  1.00  0.00     0.029 A 
ATOM     48  N   UNL A   1      41.905  28.935  30.913  1.00  0.00    -0.354 N 
ATOM     49  N   UNL A   1      41.989  31.206  32.806  1.00  0.00    -0.248 NA
ATOM     50  C   UNL A   1      42.958  32.266  34.646  1.00  0.00     0.031 C 
ATOM     51  C   UNL A   1      43.438  27.343  31.114  1.00  0.00     0.029 A 
ATOM     52  C   UNL A   1      43.013  28.554  31.644  1.00  0.00     0.049 A 
ATOM     53  H   UNL A   1      41.376  29.750  31.069  1.00  0.00     0.167 HD
ATOM     54  C   UNL A   1      43.087  30.466  33.232  1.00  0.00     0.074 A 
ATOM     55  C   UNL A   1      43.659  31.177  34.356  1.00  0.00     0.031 C 
ATOM     56  C   UNL A   1      43.581  29.304  32.736  1.00  0.00     0.037 A 
BRANCH  43  57
ATOM     57  C   UNL A   1      40.302  26.978  28.019  1.00  0.00     0.057 A 
ATOM     58  C   UNL A   1      39.556  25.841  28.366  1.00  0.00     0.134 A 
ATOM     59  C   UNL A   1      40.924  26.989  26.766  1.00  0.00     0.134 A 
ATOM     60  F   UNL A   1      38.970  25.756  29.570  1.00  0.00    -0.206 F 
ATOM     61  C   UNL A   1      39.500  24.726  27.531  1.00  0.00     0.040 A 
ATOM     62  C   UNL A   1      40.844  25.893  25.907  1.00  0.00     0.040 A 
ATOM     63  F   UNL A   1      41.658  28.042  26.376  1.00  0.00    -0.206 F 
ATOM     64  C   UNL A   1      40.148  24.749  26.299  1.00  0.00     0.006 A 
ENDBRANCH  43  57
BRANCH  44  65
ATOM     65  C   UNL A   1      41.036  34.474  34.612  1.00  0.00     0.057 A 
ATOM     66  C   UNL A   1      40.361  34.351  35.834  1.00  0.00     0.134 A 
ATOM     67  C   UNL A   1      41.748  35.658  34.394  1.00  0.00     0.134 A 
ATOM     68  F   UNL A   1      39.632  33.256  36.093  1.00  0.00    -0.206 F 
ATOM     69  C   UNL A   1      40.376  35.371  36.790  1.00  0.00     0.040 A 
ATOM     70  C   UNL A   1      41.789  36.678  35.349  1.00  0.00     0.040 A 
ATOM     71  F   UNL A   1      42.411  35.848  33.242  1.00  0.00    -0.206 F 
ATOM     72  C   UNL A   1      41.096  36.538  36.550  1.00  0.00     0.006 A 
ENDBRANCH  44  65
BRANCH  56  73
ATOM     73  C   UNL A   1      44.836  28.753  33.346  1.00  0.00     0.057 A 
ATOM     74  C   UNL A   1      44.810  27.796  34.366  1.00  0.00     0.134 A 
ATOM     75  C   UNL A   1      46.085  29.094  32.807  1.00  0.00     0.134 A 
ATOM     76  F   UNL A   1      43.647  27.432  34.928  1.00  0.00    -0.206 F 
ATOM     77  C   UNL A   1      45.982  27.195  34.828  1.00  0.00     0.040 A 
ATOM     78  C   UNL A   1      47.259  28.482  33.244  1.00  0.00     0.040 A 
ATOM     79  F   UNL A   1      46.176  29.997  31.818  1.00  0.00    -0.206 F 
ATOM     80  C   UNL A   1      47.209  27.528  34.256  1.00  0.00     0.006 A 
ENDBRANCH  56  73
ENDBRANCH  30  31
ENDBRANCH  23  25
ENDBRANCH  22  23
ENDBRANCH   1  22
TORSDOF 12
ENDMDL
MODEL 3
REMARK VINA RESULT:     -13.6      3.417      8.101
REMARK SMILES O=C(OCCOC(=O)c1ccc(-c2c3nc(c(-c4c(F)cccc4F)c4ccc([nH]4)c(-c4c(F)cccc4F)c4nc(c(-c5c(F)cccc5F)c5ccc2[nH]5)C=C4)C=C3)cc1)C1=Cc2c(Cl)ccc(Cl)c2O[C@@H]1C(F)(F)F
REMARK SMILES IDX 5 1 4 2 3 3 2 4 1 5 63 6 64 7 74 8 65 9 73 10 66 11 72 12
REMARK SMILES IDX 67 13 68 14 70 15 69 16 71 17 75 18 76 19 77 20 78 21 6 22
REMARK SMILES IDX 7 23 8 24 9 25 10 26 62 27 11 28 61 29 12 30 13 31 14 32
REMARK SMILES IDX 55 33 15 34 60 35 54 36 56 37 16 38 59 39 53 40 52 41 17 43
REMARK SMILES IDX 43 44 26 45 42 46 27 47 30 48 41 49 57 50 28 51 29 52 40 54
REMARK SMILES IDX 58 55 31 56 18 57 19 58 24 59 20 60 21 61 23 62 25 63 22 64
REMARK SMILES IDX 44 65 45 66 50 67 46 68 47 69 49 70 51 71 48 72 32 73 33 74
REMARK SMILES IDX 38 75 34 76 35 77 37 78 39 79 36 80
REMARK H PARENT 56 42 30 53
REMARK Flexibility Score: inf
ROOT
ATOM      1  C   UNL A   1      32.111  32.276  26.892  1.00  0.00     0.275 C 
ENDROOT
BRANCH   1   2
ATOM      2  C   UNL A   1      33.637  30.744  26.845  1.00  0.00     0.275 C 
BRANCH   2   3
ATOM      3  O   UNL A   1      33.595  29.429  25.993  1.00  0.00    -0.459 OA
BRANCH   3   4
ATOM      4  C   UNL A   1      32.992  28.408  26.613  1.00  0.00     0.338 C 
ATOM      5  O   UNL A   1      32.799  28.193  27.782  1.00  0.00    -0.246 OA
BRANCH   4   6
ATOM      6  C   UNL A   1      32.973  27.558  25.455  1.00  0.00     0.087 C 
ATOM      7  C   UNL A   1      33.972  26.466  25.602  1.00  0.00     0.029 C 
ATOM      8  C   UNL A   1      31.059  27.299  25.379  1.00  0.00     0.316 C 
ATOM      9  C   UNL A   1      33.520  24.719  25.870  1.00  0.00     0.037 A 
ATOM     10  O   UNL A   1      30.563  25.473  25.697  1.00  0.00    -0.474 OA
ATOM     11  C   UNL A   1      34.483  23.778  26.138  1.00  0.00     0.052 A 
ATOM     12  C   UNL A   1      31.853  24.223  25.998  1.00  0.00     0.148 A 
ATOM     13  Cl  UNL A   1      36.163  24.108  26.093  1.00  0.00    -0.084 Cl
ATOM     14  C   UNL A   1      34.011  22.500  26.491  1.00  0.00     0.023 A 
ATOM     15  C   UNL A   1      31.489  22.949  26.339  1.00  0.00     0.083 A 
ATOM     16  C   UNL A   1      32.605  22.113  26.586  1.00  0.00     0.026 A 
ATOM     17  Cl  UNL A   1      29.899  22.385  26.509  1.00  0.00    -0.080 Cl
BRANCH   8  18
ATOM     18  C   UNL A   1      30.670  28.282  24.230  1.00  0.00     0.430 C 
ATOM     19  F   UNL A   1      31.403  28.084  23.126  1.00  0.00    -0.167 F 
ATOM     20  F   UNL A   1      29.388  27.994  23.853  1.00  0.00    -0.167 F 
ATOM     21  F   UNL A   1      30.614  29.589  24.545  1.00  0.00    -0.167 F 
ENDBRANCH   8  18
ENDBRANCH   4   6
ENDBRANCH   3   4
ENDBRANCH   2   3
ENDBRANCH   1   2
BRANCH   1  22
ATOM     22  O   UNL A   1      32.219  33.790  27.638  1.00  0.00    -0.458 OA
BRANCH  22  23
ATOM     23  C   UNL A   1      32.894  34.508  28.585  1.00  0.00     0.338 C 
ATOM     24  O   UNL A   1      32.526  35.416  29.301  1.00  0.00    -0.246 OA
BRANCH  23  25
ATOM     25  C   UNL A   1      34.140  33.725  28.814  1.00  0.00     0.060 A 
ATOM     26  C   UNL A   1      35.336  34.172  28.230  1.00  0.00     0.016 A 
ATOM     27  C   UNL A   1      34.169  32.829  29.879  1.00  0.00     0.016 A 
ATOM     28  C   UNL A   1      36.553  33.927  28.883  1.00  0.00     0.010 A 
ATOM     29  C   UNL A   1      35.384  32.541  30.490  1.00  0.00     0.010 A 
ATOM     30  C   UNL A   1      36.571  33.148  30.048  1.00  0.00    -0.014 A 
BRANCH  30  31
ATOM     31  C   UNL A   1      37.832  32.740  30.709  1.00  0.00     0.031 A 
ATOM     32  C   UNL A   1      38.509  31.540  30.131  1.00  0.00     0.074 A 
ATOM     33  C   UNL A   1      38.251  33.272  31.875  1.00  0.00     0.049 A 
ATOM     34  N   UNL A   1      39.432  30.773  30.641  1.00  0.00    -0.248 NA
ATOM     35  C   UNL A   1      38.016  31.114  28.812  1.00  0.00     0.031 C 
ATOM     36  C   UNL A   1      37.672  34.437  32.544  1.00  0.00     0.029 A 
ATOM     37  N   UNL A   1      39.246  32.860  32.730  1.00  0.00    -0.354 N 
ATOM     38  C   UNL A   1      39.598  29.750  29.721  1.00  0.00     0.074 A 
ATOM     39  C   UNL A   1      38.657  29.973  28.649  1.00  0.00     0.031 C 
ATOM     40  C   UNL A   1      38.302  34.625  33.720  1.00  0.00     0.029 A 
ATOM     41  C   UNL A   1      39.304  33.577  33.905  1.00  0.00     0.049 A 
ATOM     42  H   UNL A   1      39.862  32.120  32.522  1.00  0.00     0.167 HD
ATOM     43  C   UNL A   1      40.456  28.707  29.763  1.00  0.00     0.037 A 
ATOM     44  C   UNL A   1      40.062  33.380  35.004  1.00  0.00     0.037 A 
ATOM     45  C   UNL A   1      41.364  28.470  30.844  1.00  0.00     0.049 A 
ATOM     46  C   UNL A   1      41.012  32.203  35.043  1.00  0.00     0.074 A 
ATOM     47  C   UNL A   1      42.288  27.453  30.990  1.00  0.00     0.029 A 
ATOM     48  N   UNL A   1      41.448  29.265  31.979  1.00  0.00    -0.354 N 
ATOM     49  N   UNL A   1      41.210  31.269  34.143  1.00  0.00    -0.248 NA
ATOM     50  C   UNL A   1      41.842  32.049  36.249  1.00  0.00     0.031 C 
ATOM     51  C   UNL A   1      42.908  27.614  32.233  1.00  0.00     0.029 A 
ATOM     52  C   UNL A   1      42.405  28.759  32.836  1.00  0.00     0.049 A 
ATOM     53  H   UNL A   1      40.906  30.070  32.146  1.00  0.00     0.167 HD
ATOM     54  C   UNL A   1      42.208  30.445  34.653  1.00  0.00     0.074 A 
ATOM     55  C   UNL A   1      42.575  30.986  35.945  1.00  0.00     0.031 C 
ATOM     56  C   UNL A   1      42.774  29.342  34.102  1.00  0.00     0.037 A 
BRANCH  43  57
ATOM     57  C   UNL A   1      40.374  27.752  28.613  1.00  0.00     0.057 A 
ATOM     58  C   UNL A   1      39.636  26.561  28.699  1.00  0.00     0.134 A 
ATOM     59  C   UNL A   1      41.150  27.954  27.466  1.00  0.00     0.134 A 
ATOM     60  F   UNL A   1      38.905  26.293  29.792  1.00  0.00    -0.206 F 
ATOM     61  C   UNL A   1      39.731  25.574  27.718  1.00  0.00     0.040 A 
ATOM     62  C   UNL A   1      41.223  26.989  26.462  1.00  0.00     0.040 A 
ATOM     63  F   UNL A   1      41.884  29.067  27.325  1.00  0.00    -0.206 F 
ATOM     64  C   UNL A   1      40.529  25.786  26.597  1.00  0.00     0.006 A 
ENDBRANCH  43  57
BRANCH  44  65
ATOM     65  C   UNL A   1      39.974  34.303  36.171  1.00  0.00     0.057 A 
ATOM     66  C   UNL A   1      39.071  34.058  37.214  1.00  0.00     0.134 A 
ATOM     67  C   UNL A   1      40.743  35.469  36.253  1.00  0.00     0.134 A 
ATOM     68  F   UNL A   1      38.281  32.977  37.180  1.00  0.00    -0.206 F 
ATOM     69  C   UNL A   1      38.924  34.946  38.285  1.00  0.00     0.040 A 
ATOM     70  C   UNL A   1      40.621  36.355  37.328  1.00  0.00     0.040 A 
ATOM     71  F   UNL A   1      41.622  35.772  35.285  1.00  0.00    -0.206 F 
ATOM     72  C   UNL A   1      39.704  36.098  38.345  1.00  0.00     0.006 A 
ENDBRANCH  44  65
BRANCH  56  73
ATOM     73  C   UNL A   1      43.895  28.677  34.845  1.00  0.00     0.057 A 
ATOM     74  C   UNL A   1      45.226  29.082  34.701  1.00  0.00     0.134 A 
ATOM     75  C   UNL A   1      43.612  27.706  35.816  1.00  0.00     0.134 A 
ATOM     76  F   UNL A   1      45.563  30.002  33.784  1.00  0.00    -0.206 F 
ATOM     77  C   UNL A   1      46.239  28.546  35.498  1.00  0.00     0.040 A 
ATOM     78  C   UNL A   1      44.612  27.182  36.635  1.00  0.00     0.040 A 
ATOM     79  F   UNL A   1      42.353  27.286  36.011  1.00  0.00    -0.206 F 
ATOM     80  C   UNL A   1      45.929  27.604  36.479  1.00  0.00     0.006 A 
ENDBRANCH  56  73
ENDBRANCH  30  31
ENDBRANCH  23  25
ENDBRANCH  22  23
ENDBRANCH   1  22
TORSDOF 12
ENDMDL
