MODEL 1
REMARK VINA RESULT:     -13.1      0.000      0.000
REMARK SMILES CC(C)Cc1ccc(-c2cc(Cl)cc3c2O[C@H](C(F)(F)F)C(C(=O)OCCOC(=O)c2ccc(-c4c5nc(c(-c6c(F)cccc6F)c6ccc([nH]6)c(-c6c(F)cccc6F)c6nc(c(-c7c(F)cccc7F)c7ccc4[nH]7)C=C6)C=C5)cc2)=C3)cc1
REMARK SMILES IDX 26 1 25 2 23 3 24 4 22 5 9 6 10 7 15 8 11 9 14 10 16 11
REMARK SMILES IDX 12 12 13 13 85 14 17 15 8 16 5 17 6 18 87 19 7 20 86 21 4 22
REMARK SMILES IDX 2 23 1 24 3 25 18 26 19 27 20 28 21 29 27 30 28 31 29 32
REMARK SMILES IDX 30 33 31 34 32 35 84 36 33 37 83 38 34 39 35 40 36 41 77 42
REMARK SMILES IDX 37 43 82 44 76 45 78 46 38 47 81 48 75 49 74 50 39 52 65 53
REMARK SMILES IDX 48 54 64 55 49 56 52 57 63 58 79 59 50 60 51 61 62 63 80 64
REMARK SMILES IDX 53 65 40 66 41 67 46 68 42 69 43 70 45 71 47 72 44 73 66 74
REMARK SMILES IDX 67 75 72 76 68 77 69 78 71 79 73 80 70 81 54 82 55 83 60 84
REMARK SMILES IDX 56 85 57 86 59 87 61 88 58 89
REMARK H PARENT 78 51 52 62
REMARK Flexibility Score: inf
ROOT
ATOM      1  C   UNL A   1      30.851  29.062  24.381  1.00  0.00     0.275 C 
ENDROOT
BRANCH   1   2
ATOM      2  O   UNL A   1      30.656  27.871  25.187  1.00  0.00    -0.459 OA
BRANCH   2   3
ATOM      3  C   UNL A   1      30.640  26.719  24.469  1.00  0.00     0.338 C 
ATOM      4  O   UNL A   1      29.622  26.086  24.212  1.00  0.00    -0.246 OA
BRANCH   3   5
ATOM      5  C   UNL A   1      31.994  26.235  24.063  1.00  0.00     0.087 C 
ATOM      6  C   UNL A   1      32.334  22.223  24.469  1.00  0.00     0.026 A 
ATOM      7  C   UNL A   1      31.391  22.019  25.512  1.00  0.00     0.033 A 
ATOM      8  C   UNL A   1      32.652  23.572  24.250  1.00  0.00     0.135 A 
ATOM      9  C   UNL A   1      30.981  23.025  26.393  1.00  0.00     0.042 A 
ATOM     10  C   UNL A   1      32.448  24.500  25.306  1.00  0.00     0.019 A 
ATOM     11  O   UNL A   1      32.959  24.131  23.011  1.00  0.00    -0.475 OA
ATOM     12  Cl  UNL A   1      29.636  22.913  27.448  1.00  0.00    -0.084 Cl
ATOM     13  C   UNL A   1      31.636  24.223  26.388  1.00  0.00     0.032 A 
ATOM     14  C   UNL A   1      32.796  25.916  25.094  1.00  0.00     0.027 C 
ATOM     15  C   UNL A   1      32.274  25.473  22.779  1.00  0.00     0.316 C 
BRANCH   6  16
ATOM     16  C   UNL A   1      32.885  20.944  23.894  1.00  0.00    -0.015 A 
ATOM     17  C   UNL A   1      33.338  18.078  23.785  1.00  0.00    -0.048 A 
ATOM     18  C   UNL A   1      32.346  18.706  23.020  1.00  0.00     0.004 A 
ATOM     19  C   UNL A   1      34.162  18.913  24.544  1.00  0.00     0.004 A 
ATOM     20  C   UNL A   1      32.181  20.118  23.013  1.00  0.00     0.009 A 
ATOM     21  C   UNL A   1      33.935  20.309  24.598  1.00  0.00     0.009 A 
BRANCH  17  22
ATOM     22  C   UNL A   1      33.506  16.559  23.841  1.00  0.00     0.038 C 
BRANCH  22  23
ATOM     23  C   UNL A   1      33.875  15.962  25.224  1.00  0.00    -0.013 C 
ATOM     24  C   UNL A   1      33.016  14.739  25.553  1.00  0.00     0.008 C 
ATOM     25  C   UNL A   1      35.353  15.556  25.311  1.00  0.00     0.008 C 
ENDBRANCH  22  23
ENDBRANCH  17  22
ENDBRANCH   6  16
BRANCH  15  26
ATOM     26  C   UNL A   1      33.157  26.411  21.939  1.00  0.00     0.430 C 
ATOM     27  F   UNL A   1      32.808  27.711  22.104  1.00  0.00    -0.167 F 
ATOM     28  F   UNL A   1      34.467  26.297  22.240  1.00  0.00    -0.167 F 
ATOM     29  F   UNL A   1      33.032  26.143  20.612  1.00  0.00    -0.167 F 
ENDBRANCH  15  26
ENDBRANCH   3   5
ENDBRANCH   2   3
ENDBRANCH   1   2
BRANCH   1  30
ATOM     30  C   UNL A   1      31.106  30.340  25.190  1.00  0.00     0.275 C 
BRANCH  30  31
ATOM     31  O   UNL A   1      32.387  30.356  25.843  1.00  0.00    -0.458 OA
BRANCH  31  32
ATOM     32  C   UNL A   1      32.549  31.398  26.696  1.00  0.00     0.338 C 
ATOM     33  O   UNL A   1      31.778  32.328  26.845  1.00  0.00    -0.246 OA
BRANCH  32  34
ATOM     34  C   UNL A   1      33.749  31.220  27.556  1.00  0.00     0.060 A 
ATOM     35  C   UNL A   1      34.102  29.908  27.836  1.00  0.00     0.016 A 
ATOM     36  C   UNL A   1      34.501  32.260  28.123  1.00  0.00     0.016 A 
ATOM     37  C   UNL A   1      35.216  29.653  28.634  1.00  0.00     0.010 A 
ATOM     38  C   UNL A   1      35.639  31.977  28.925  1.00  0.00     0.010 A 
ATOM     39  C   UNL A   1      36.033  30.658  29.170  1.00  0.00    -0.014 A 
BRANCH  39  40
ATOM     40  C   UNL A   1      37.218  30.210  29.992  1.00  0.00     0.031 A 
ATOM     41  C   UNL A   1      38.362  29.511  29.314  1.00  0.00     0.074 A 
ATOM     42  C   UNL A   1      37.428  30.612  31.267  1.00  0.00     0.049 A 
ATOM     43  N   UNL A   1      39.515  29.150  29.815  1.00  0.00    -0.248 NA
ATOM     44  C   UNL A   1      38.190  29.183  27.891  1.00  0.00     0.031 C 
ATOM     45  C   UNL A   1      36.473  31.369  32.047  1.00  0.00     0.029 A 
ATOM     46  N   UNL A   1      38.518  30.531  32.110  1.00  0.00    -0.354 N 
ATOM     47  C   UNL A   1      40.204  28.551  28.776  1.00  0.00     0.074 A 
ATOM     48  C   UNL A   1      39.357  28.627  27.604  1.00  0.00     0.031 C 
ATOM     49  C   UNL A   1      37.054  31.848  33.156  1.00  0.00     0.029 A 
ATOM     50  C   UNL A   1      38.371  31.239  33.290  1.00  0.00     0.049 A 
ATOM     51  H   UNL A   1      39.328  30.016  31.892  1.00  0.00     0.167 HD
ATOM     52  C   UNL A   1      41.414  27.951  28.802  1.00  0.00     0.037 A 
ATOM     53  C   UNL A   1      39.152  31.332  34.390  1.00  0.00     0.037 A 
ATOM     54  C   UNL A   1      42.233  27.792  29.971  1.00  0.00     0.049 A 
ATOM     55  C   UNL A   1      40.398  30.488  34.451  1.00  0.00     0.074 A 
ATOM     56  C   UNL A   1      43.421  27.093  30.094  1.00  0.00     0.029 A 
ATOM     57  N   UNL A   1      41.947  28.320  31.220  1.00  0.00    -0.354 N 
ATOM     58  N   UNL A   1      40.987  29.821  33.491  1.00  0.00    -0.248 NA
ATOM     59  C   UNL A   1      41.049  30.345  35.765  1.00  0.00     0.031 C 
ATOM     60  C   UNL A   1      43.833  27.162  31.428  1.00  0.00     0.029 A 
ATOM     61  C   UNL A   1      42.934  27.954  32.121  1.00  0.00     0.049 A 
ATOM     62  H   UNL A   1      41.161  28.872  31.434  1.00  0.00     0.167 HD
ATOM     63  C   UNL A   1      42.069  29.182  34.080  1.00  0.00     0.074 A 
ATOM     64  C   UNL A   1      42.081  29.565  35.475  1.00  0.00     0.031 C 
ATOM     65  C   UNL A   1      42.961  28.340  33.508  1.00  0.00     0.037 A 
BRANCH  52  66
ATOM     66  C   UNL A   1      41.869  27.329  27.523  1.00  0.00     0.057 A 
ATOM     67  C   UNL A   1      42.547  28.065  26.545  1.00  0.00     0.134 A 
ATOM     68  C   UNL A   1      41.606  25.978  27.264  1.00  0.00     0.134 A 
ATOM     69  F   UNL A   1      42.795  29.371  26.728  1.00  0.00    -0.206 F 
ATOM     70  C   UNL A   1      42.934  27.479  25.340  1.00  0.00     0.040 A 
ATOM     71  C   UNL A   1      42.008  25.377  26.074  1.00  0.00     0.040 A 
ATOM     72  F   UNL A   1      40.950  25.228  28.163  1.00  0.00    -0.206 F 
ATOM     73  C   UNL A   1      42.668  26.130  25.106  1.00  0.00     0.006 A 
ENDBRANCH  52  66
BRANCH  53  74
ATOM     74  C   UNL A   1      38.732  32.116  35.595  1.00  0.00     0.057 A 
ATOM     75  C   UNL A   1      39.046  33.476  35.740  1.00  0.00     0.134 A 
ATOM     76  C   UNL A   1      38.089  31.505  36.683  1.00  0.00     0.134 A 
ATOM     77  F   UNL A   1      39.707  34.124  34.768  1.00  0.00    -0.206 F 
ATOM     78  C   UNL A   1      38.748  34.185  36.909  1.00  0.00     0.040 A 
ATOM     79  C   UNL A   1      37.742  32.211  37.837  1.00  0.00     0.040 A 
ATOM     80  F   UNL A   1      37.792  30.197  36.648  1.00  0.00    -0.206 F 
ATOM     81  C   UNL A   1      38.084  33.554  37.958  1.00  0.00     0.006 A 
ENDBRANCH  53  74
BRANCH  65  82
ATOM     82  C   UNL A   1      44.066  27.800  34.367  1.00  0.00     0.057 A 
ATOM     83  C   UNL A   1      43.975  26.554  35.000  1.00  0.00     0.134 A 
ATOM     84  C   UNL A   1      45.268  28.506  34.501  1.00  0.00     0.134 A 
ATOM     85  F   UNL A   1      42.846  25.833  34.927  1.00  0.00    -0.206 F 
ATOM     86  C   UNL A   1      45.040  26.032  35.739  1.00  0.00     0.040 A 
ATOM     87  C   UNL A   1      46.348  27.985  35.213  1.00  0.00     0.040 A 
ATOM     88  F   UNL A   1      45.421  29.705  33.916  1.00  0.00    -0.206 F 
ATOM     89  C   UNL A   1      46.235  26.744  35.836  1.00  0.00     0.006 A 
ENDBRANCH  65  82
ENDBRANCH  39  40
ENDBRANCH  32  34
ENDBRANCH  31  32
ENDBRANCH  30  31
ENDBRANCH   1  30
TORSDOF 15
ENDMDL
MODEL 2
REMARK VINA RESULT:     -12.2      2.374      3.157
REMARK SMILES CC(C)Cc1ccc(-c2cc(Cl)cc3c2O[C@H](C(F)(F)F)C(C(=O)OCCOC(=O)c2ccc(-c4c5nc(c(-c6c(F)cccc6F)c6ccc([nH]6)c(-c6c(F)cccc6F)c6nc(c(-c7c(F)cccc7F)c7ccc4[nH]7)C=C6)C=C5)cc2)=C3)cc1
REMARK SMILES IDX 26 1 25 2 23 3 24 4 22 5 9 6 10 7 15 8 11 9 14 10 16 11
REMARK SMILES IDX 12 12 13 13 85 14 17 15 8 16 5 17 6 18 87 19 7 20 86 21 4 22
REMARK SMILES IDX 2 23 1 24 3 25 18 26 19 27 20 28 21 29 27 30 28 31 29 32
REMARK SMILES IDX 30 33 31 34 32 35 84 36 33 37 83 38 34 39 35 40 36 41 77 42
REMARK SMILES IDX 37 43 82 44 76 45 78 46 38 47 81 48 75 49 74 50 39 52 65 53
REMARK SMILES IDX 48 54 64 55 49 56 52 57 63 58 79 59 50 60 51 61 62 63 80 64
REMARK SMILES IDX 53 65 40 66 41 67 46 68 42 69 43 70 45 71 47 72 44 73 66 74
REMARK SMILES IDX 67 75 72 76 68 77 69 78 71 79 73 80 70 81 54 82 55 83 60 84
REMARK SMILES IDX 56 85 57 86 59 87 61 88 58 89
REMARK H PARENT 78 51 52 62
REMARK Flexibility Score: inf
ROOT
ATOM      1  C   UNL A   1      32.015  27.699  25.302  1.00  0.00     0.275 C 
ENDROOT
BRANCH   1   2
ATOM      2  O   UNL A   1      31.007  26.872  25.939  1.00  0.00    -0.459 OA
BRANCH   2   3
ATOM      3  C   UNL A   1      30.161  26.267  25.067  1.00  0.00     0.338 C 
ATOM      4  O   UNL A   1      29.337  26.865  24.385  1.00  0.00    -0.246 OA
BRANCH   3   5
ATOM      5  C   UNL A   1      30.268  24.778  25.049  1.00  0.00     0.087 C 
ATOM      6  C   UNL A   1      33.907  23.552  23.772  1.00  0.00     0.026 A 
ATOM      7  C   UNL A   1      34.246  24.661  22.951  1.00  0.00     0.033 A 
ATOM      8  C   UNL A   1      32.566  23.540  24.181  1.00  0.00     0.135 A 
ATOM      9  C   UNL A   1      33.303  25.540  22.409  1.00  0.00     0.042 A 
ATOM     10  C   UNL A   1      31.612  24.256  23.410  1.00  0.00     0.019 A 
ATOM     11  O   UNL A   1      32.107  23.057  25.405  1.00  0.00    -0.475 OA
ATOM     12  Cl  UNL A   1      33.673  27.048  21.686  1.00  0.00    -0.084 Cl
ATOM     13  C   UNL A   1      31.975  25.236  22.507  1.00  0.00     0.032 A 
ATOM     14  C   UNL A   1      30.197  24.236  23.820  1.00  0.00     0.027 C 
ATOM     15  C   UNL A   1      31.072  23.970  26.054  1.00  0.00     0.316 C 
BRANCH   6  16
ATOM     16  C   UNL A   1      35.027  22.557  23.936  1.00  0.00    -0.015 A 
ATOM     17  C   UNL A   1      37.532  21.556  25.010  1.00  0.00    -0.048 A 
ATOM     18  C   UNL A   1      36.289  21.155  25.518  1.00  0.00     0.004 A 
ATOM     19  C   UNL A   1      37.508  22.401  23.898  1.00  0.00     0.004 A 
ATOM     20  C   UNL A   1      35.065  21.582  24.938  1.00  0.00     0.009 A 
ATOM     21  C   UNL A   1      36.285  22.890  23.379  1.00  0.00     0.009 A 
BRANCH  17  22
ATOM     22  C   UNL A   1      38.861  21.143  25.645  1.00  0.00     0.038 C 
BRANCH  22  23
ATOM     23  C   UNL A   1      39.460  22.129  26.682  1.00  0.00    -0.013 C 
ATOM     24  C   UNL A   1      40.989  22.133  26.634  1.00  0.00     0.008 C 
ATOM     25  C   UNL A   1      38.963  23.568  26.477  1.00  0.00     0.008 C 
ENDBRANCH  22  23
ENDBRANCH  17  22
ENDBRANCH   6  16
BRANCH  15  26
ATOM     26  C   UNL A   1      30.030  23.159  26.843  1.00  0.00     0.430 C 
ATOM     27  F   UNL A   1      28.935  23.902  27.141  1.00  0.00    -0.167 F 
ATOM     28  F   UNL A   1      29.613  22.063  26.176  1.00  0.00    -0.167 F 
ATOM     29  F   UNL A   1      30.540  22.730  28.029  1.00  0.00    -0.167 F 
ENDBRANCH  15  26
ENDBRANCH   3   5
ENDBRANCH   2   3
ENDBRANCH   1   2
BRANCH   1  30
ATOM     30  C   UNL A   1      31.674  29.194  25.258  1.00  0.00     0.275 C 
BRANCH  30  31
ATOM     31  O   UNL A   1      32.823  30.045  25.415  1.00  0.00    -0.458 OA
BRANCH  31  32
ATOM     32  C   UNL A   1      32.738  30.881  26.480  1.00  0.00     0.338 C 
ATOM     33  O   UNL A   1      31.774  31.560  26.782  1.00  0.00    -0.246 OA
BRANCH  32  34
ATOM     34  C   UNL A   1      33.941  30.787  27.347  1.00  0.00     0.060 A 
ATOM     35  C   UNL A   1      34.325  29.504  27.711  1.00  0.00     0.016 A 
ATOM     36  C   UNL A   1      34.670  31.879  27.843  1.00  0.00     0.016 A 
ATOM     37  C   UNL A   1      35.445  29.327  28.522  1.00  0.00     0.010 A 
ATOM     38  C   UNL A   1      35.815  31.675  28.660  1.00  0.00     0.010 A 
ATOM     39  C   UNL A   1      36.239  30.384  28.990  1.00  0.00    -0.014 A 
BRANCH  39  40
ATOM     40  C   UNL A   1      37.435  30.018  29.836  1.00  0.00     0.031 A 
ATOM     41  C   UNL A   1      38.620  29.359  29.191  1.00  0.00     0.074 A 
ATOM     42  C   UNL A   1      37.608  30.463  31.102  1.00  0.00     0.049 A 
ATOM     43  N   UNL A   1      39.783  29.068  29.714  1.00  0.00    -0.248 NA
ATOM     44  C   UNL A   1      38.482  28.985  27.775  1.00  0.00     0.031 C 
ATOM     45  C   UNL A   1      36.608  31.192  31.851  1.00  0.00     0.029 A 
ATOM     46  N   UNL A   1      38.690  30.459  31.960  1.00  0.00    -0.354 N 
ATOM     47  C   UNL A   1      40.513  28.478  28.699  1.00  0.00     0.074 A 
ATOM     48  C   UNL A   1      39.678  28.480  27.517  1.00  0.00     0.031 C 
ATOM     49  C   UNL A   1      37.150  31.729  32.953  1.00  0.00     0.029 A 
ATOM     50  C   UNL A   1      38.494  31.190  33.118  1.00  0.00     0.049 A 
ATOM     51  H   UNL A   1      39.528  29.979  31.764  1.00  0.00     0.167 HD
ATOM     52  C   UNL A   1      41.752  27.939  28.755  1.00  0.00     0.037 A 
ATOM     53  C   UNL A   1      39.256  31.352  34.224  1.00  0.00     0.037 A 
ATOM     54  C   UNL A   1      42.562  27.853  29.936  1.00  0.00     0.049 A 
ATOM     55  C   UNL A   1      40.541  30.573  34.321  1.00  0.00     0.074 A 
ATOM     56  C   UNL A   1      43.782  27.218  30.092  1.00  0.00     0.029 A 
ATOM     57  N   UNL A   1      42.236  28.399  31.167  1.00  0.00    -0.354 N 
ATOM     58  N   UNL A   1      41.174  29.910  33.386  1.00  0.00    -0.248 NA
ATOM     59  C   UNL A   1      41.182  30.497  35.645  1.00  0.00     0.031 C 
ATOM     60  C   UNL A   1      44.174  27.342  31.428  1.00  0.00     0.029 A 
ATOM     61  C   UNL A   1      43.228  28.107  32.089  1.00  0.00     0.049 A 
ATOM     62  H   UNL A   1      41.421  28.916  31.358  1.00  0.00     0.167 HD
ATOM     63  C   UNL A   1      42.280  29.343  34.005  1.00  0.00     0.074 A 
ATOM     64  C   UNL A   1      42.256  29.762  35.388  1.00  0.00     0.031 C 
ATOM     65  C   UNL A   1      43.219  28.530  33.466  1.00  0.00     0.037 A 
BRANCH  52  66
ATOM     66  C   UNL A   1      42.253  27.306  27.499  1.00  0.00     0.057 A 
ATOM     67  C   UNL A   1      42.934  28.042  26.524  1.00  0.00     0.134 A 
ATOM     68  C   UNL A   1      42.030  25.945  27.258  1.00  0.00     0.134 A 
ATOM     69  F   UNL A   1      43.146  29.357  26.688  1.00  0.00    -0.206 F 
ATOM     70  C   UNL A   1      43.365  27.445  25.339  1.00  0.00     0.040 A 
ATOM     71  C   UNL A   1      42.475  25.334  26.089  1.00  0.00     0.040 A 
ATOM     72  F   UNL A   1      41.372  25.194  28.155  1.00  0.00    -0.206 F 
ATOM     73  C   UNL A   1      43.139  26.086  25.123  1.00  0.00     0.006 A 
ENDBRANCH  52  66
BRANCH  53  74
ATOM     74  C   UNL A   1      38.783  32.146  35.402  1.00  0.00     0.057 A 
ATOM     75  C   UNL A   1      39.052  33.517  35.526  1.00  0.00     0.134 A 
ATOM     76  C   UNL A   1      38.132  31.536  36.486  1.00  0.00     0.134 A 
ATOM     77  F   UNL A   1      39.716  34.166  34.558  1.00  0.00    -0.206 F 
ATOM     78  C   UNL A   1      38.704  34.240  36.673  1.00  0.00     0.040 A 
ATOM     79  C   UNL A   1      37.736  32.254  37.616  1.00  0.00     0.040 A 
ATOM     80  F   UNL A   1      37.876  30.219  36.471  1.00  0.00    -0.206 F 
ATOM     81  C   UNL A   1      38.033  33.609  37.719  1.00  0.00     0.006 A 
ENDBRANCH  53  74
BRANCH  65  82
ATOM     82  C   UNL A   1      44.339  28.069  34.350  1.00  0.00     0.057 A 
ATOM     83  C   UNL A   1      44.297  26.843  35.025  1.00  0.00     0.134 A 
ATOM     84  C   UNL A   1      45.507  28.833  34.469  1.00  0.00     0.134 A 
ATOM     85  F   UNL A   1      43.202  26.070  34.968  1.00  0.00    -0.206 F 
ATOM     86  C   UNL A   1      45.377  26.394  35.790  1.00  0.00     0.040 A 
ATOM     87  C   UNL A   1      46.602  28.384  35.208  1.00  0.00     0.040 A 
ATOM     88  F   UNL A   1      45.613  30.016  33.846  1.00  0.00    -0.206 F 
ATOM     89  C   UNL A   1      46.539  27.161  35.871  1.00  0.00     0.006 A 
ENDBRANCH  65  82
ENDBRANCH  39  40
ENDBRANCH  32  34
ENDBRANCH  31  32
ENDBRANCH  30  31
ENDBRANCH   1  30
TORSDOF 15
ENDMDL
MODEL 3
REMARK VINA RESULT:     -12.2      4.339      8.634
REMARK SMILES CC(C)Cc1ccc(-c2cc(Cl)cc3c2O[C@H](C(F)(F)F)C(C(=O)OCCOC(=O)c2ccc(-c4c5nc(c(-c6c(F)cccc6F)c6ccc([nH]6)c(-c6c(F)cccc6F)c6nc(c(-c7c(F)cccc7F)c7ccc4[nH]7)C=C6)C=C5)cc2)=C3)cc1
REMARK SMILES IDX 26 1 25 2 23 3 24 4 22 5 9 6 10 7 15 8 11 9 14 10 16 11
REMARK SMILES IDX 12 12 13 13 85 14 17 15 8 16 5 17 6 18 87 19 7 20 86 21 4 22
REMARK SMILES IDX 2 23 1 24 3 25 18 26 19 27 20 28 21 29 27 30 28 31 29 32
REMARK SMILES IDX 30 33 31 34 32 35 84 36 33 37 83 38 34 39 35 40 36 41 77 42
REMARK SMILES IDX 37 43 82 44 76 45 78 46 38 47 81 48 75 49 74 50 39 52 65 53
REMARK SMILES IDX 48 54 64 55 49 56 52 57 63 58 79 59 50 60 51 61 62 63 80 64
REMARK SMILES IDX 53 65 40 66 41 67 46 68 42 69 43 70 45 71 47 72 44 73 66 74
REMARK SMILES IDX 67 75 72 76 68 77 69 78 71 79 73 80 70 81 54 82 55 83 60 84
REMARK SMILES IDX 56 85 57 86 59 87 61 88 58 89
REMARK H PARENT 78 51 52 62
REMARK Flexibility Score: inf
ROOT
ATOM      1  C   UNL A   1      45.006  22.777  25.379  1.00  0.00     0.275 C 
ENDROOT
BRANCH   1   2
ATOM      2  O   UNL A   1      43.600  22.872  25.723  1.00  0.00    -0.459 OA
BRANCH   2   3
ATOM      3  C   UNL A   1      43.335  22.611  27.028  1.00  0.00     0.338 C 
ATOM      4  O   UNL A   1      43.875  23.188  27.966  1.00  0.00    -0.246 OA
BRANCH   3   5
ATOM      5  C   UNL A   1      42.362  21.498  27.243  1.00  0.00     0.087 C 
ATOM      6  C   UNL A   1      38.661  22.468  25.923  1.00  0.00     0.026 A 
ATOM      7  C   UNL A   1      38.727  23.879  26.077  1.00  0.00     0.033 A 
ATOM      8  C   UNL A   1      39.719  21.782  26.538  1.00  0.00     0.135 A 
ATOM      9  C   UNL A   1      39.619  24.522  26.940  1.00  0.00     0.042 A 
ATOM     10  C   UNL A   1      40.415  22.416  27.602  1.00  0.00     0.019 A 
ATOM     11  O   UNL A   1      40.295  20.605  26.062  1.00  0.00    -0.475 OA
ATOM     12  Cl  UNL A   1      39.949  26.203  26.930  1.00  0.00    -0.084 Cl
ATOM     13  C   UNL A   1      40.349  23.777  27.822  1.00  0.00     0.032 A 
ATOM     14  C   UNL A   1      41.515  21.697  28.268  1.00  0.00     0.027 C 
ATOM     15  C   UNL A   1      41.818  20.619  26.130  1.00  0.00     0.316 C 
BRANCH   6  16
ATOM     16  C   UNL A   1      37.409  21.993  25.232  1.00  0.00    -0.015 A 
ATOM     17  C   UNL A   1      34.793  20.742  25.075  1.00  0.00    -0.048 A 
ATOM     18  C   UNL A   1      34.953  22.133  25.146  1.00  0.00     0.004 A 
ATOM     19  C   UNL A   1      35.964  19.984  24.997  1.00  0.00     0.004 A 
ATOM     20  C   UNL A   1      36.235  22.745  25.140  1.00  0.00     0.009 A 
ATOM     21  C   UNL A   1      37.237  20.596  25.078  1.00  0.00     0.009 A 
BRANCH  17  22
ATOM     22  C   UNL A   1      33.426  20.060  25.124  1.00  0.00     0.038 C 
BRANCH  22  23
ATOM     23  C   UNL A   1      33.121  19.055  23.983  1.00  0.00    -0.013 C 
ATOM     24  C   UNL A   1      32.515  17.758  24.525  1.00  0.00     0.008 C 
ATOM     25  C   UNL A   1      32.166  19.636  22.930  1.00  0.00     0.008 C 
ENDBRANCH  22  23
ENDBRANCH  17  22
ENDBRANCH   6  16
BRANCH  15  26
ATOM     26  C   UNL A   1      42.375  19.214  26.418  1.00  0.00     0.430 C 
ATOM     27  F   UNL A   1      43.632  19.063  25.930  1.00  0.00    -0.167 F 
ATOM     28  F   UNL A   1      42.410  18.931  27.736  1.00  0.00    -0.167 F 
ATOM     29  F   UNL A   1      41.614  18.255  25.827  1.00  0.00    -0.167 F 
ENDBRANCH  15  26
ENDBRANCH   3   5
ENDBRANCH   2   3
ENDBRANCH   1   2
BRANCH   1  30
ATOM     30  C   UNL A   1      45.671  24.119  25.048  1.00  0.00     0.275 C 
BRANCH  30  31
ATOM     31  O   UNL A   1      44.727  25.172  24.781  1.00  0.00    -0.458 OA
BRANCH  31  32
ATOM     32  C   UNL A   1      45.177  26.405  25.126  1.00  0.00     0.338 C 
ATOM     33  O   UNL A   1      45.961  27.084  24.490  1.00  0.00    -0.246 OA
BRANCH  32  34
ATOM     34  C   UNL A   1      44.494  26.916  26.343  1.00  0.00     0.060 A 
ATOM     35  C   UNL A   1      44.882  28.179  26.768  1.00  0.00     0.016 A 
ATOM     36  C   UNL A   1      43.543  26.211  27.095  1.00  0.00     0.016 A 
ATOM     37  C   UNL A   1      44.289  28.734  27.900  1.00  0.00     0.010 A 
ATOM     38  C   UNL A   1      42.944  26.799  28.241  1.00  0.00     0.010 A 
ATOM     39  C   UNL A   1      43.291  28.092  28.647  1.00  0.00    -0.014 A 
BRANCH  39  40
ATOM     40  C   UNL A   1      42.733  28.843  29.832  1.00  0.00     0.031 A 
ATOM     41  C   UNL A   1      41.371  29.468  29.733  1.00  0.00     0.074 A 
ATOM     42  C   UNL A   1      43.282  28.788  31.067  1.00  0.00     0.049 A 
ATOM     43  N   UNL A   1      40.668  30.055  30.667  1.00  0.00    -0.248 NA
ATOM     44  C   UNL A   1      40.712  29.420  28.419  1.00  0.00     0.031 C 
ATOM     45  C   UNL A   1      44.546  28.151  31.366  1.00  0.00     0.029 A 
ATOM     46  N   UNL A   1      42.835  29.181  32.313  1.00  0.00    -0.354 N 
ATOM     47  C   UNL A   1      39.491  30.449  30.058  1.00  0.00     0.074 A 
ATOM     48  C   UNL A   1      39.554  30.005  28.681  1.00  0.00     0.031 C 
ATOM     49  C   UNL A   1      44.699  28.018  32.691  1.00  0.00     0.029 A 
ATOM     50  C   UNL A   1      43.645  28.771  33.357  1.00  0.00     0.049 A 
ATOM     51  H   UNL A   1      42.013  29.707  32.446  1.00  0.00     0.167 HD
ATOM     52  C   UNL A   1      38.465  31.157  30.582  1.00  0.00     0.037 A 
ATOM     53  C   UNL A   1      43.606  29.027  34.684  1.00  0.00     0.037 A 
ATOM     54  C   UNL A   1      38.420  31.677  31.920  1.00  0.00     0.049 A 
ATOM     55  C   UNL A   1      42.558  29.983  35.193  1.00  0.00     0.074 A 
ATOM     56  C   UNL A   1      37.462  32.501  32.485  1.00  0.00     0.029 A 
ATOM     57  N   UNL A   1      39.373  31.443  32.898  1.00  0.00    -0.354 N 
ATOM     58  N   UNL A   1      41.504  30.452  34.575  1.00  0.00    -0.248 NA
ATOM     59  C   UNL A   1      42.732  30.506  36.559  1.00  0.00     0.031 C 
ATOM     60  C   UNL A   1      37.858  32.802  33.791  1.00  0.00     0.029 A 
ATOM     61  C   UNL A   1      39.030  32.115  34.060  1.00  0.00     0.049 A 
ATOM     62  H   UNL A   1      40.175  30.884  32.783  1.00  0.00     0.167 HD
ATOM     63  C   UNL A   1      40.893  31.320  35.470  1.00  0.00     0.074 A 
ATOM     64  C   UNL A   1      41.672  31.292  36.688  1.00  0.00     0.031 C 
ATOM     65  C   UNL A   1      39.792  32.084  35.281  1.00  0.00     0.037 A 
BRANCH  52  66
ATOM     66  C   UNL A   1      37.349  31.491  29.649  1.00  0.00     0.057 A 
ATOM     67  C   UNL A   1      37.309  32.705  28.955  1.00  0.00     0.134 A 
ATOM     68  C   UNL A   1      36.294  30.591  29.461  1.00  0.00     0.134 A 
ATOM     69  F   UNL A   1      38.277  33.618  29.123  1.00  0.00    -0.206 F 
ATOM     70  C   UNL A   1      36.241  33.019  28.113  1.00  0.00     0.040 A 
ATOM     71  C   UNL A   1      35.234  30.885  28.607  1.00  0.00     0.040 A 
ATOM     72  F   UNL A   1      36.276  29.417  30.111  1.00  0.00    -0.206 F 
ATOM     73  C   UNL A   1      35.204  32.105  27.935  1.00  0.00     0.006 A 
ENDBRANCH  52  66
BRANCH  53  74
ATOM     74  C   UNL A   1      44.661  28.522  35.620  1.00  0.00     0.057 A 
ATOM     75  C   UNL A   1      44.478  27.357  36.381  1.00  0.00     0.134 A 
ATOM     76  C   UNL A   1      45.842  29.243  35.855  1.00  0.00     0.134 A 
ATOM     77  F   UNL A   1      43.353  26.637  36.255  1.00  0.00    -0.206 F 
ATOM     78  C   UNL A   1      45.416  26.940  37.332  1.00  0.00     0.040 A 
ATOM     79  C   UNL A   1      46.808  28.813  36.766  1.00  0.00     0.040 A 
ATOM     80  F   UNL A   1      46.076  30.393  35.204  1.00  0.00    -0.206 F 
ATOM     81  C   UNL A   1      46.591  27.664  37.519  1.00  0.00     0.006 A 
ENDBRANCH  53  74
BRANCH  65  82
ATOM     82  C   UNL A   1      39.317  32.925  36.428  1.00  0.00     0.057 A 
ATOM     83  C   UNL A   1      38.396  32.448  37.368  1.00  0.00     0.134 A 
ATOM     84  C   UNL A   1      39.846  34.206  36.633  1.00  0.00     0.134 A 
ATOM     85  F   UNL A   1      37.837  31.237  37.222  1.00  0.00    -0.206 F 
ATOM     86  C   UNL A   1      38.015  33.217  38.471  1.00  0.00     0.040 A 
ATOM     87  C   UNL A   1      39.494  34.973  37.744  1.00  0.00     0.040 A 
ATOM     88  F   UNL A   1      40.735  34.721  35.770  1.00  0.00    -0.206 F 
ATOM     89  C   UNL A   1      38.575  34.479  38.667  1.00  0.00     0.006 A 
ENDBRANCH  65  82
ENDBRANCH  39  40
ENDBRANCH  32  34
ENDBRANCH  31  32
ENDBRANCH  30  31
ENDBRANCH   1  30
TORSDOF 15
ENDMDL
