MODEL 1
REMARK VINA RESULT:     -12.0      0.000      0.000
REMARK SMILES O=C(OCCOC(=O)c1cc(Br)ccc1N1CC2(CCCCC2)C1)c1ccc(-c2c3nc(c(-c4c(F)cccc4F)c4ccc([nH]4)c(-c4c(F)cccc4F)c4nc(c(-c5c(F)cccc5F)c5ccc2[nH]5)C=C4)C=C3)cc1
REMARK SMILES IDX 4 1 3 2 2 3 1 4 25 5 26 6 78 7 27 8 77 9 28 10 29 11 30 12
REMARK SMILES IDX 71 13 31 14 76 15 70 16 72 17 32 18 75 19 69 20 68 21 33 23
REMARK SMILES IDX 59 24 42 25 58 26 43 27 46 28 57 29 73 30 44 31 45 32 56 34
REMARK SMILES IDX 74 35 47 36 34 37 35 38 40 39 36 40 37 41 39 42 41 43 38 44
REMARK SMILES IDX 60 45 61 46 66 47 62 48 63 49 65 50 67 51 64 52 48 53 49 54
REMARK SMILES IDX 54 55 50 56 51 57 53 58 55 59 52 60 5 61 6 62 7 63 8 64 9 65
REMARK SMILES IDX 10 66 15 67 11 68 14 69 12 70 13 71 16 72 17 73 24 74 18 75
REMARK SMILES IDX 19 76 23 77 20 78 22 79 21 80
REMARK H PARENT 72 22 46 33
REMARK Flexibility Score: inf
ROOT
ATOM      1  C   UNL A   1      32.077  32.170  27.177  1.00  0.00     0.275 C 
ENDROOT
BRANCH   1   2
ATOM      2  O   UNL A   1      32.956  33.293  27.152  1.00  0.00    -0.458 OA
BRANCH   2   3
ATOM      3  C   UNL A   1      33.169  33.862  28.364  1.00  0.00     0.338 C 
ATOM      4  O   UNL A   1      32.532  34.780  28.861  1.00  0.00    -0.246 OA
BRANCH   3   5
ATOM      5  C   UNL A   1      34.470  33.355  28.857  1.00  0.00     0.060 A 
ATOM      6  C   UNL A   1      34.501  32.337  29.815  1.00  0.00     0.016 A 
ATOM      7  C   UNL A   1      35.654  33.782  28.243  1.00  0.00     0.016 A 
ATOM      8  C   UNL A   1      35.703  31.746  30.153  1.00  0.00     0.010 A 
ATOM      9  C   UNL A   1      36.861  33.156  28.548  1.00  0.00     0.010 A 
ATOM     10  C   UNL A   1      36.885  32.156  29.526  1.00  0.00    -0.014 A 
BRANCH  10  11
ATOM     11  C   UNL A   1      38.143  31.623  30.073  1.00  0.00     0.031 A 
ATOM     12  C   UNL A   1      38.526  32.038  31.458  1.00  0.00     0.074 A 
ATOM     13  C   UNL A   1      38.797  30.649  29.420  1.00  0.00     0.049 A 
ATOM     14  N   UNL A   1      39.408  31.505  32.259  1.00  0.00    -0.248 NA
ATOM     15  C   UNL A   1      37.790  33.175  32.036  1.00  0.00     0.031 C 
ATOM     16  C   UNL A   1      38.445  30.141  28.095  1.00  0.00     0.029 A 
ATOM     17  N   UNL A   1      39.871  29.890  29.795  1.00  0.00    -0.354 N 
ATOM     18  C   UNL A   1      39.280  32.195  33.455  1.00  0.00     0.074 A 
ATOM     19  C   UNL A   1      38.310  33.245  33.250  1.00  0.00     0.031 C 
ATOM     20  C   UNL A   1      39.304  29.164  27.757  1.00  0.00     0.029 A 
ATOM     21  C   UNL A   1      40.254  28.976  28.845  1.00  0.00     0.049 A 
ATOM     22  H   UNL A   1      40.326  29.989  30.663  1.00  0.00     0.167 HD
ATOM     23  C   UNL A   1      39.881  31.934  34.636  1.00  0.00     0.037 A 
ATOM     24  C   UNL A   1      41.257  28.082  28.866  1.00  0.00     0.037 A 
ATOM     25  C   UNL A   1      40.864  30.904  34.808  1.00  0.00     0.049 A 
ATOM     26  C   UNL A   1      42.024  27.912  30.144  1.00  0.00     0.074 A 
ATOM     27  C   UNL A   1      41.563  30.554  35.947  1.00  0.00     0.029 A 
ATOM     28  N   UNL A   1      41.300  30.066  33.790  1.00  0.00    -0.354 N 
ATOM     29  N   UNL A   1      41.857  28.528  31.290  1.00  0.00    -0.248 NA
ATOM     30  C   UNL A   1      43.083  26.896  30.152  1.00  0.00     0.031 C 
ATOM     31  C   UNL A   1      42.454  29.529  35.607  1.00  0.00     0.029 A 
ATOM     32  C   UNL A   1      42.281  29.215  34.265  1.00  0.00     0.049 A 
ATOM     33  H   UNL A   1      40.960  30.076  32.866  1.00  0.00     0.167 HD
ATOM     34  C   UNL A   1      42.758  27.950  32.170  1.00  0.00     0.074 A 
ATOM     35  C   UNL A   1      43.475  26.935  31.419  1.00  0.00     0.031 C 
ATOM     36  C   UNL A   1      42.966  28.217  33.483  1.00  0.00     0.037 A 
BRANCH  23  37
ATOM     37  C   UNL A   1      39.474  32.790  35.793  1.00  0.00     0.057 A 
ATOM     38  C   UNL A   1      40.157  33.978  36.100  1.00  0.00     0.134 A 
ATOM     39  C   UNL A   1      38.440  32.399  36.649  1.00  0.00     0.134 A 
ATOM     40  F   UNL A   1      41.180  34.389  35.336  1.00  0.00    -0.206 F 
ATOM     41  C   UNL A   1      39.845  34.727  37.235  1.00  0.00     0.040 A 
ATOM     42  C   UNL A   1      38.105  33.151  37.777  1.00  0.00     0.040 A 
ATOM     43  F   UNL A   1      37.758  31.267  36.420  1.00  0.00    -0.206 F 
ATOM     44  C   UNL A   1      38.815  34.314  38.077  1.00  0.00     0.006 A 
ENDBRANCH  23  37
BRANCH  24  45
ATOM     45  C   UNL A   1      41.568  27.287  27.653  1.00  0.00     0.057 A 
ATOM     46  C   UNL A   1      42.393  27.776  26.636  1.00  0.00     0.134 A 
ATOM     47  C   UNL A   1      41.037  26.000  27.490  1.00  0.00     0.134 A 
ATOM     48  F   UNL A   1      42.922  29.005  26.728  1.00  0.00    -0.206 F 
ATOM     49  C   UNL A   1      42.669  27.021  25.493  1.00  0.00     0.040 A 
ATOM     50  C   UNL A   1      41.320  25.228  26.362  1.00  0.00     0.040 A 
ATOM     51  F   UNL A   1      40.237  25.475  28.430  1.00  0.00    -0.206 F 
ATOM     52  C   UNL A   1      42.134  25.741  25.356  1.00  0.00     0.006 A 
ENDBRANCH  24  45
BRANCH  36  53
ATOM     53  C   UNL A   1      43.983  27.375  34.187  1.00  0.00     0.057 A 
ATOM     54  C   UNL A   1      45.318  27.776  34.298  1.00  0.00     0.134 A 
ATOM     55  C   UNL A   1      43.606  26.174  34.800  1.00  0.00     0.134 A 
ATOM     56  F   UNL A   1      45.738  28.911  33.718  1.00  0.00    -0.206 F 
ATOM     57  C   UNL A   1      46.251  27.001  34.985  1.00  0.00     0.040 A 
ATOM     58  C   UNL A   1      44.525  25.403  35.509  1.00  0.00     0.040 A 
ATOM     59  F   UNL A   1      42.338  25.742  34.732  1.00  0.00    -0.206 F 
ATOM     60  C   UNL A   1      45.853  25.815  35.599  1.00  0.00     0.006 A 
ENDBRANCH  36  53
ENDBRANCH  10  11
ENDBRANCH   3   5
ENDBRANCH   2   3
ENDBRANCH   1   2
BRANCH   1  61
ATOM     61  C   UNL A   1      32.832  30.865  26.864  1.00  0.00     0.275 C 
BRANCH  61  62
ATOM     62  O   UNL A   1      32.325  30.181  25.694  1.00  0.00    -0.458 OA
BRANCH  62  63
ATOM     63  C   UNL A   1      31.858  28.923  25.881  1.00  0.00     0.340 C 
ATOM     64  O   UNL A   1      31.199  28.528  26.829  1.00  0.00    -0.246 OA
BRANCH  63  65
ATOM     65  C   UNL A   1      32.429  28.014  24.861  1.00  0.00     0.084 A 
ATOM     66  C   UNL A   1      33.378  27.084  25.309  1.00  0.00     0.033 A 
ATOM     67  C   UNL A   1      31.898  27.920  23.559  1.00  0.00     0.051 A 
ATOM     68  C   UNL A   1      33.812  26.078  24.447  1.00  0.00     0.018 A 
ATOM     69  C   UNL A   1      32.420  26.953  22.687  1.00  0.00     0.028 A 
ATOM     70  Br  UNL A   1      34.884  24.666  25.106  1.00  0.00    -0.051 Br
ATOM     71  C   UNL A   1      33.378  26.039  23.126  1.00  0.00     0.018 A 
BRANCH  67  72
ATOM     72  N   UNL A   1      30.789  28.671  23.175  1.00  0.00    -0.370 N 
ATOM     73  C   UNL A   1      30.621  29.610  22.118  1.00  0.00     0.125 C 
ATOM     74  C   UNL A   1      29.391  28.370  23.232  1.00  0.00     0.125 C 
ATOM     75  C   UNL A   1      29.181  29.800  22.659  1.00  0.00     0.005 C 
ATOM     76  C   UNL A   1      28.103  29.991  21.598  1.00  0.00     0.011 C 
ATOM     77  C   UNL A   1      29.058  30.853  23.779  1.00  0.00     0.011 C 
ATOM     78  C   UNL A   1      28.205  31.404  21.015  1.00  0.00     0.001 C 
ATOM     79  C   UNL A   1      29.165  32.256  23.195  1.00  0.00     0.001 C 
ATOM     80  C   UNL A   1      28.123  32.476  22.103  1.00  0.00     0.000 C 
ENDBRANCH  67  72
ENDBRANCH  63  65
ENDBRANCH  62  63
ENDBRANCH  61  62
ENDBRANCH   1  61
TORSDOF 12
ENDMDL
MODEL 2
REMARK VINA RESULT:     -11.9      1.558      3.201
REMARK SMILES O=C(OCCOC(=O)c1cc(Br)ccc1N1CC2(CCCCC2)C1)c1ccc(-c2c3nc(c(-c4c(F)cccc4F)c4ccc([nH]4)c(-c4c(F)cccc4F)c4nc(c(-c5c(F)cccc5F)c5ccc2[nH]5)C=C4)C=C3)cc1
REMARK SMILES IDX 4 1 3 2 2 3 1 4 25 5 26 6 78 7 27 8 77 9 28 10 29 11 30 12
REMARK SMILES IDX 71 13 31 14 76 15 70 16 72 17 32 18 75 19 69 20 68 21 33 23
REMARK SMILES IDX 59 24 42 25 58 26 43 27 46 28 57 29 73 30 44 31 45 32 56 34
REMARK SMILES IDX 74 35 47 36 34 37 35 38 40 39 36 40 37 41 39 42 41 43 38 44
REMARK SMILES IDX 60 45 61 46 66 47 62 48 63 49 65 50 67 51 64 52 48 53 49 54
REMARK SMILES IDX 54 55 50 56 51 57 53 58 55 59 52 60 5 61 6 62 7 63 8 64 9 65
REMARK SMILES IDX 10 66 15 67 11 68 14 69 12 70 13 71 16 72 17 73 24 74 18 75
REMARK SMILES IDX 19 76 23 77 20 78 22 79 21 80
REMARK H PARENT 72 22 46 33
REMARK Flexibility Score: inf
ROOT
ATOM      1  C   UNL A   1      31.936  31.995  26.898  1.00  0.00     0.275 C 
ENDROOT
BRANCH   1   2
ATOM      2  O   UNL A   1      32.961  32.986  26.865  1.00  0.00    -0.458 OA
BRANCH   2   3
ATOM      3  C   UNL A   1      33.163  33.618  28.048  1.00  0.00     0.338 C 
ATOM      4  O   UNL A   1      32.528  34.567  28.486  1.00  0.00    -0.246 OA
BRANCH   3   5
ATOM      5  C   UNL A   1      34.453  33.129  28.584  1.00  0.00     0.060 A 
ATOM      6  C   UNL A   1      34.468  32.087  29.517  1.00  0.00     0.016 A 
ATOM      7  C   UNL A   1      35.652  33.599  28.034  1.00  0.00     0.016 A 
ATOM      8  C   UNL A   1      35.667  31.515  29.893  1.00  0.00     0.010 A 
ATOM      9  C   UNL A   1      36.859  32.992  28.376  1.00  0.00     0.010 A 
ATOM     10  C   UNL A   1      36.865  31.968  29.329  1.00  0.00    -0.014 A 
BRANCH  10  11
ATOM     11  C   UNL A   1      38.111  31.450  29.918  1.00  0.00     0.031 A 
ATOM     12  C   UNL A   1      38.447  31.875  31.311  1.00  0.00     0.074 A 
ATOM     13  C   UNL A   1      38.794  30.479  29.289  1.00  0.00     0.049 A 
ATOM     14  N   UNL A   1      39.309  31.354  32.141  1.00  0.00    -0.248 NA
ATOM     15  C   UNL A   1      37.683  33.008  31.861  1.00  0.00     0.031 C 
ATOM     16  C   UNL A   1      38.488  29.961  27.957  1.00  0.00     0.029 A 
ATOM     17  N   UNL A   1      39.863  29.732  29.702  1.00  0.00    -0.354 N 
ATOM     18  C   UNL A   1      39.137  32.049  33.329  1.00  0.00     0.074 A 
ATOM     19  C   UNL A   1      38.164  33.089  33.089  1.00  0.00     0.031 C 
ATOM     20  C   UNL A   1      39.366  28.990  27.651  1.00  0.00     0.029 A 
ATOM     21  C   UNL A   1      40.283  28.817  28.769  1.00  0.00     0.049 A 
ATOM     22  H   UNL A   1      40.289  29.839  30.583  1.00  0.00     0.167 HD
ATOM     23  C   UNL A   1      39.703  31.799  34.530  1.00  0.00     0.037 A 
ATOM     24  C   UNL A   1      41.294  27.933  28.825  1.00  0.00     0.037 A 
ATOM     25  C   UNL A   1      40.691  30.780  34.738  1.00  0.00     0.049 A 
ATOM     26  C   UNL A   1      42.022  27.776  30.127  1.00  0.00     0.074 A 
ATOM     27  C   UNL A   1      41.358  30.442  35.900  1.00  0.00     0.029 A 
ATOM     28  N   UNL A   1      41.165  29.941  33.738  1.00  0.00    -0.354 N 
ATOM     29  N   UNL A   1      41.814  28.397  31.264  1.00  0.00    -0.248 NA
ATOM     30  C   UNL A   1      43.090  26.771  30.173  1.00  0.00     0.031 C 
ATOM     31  C   UNL A   1      42.268  29.424  35.592  1.00  0.00     0.029 A 
ATOM     32  C   UNL A   1      42.139  29.102  34.248  1.00  0.00     0.049 A 
ATOM     33  H   UNL A   1      40.855  29.943  32.804  1.00  0.00     0.167 HD
ATOM     34  C   UNL A   1      42.693  27.831  32.175  1.00  0.00     0.074 A 
ATOM     35  C   UNL A   1      43.442  26.819  31.451  1.00  0.00     0.031 C 
ATOM     36  C   UNL A   1      42.858  28.106  33.492  1.00  0.00     0.037 A 
BRANCH  23  37
ATOM     37  C   UNL A   1      39.253  32.658  35.670  1.00  0.00     0.057 A 
ATOM     38  C   UNL A   1      39.797  33.934  35.883  1.00  0.00     0.134 A 
ATOM     39  C   UNL A   1      38.323  32.186  36.601  1.00  0.00     0.134 A 
ATOM     40  F   UNL A   1      40.718  34.429  35.043  1.00  0.00    -0.206 F 
ATOM     41  C   UNL A   1      39.452  34.697  37.000  1.00  0.00     0.040 A 
ATOM     42  C   UNL A   1      37.955  32.948  37.712  1.00  0.00     0.040 A 
ATOM     43  F   UNL A   1      37.778  30.969  36.462  1.00  0.00    -0.206 F 
ATOM     44  C   UNL A   1      38.528  34.204  37.918  1.00  0.00     0.006 A 
ENDBRANCH  23  37
BRANCH  24  45
ATOM     45  C   UNL A   1      41.649  27.135  27.627  1.00  0.00     0.057 A 
ATOM     46  C   UNL A   1      41.167  25.836  27.430  1.00  0.00     0.134 A 
ATOM     47  C   UNL A   1      42.488  27.667  26.639  1.00  0.00     0.134 A 
ATOM     48  F   UNL A   1      40.370  25.266  28.346  1.00  0.00    -0.206 F 
ATOM     49  C   UNL A   1      41.519  25.090  26.302  1.00  0.00     0.040 A 
ATOM     50  C   UNL A   1      42.832  26.940  25.498  1.00  0.00     0.040 A 
ATOM     51  F   UNL A   1      42.984  28.907  26.770  1.00  0.00    -0.206 F 
ATOM     52  C   UNL A   1      42.351  25.644  25.330  1.00  0.00     0.006 A 
ENDBRANCH  24  45
BRANCH  36  53
ATOM     53  C   UNL A   1      43.860  27.278  34.231  1.00  0.00     0.057 A 
ATOM     54  C   UNL A   1      45.190  27.688  34.373  1.00  0.00     0.134 A 
ATOM     55  C   UNL A   1      43.474  26.082  34.848  1.00  0.00     0.134 A 
ATOM     56  F   UNL A   1      45.619  28.819  33.792  1.00  0.00    -0.206 F 
ATOM     57  C   UNL A   1      46.109  26.925  35.092  1.00  0.00     0.040 A 
ATOM     58  C   UNL A   1      44.378  25.323  35.588  1.00  0.00     0.040 A 
ATOM     59  F   UNL A   1      42.210  25.642  34.751  1.00  0.00    -0.206 F 
ATOM     60  C   UNL A   1      45.701  25.743  35.709  1.00  0.00     0.006 A 
ENDBRANCH  36  53
ENDBRANCH  10  11
ENDBRANCH   3   5
ENDBRANCH   2   3
ENDBRANCH   1   2
BRANCH   1  61
ATOM     61  C   UNL A   1      32.534  30.576  26.882  1.00  0.00     0.275 C 
BRANCH  61  62
ATOM     62  O   UNL A   1      31.660  29.598  26.272  1.00  0.00    -0.458 OA
BRANCH  62  63
ATOM     63  C   UNL A   1      31.847  29.357  24.951  1.00  0.00     0.340 C 
ATOM     64  O   UNL A   1      32.916  29.319  24.365  1.00  0.00    -0.246 OA
BRANCH  63  65
ATOM     65  C   UNL A   1      30.542  29.340  24.251  1.00  0.00     0.084 A 
ATOM     66  C   UNL A   1      30.046  30.577  23.815  1.00  0.00     0.033 A 
ATOM     67  C   UNL A   1      29.931  28.140  23.834  1.00  0.00     0.051 A 
ATOM     68  C   UNL A   1      28.926  30.613  22.987  1.00  0.00     0.018 A 
ATOM     69  C   UNL A   1      28.753  28.213  23.075  1.00  0.00     0.028 A 
ATOM     70  Br  UNL A   1      28.400  32.241  22.179  1.00  0.00    -0.051 Br
ATOM     71  C   UNL A   1      28.247  29.444  22.657  1.00  0.00     0.018 A 
BRANCH  67  72
ATOM     72  N   UNL A   1      30.541  26.905  24.048  1.00  0.00    -0.370 N 
ATOM     73  C   UNL A   1      30.398  25.968  25.110  1.00  0.00     0.125 C 
ATOM     74  C   UNL A   1      30.977  25.905  23.121  1.00  0.00     0.125 C 
ATOM     75  C   UNL A   1      31.477  25.133  24.375  1.00  0.00     0.005 C 
ATOM     76  C   UNL A   1      31.272  23.622  24.409  1.00  0.00     0.011 C 
ATOM     77  C   UNL A   1      32.926  25.510  24.739  1.00  0.00     0.011 C 
ATOM     78  C   UNL A   1      31.628  23.090  25.801  1.00  0.00     0.001 C 
ATOM     79  C   UNL A   1      33.274  24.982  26.126  1.00  0.00     0.001 C 
ATOM     80  C   UNL A   1      33.049  23.476  26.212  1.00  0.00     0.000 C 
ENDBRANCH  67  72
ENDBRANCH  63  65
ENDBRANCH  62  63
ENDBRANCH  61  62
ENDBRANCH   1  61
TORSDOF 12
ENDMDL
MODEL 3
REMARK VINA RESULT:     -11.8      5.328      9.855
REMARK SMILES O=C(OCCOC(=O)c1cc(Br)ccc1N1CC2(CCCCC2)C1)c1ccc(-c2c3nc(c(-c4c(F)cccc4F)c4ccc([nH]4)c(-c4c(F)cccc4F)c4nc(c(-c5c(F)cccc5F)c5ccc2[nH]5)C=C4)C=C3)cc1
REMARK SMILES IDX 4 1 3 2 2 3 1 4 25 5 26 6 78 7 27 8 77 9 28 10 29 11 30 12
REMARK SMILES IDX 71 13 31 14 76 15 70 16 72 17 32 18 75 19 69 20 68 21 33 23
REMARK SMILES IDX 59 24 42 25 58 26 43 27 46 28 57 29 73 30 44 31 45 32 56 34
REMARK SMILES IDX 74 35 47 36 34 37 35 38 40 39 36 40 37 41 39 42 41 43 38 44
REMARK SMILES IDX 60 45 61 46 66 47 62 48 63 49 65 50 67 51 64 52 48 53 49 54
REMARK SMILES IDX 54 55 50 56 51 57 53 58 55 59 52 60 5 61 6 62 7 63 8 64 9 65
REMARK SMILES IDX 10 66 15 67 11 68 14 69 12 70 13 71 16 72 17 73 24 74 18 75
REMARK SMILES IDX 19 76 23 77 20 78 22 79 21 80
REMARK H PARENT 72 22 46 33
REMARK Flexibility Score: inf
ROOT
ATOM      1  C   UNL A   1      38.715  19.881  25.042  1.00  0.00     0.275 C 
ENDROOT
BRANCH   1   2
ATOM      2  O   UNL A   1      39.496  19.522  26.179  1.00  0.00    -0.458 OA
BRANCH   2   3
ATOM      3  C   UNL A   1      40.835  19.627  25.992  1.00  0.00     0.338 C 
ATOM      4  O   UNL A   1      41.598  18.731  25.658  1.00  0.00    -0.246 OA
BRANCH   3   5
ATOM      5  C   UNL A   1      41.243  20.948  26.522  1.00  0.00     0.060 A 
ATOM      6  C   UNL A   1      41.308  21.152  27.905  1.00  0.00     0.016 A 
ATOM      7  C   UNL A   1      41.718  21.929  25.642  1.00  0.00     0.016 A 
ATOM      8  C   UNL A   1      41.847  22.321  28.404  1.00  0.00     0.010 A 
ATOM      9  C   UNL A   1      42.305  23.089  26.144  1.00  0.00     0.010 A 
ATOM     10  C   UNL A   1      42.342  23.294  27.528  1.00  0.00    -0.014 A 
BRANCH  10  11
ATOM     11  C   UNL A   1      42.718  24.587  28.120  1.00  0.00     0.031 A 
ATOM     12  C   UNL A   1      44.173  24.925  28.179  1.00  0.00     0.074 A 
ATOM     13  C   UNL A   1      41.769  25.496  28.399  1.00  0.00     0.049 A 
ATOM     14  N   UNL A   1      44.738  26.083  28.381  1.00  0.00    -0.248 NA
ATOM     15  C   UNL A   1      45.119  23.822  27.936  1.00  0.00     0.031 C 
ATOM     16  C   UNL A   1      40.328  25.266  28.301  1.00  0.00     0.029 A 
ATOM     17  N   UNL A   1      41.874  26.803  28.788  1.00  0.00    -0.354 N 
ATOM     18  C   UNL A   1      46.097  25.861  28.218  1.00  0.00     0.074 A 
ATOM     19  C   UNL A   1      46.284  24.446  27.997  1.00  0.00     0.031 C 
ATOM     20  C   UNL A   1      39.680  26.393  28.642  1.00  0.00     0.029 A 
ATOM     21  C   UNL A   1      40.660  27.418  28.972  1.00  0.00     0.049 A 
ATOM     22  H   UNL A   1      42.736  27.259  28.923  1.00  0.00     0.167 HD
ATOM     23  C   UNL A   1      47.095  26.771  28.197  1.00  0.00     0.037 A 
ATOM     24  C   UNL A   1      40.382  28.676  29.355  1.00  0.00     0.037 A 
ATOM     25  C   UNL A   1      46.890  28.168  28.450  1.00  0.00     0.049 A 
ATOM     26  C   UNL A   1      41.523  29.643  29.481  1.00  0.00     0.074 A 
ATOM     27  C   UNL A   1      47.820  29.190  28.480  1.00  0.00     0.029 A 
ATOM     28  N   UNL A   1      45.655  28.735  28.735  1.00  0.00    -0.354 N 
ATOM     29  N   UNL A   1      42.801  29.438  29.267  1.00  0.00    -0.248 NA
ATOM     30  C   UNL A   1      41.185  31.021  29.855  1.00  0.00     0.031 C 
ATOM     31  C   UNL A   1      47.151  30.370  28.826  1.00  0.00     0.029 A 
ATOM     32  C   UNL A   1      45.799  30.090  28.972  1.00  0.00     0.049 A 
ATOM     33  H   UNL A   1      44.802  28.245  28.764  1.00  0.00     0.167 HD
ATOM     34  C   UNL A   1      43.418  30.667  29.437  1.00  0.00     0.074 A 
ATOM     35  C   UNL A   1      42.371  31.612  29.780  1.00  0.00     0.031 C 
ATOM     36  C   UNL A   1      44.728  30.994  29.307  1.00  0.00     0.037 A 
BRANCH  23  37
ATOM     37  C   UNL A   1      48.466  26.251  27.899  1.00  0.00     0.057 A 
ATOM     38  C   UNL A   1      49.311  25.791  28.921  1.00  0.00     0.134 A 
ATOM     39  C   UNL A   1      48.974  26.270  26.597  1.00  0.00     0.134 A 
ATOM     40  F   UNL A   1      48.893  25.779  30.195  1.00  0.00    -0.206 F 
ATOM     41  C   UNL A   1      50.625  25.398  28.659  1.00  0.00     0.040 A 
ATOM     42  C   UNL A   1      50.280  25.860  26.320  1.00  0.00     0.040 A 
ATOM     43  F   UNL A   1      48.221  26.712  25.579  1.00  0.00    -0.206 F 
ATOM     44  C   UNL A   1      51.112  25.432  27.354  1.00  0.00     0.006 A 
ENDBRANCH  23  37
BRANCH  24  45
ATOM     45  C   UNL A   1      38.980  29.078  29.622  1.00  0.00     0.057 A 
ATOM     46  C   UNL A   1      38.397  28.944  30.887  1.00  0.00     0.134 A 
ATOM     47  C   UNL A   1      38.185  29.615  28.600  1.00  0.00     0.134 A 
ATOM     48  F   UNL A   1      39.102  28.425  31.903  1.00  0.00    -0.206 F 
ATOM     49  C   UNL A   1      37.072  29.315  31.122  1.00  0.00     0.040 A 
ATOM     50  C   UNL A   1      36.866  30.008  28.826  1.00  0.00     0.040 A 
ATOM     51  F   UNL A   1      38.686  29.767  27.365  1.00  0.00    -0.206 F 
ATOM     52  C   UNL A   1      36.303  29.853  30.091  1.00  0.00     0.006 A 
ENDBRANCH  24  45
BRANCH  36  53
ATOM     53  C   UNL A   1      45.084  32.433  29.503  1.00  0.00     0.057 A 
ATOM     54  C   UNL A   1      45.518  32.921  30.740  1.00  0.00     0.134 A 
ATOM     55  C   UNL A   1      45.036  33.328  28.426  1.00  0.00     0.134 A 
ATOM     56  F   UNL A   1      45.570  32.112  31.809  1.00  0.00    -0.206 F 
ATOM     57  C   UNL A   1      45.879  34.257  30.905  1.00  0.00     0.040 A 
ATOM     58  C   UNL A   1      45.417  34.660  28.574  1.00  0.00     0.040 A 
ATOM     59  F   UNL A   1      44.633  32.915  27.215  1.00  0.00    -0.206 F 
ATOM     60  C   UNL A   1      45.836  35.128  29.817  1.00  0.00     0.006 A 
ENDBRANCH  36  53
ENDBRANCH  10  11
ENDBRANCH   3   5
ENDBRANCH   2   3
ENDBRANCH   1   2
BRANCH   1  61
ATOM     61  C   UNL A   1      37.934  21.185  25.292  1.00  0.00     0.275 C 
BRANCH  61  62
ATOM     62  O   UNL A   1      36.649  21.215  24.629  1.00  0.00    -0.458 OA
BRANCH  62  63
ATOM     63  C   UNL A   1      35.553  21.159  25.425  1.00  0.00     0.340 C 
ATOM     64  O   UNL A   1      35.470  21.566  26.572  1.00  0.00    -0.246 OA
BRANCH  63  65
ATOM     65  C   UNL A   1      34.500  20.341  24.780  1.00  0.00     0.084 A 
ATOM     66  C   UNL A   1      34.779  18.977  24.611  1.00  0.00     0.033 A 
ATOM     67  C   UNL A   1      33.201  20.837  24.552  1.00  0.00     0.051 A 
ATOM     68  C   UNL A   1      33.766  18.118  24.190  1.00  0.00     0.018 A 
ATOM     69  C   UNL A   1      32.227  19.965  24.043  1.00  0.00     0.028 A 
ATOM     70  Br  UNL A   1      34.045  16.248  24.207  1.00  0.00    -0.051 Br
ATOM     71  C   UNL A   1      32.508  18.611  23.856  1.00  0.00     0.018 A 
BRANCH  67  72
ATOM     72  N   UNL A   1      32.840  22.125  24.943  1.00  0.00    -0.370 N 
ATOM     73  C   UNL A   1      32.580  23.294  24.173  1.00  0.00     0.125 C 
ATOM     74  C   UNL A   1      32.042  22.579  26.042  1.00  0.00     0.125 C 
ATOM     75  C   UNL A   1      32.366  24.011  25.530  1.00  0.00     0.005 C 
ATOM     76  C   UNL A   1      31.247  25.047  25.554  1.00  0.00     0.011 C 
ATOM     77  C   UNL A   1      33.657  24.567  26.164  1.00  0.00     0.011 C 
ATOM     78  C   UNL A   1      31.704  26.309  24.816  1.00  0.00     0.001 C 
ATOM     79  C   UNL A   1      34.110  25.819  25.423  1.00  0.00     0.001 C 
ATOM     80  C   UNL A   1      33.004  26.869  25.395  1.00  0.00     0.000 C 
ENDBRANCH  67  72
ENDBRANCH  63  65
ENDBRANCH  62  63
ENDBRANCH  61  62
ENDBRANCH   1  61
TORSDOF 12
ENDMDL
