MODEL 1
REMARK VINA RESULT:     -10.6      0.000      0.000
REMARK SMILES CCC(CC)([NH2+]Cc1ccc(Cl)cc1[N+](=O)[O-])C(=O)OCCOC(=O)c1ccc(-c2c3nc(c(-c4c(F)cccc4F)c4ccc([nH]4)c(-c4c(F)cccc4F)c4nc(c(-c5c(F)cccc5F)c5ccc2[nH]5)C=C4)C=C3)cc1
REMARK SMILES IDX 21 1 20 2 18 3 19 4 3 5 2 6 1 7 4 8 5 9 6 10 7 13 8 14 9 15
REMARK SMILES IDX 14 16 10 17 13 18 11 19 12 20 15 21 16 22 17 23 22 24 23 25
REMARK SMILES IDX 24 26 25 27 26 28 27 29 79 30 28 31 78 32 29 33 30 34 31 35
REMARK SMILES IDX 72 36 32 37 77 38 71 39 73 40 33 41 76 42 70 43 69 44 34 46
REMARK SMILES IDX 60 47 43 48 59 49 44 50 47 51 58 52 74 53 45 54 46 55 57 57
REMARK SMILES IDX 75 58 48 59 35 60 36 61 41 62 37 63 38 64 40 65 42 66 39 67
REMARK SMILES IDX 61 68 62 69 67 70 63 71 64 72 66 73 68 74 65 75 49 76 50 77
REMARK SMILES IDX 55 78 51 79 52 80 54 81 56 82 53 83
REMARK H PARENT 6 11 6 12 73 45 47 56
REMARK Flexibility Score: inf
ROOT
ATOM      1  C   UNL A   1      35.129  20.350  25.111  1.00  0.00     0.274 C 
ENDROOT
BRANCH   1   2
ATOM      2  O   UNL A   1      34.097  21.023  24.344  1.00  0.00    -0.457 OA
BRANCH   2   3
ATOM      3  C   UNL A   1      32.855  21.040  24.899  1.00  0.00     0.368 C 
ATOM      4  O   UNL A   1      32.160  20.033  25.007  1.00  0.00    -0.245 OA
BRANCH   3   5
ATOM      5  C   UNL A   1      32.385  22.440  25.416  1.00  0.00     0.194 C 
BRANCH   5   6
ATOM      6  C   UNL A   1      33.207  22.784  26.706  1.00  0.00     0.077 C 
ATOM      7  C   UNL A   1      34.429  23.683  26.521  1.00  0.00     0.011 C 
ENDBRANCH   5   6
BRANCH   5   8
ATOM      8  C   UNL A   1      30.883  22.294  25.784  1.00  0.00     0.077 C 
ATOM      9  C   UNL A   1      30.336  23.346  26.747  1.00  0.00     0.011 C 
ENDBRANCH   5   8
BRANCH   5  10
ATOM     10  N   UNL A   1      32.635  23.609  24.494  1.00  0.00    -0.328 N 
ATOM     11  H   UNL A   1      33.578  23.482  24.128  1.00  0.00     0.347 HD
ATOM     12  H   UNL A   1      32.425  24.398  25.106  1.00  0.00     0.347 HD
BRANCH  10  13
ATOM     13  C   UNL A   1      31.789  23.912  23.331  1.00  0.00     0.305 C 
BRANCH  13  14
ATOM     14  C   UNL A   1      31.233  25.318  23.182  1.00  0.00     0.084 A 
ATOM     15  C   UNL A   1      30.064  25.710  23.844  1.00  0.00     0.018 A 
ATOM     16  C   UNL A   1      31.771  26.266  22.279  1.00  0.00     0.279 A 
ATOM     17  C   UNL A   1      29.451  26.947  23.635  1.00  0.00     0.021 A 
ATOM     18  C   UNL A   1      31.173  27.524  22.066  1.00  0.00     0.106 A 
ATOM     19  C   UNL A   1      30.007  27.850  22.743  1.00  0.00     0.047 A 
ATOM     20  Cl  UNL A   1      29.236  29.359  22.469  1.00  0.00    -0.084 Cl
BRANCH  16  21
ATOM     21  N   UNL A   1      32.969  25.987  21.491  1.00  0.00     0.063 N 
ATOM     22  O   UNL A   1      32.800  25.593  20.329  1.00  0.00    -0.258 OA
ATOM     23  O   UNL A   1      34.068  26.128  22.045  1.00  0.00    -0.258 OA
ENDBRANCH  16  21
ENDBRANCH  13  14
ENDBRANCH  10  13
ENDBRANCH   5  10
ENDBRANCH   3   5
ENDBRANCH   2   3
ENDBRANCH   1   2
BRANCH   1  24
ATOM     24  C   UNL A   1      36.510  20.718  24.581  1.00  0.00     0.275 C 
BRANCH  24  25
ATOM     25  O   UNL A   1      37.220  21.340  25.659  1.00  0.00    -0.458 OA
BRANCH  25  26
ATOM     26  C   UNL A   1      38.494  20.936  25.861  1.00  0.00     0.338 C 
ATOM     27  O   UNL A   1      38.979  19.844  25.635  1.00  0.00    -0.246 OA
BRANCH  26  28
ATOM     28  C   UNL A   1      39.252  22.102  26.353  1.00  0.00     0.060 A 
ATOM     29  C   UNL A   1      38.826  23.377  25.989  1.00  0.00     0.016 A 
ATOM     30  C   UNL A   1      40.407  21.944  27.117  1.00  0.00     0.016 A 
ATOM     31  C   UNL A   1      39.567  24.491  26.355  1.00  0.00     0.010 A 
ATOM     32  C   UNL A   1      41.104  23.080  27.555  1.00  0.00     0.010 A 
ATOM     33  C   UNL A   1      40.694  24.369  27.172  1.00  0.00    -0.014 A 
BRANCH  33  34
ATOM     34  C   UNL A   1      41.428  25.594  27.587  1.00  0.00     0.031 A 
ATOM     35  C   UNL A   1      40.759  26.607  28.471  1.00  0.00     0.074 A 
ATOM     36  C   UNL A   1      42.716  25.782  27.227  1.00  0.00     0.049 A 
ATOM     37  N   UNL A   1      41.130  27.830  28.752  1.00  0.00    -0.248 NA
ATOM     38  C   UNL A   1      39.508  26.192  29.126  1.00  0.00     0.031 C 
ATOM     39  C   UNL A   1      43.537  24.838  26.464  1.00  0.00     0.029 A 
ATOM     40  N   UNL A   1      43.569  26.834  27.467  1.00  0.00    -0.354 N 
ATOM     41  C   UNL A   1      40.127  28.351  29.559  1.00  0.00     0.074 A 
ATOM     42  C   UNL A   1      39.145  27.306  29.747  1.00  0.00     0.031 C 
ATOM     43  C   UNL A   1      44.776  25.334  26.332  1.00  0.00     0.029 A 
ATOM     44  C   UNL A   1      44.807  26.680  26.887  1.00  0.00     0.049 A 
ATOM     45  H   UNL A   1      43.317  27.622  28.001  1.00  0.00     0.167 HD
ATOM     46  C   UNL A   1      40.034  29.598  30.079  1.00  0.00     0.037 A 
ATOM     47  C   UNL A   1      45.827  27.547  26.746  1.00  0.00     0.037 A 
ATOM     48  C   UNL A   1      41.044  30.613  29.938  1.00  0.00     0.049 A 
ATOM     49  C   UNL A   1      45.662  28.951  27.253  1.00  0.00     0.074 A 
ATOM     50  C   UNL A   1      41.041  31.907  30.427  1.00  0.00     0.029 A 
ATOM     51  N   UNL A   1      42.246  30.439  29.270  1.00  0.00    -0.354 N 
ATOM     52  N   UNL A   1      44.666  29.475  27.925  1.00  0.00    -0.248 NA
ATOM     53  C   UNL A   1      46.742  29.898  26.941  1.00  0.00     0.031 C 
ATOM     54  C   UNL A   1      42.227  32.530  30.024  1.00  0.00     0.029 A 
ATOM     55  C   UNL A   1      42.982  31.611  29.312  1.00  0.00     0.049 A 
ATOM     56  H   UNL A   1      42.534  29.607  28.831  1.00  0.00     0.167 HD
ATOM     57  C   UNL A   1      44.993  30.811  28.105  1.00  0.00     0.074 A 
ATOM     58  C   UNL A   1      46.295  31.011  27.504  1.00  0.00     0.031 C 
ATOM     59  C   UNL A   1      44.271  31.791  28.701  1.00  0.00     0.037 A 
BRANCH  46  60
ATOM     60  C   UNL A   1      38.772  29.958  30.800  1.00  0.00     0.057 A 
ATOM     61  C   UNL A   1      37.673  30.526  30.149  1.00  0.00     0.134 A 
ATOM     62  C   UNL A   1      38.645  29.674  32.167  1.00  0.00     0.134 A 
ATOM     63  F   UNL A   1      37.739  30.836  28.846  1.00  0.00    -0.206 F 
ATOM     64  C   UNL A   1      36.488  30.804  30.834  1.00  0.00     0.040 A 
ATOM     65  C   UNL A   1      37.461  29.931  32.858  1.00  0.00     0.040 A 
ATOM     66  F   UNL A   1      39.665  29.129  32.846  1.00  0.00    -0.206 F 
ATOM     67  C   UNL A   1      36.378  30.498  32.191  1.00  0.00     0.006 A 
ENDBRANCH  46  60
BRANCH  47  68
ATOM     68  C   UNL A   1      47.043  27.155  25.989  1.00  0.00     0.057 A 
ATOM     69  C   UNL A   1      47.128  27.330  24.603  1.00  0.00     0.134 A 
ATOM     70  C   UNL A   1      48.143  26.570  26.632  1.00  0.00     0.134 A 
ATOM     71  F   UNL A   1      46.097  27.854  23.924  1.00  0.00    -0.206 F 
ATOM     72  C   UNL A   1      48.256  26.929  23.885  1.00  0.00     0.040 A 
ATOM     73  C   UNL A   1      49.288  26.194  25.932  1.00  0.00     0.040 A 
ATOM     74  F   UNL A   1      48.122  26.367  27.959  1.00  0.00    -0.206 F 
ATOM     75  C   UNL A   1      49.344  26.366  24.551  1.00  0.00     0.006 A 
ENDBRANCH  47  68
BRANCH  59  76
ATOM     76  C   UNL A   1      44.879  33.159  28.727  1.00  0.00     0.057 A 
ATOM     77  C   UNL A   1      44.593  34.102  27.733  1.00  0.00     0.134 A 
ATOM     78  C   UNL A   1      45.730  33.546  29.769  1.00  0.00     0.134 A 
ATOM     79  F   UNL A   1      43.797  33.781  26.701  1.00  0.00    -0.206 F 
ATOM     80  C   UNL A   1      45.146  35.382  27.765  1.00  0.00     0.040 A 
ATOM     81  C   UNL A   1      46.273  34.831  29.822  1.00  0.00     0.040 A 
ATOM     82  F   UNL A   1      46.037  32.689  30.753  1.00  0.00    -0.206 F 
ATOM     83  C   UNL A   1      45.984  35.751  28.816  1.00  0.00     0.006 A 
ENDBRANCH  59  76
ENDBRANCH  33  34
ENDBRANCH  26  28
ENDBRANCH  25  26
ENDBRANCH  24  25
ENDBRANCH   1  24
TORSDOF 17
ENDMDL
MODEL 2
REMARK VINA RESULT:     -10.5      1.431      2.084
REMARK SMILES CCC(CC)([NH2+]Cc1ccc(Cl)cc1[N+](=O)[O-])C(=O)OCCOC(=O)c1ccc(-c2c3nc(c(-c4c(F)cccc4F)c4ccc([nH]4)c(-c4c(F)cccc4F)c4nc(c(-c5c(F)cccc5F)c5ccc2[nH]5)C=C4)C=C3)cc1
REMARK SMILES IDX 21 1 20 2 18 3 19 4 3 5 2 6 1 7 4 8 5 9 6 10 7 13 8 14 9 15
REMARK SMILES IDX 14 16 10 17 13 18 11 19 12 20 15 21 16 22 17 23 22 24 23 25
REMARK SMILES IDX 24 26 25 27 26 28 27 29 79 30 28 31 78 32 29 33 30 34 31 35
REMARK SMILES IDX 72 36 32 37 77 38 71 39 73 40 33 41 76 42 70 43 69 44 34 46
REMARK SMILES IDX 60 47 43 48 59 49 44 50 47 51 58 52 74 53 45 54 46 55 57 57
REMARK SMILES IDX 75 58 48 59 35 60 36 61 41 62 37 63 38 64 40 65 42 66 39 67
REMARK SMILES IDX 61 68 62 69 67 70 63 71 64 72 66 73 68 74 65 75 49 76 50 77
REMARK SMILES IDX 55 78 51 79 52 80 54 81 56 82 53 83
REMARK H PARENT 6 11 6 12 73 45 47 56
REMARK Flexibility Score: inf
ROOT
ATOM      1  C   UNL A   1      34.476  20.998  25.562  1.00  0.00     0.274 C 
ENDROOT
BRANCH   1   2
ATOM      2  O   UNL A   1      33.707  22.077  24.969  1.00  0.00    -0.457 OA
BRANCH   2   3
ATOM      3  C   UNL A   1      33.645  23.231  25.688  1.00  0.00     0.368 C 
ATOM      4  O   UNL A   1      34.359  23.448  26.663  1.00  0.00    -0.245 OA
BRANCH   3   5
ATOM      5  C   UNL A   1      32.608  24.278  25.161  1.00  0.00     0.194 C 
BRANCH   5   6
ATOM      6  C   UNL A   1      31.242  23.542  24.939  1.00  0.00     0.077 C 
ATOM      7  C   UNL A   1      30.749  23.431  23.496  1.00  0.00     0.011 C 
ENDBRANCH   5   6
BRANCH   5   8
ATOM      8  C   UNL A   1      33.149  24.788  23.797  1.00  0.00     0.077 C 
ATOM      9  C   UNL A   1      34.023  26.039  23.862  1.00  0.00     0.011 C 
ENDBRANCH   5   8
BRANCH   5  10
ATOM     10  N   UNL A   1      32.271  25.412  26.100  1.00  0.00    -0.328 N 
ATOM     11  H   UNL A   1      32.938  26.155  25.895  1.00  0.00     0.347 HD
ATOM     12  H   UNL A   1      32.292  24.939  27.004  1.00  0.00     0.347 HD
BRANCH  10  13
ATOM     13  C   UNL A   1      30.950  26.057  26.140  1.00  0.00     0.305 C 
BRANCH  13  14
ATOM     14  C   UNL A   1      30.629  27.121  25.103  1.00  0.00     0.084 A 
ATOM     15  C   UNL A   1      29.762  26.855  24.038  1.00  0.00     0.018 A 
ATOM     16  C   UNL A   1      31.271  28.381  25.070  1.00  0.00     0.279 A 
ATOM     17  C   UNL A   1      29.539  27.759  22.996  1.00  0.00     0.021 A 
ATOM     18  C   UNL A   1      31.050  29.310  24.034  1.00  0.00     0.106 A 
ATOM     19  C   UNL A   1      30.187  28.984  22.997  1.00  0.00     0.047 A 
ATOM     20  Cl  UNL A   1      29.932  30.081  21.702  1.00  0.00    -0.084 Cl
BRANCH  16  21
ATOM     21  N   UNL A   1      32.229  28.786  26.096  1.00  0.00     0.063 N 
ATOM     22  O   UNL A   1      31.789  28.954  27.242  1.00  0.00    -0.258 OA
ATOM     23  O   UNL A   1      33.404  28.968  25.748  1.00  0.00    -0.258 OA
ENDBRANCH  16  21
ENDBRANCH  13  14
ENDBRANCH  10  13
ENDBRANCH   5  10
ENDBRANCH   3   5
ENDBRANCH   2   3
ENDBRANCH   1   2
BRANCH   1  24
ATOM     24  C   UNL A   1      35.858  20.917  24.923  1.00  0.00     0.275 C 
BRANCH  24  25
ATOM     25  O   UNL A   1      36.764  21.602  25.796  1.00  0.00    -0.458 OA
BRANCH  25  26
ATOM     26  C   UNL A   1      38.058  21.210  25.758  1.00  0.00     0.338 C 
ATOM     27  O   UNL A   1      38.512  20.165  25.334  1.00  0.00    -0.246 OA
BRANCH  26  28
ATOM     28  C   UNL A   1      38.870  22.330  26.268  1.00  0.00     0.060 A 
ATOM     29  C   UNL A   1      38.432  23.632  26.039  1.00  0.00     0.016 A 
ATOM     30  C   UNL A   1      40.085  22.107  26.915  1.00  0.00     0.016 A 
ATOM     31  C   UNL A   1      39.217  24.710  26.421  1.00  0.00     0.010 A 
ATOM     32  C   UNL A   1      40.833  23.201  27.375  1.00  0.00     0.010 A 
ATOM     33  C   UNL A   1      40.408  24.518  27.126  1.00  0.00    -0.014 A 
BRANCH  33  34
ATOM     34  C   UNL A   1      41.192  25.704  27.566  1.00  0.00     0.031 A 
ATOM     35  C   UNL A   1      40.559  26.733  28.458  1.00  0.00     0.074 A 
ATOM     36  C   UNL A   1      42.491  25.839  27.221  1.00  0.00     0.049 A 
ATOM     37  N   UNL A   1      40.981  27.933  28.761  1.00  0.00    -0.248 NA
ATOM     38  C   UNL A   1      39.284  26.364  29.095  1.00  0.00     0.031 C 
ATOM     39  C   UNL A   1      43.277  24.870  26.453  1.00  0.00     0.029 A 
ATOM     40  N   UNL A   1      43.387  26.848  27.485  1.00  0.00    -0.354 N 
ATOM     41  C   UNL A   1      39.995  28.488  29.565  1.00  0.00     0.074 A 
ATOM     42  C   UNL A   1      38.965  27.485  29.728  1.00  0.00     0.031 C 
ATOM     43  C   UNL A   1      44.538  25.311  26.340  1.00  0.00     0.029 A 
ATOM     44  C   UNL A   1      44.623  26.646  26.915  1.00  0.00     0.049 A 
ATOM     45  H   UNL A   1      43.166  27.638  28.028  1.00  0.00     0.167 HD
ATOM     46  C   UNL A   1      39.952  29.730  30.102  1.00  0.00     0.037 A 
ATOM     47  C   UNL A   1      45.682  27.469  26.797  1.00  0.00     0.037 A 
ATOM     48  C   UNL A   1      41.008  30.700  29.987  1.00  0.00     0.049 A 
ATOM     49  C   UNL A   1      45.575  28.872  27.323  1.00  0.00     0.074 A 
ATOM     50  C   UNL A   1      41.057  31.987  30.494  1.00  0.00     0.029 A 
ATOM     51  N   UNL A   1      42.208  30.483  29.327  1.00  0.00    -0.354 N 
ATOM     52  N   UNL A   1      44.596  29.430  27.992  1.00  0.00    -0.248 NA
ATOM     53  C   UNL A   1      46.700  29.774  27.035  1.00  0.00     0.031 C 
ATOM     54  C   UNL A   1      42.274  32.561  30.112  1.00  0.00     0.029 A 
ATOM     55  C   UNL A   1      42.995  31.620  29.394  1.00  0.00     0.049 A 
ATOM     56  H   UNL A   1      42.463  29.645  28.879  1.00  0.00     0.167 HD
ATOM     57  C   UNL A   1      44.981  30.748  28.195  1.00  0.00     0.074 A 
ATOM     58  C   UNL A   1      46.296  30.897  27.610  1.00  0.00     0.031 C 
ATOM     59  C   UNL A   1      44.297  31.750  28.798  1.00  0.00     0.037 A 
BRANCH  46  60
ATOM     60  C   UNL A   1      38.701  30.136  30.817  1.00  0.00     0.057 A 
ATOM     61  C   UNL A   1      38.511  29.910  32.183  1.00  0.00     0.134 A 
ATOM     62  C   UNL A   1      37.692  30.819  30.123  1.00  0.00     0.134 A 
ATOM     63  F   UNL A   1      39.433  29.248  32.898  1.00  0.00    -0.206 F 
ATOM     64  C   UNL A   1      37.357  30.347  32.839  1.00  0.00     0.040 A 
ATOM     65  C   UNL A   1      36.543  31.274  30.769  1.00  0.00     0.040 A 
ATOM     66  F   UNL A   1      37.816  31.064  28.810  1.00  0.00    -0.206 F 
ATOM     67  C   UNL A   1      36.374  31.039  32.132  1.00  0.00     0.006 A 
ENDBRANCH  46  60
BRANCH  47  68
ATOM     68  C   UNL A   1      46.888  27.034  26.046  1.00  0.00     0.057 A 
ATOM     69  C   UNL A   1      47.004  27.246  24.668  1.00  0.00     0.134 A 
ATOM     70  C   UNL A   1      47.943  26.370  26.687  1.00  0.00     0.134 A 
ATOM     71  F   UNL A   1      46.015  27.846  23.990  1.00  0.00    -0.206 F 
ATOM     72  C   UNL A   1      48.121  26.805  23.954  1.00  0.00     0.040 A 
ATOM     73  C   UNL A   1      49.078  25.953  25.992  1.00  0.00     0.040 A 
ATOM     74  F   UNL A   1      47.889  26.128  28.006  1.00  0.00    -0.206 F 
ATOM     75  C   UNL A   1      49.165  26.163  24.619  1.00  0.00     0.006 A 
ENDBRANCH  47  68
BRANCH  59  76
ATOM     76  C   UNL A   1      44.965  33.090  28.850  1.00  0.00     0.057 A 
ATOM     77  C   UNL A   1      44.728  34.060  27.871  1.00  0.00     0.134 A 
ATOM     78  C   UNL A   1      45.826  33.421  29.903  1.00  0.00     0.134 A 
ATOM     79  F   UNL A   1      43.924  33.792  26.829  1.00  0.00    -0.206 F 
ATOM     80  C   UNL A   1      45.337  35.314  27.927  1.00  0.00     0.040 A 
ATOM     81  C   UNL A   1      46.425  34.679  29.981  1.00  0.00     0.040 A 
ATOM     82  F   UNL A   1      46.089  32.535  30.874  1.00  0.00    -0.206 F 
ATOM     83  C   UNL A   1      46.184  35.627  28.988  1.00  0.00     0.006 A 
ENDBRANCH  59  76
ENDBRANCH  33  34
ENDBRANCH  26  28
ENDBRANCH  25  26
ENDBRANCH  24  25
ENDBRANCH   1  24
TORSDOF 17
ENDMDL
MODEL 3
REMARK VINA RESULT:     -10.4      1.368      2.178
REMARK SMILES CCC(CC)([NH2+]Cc1ccc(Cl)cc1[N+](=O)[O-])C(=O)OCCOC(=O)c1ccc(-c2c3nc(c(-c4c(F)cccc4F)c4ccc([nH]4)c(-c4c(F)cccc4F)c4nc(c(-c5c(F)cccc5F)c5ccc2[nH]5)C=C4)C=C3)cc1
REMARK SMILES IDX 21 1 20 2 18 3 19 4 3 5 2 6 1 7 4 8 5 9 6 10 7 13 8 14 9 15
REMARK SMILES IDX 14 16 10 17 13 18 11 19 12 20 15 21 16 22 17 23 22 24 23 25
REMARK SMILES IDX 24 26 25 27 26 28 27 29 79 30 28 31 78 32 29 33 30 34 31 35
REMARK SMILES IDX 72 36 32 37 77 38 71 39 73 40 33 41 76 42 70 43 69 44 34 46
REMARK SMILES IDX 60 47 43 48 59 49 44 50 47 51 58 52 74 53 45 54 46 55 57 57
REMARK SMILES IDX 75 58 48 59 35 60 36 61 41 62 37 63 38 64 40 65 42 66 39 67
REMARK SMILES IDX 61 68 62 69 67 70 63 71 64 72 66 73 68 74 65 75 49 76 50 77
REMARK SMILES IDX 55 78 51 79 52 80 54 81 56 82 53 83
REMARK H PARENT 6 11 6 12 73 45 47 56
REMARK Flexibility Score: inf
ROOT
ATOM      1  C   UNL A   1      35.102  21.984  24.151  1.00  0.00     0.274 C 
ENDROOT
BRANCH   1   2
ATOM      2  O   UNL A   1      33.691  21.693  23.983  1.00  0.00    -0.457 OA
BRANCH   2   3
ATOM      3  C   UNL A   1      32.869  22.771  23.858  1.00  0.00     0.368 C 
ATOM      4  O   UNL A   1      32.480  23.190  22.771  1.00  0.00    -0.245 OA
BRANCH   3   5
ATOM      5  C   UNL A   1      32.433  23.425  25.211  1.00  0.00     0.194 C 
BRANCH   5   6
ATOM      6  C   UNL A   1      32.311  22.289  26.285  1.00  0.00     0.077 C 
ATOM      7  C   UNL A   1      33.053  22.508  27.603  1.00  0.00     0.011 C 
ENDBRANCH   5   6
BRANCH   5   8
ATOM      8  C   UNL A   1      31.035  24.057  24.966  1.00  0.00     0.077 C 
ATOM      9  C   UNL A   1      30.477  24.888  26.120  1.00  0.00     0.011 C 
ENDBRANCH   5   8
BRANCH   5  10
ATOM     10  N   UNL A   1      33.404  24.408  25.820  1.00  0.00    -0.328 N 
ATOM     11  H   UNL A   1      34.169  23.850  26.198  1.00  0.00     0.347 HD
ATOM     12  H   UNL A   1      32.794  24.933  26.447  1.00  0.00     0.347 HD
BRANCH  10  13
ATOM     13  C   UNL A   1      34.036  25.492  25.055  1.00  0.00     0.305 C 
BRANCH  13  14
ATOM     14  C   UNL A   1      33.471  26.897  25.181  1.00  0.00     0.084 A 
ATOM     15  C   UNL A   1      33.404  27.543  26.421  1.00  0.00     0.018 A 
ATOM     16  C   UNL A   1      32.865  27.582  24.102  1.00  0.00     0.279 A 
ATOM     17  C   UNL A   1      32.778  28.778  26.601  1.00  0.00     0.021 A 
ATOM     18  C   UNL A   1      32.239  28.834  24.263  1.00  0.00     0.106 A 
ATOM     19  C   UNL A   1      32.194  29.419  25.520  1.00  0.00     0.047 A 
ATOM     20  Cl  UNL A   1      31.402  30.924  25.751  1.00  0.00    -0.084 Cl
BRANCH  16  21
ATOM     21  N   UNL A   1      32.826  27.018  22.754  1.00  0.00     0.063 N 
ATOM     22  O   UNL A   1      31.804  26.396  22.433  1.00  0.00    -0.258 OA
ATOM     23  O   UNL A   1      33.826  27.167  22.039  1.00  0.00    -0.258 OA
ENDBRANCH  16  21
ENDBRANCH  13  14
ENDBRANCH  10  13
ENDBRANCH   5  10
ENDBRANCH   3   5
ENDBRANCH   2   3
ENDBRANCH   1   2
BRANCH   1  24
ATOM     24  C   UNL A   1      35.752  20.953  25.066  1.00  0.00     0.275 C 
BRANCH  24  25
ATOM     25  O   UNL A   1      36.704  21.653  25.877  1.00  0.00    -0.458 OA
BRANCH  25  26
ATOM     26  C   UNL A   1      37.999  21.287  25.747  1.00  0.00     0.338 C 
ATOM     27  O   UNL A   1      38.444  20.268  25.257  1.00  0.00    -0.246 OA
BRANCH  26  28
ATOM     28  C   UNL A   1      38.823  22.401  26.251  1.00  0.00     0.060 A 
ATOM     29  C   UNL A   1      38.389  23.706  26.030  1.00  0.00     0.016 A 
ATOM     30  C   UNL A   1      40.043  22.171  26.884  1.00  0.00     0.016 A 
ATOM     31  C   UNL A   1      39.183  24.780  26.406  1.00  0.00     0.010 A 
ATOM     32  C   UNL A   1      40.802  23.260  27.338  1.00  0.00     0.010 A 
ATOM     33  C   UNL A   1      40.381  24.580  27.097  1.00  0.00    -0.014 A 
BRANCH  33  34
ATOM     34  C   UNL A   1      41.175  25.761  27.531  1.00  0.00     0.031 A 
ATOM     35  C   UNL A   1      40.553  26.798  28.421  1.00  0.00     0.074 A 
ATOM     36  C   UNL A   1      42.474  25.884  27.184  1.00  0.00     0.049 A 
ATOM     37  N   UNL A   1      40.985  27.996  28.719  1.00  0.00    -0.248 NA
ATOM     38  C   UNL A   1      39.276  26.443  29.062  1.00  0.00     0.031 C 
ATOM     39  C   UNL A   1      43.251  24.906  26.418  1.00  0.00     0.029 A 
ATOM     40  N   UNL A   1      43.380  26.886  27.443  1.00  0.00    -0.354 N 
ATOM     41  C   UNL A   1      40.005  28.562  29.524  1.00  0.00     0.074 A 
ATOM     42  C   UNL A   1      38.967  27.568  29.692  1.00  0.00     0.031 C 
ATOM     43  C   UNL A   1      44.516  25.336  26.301  1.00  0.00     0.029 A 
ATOM     44  C   UNL A   1      44.612  26.673  26.871  1.00  0.00     0.049 A 
ATOM     45  H   UNL A   1      43.165  27.681  27.984  1.00  0.00     0.167 HD
ATOM     46  C   UNL A   1      39.973  29.806  30.056  1.00  0.00     0.037 A 
ATOM     47  C   UNL A   1      45.678  27.486  26.748  1.00  0.00     0.037 A 
ATOM     48  C   UNL A   1      41.037  30.767  29.935  1.00  0.00     0.049 A 
ATOM     49  C   UNL A   1      45.584  28.891  27.269  1.00  0.00     0.074 A 
ATOM     50  C   UNL A   1      41.098  32.055  30.438  1.00  0.00     0.029 A 
ATOM     51  N   UNL A   1      42.234  30.537  29.274  1.00  0.00    -0.354 N 
ATOM     52  N   UNL A   1      44.610  29.461  27.938  1.00  0.00    -0.248 NA
ATOM     53  C   UNL A   1      46.715  29.783  26.976  1.00  0.00     0.031 C 
ATOM     54  C   UNL A   1      42.319  32.618  30.051  1.00  0.00     0.029 A 
ATOM     55  C   UNL A   1      43.030  31.668  29.335  1.00  0.00     0.049 A 
ATOM     56  H   UNL A   1      42.481  29.696  28.829  1.00  0.00     0.167 HD
ATOM     57  C   UNL A   1      45.007  30.776  28.136  1.00  0.00     0.074 A 
ATOM     58  C   UNL A   1      46.322  30.912  27.548  1.00  0.00     0.031 C 
ATOM     59  C   UNL A   1      44.332  31.786  28.737  1.00  0.00     0.037 A 
BRANCH  46  60
ATOM     60  C   UNL A   1      38.726  30.225  30.771  1.00  0.00     0.057 A 
ATOM     61  C   UNL A   1      38.551  30.033  32.145  1.00  0.00     0.134 A 
ATOM     62  C   UNL A   1      37.709  30.885  30.070  1.00  0.00     0.134 A 
ATOM     63  F   UNL A   1      39.482  29.393  32.868  1.00  0.00    -0.206 F 
ATOM     64  C   UNL A   1      37.401  30.482  32.799  1.00  0.00     0.040 A 
ATOM     65  C   UNL A   1      36.564  31.353  30.715  1.00  0.00     0.040 A 
ATOM     66  F   UNL A   1      37.820  31.098  28.750  1.00  0.00    -0.206 F 
ATOM     67  C   UNL A   1      36.408  31.151  32.084  1.00  0.00     0.006 A 
ENDBRANCH  46  60
BRANCH  47  68
ATOM     68  C   UNL A   1      46.879  27.039  25.997  1.00  0.00     0.057 A 
ATOM     69  C   UNL A   1      47.938  26.386  26.637  1.00  0.00     0.134 A 
ATOM     70  C   UNL A   1      47.007  27.278  24.622  1.00  0.00     0.134 A 
ATOM     71  F   UNL A   1      47.891  26.156  27.957  1.00  0.00    -0.206 F 
ATOM     72  C   UNL A   1      49.083  25.996  25.938  1.00  0.00     0.040 A 
ATOM     73  C   UNL A   1      48.131  26.866  23.906  1.00  0.00     0.040 A 
ATOM     74  F   UNL A   1      46.030  27.907  23.950  1.00  0.00    -0.206 F 
ATOM     75  C   UNL A   1      49.178  26.230  24.567  1.00  0.00     0.006 A 
ENDBRANCH  47  68
BRANCH  59  76
ATOM     76  C   UNL A   1      45.011  33.120  28.783  1.00  0.00     0.057 A 
ATOM     77  C   UNL A   1      45.916  33.442  29.801  1.00  0.00     0.134 A 
ATOM     78  C   UNL A   1      44.783  34.075  27.786  1.00  0.00     0.134 A 
ATOM     79  F   UNL A   1      46.161  32.571  30.793  1.00  0.00    -0.206 F 
ATOM     80  C   UNL A   1      46.561  34.678  29.835  1.00  0.00     0.040 A 
ATOM     81  C   UNL A   1      45.438  35.308  27.799  1.00  0.00     0.040 A 
ATOM     82  F   UNL A   1      43.931  33.823  26.781  1.00  0.00    -0.206 F 
ATOM     83  C   UNL A   1      46.327  35.612  28.828  1.00  0.00     0.006 A 
ENDBRANCH  59  76
ENDBRANCH  33  34
ENDBRANCH  26  28
ENDBRANCH  25  26
ENDBRANCH  24  25
ENDBRANCH   1  24
TORSDOF 17
ENDMDL
