MODEL 1
REMARK VINA RESULT:     -13.7      0.000      0.000
REMARK SMILES Cc1ccc(-c2cc(C(=O)OCCOC(=O)c3ccc(-c4c5nc(c(-c6c(F)cccc6F)c6ccc([nH]6)c(-c6c(F)cccc6F)c6nc(c(-c7c(F)cccc7F)c7ccc4[nH]7)C=C6)C=C5)cc3)c3c(-c4cccc([N+](=O)[O-])c4)[nH]nc3n2)cc1
REMARK SMILES IDX 12 1 11 2 9 3 10 4 8 5 6 6 7 7 85 8 84 9 71 10 83 11 72 12
REMARK SMILES IDX 82 13 5 15 1 16 2 17 3 18 87 19 4 20 86 21 73 22 74 23 81 24
REMARK SMILES IDX 75 25 77 26 76 27 78 28 79 29 80 30 13 31 14 32 15 33 16 34
REMARK SMILES IDX 17 35 18 36 70 37 19 38 69 39 20 40 21 41 22 42 63 43 23 44
REMARK SMILES IDX 68 45 62 46 64 47 24 48 67 49 61 50 60 51 25 53 51 54 34 55
REMARK SMILES IDX 50 56 35 57 38 58 49 59 65 60 36 61 37 62 48 64 66 65 39 66
REMARK SMILES IDX 26 67 27 68 32 69 28 70 29 71 31 72 33 73 30 74 52 75 53 76
REMARK SMILES IDX 58 77 54 78 55 79 57 80 59 81 56 82 40 83 41 84 46 85 42 86
REMARK SMILES IDX 43 87 45 88 47 89 44 90
REMARK H PARENT 82 14 64 52 38 63
REMARK Flexibility Score: inf
ROOT
ATOM      1  C   UNL A   1      32.414  28.268  27.570  1.00  0.00     0.275 C 
ENDROOT
BRANCH   1   2
ATOM      2  O   UNL A   1      31.333  27.741  26.745  1.00  0.00    -0.458 OA
BRANCH   2   3
ATOM      3  C   UNL A   1      31.607  26.549  26.141  1.00  0.00     0.339 C 
ATOM      4  O   UNL A   1      31.573  25.465  26.717  1.00  0.00    -0.246 OA
BRANCH   3   5
ATOM      5  C   UNL A   1      32.371  26.634  24.886  1.00  0.00     0.075 A 
ATOM      6  C   UNL A   1      34.156  25.083  24.140  1.00  0.00     0.074 A 
ATOM      7  C   UNL A   1      33.536  25.868  25.121  1.00  0.00     0.045 A 
ATOM      8  N   UNL A   1      33.843  25.069  22.837  1.00  0.00    -0.226 NA
ATOM      9  C   UNL A   1      32.800  25.867  22.522  1.00  0.00     0.182 A 
ATOM     10  C   UNL A   1      32.011  26.652  23.489  1.00  0.00     0.061 A 
ATOM     11  N   UNL A   1      32.368  25.987  21.279  1.00  0.00    -0.154 NA
ATOM     12  C   UNL A   1      31.034  27.263  22.665  1.00  0.00     0.076 A 
ATOM     13  N   UNL A   1      31.372  26.840  21.385  1.00  0.00    -0.275 N 
ATOM     14  H   UNL A   1      30.888  27.166  20.592  1.00  0.00     0.190 HD
BRANCH   6  15
ATOM     15  C   UNL A   1      35.159  24.123  24.587  1.00  0.00     0.000 A 
ATOM     16  C   UNL A   1      38.726  21.949  25.601  1.00  0.00     0.044 C 
ATOM     17  C   UNL A   1      37.442  22.653  25.289  1.00  0.00    -0.051 A 
ATOM     18  C   UNL A   1      36.892  22.543  24.006  1.00  0.00     0.004 A 
ATOM     19  C   UNL A   1      36.803  23.449  26.245  1.00  0.00     0.004 A 
ATOM     20  C   UNL A   1      35.754  23.266  23.659  1.00  0.00     0.010 A 
ATOM     21  C   UNL A   1      35.667  24.179  25.897  1.00  0.00     0.010 A 
ENDBRANCH   6  15
BRANCH  12  22
ATOM     22  C   UNL A   1      29.877  28.201  22.655  1.00  0.00     0.007 A 
ATOM     23  C   UNL A   1      28.650  27.769  23.238  1.00  0.00     0.011 A 
ATOM     24  C   UNL A   1      29.868  29.453  22.044  1.00  0.00     0.096 A 
ATOM     25  C   UNL A   1      27.490  28.556  23.257  1.00  0.00     0.008 A 
ATOM     26  C   UNL A   1      28.732  30.288  22.174  1.00  0.00     0.270 A 
ATOM     27  C   UNL A   1      27.540  29.846  22.760  1.00  0.00     0.085 A 
BRANCH  26  28
ATOM     28  N   UNL A   1      28.819  31.704  21.820  1.00  0.00     0.062 N 
ATOM     29  O   UNL A   1      28.519  32.008  20.651  1.00  0.00    -0.258 OA
ATOM     30  O   UNL A   1      29.211  32.491  22.689  1.00  0.00    -0.258 OA
ENDBRANCH  26  28
ENDBRANCH  12  22
ENDBRANCH   3   5
ENDBRANCH   2   3
ENDBRANCH   1   2
BRANCH   1  31
ATOM     31  C   UNL A   1      32.823  29.718  27.218  1.00  0.00     0.275 C 
BRANCH  31  32
ATOM     32  O   UNL A   1      34.219  30.034  27.049  1.00  0.00    -0.458 OA
BRANCH  32  33
ATOM     33  C   UNL A   1      34.780  30.773  28.015  1.00  0.00     0.338 C 
ATOM     34  O   UNL A   1      34.182  31.633  28.649  1.00  0.00    -0.246 OA
BRANCH  33  35
ATOM     35  C   UNL A   1      36.139  30.305  28.316  1.00  0.00     0.060 A 
ATOM     36  C   UNL A   1      36.379  29.636  29.525  1.00  0.00     0.016 A 
ATOM     37  C   UNL A   1      37.086  30.317  27.299  1.00  0.00     0.016 A 
ATOM     38  C   UNL A   1      37.538  28.913  29.722  1.00  0.00     0.010 A 
ATOM     39  C   UNL A   1      38.208  29.557  27.454  1.00  0.00     0.010 A 
ATOM     40  C   UNL A   1      38.434  28.906  28.674  1.00  0.00    -0.014 A 
BRANCH  40  41
ATOM     41  C   UNL A   1      39.772  28.410  28.827  1.00  0.00     0.031 A 
ATOM     42  C   UNL A   1      40.033  27.000  28.519  1.00  0.00     0.074 A 
ATOM     43  C   UNL A   1      40.621  29.422  29.109  1.00  0.00     0.049 A 
ATOM     44  N   UNL A   1      40.933  26.288  29.098  1.00  0.00    -0.248 NA
ATOM     45  C   UNL A   1      39.210  26.208  27.595  1.00  0.00     0.031 C 
ATOM     46  C   UNL A   1      42.045  29.567  28.927  1.00  0.00     0.029 A 
ATOM     47  N   UNL A   1      40.266  30.622  29.727  1.00  0.00    -0.354 N 
ATOM     48  C   UNL A   1      41.137  25.210  28.260  1.00  0.00     0.074 A 
ATOM     49  C   UNL A   1      39.905  25.064  27.529  1.00  0.00     0.031 C 
ATOM     50  C   UNL A   1      42.476  30.622  29.649  1.00  0.00     0.029 A 
ATOM     51  C   UNL A   1      41.354  31.145  30.416  1.00  0.00     0.049 A 
ATOM     52  H   UNL A   1      39.375  31.035  29.683  1.00  0.00     0.167 HD
ATOM     53  C   UNL A   1      42.424  24.811  28.039  1.00  0.00     0.037 A 
ATOM     54  C   UNL A   1      41.296  31.212  31.783  1.00  0.00     0.037 A 
ATOM     55  C   UNL A   1      43.327  25.678  28.799  1.00  0.00     0.049 A 
ATOM     56  C   UNL A   1      42.086  30.086  32.399  1.00  0.00     0.074 A 
ATOM     57  C   UNL A   1      44.044  26.802  28.416  1.00  0.00     0.029 A 
ATOM     58  N   UNL A   1      43.246  25.720  30.186  1.00  0.00    -0.354 N 
ATOM     59  N   UNL A   1      42.381  28.973  31.789  1.00  0.00    -0.248 NA
ATOM     60  C   UNL A   1      42.665  30.179  33.732  1.00  0.00     0.031 C 
ATOM     61  C   UNL A   1      44.370  27.535  29.584  1.00  0.00     0.029 A 
ATOM     62  C   UNL A   1      43.819  26.880  30.672  1.00  0.00     0.049 A 
ATOM     63  H   UNL A   1      42.836  25.020  30.745  1.00  0.00     0.167 HD
ATOM     64  C   UNL A   1      43.275  28.267  32.548  1.00  0.00     0.074 A 
ATOM     65  C   UNL A   1      43.407  29.058  33.761  1.00  0.00     0.031 C 
ATOM     66  C   UNL A   1      43.883  27.128  32.102  1.00  0.00     0.037 A 
BRANCH  53  67
ATOM     67  C   UNL A   1      42.900  23.954  26.883  1.00  0.00     0.057 A 
ATOM     68  C   UNL A   1      42.951  22.546  27.005  1.00  0.00     0.134 A 
ATOM     69  C   UNL A   1      43.315  24.433  25.629  1.00  0.00     0.134 A 
ATOM     70  F   UNL A   1      42.517  21.913  28.102  1.00  0.00    -0.206 F 
ATOM     71  C   UNL A   1      43.442  21.700  26.005  1.00  0.00     0.040 A 
ATOM     72  C   UNL A   1      43.830  23.596  24.622  1.00  0.00     0.040 A 
ATOM     73  F   UNL A   1      43.199  25.725  25.297  1.00  0.00    -0.206 F 
ATOM     74  C   UNL A   1      43.900  22.224  24.811  1.00  0.00     0.006 A 
ENDBRANCH  53  67
BRANCH  54  75
ATOM     75  C   UNL A   1      39.963  31.679  32.271  1.00  0.00     0.057 A 
ATOM     76  C   UNL A   1      39.165  30.709  32.914  1.00  0.00     0.134 A 
ATOM     77  C   UNL A   1      39.833  32.997  32.689  1.00  0.00     0.134 A 
ATOM     78  F   UNL A   1      39.166  29.442  32.476  1.00  0.00    -0.206 F 
ATOM     79  C   UNL A   1      38.530  30.977  34.125  1.00  0.00     0.040 A 
ATOM     80  C   UNL A   1      39.215  33.260  33.902  1.00  0.00     0.040 A 
ATOM     81  F   UNL A   1      40.465  34.002  32.069  1.00  0.00    -0.206 F 
ATOM     82  C   UNL A   1      38.639  32.244  34.665  1.00  0.00     0.006 A 
ENDBRANCH  54  75
BRANCH  66  83
ATOM     83  C   UNL A   1      44.738  26.200  32.926  1.00  0.00     0.057 A 
ATOM     84  C   UNL A   1      44.247  25.353  33.924  1.00  0.00     0.134 A 
ATOM     85  C   UNL A   1      46.118  26.047  32.637  1.00  0.00     0.134 A 
ATOM     86  F   UNL A   1      42.939  25.260  34.192  1.00  0.00    -0.206 F 
ATOM     87  C   UNL A   1      45.081  24.506  34.661  1.00  0.00     0.040 A 
ATOM     88  C   UNL A   1      46.937  25.140  33.303  1.00  0.00     0.040 A 
ATOM     89  F   UNL A   1      46.737  26.752  31.679  1.00  0.00    -0.206 F 
ATOM     90  C   UNL A   1      46.428  24.390  34.345  1.00  0.00     0.006 A 
ENDBRANCH  66  83
ENDBRANCH  40  41
ENDBRANCH  33  35
ENDBRANCH  32  33
ENDBRANCH  31  32
ENDBRANCH   1  31
TORSDOF 14
ENDMDL
MODEL 2
REMARK VINA RESULT:     -13.5      3.788      8.825
REMARK SMILES Cc1ccc(-c2cc(C(=O)OCCOC(=O)c3ccc(-c4c5nc(c(-c6c(F)cccc6F)c6ccc([nH]6)c(-c6c(F)cccc6F)c6nc(c(-c7c(F)cccc7F)c7ccc4[nH]7)C=C6)C=C5)cc3)c3c(-c4cccc([N+](=O)[O-])c4)[nH]nc3n2)cc1
REMARK SMILES IDX 12 1 11 2 9 3 10 4 8 5 6 6 7 7 85 8 84 9 71 10 83 11 72 12
REMARK SMILES IDX 82 13 5 15 1 16 2 17 3 18 87 19 4 20 86 21 73 22 74 23 81 24
REMARK SMILES IDX 75 25 77 26 76 27 78 28 79 29 80 30 13 31 14 32 15 33 16 34
REMARK SMILES IDX 17 35 18 36 70 37 19 38 69 39 20 40 21 41 22 42 63 43 23 44
REMARK SMILES IDX 68 45 62 46 64 47 24 48 67 49 61 50 60 51 25 53 51 54 34 55
REMARK SMILES IDX 50 56 35 57 38 58 49 59 65 60 36 61 37 62 48 64 66 65 39 66
REMARK SMILES IDX 26 67 27 68 32 69 28 70 29 71 31 72 33 73 30 74 52 75 53 76
REMARK SMILES IDX 58 77 54 78 55 79 57 80 59 81 56 82 40 83 41 84 46 85 42 86
REMARK SMILES IDX 43 87 45 88 47 89 44 90
REMARK H PARENT 82 14 64 52 38 63
REMARK Flexibility Score: inf
ROOT
ATOM      1  C   UNL A   1      36.466  21.941  24.392  1.00  0.00     0.275 C 
ENDROOT
BRANCH   1   2
ATOM      2  O   UNL A   1      36.160  23.221  23.762  1.00  0.00    -0.458 OA
BRANCH   2   3
ATOM      3  C   UNL A   1      34.829  23.469  23.592  1.00  0.00     0.339 C 
ATOM      4  O   UNL A   1      34.360  24.054  22.620  1.00  0.00    -0.246 OA
BRANCH   3   5
ATOM      5  C   UNL A   1      34.011  23.403  24.813  1.00  0.00     0.075 A 
ATOM      6  C   UNL A   1      32.939  25.315  25.973  1.00  0.00     0.074 A 
ATOM      7  C   UNL A   1      34.033  24.718  25.333  1.00  0.00     0.045 A 
ATOM      8  N   UNL A   1      31.803  24.695  26.320  1.00  0.00    -0.226 NA
ATOM      9  C   UNL A   1      31.757  23.398  25.947  1.00  0.00     0.182 A 
ATOM     10  C   UNL A   1      32.805  22.700  25.179  1.00  0.00     0.061 A 
ATOM     11  N   UNL A   1      30.717  22.631  26.224  1.00  0.00    -0.154 NA
ATOM     12  C   UNL A   1      32.257  21.403  25.020  1.00  0.00     0.076 A 
ATOM     13  N   UNL A   1      31.055  21.466  25.715  1.00  0.00    -0.275 N 
ATOM     14  H   UNL A   1      30.483  20.673  25.824  1.00  0.00     0.190 HD
BRANCH   6  15
ATOM     15  C   UNL A   1      32.996  26.756  26.191  1.00  0.00     0.000 A 
ATOM     16  C   UNL A   1      33.584  30.760  27.641  1.00  0.00     0.044 C 
ATOM     17  C   UNL A   1      33.359  29.396  27.065  1.00  0.00    -0.051 A 
ATOM     18  C   UNL A   1      32.209  28.680  27.422  1.00  0.00     0.004 A 
ATOM     19  C   UNL A   1      34.296  28.810  26.209  1.00  0.00     0.004 A 
ATOM     20  C   UNL A   1      32.025  27.373  26.981  1.00  0.00     0.010 A 
ATOM     21  C   UNL A   1      34.115  27.498  25.771  1.00  0.00     0.010 A 
ENDBRANCH   6  15
BRANCH  12  22
ATOM     22  C   UNL A   1      32.513  20.043  24.470  1.00  0.00     0.007 A 
ATOM     23  C   UNL A   1      32.296  19.824  23.078  1.00  0.00     0.011 A 
ATOM     24  C   UNL A   1      32.875  18.930  25.226  1.00  0.00     0.096 A 
ATOM     25  C   UNL A   1      32.474  18.577  22.460  1.00  0.00     0.008 A 
ATOM     26  C   UNL A   1      33.170  17.707  24.576  1.00  0.00     0.270 A 
ATOM     27  C   UNL A   1      32.958  17.517  23.205  1.00  0.00     0.085 A 
BRANCH  26  28
ATOM     28  N   UNL A   1      33.847  16.635  25.304  1.00  0.00     0.062 N 
ATOM     29  O   UNL A   1      35.068  16.506  25.103  1.00  0.00    -0.258 OA
ATOM     30  O   UNL A   1      33.161  15.917  26.040  1.00  0.00    -0.258 OA
ENDBRANCH  26  28
ENDBRANCH  12  22
ENDBRANCH   3   5
ENDBRANCH   2   3
ENDBRANCH   1   2
BRANCH   1  31
ATOM     31  C   UNL A   1      37.444  22.047  25.586  1.00  0.00     0.275 C 
BRANCH  31  32
ATOM     32  O   UNL A   1      38.131  23.291  25.824  1.00  0.00    -0.458 OA
BRANCH  32  33
ATOM     33  C   UNL A   1      39.324  23.204  26.426  1.00  0.00     0.338 C 
ATOM     34  O   UNL A   1      40.092  22.261  26.282  1.00  0.00    -0.246 OA
BRANCH  33  35
ATOM     35  C   UNL A   1      39.650  24.447  27.137  1.00  0.00     0.060 A 
ATOM     36  C   UNL A   1      40.205  25.518  26.422  1.00  0.00     0.016 A 
ATOM     37  C   UNL A   1      39.176  24.614  28.432  1.00  0.00     0.016 A 
ATOM     38  C   UNL A   1      40.241  26.790  26.957  1.00  0.00     0.010 A 
ATOM     39  C   UNL A   1      39.148  25.875  28.951  1.00  0.00     0.010 A 
ATOM     40  C   UNL A   1      39.718  26.930  28.225  1.00  0.00    -0.014 A 
BRANCH  40  41
ATOM     41  C   UNL A   1      39.911  28.126  28.994  1.00  0.00     0.031 A 
ATOM     42  C   UNL A   1      38.943  29.217  28.843  1.00  0.00     0.074 A 
ATOM     43  C   UNL A   1      40.927  27.965  29.869  1.00  0.00     0.049 A 
ATOM     44  N   UNL A   1      39.232  30.462  28.973  1.00  0.00    -0.248 NA
ATOM     45  C   UNL A   1      37.556  29.013  28.403  1.00  0.00     0.031 C 
ATOM     46  C   UNL A   1      41.243  28.622  31.114  1.00  0.00     0.029 A 
ATOM     47  N   UNL A   1      41.994  27.080  29.710  1.00  0.00    -0.354 N 
ATOM     48  C   UNL A   1      38.021  31.096  29.176  1.00  0.00     0.074 A 
ATOM     49  C   UNL A   1      37.042  30.241  28.556  1.00  0.00     0.031 C 
ATOM     50  C   UNL A   1      42.518  28.336  31.453  1.00  0.00     0.029 A 
ATOM     51  C   UNL A   1      43.115  27.557  30.378  1.00  0.00     0.049 A 
ATOM     52  H   UNL A   1      41.957  26.240  29.197  1.00  0.00     0.167 HD
ATOM     53  C   UNL A   1      37.963  32.064  30.138  1.00  0.00     0.037 A 
ATOM     54  C   UNL A   1      44.207  27.937  29.642  1.00  0.00     0.037 A 
ATOM     55  C   UNL A   1      39.286  32.203  30.751  1.00  0.00     0.049 A 
ATOM     56  C   UNL A   1      44.262  29.437  29.518  1.00  0.00     0.074 A 
ATOM     57  C   UNL A   1      39.810  31.657  31.913  1.00  0.00     0.029 A 
ATOM     58  N   UNL A   1      40.372  32.594  29.977  1.00  0.00    -0.354 N 
ATOM     59  N   UNL A   1      43.234  30.227  29.658  1.00  0.00    -0.248 NA
ATOM     60  C   UNL A   1      45.509  30.156  29.300  1.00  0.00     0.031 C 
ATOM     61  C   UNL A   1      41.224  31.700  31.820  1.00  0.00     0.029 A 
ATOM     62  C   UNL A   1      41.559  32.233  30.588  1.00  0.00     0.049 A 
ATOM     63  H   UNL A   1      40.306  33.064  29.115  1.00  0.00     0.167 HD
ATOM     64  C   UNL A   1      43.665  31.525  29.692  1.00  0.00     0.074 A 
ATOM     65  C   UNL A   1      45.095  31.426  29.447  1.00  0.00     0.031 C 
ATOM     66  C   UNL A   1      42.834  32.571  29.979  1.00  0.00     0.037 A 
BRANCH  53  67
ATOM     67  C   UNL A   1      36.701  32.583  30.797  1.00  0.00     0.057 A 
ATOM     68  C   UNL A   1      36.001  33.680  30.244  1.00  0.00     0.134 A 
ATOM     69  C   UNL A   1      36.115  32.061  31.962  1.00  0.00     0.134 A 
ATOM     70  F   UNL A   1      36.371  34.250  29.090  1.00  0.00    -0.206 F 
ATOM     71  C   UNL A   1      34.869  34.253  30.834  1.00  0.00     0.040 A 
ATOM     72  C   UNL A   1      34.990  32.639  32.578  1.00  0.00     0.040 A 
ATOM     73  F   UNL A   1      36.570  30.939  32.536  1.00  0.00    -0.206 F 
ATOM     74  C   UNL A   1      34.366  33.744  32.018  1.00  0.00     0.006 A 
ENDBRANCH  53  67
BRANCH  54  75
ATOM     75  C   UNL A   1      44.500  26.982  28.530  1.00  0.00     0.057 A 
ATOM     76  C   UNL A   1      44.233  27.449  27.226  1.00  0.00     0.134 A 
ATOM     77  C   UNL A   1      45.544  26.080  28.686  1.00  0.00     0.134 A 
ATOM     78  F   UNL A   1      43.168  28.232  26.999  1.00  0.00    -0.206 F 
ATOM     79  C   UNL A   1      45.158  27.298  26.195  1.00  0.00     0.040 A 
ATOM     80  C   UNL A   1      46.472  25.942  27.666  1.00  0.00     0.040 A 
ATOM     81  F   UNL A   1      45.806  25.497  29.864  1.00  0.00    -0.206 F 
ATOM     82  C   UNL A   1      46.331  26.614  26.452  1.00  0.00     0.006 A 
ENDBRANCH  54  75
BRANCH  66  83
ATOM     83  C   UNL A   1      43.180  34.033  29.868  1.00  0.00     0.057 A 
ATOM     84  C   UNL A   1      43.311  34.897  30.959  1.00  0.00     0.134 A 
ATOM     85  C   UNL A   1      43.519  34.599  28.613  1.00  0.00     0.134 A 
ATOM     86  F   UNL A   1      43.191  34.467  32.221  1.00  0.00    -0.206 F 
ATOM     87  C   UNL A   1      43.637  36.248  30.806  1.00  0.00     0.040 A 
ATOM     88  C   UNL A   1      43.934  35.919  28.462  1.00  0.00     0.040 A 
ATOM     89  F   UNL A   1      43.489  33.894  27.472  1.00  0.00    -0.206 F 
ATOM     90  C   UNL A   1      43.960  36.761  29.557  1.00  0.00     0.006 A 
ENDBRANCH  66  83
ENDBRANCH  40  41
ENDBRANCH  33  35
ENDBRANCH  32  33
ENDBRANCH  31  32
ENDBRANCH   1  31
TORSDOF 14
ENDMDL
MODEL 3
REMARK VINA RESULT:     -13.4      1.790      2.882
REMARK SMILES Cc1ccc(-c2cc(C(=O)OCCOC(=O)c3ccc(-c4c5nc(c(-c6c(F)cccc6F)c6ccc([nH]6)c(-c6c(F)cccc6F)c6nc(c(-c7c(F)cccc7F)c7ccc4[nH]7)C=C6)C=C5)cc3)c3c(-c4cccc([N+](=O)[O-])c4)[nH]nc3n2)cc1
REMARK SMILES IDX 12 1 11 2 9 3 10 4 8 5 6 6 7 7 85 8 84 9 71 10 83 11 72 12
REMARK SMILES IDX 82 13 5 15 1 16 2 17 3 18 87 19 4 20 86 21 73 22 74 23 81 24
REMARK SMILES IDX 75 25 77 26 76 27 78 28 79 29 80 30 13 31 14 32 15 33 16 34
REMARK SMILES IDX 17 35 18 36 70 37 19 38 69 39 20 40 21 41 22 42 63 43 23 44
REMARK SMILES IDX 68 45 62 46 64 47 24 48 67 49 61 50 60 51 25 53 51 54 34 55
REMARK SMILES IDX 50 56 35 57 38 58 49 59 65 60 36 61 37 62 48 64 66 65 39 66
REMARK SMILES IDX 26 67 27 68 32 69 28 70 29 71 31 72 33 73 30 74 52 75 53 76
REMARK SMILES IDX 58 77 54 78 55 79 57 80 59 81 56 82 40 83 41 84 46 85 42 86
REMARK SMILES IDX 43 87 45 88 47 89 44 90
REMARK H PARENT 82 14 64 52 38 63
REMARK Flexibility Score: inf
ROOT
ATOM      1  C   UNL A   1      32.138  28.177  27.482  1.00  0.00     0.275 C 
ENDROOT
BRANCH   1   2
ATOM      2  O   UNL A   1      31.022  27.420  26.924  1.00  0.00    -0.458 OA
BRANCH   2   3
ATOM      3  C   UNL A   1      31.379  26.269  26.283  1.00  0.00     0.339 C 
ATOM      4  O   UNL A   1      31.349  25.158  26.804  1.00  0.00    -0.246 OA
BRANCH   3   5
ATOM      5  C   UNL A   1      32.218  26.444  25.087  1.00  0.00     0.075 A 
ATOM      6  C   UNL A   1      34.061  24.957  24.351  1.00  0.00     0.074 A 
ATOM      7  C   UNL A   1      33.374  25.670  25.342  1.00  0.00     0.045 A 
ATOM      8  N   UNL A   1      33.829  25.028  23.033  1.00  0.00    -0.226 NA
ATOM      9  C   UNL A   1      32.800  25.840  22.708  1.00  0.00     0.182 A 
ATOM     10  C   UNL A   1      31.945  26.554  23.675  1.00  0.00     0.061 A 
ATOM     11  N   UNL A   1      32.444  26.041  21.451  1.00  0.00    -0.154 NA
ATOM     12  C   UNL A   1      31.014  27.213  22.834  1.00  0.00     0.076 A 
ATOM     13  N   UNL A   1      31.435  26.879  21.552  1.00  0.00    -0.275 N 
ATOM     14  H   UNL A   1      30.998  27.255  20.755  1.00  0.00     0.190 HD
BRANCH   6  15
ATOM     15  C   UNL A   1      35.045  23.975  24.794  1.00  0.00     0.000 A 
ATOM     16  C   UNL A   1      38.440  21.399  25.361  1.00  0.00     0.044 C 
ATOM     17  C   UNL A   1      37.231  22.274  25.235  1.00  0.00    -0.051 A 
ATOM     18  C   UNL A   1      36.184  21.883  24.391  1.00  0.00     0.004 A 
ATOM     19  C   UNL A   1      37.147  23.492  25.916  1.00  0.00     0.004 A 
ATOM     20  C   UNL A   1      35.095  22.723  24.178  1.00  0.00     0.010 A 
ATOM     21  C   UNL A   1      36.058  24.338  25.699  1.00  0.00     0.010 A 
ENDBRANCH   6  15
BRANCH  12  22
ATOM     22  C   UNL A   1      29.851  28.143  22.815  1.00  0.00     0.007 A 
ATOM     23  C   UNL A   1      28.604  27.677  23.327  1.00  0.00     0.011 A 
ATOM     24  C   UNL A   1      29.857  29.419  22.259  1.00  0.00     0.096 A 
ATOM     25  C   UNL A   1      27.437  28.455  23.331  1.00  0.00     0.008 A 
ATOM     26  C   UNL A   1      28.709  30.241  22.376  1.00  0.00     0.270 A 
ATOM     27  C   UNL A   1      27.497  29.766  22.891  1.00  0.00     0.085 A 
BRANCH  26  28
ATOM     28  N   UNL A   1      28.799  31.671  22.086  1.00  0.00     0.062 N 
ATOM     29  O   UNL A   1      28.512  32.027  20.929  1.00  0.00    -0.258 OA
ATOM     30  O   UNL A   1      29.181  32.418  22.994  1.00  0.00    -0.258 OA
ENDBRANCH  26  28
ENDBRANCH  12  22
ENDBRANCH   3   5
ENDBRANCH   2   3
ENDBRANCH   1   2
BRANCH   1  31
ATOM     31  C   UNL A   1      32.173  29.659  27.041  1.00  0.00     0.275 C 
BRANCH  31  32
ATOM     32  O   UNL A   1      33.429  30.246  26.645  1.00  0.00    -0.458 OA
BRANCH  32  33
ATOM     33  C   UNL A   1      33.897  31.227  27.427  1.00  0.00     0.338 C 
ATOM     34  O   UNL A   1      33.208  32.144  27.856  1.00  0.00    -0.246 OA
BRANCH  33  35
ATOM     35  C   UNL A   1      35.286  30.967  27.826  1.00  0.00     0.060 A 
ATOM     36  C   UNL A   1      36.188  32.039  27.896  1.00  0.00     0.016 A 
ATOM     37  C   UNL A   1      35.603  29.723  28.358  1.00  0.00     0.016 A 
ATOM     38  C   UNL A   1      37.397  31.912  28.551  1.00  0.00     0.010 A 
ATOM     39  C   UNL A   1      36.765  29.600  29.062  1.00  0.00     0.010 A 
ATOM     40  C   UNL A   1      37.658  30.678  29.110  1.00  0.00    -0.014 A 
BRANCH  40  41
ATOM     41  C   UNL A   1      38.961  30.331  29.599  1.00  0.00     0.031 A 
ATOM     42  C   UNL A   1      39.618  29.140  29.050  1.00  0.00     0.074 A 
ATOM     43  C   UNL A   1      39.430  31.297  30.419  1.00  0.00     0.049 A 
ATOM     44  N   UNL A   1      40.436  28.399  29.708  1.00  0.00    -0.248 NA
ATOM     45  C   UNL A   1      39.317  28.591  27.721  1.00  0.00     0.031 C 
ATOM     46  C   UNL A   1      40.770  31.670  30.804  1.00  0.00     0.029 A 
ATOM     47  N   UNL A   1      38.641  32.180  31.156  1.00  0.00    -0.354 N 
ATOM     48  C   UNL A   1      41.126  27.682  28.749  1.00  0.00     0.074 A 
ATOM     49  C   UNL A   1      40.241  27.625  27.614  1.00  0.00     0.031 C 
ATOM     50  C   UNL A   1      40.709  32.483  31.880  1.00  0.00     0.029 A 
ATOM     51  C   UNL A   1      39.319  32.586  32.300  1.00  0.00     0.049 A 
ATOM     52  H   UNL A   1      37.736  32.471  30.904  1.00  0.00     0.167 HD
ATOM     53  C   UNL A   1      42.474  27.539  28.909  1.00  0.00     0.037 A 
ATOM     54  C   UNL A   1      38.835  32.202  33.523  1.00  0.00     0.037 A 
ATOM     55  C   UNL A   1      42.881  28.222  30.140  1.00  0.00     0.049 A 
ATOM     56  C   UNL A   1      39.634  31.046  34.067  1.00  0.00     0.074 A 
ATOM     57  C   UNL A   1      43.404  29.490  30.345  1.00  0.00     0.029 A 
ATOM     58  N   UNL A   1      42.374  27.805  31.365  1.00  0.00    -0.354 N 
ATOM     59  N   UNL A   1      40.346  30.234  33.337  1.00  0.00    -0.248 NA
ATOM     60  C   UNL A   1      39.743  30.777  35.493  1.00  0.00     0.031 C 
ATOM     61  C   UNL A   1      43.184  29.843  31.700  1.00  0.00     0.029 A 
ATOM     62  C   UNL A   1      42.492  28.810  32.307  1.00  0.00     0.049 A 
ATOM     63  H   UNL A   1      41.985  26.917  31.538  1.00  0.00     0.167 HD
ATOM     64  C   UNL A   1      41.102  29.440  34.155  1.00  0.00     0.074 A 
ATOM     65  C   UNL A   1      40.675  29.809  35.495  1.00  0.00     0.031 C 
ATOM     66  C   UNL A   1      42.060  28.590  33.678  1.00  0.00     0.037 A 
BRANCH  53  67
ATOM     67  C   UNL A   1      43.461  27.167  27.822  1.00  0.00     0.057 A 
ATOM     68  C   UNL A   1      43.830  28.107  26.833  1.00  0.00     0.134 A 
ATOM     69  C   UNL A   1      44.089  25.917  27.683  1.00  0.00     0.134 A 
ATOM     70  F   UNL A   1      43.391  29.372  26.858  1.00  0.00    -0.206 F 
ATOM     71  C   UNL A   1      44.682  27.812  25.763  1.00  0.00     0.040 A 
ATOM     72  C   UNL A   1      44.931  25.600  26.601  1.00  0.00     0.040 A 
ATOM     73  F   UNL A   1      43.959  24.958  28.609  1.00  0.00    -0.206 F 
ATOM     74  C   UNL A   1      45.225  26.547  25.632  1.00  0.00     0.006 A 
ENDBRANCH  53  67
BRANCH  54  75
ATOM     75  C   UNL A   1      37.347  32.316  33.603  1.00  0.00     0.057 A 
ATOM     76  C   UNL A   1      36.831  33.624  33.717  1.00  0.00     0.134 A 
ATOM     77  C   UNL A   1      36.570  31.377  32.937  1.00  0.00     0.134 A 
ATOM     78  F   UNL A   1      37.484  34.541  34.446  1.00  0.00    -0.206 F 
ATOM     79  C   UNL A   1      35.772  34.060  32.924  1.00  0.00     0.040 A 
ATOM     80  C   UNL A   1      35.526  31.813  32.137  1.00  0.00     0.040 A 
ATOM     81  F   UNL A   1      36.922  30.085  32.872  1.00  0.00    -0.206 F 
ATOM     82  C   UNL A   1      35.178  33.161  32.058  1.00  0.00     0.006 A 
ENDBRANCH  54  75
BRANCH  66  83
ATOM     83  C   UNL A   1      42.812  27.562  34.482  1.00  0.00     0.057 A 
ATOM     84  C   UNL A   1      44.141  27.699  34.893  1.00  0.00     0.134 A 
ATOM     85  C   UNL A   1      42.148  26.414  34.983  1.00  0.00     0.134 A 
ATOM     86  F   UNL A   1      44.848  28.809  34.643  1.00  0.00    -0.206 F 
ATOM     87  C   UNL A   1      44.797  26.717  35.642  1.00  0.00     0.040 A 
ATOM     88  C   UNL A   1      42.765  25.477  35.806  1.00  0.00     0.040 A 
ATOM     89  F   UNL A   1      40.858  26.155  34.719  1.00  0.00    -0.206 F 
ATOM     90  C   UNL A   1      44.107  25.607  36.109  1.00  0.00     0.006 A 
ENDBRANCH  66  83
ENDBRANCH  40  41
ENDBRANCH  33  35
ENDBRANCH  32  33
ENDBRANCH  31  32
ENDBRANCH   1  31
TORSDOF 14
ENDMDL
