MODEL 1
REMARK VINA RESULT:     -11.5      0.000      0.000
REMARK SMILES CCOC(=O)c1c(S(=O)(=O)N2CCC[C@@H](C(=O)OCCOC(=O)c3ccc(-c4c5nc(c(-c6c(F)cccc6F)c6ccc([nH]6)c(-c6c(F)cccc6F)c6nc(c(-c7c(F)cccc7F)c7ccc4[nH]7)C=C6)C=C5)cc3)C2)c(C)n(C)c1C
REMARK SMILES IDX 18 1 16 2 17 3 15 4 11 5 12 6 78 7 13 8 14 9 8 10 9 11 10 12
REMARK SMILES IDX 7 13 6 14 83 15 79 16 81 17 84 18 80 19 82 20 4 21 5 22 3 23
REMARK SMILES IDX 2 24 1 25 19 26 20 27 21 28 22 29 23 30 24 31 25 32 77 33
REMARK SMILES IDX 26 34 76 35 27 36 28 37 29 38 70 39 30 40 75 41 69 42 71 43
REMARK SMILES IDX 31 44 74 45 68 46 67 47 32 49 58 50 41 51 57 52 42 53 45 54
REMARK SMILES IDX 56 55 72 56 43 57 44 58 55 60 73 61 46 62 33 63 34 64 39 65
REMARK SMILES IDX 35 66 36 67 38 68 40 69 37 70 59 71 60 72 65 73 61 74 62 75
REMARK SMILES IDX 64 76 66 77 63 78 47 79 48 80 53 81 49 82 50 83 52 84 54 85
REMARK SMILES IDX 51 86
REMARK H PARENT 71 48 45 59
REMARK Flexibility Score: inf
ROOT
ATOM      1  O   UNL A   1      32.355  28.871  25.616  1.00  0.00    -0.462 OA
ENDROOT
BRANCH   1   2
ATOM      2  C   UNL A   1      33.638  28.402  25.692  1.00  0.00     0.310 C 
ATOM      3  O   UNL A   1      34.455  28.750  26.534  1.00  0.00    -0.252 OA
BRANCH   2   4
ATOM      4  C   UNL A   1      33.906  27.346  24.631  1.00  0.00     0.114 C 
ATOM      5  N   UNL A   1      33.432  24.864  24.398  1.00  0.00    -0.197 NA
ATOM      6  C   UNL A   1      32.749  25.060  23.111  1.00  0.00     0.102 C 
ATOM      7  C   UNL A   1      33.708  25.995  25.289  1.00  0.00     0.117 C 
ATOM      8  C   UNL A   1      33.096  26.384  22.453  1.00  0.00     0.018 C 
ATOM      9  C   UNL A   1      33.008  27.555  23.414  1.00  0.00     0.018 C 
BRANCH   5  10
ATOM     10  S   UNL A   1      33.082  23.429  25.218  1.00  0.00     0.245 S 
ATOM     11  O   UNL A   1      31.990  22.790  24.511  1.00  0.00    -0.207 OA
ATOM     12  O   UNL A   1      32.982  23.730  26.631  1.00  0.00    -0.207 OA
BRANCH  10  13
ATOM     13  C   UNL A   1      34.334  22.206  25.150  1.00  0.00     0.118 A 
ATOM     14  C   UNL A   1      34.270  20.780  24.987  1.00  0.00     0.101 A 
ATOM     15  C   UNL A   1      35.595  20.326  24.995  1.00  0.00     0.030 A 
ATOM     16  C   UNL A   1      35.675  22.545  25.334  1.00  0.00     0.035 A 
ATOM     17  N   UNL A   1      36.422  21.399  25.223  1.00  0.00    -0.350 N 
ATOM     18  C   UNL A   1      36.120  18.944  24.767  1.00  0.00     0.065 C 
ATOM     19  C   UNL A   1      36.263  23.894  25.607  1.00  0.00     0.066 C 
ATOM     20  C   UNL A   1      37.869  21.351  25.309  1.00  0.00     0.149 C 
BRANCH  14  21
ATOM     21  C   UNL A   1      33.174  19.846  24.766  1.00  0.00     0.341 C 
ATOM     22  O   UNL A   1      32.283  19.637  25.584  1.00  0.00    -0.246 OA
BRANCH  21  23
ATOM     23  O   UNL A   1      33.156  19.366  23.487  1.00  0.00    -0.462 OA
BRANCH  23  24
ATOM     24  C   UNL A   1      32.507  18.097  23.290  1.00  0.00     0.230 C 
ATOM     25  C   UNL A   1      33.459  16.940  23.462  1.00  0.00     0.049 C 
ENDBRANCH  23  24
ENDBRANCH  21  23
ENDBRANCH  14  21
ENDBRANCH  10  13
ENDBRANCH   5  10
ENDBRANCH   2   4
ENDBRANCH   1   2
BRANCH   1  26
ATOM     26  C   UNL A   1      31.799  29.568  26.747  1.00  0.00     0.274 C 
BRANCH  26  27
ATOM     27  C   UNL A   1      31.901  31.079  26.605  1.00  0.00     0.275 C 
BRANCH  27  28
ATOM     28  O   UNL A   1      32.968  31.561  27.408  1.00  0.00    -0.458 OA
BRANCH  28  29
ATOM     29  C   UNL A   1      32.882  32.867  27.743  1.00  0.00     0.338 C 
ATOM     30  O   UNL A   1      32.012  33.660  27.426  1.00  0.00    -0.246 OA
BRANCH  29  31
ATOM     31  C   UNL A   1      34.074  33.238  28.504  1.00  0.00     0.060 A 
ATOM     32  C   UNL A   1      35.094  33.871  27.788  1.00  0.00     0.016 A 
ATOM     33  C   UNL A   1      34.282  32.627  29.745  1.00  0.00     0.016 A 
ATOM     34  C   UNL A   1      36.387  33.606  28.162  1.00  0.00     0.010 A 
ATOM     35  C   UNL A   1      35.568  32.342  30.101  1.00  0.00     0.010 A 
ATOM     36  C   UNL A   1      36.585  32.736  29.235  1.00  0.00    -0.014 A 
BRANCH  36  37
ATOM     37  C   UNL A   1      37.915  32.251  29.492  1.00  0.00     0.031 A 
ATOM     38  C   UNL A   1      38.069  30.841  29.103  1.00  0.00     0.074 A 
ATOM     39  C   UNL A   1      38.885  33.086  29.909  1.00  0.00     0.049 A 
ATOM     40  N   UNL A   1      38.235  29.831  29.887  1.00  0.00    -0.248 NA
ATOM     41  C   UNL A   1      37.777  30.479  27.704  1.00  0.00     0.031 C 
ATOM     42  C   UNL A   1      38.828  34.543  30.071  1.00  0.00     0.029 A 
ATOM     43  N   UNL A   1      40.190  32.803  30.162  1.00  0.00    -0.354 N 
ATOM     44  C   UNL A   1      38.314  28.733  29.043  1.00  0.00     0.074 A 
ATOM     45  C   UNL A   1      37.781  29.148  27.776  1.00  0.00     0.031 C 
ATOM     46  C   UNL A   1      40.086  35.032  30.157  1.00  0.00     0.029 A 
ATOM     47  C   UNL A   1      41.020  33.922  30.174  1.00  0.00     0.049 A 
ATOM     48  H   UNL A   1      40.519  31.889  30.324  1.00  0.00     0.167 HD
ATOM     49  C   UNL A   1      39.109  27.679  29.360  1.00  0.00     0.037 A 
ATOM     50  C   UNL A   1      42.374  33.876  30.077  1.00  0.00     0.037 A 
ATOM     51  C   UNL A   1      39.446  27.685  30.764  1.00  0.00     0.049 A 
ATOM     52  C   UNL A   1      42.789  32.493  30.454  1.00  0.00     0.074 A 
ATOM     53  C   UNL A   1      38.706  27.663  31.931  1.00  0.00     0.029 A 
ATOM     54  N   UNL A   1      40.692  28.145  31.116  1.00  0.00    -0.354 N 
ATOM     55  N   UNL A   1      42.675  32.014  31.663  1.00  0.00    -0.248 NA
ATOM     56  C   UNL A   1      42.839  31.495  29.392  1.00  0.00     0.031 C 
ATOM     57  C   UNL A   1      39.383  28.550  32.817  1.00  0.00     0.029 A 
ATOM     58  C   UNL A   1      40.538  29.001  32.177  1.00  0.00     0.049 A 
ATOM     59  H   UNL A   1      41.544  27.903  30.685  1.00  0.00     0.167 HD
ATOM     60  C   UNL A   1      42.195  30.722  31.486  1.00  0.00     0.074 A 
ATOM     61  C   UNL A   1      42.379  30.435  30.064  1.00  0.00     0.031 C 
ATOM     62  C   UNL A   1      41.412  30.123  32.432  1.00  0.00     0.037 A 
BRANCH  49  63
ATOM     63  C   UNL A   1      39.905  26.912  28.338  1.00  0.00     0.057 A 
ATOM     64  C   UNL A   1      40.763  27.619  27.482  1.00  0.00     0.134 A 
ATOM     65  C   UNL A   1      39.658  25.571  27.968  1.00  0.00     0.134 A 
ATOM     66  F   UNL A   1      41.058  28.906  27.718  1.00  0.00    -0.206 F 
ATOM     67  C   UNL A   1      41.277  27.057  26.309  1.00  0.00     0.040 A 
ATOM     68  C   UNL A   1      40.212  24.984  26.831  1.00  0.00     0.040 A 
ATOM     69  F   UNL A   1      38.791  24.786  28.616  1.00  0.00    -0.206 F 
ATOM     70  C   UNL A   1      40.998  25.737  25.977  1.00  0.00     0.006 A 
ENDBRANCH  49  63
BRANCH  50  71
ATOM     71  C   UNL A   1      43.271  34.798  29.337  1.00  0.00     0.057 A 
ATOM     72  C   UNL A   1      43.474  34.653  27.955  1.00  0.00     0.134 A 
ATOM     73  C   UNL A   1      43.732  36.004  29.898  1.00  0.00     0.134 A 
ATOM     74  F   UNL A   1      43.040  33.557  27.316  1.00  0.00    -0.206 F 
ATOM     75  C   UNL A   1      44.064  35.658  27.176  1.00  0.00     0.040 A 
ATOM     76  C   UNL A   1      44.330  37.011  29.132  1.00  0.00     0.040 A 
ATOM     77  F   UNL A   1      43.539  36.292  31.192  1.00  0.00    -0.206 F 
ATOM     78  C   UNL A   1      44.483  36.848  27.762  1.00  0.00     0.006 A 
ENDBRANCH  50  71
BRANCH  62  79
ATOM     79  C   UNL A   1      41.270  30.807  33.766  1.00  0.00     0.057 A 
ATOM     80  C   UNL A   1      40.288  31.766  34.063  1.00  0.00     0.134 A 
ATOM     81  C   UNL A   1      42.063  30.368  34.832  1.00  0.00     0.134 A 
ATOM     82  F   UNL A   1      39.407  32.165  33.138  1.00  0.00    -0.206 F 
ATOM     83  C   UNL A   1      40.142  32.302  35.346  1.00  0.00     0.040 A 
ATOM     84  C   UNL A   1      41.903  30.869  36.126  1.00  0.00     0.040 A 
ATOM     85  F   UNL A   1      42.981  29.409  34.640  1.00  0.00    -0.206 F 
ATOM     86  C   UNL A   1      40.949  31.849  36.385  1.00  0.00     0.006 A 
ENDBRANCH  62  79
ENDBRANCH  36  37
ENDBRANCH  29  31
ENDBRANCH  28  29
ENDBRANCH  27  28
ENDBRANCH  26  27
ENDBRANCH   1  26
TORSDOF 16
ENDMDL
MODEL 2
REMARK VINA RESULT:     -11.3      2.452      6.250
REMARK SMILES CCOC(=O)c1c(S(=O)(=O)N2CCC[C@@H](C(=O)OCCOC(=O)c3ccc(-c4c5nc(c(-c6c(F)cccc6F)c6ccc([nH]6)c(-c6c(F)cccc6F)c6nc(c(-c7c(F)cccc7F)c7ccc4[nH]7)C=C6)C=C5)cc3)C2)c(C)n(C)c1C
REMARK SMILES IDX 18 1 16 2 17 3 15 4 11 5 12 6 78 7 13 8 14 9 8 10 9 11 10 12
REMARK SMILES IDX 7 13 6 14 83 15 79 16 81 17 84 18 80 19 82 20 4 21 5 22 3 23
REMARK SMILES IDX 2 24 1 25 19 26 20 27 21 28 22 29 23 30 24 31 25 32 77 33
REMARK SMILES IDX 26 34 76 35 27 36 28 37 29 38 70 39 30 40 75 41 69 42 71 43
REMARK SMILES IDX 31 44 74 45 68 46 67 47 32 49 58 50 41 51 57 52 42 53 45 54
REMARK SMILES IDX 56 55 72 56 43 57 44 58 55 60 73 61 46 62 33 63 34 64 39 65
REMARK SMILES IDX 35 66 36 67 38 68 40 69 37 70 59 71 60 72 65 73 61 74 62 75
REMARK SMILES IDX 64 76 66 77 63 78 47 79 48 80 53 81 49 82 50 83 52 84 54 85
REMARK SMILES IDX 51 86
REMARK H PARENT 71 48 45 59
REMARK Flexibility Score: inf
ROOT
ATOM      1  O   UNL A   1      33.198  29.516  25.833  1.00  0.00    -0.462 OA
ENDROOT
BRANCH   1   2
ATOM      2  C   UNL A   1      32.551  28.325  25.648  1.00  0.00     0.310 C 
ATOM      3  O   UNL A   1      31.428  28.072  26.065  1.00  0.00    -0.252 OA
BRANCH   2   4
ATOM      4  C   UNL A   1      33.380  27.370  24.802  1.00  0.00     0.114 C 
ATOM      5  N   UNL A   1      33.458  24.855  24.475  1.00  0.00    -0.197 NA
ATOM      6  C   UNL A   1      33.301  24.985  23.019  1.00  0.00     0.102 C 
ATOM      7  C   UNL A   1      33.174  25.980  25.372  1.00  0.00     0.117 C 
ATOM      8  C   UNL A   1      33.646  26.374  22.509  1.00  0.00     0.018 C 
ATOM      9  C   UNL A   1      32.999  27.475  23.328  1.00  0.00     0.018 C 
BRANCH   5  10
ATOM     10  S   UNL A   1      33.066  23.351  25.136  1.00  0.00     0.245 S 
ATOM     11  O   UNL A   1      32.069  22.752  24.272  1.00  0.00    -0.207 OA
ATOM     12  O   UNL A   1      32.817  23.531  26.551  1.00  0.00    -0.207 OA
BRANCH  10  13
ATOM     13  C   UNL A   1      34.351  22.161  25.098  1.00  0.00     0.118 A 
ATOM     14  C   UNL A   1      34.326  20.729  24.996  1.00  0.00     0.101 A 
ATOM     15  C   UNL A   1      35.663  20.312  25.001  1.00  0.00     0.030 A 
ATOM     16  C   UNL A   1      35.685  22.545  25.246  1.00  0.00     0.035 A 
ATOM     17  N   UNL A   1      36.463  21.417  25.170  1.00  0.00    -0.350 N 
ATOM     18  C   UNL A   1      36.225  18.937  24.822  1.00  0.00     0.065 C 
ATOM     19  C   UNL A   1      36.239  23.921  25.453  1.00  0.00     0.066 C 
ATOM     20  C   UNL A   1      37.912  21.413  25.234  1.00  0.00     0.149 C 
BRANCH  14  21
ATOM     21  C   UNL A   1      33.254  19.756  24.833  1.00  0.00     0.341 C 
ATOM     22  O   UNL A   1      32.531  19.380  25.750  1.00  0.00    -0.246 OA
BRANCH  21  23
ATOM     23  O   UNL A   1      33.035  19.446  23.520  1.00  0.00    -0.462 OA
BRANCH  23  24
ATOM     24  C   UNL A   1      32.529  18.126  23.251  1.00  0.00     0.230 C 
ATOM     25  C   UNL A   1      33.636  17.109  23.127  1.00  0.00     0.049 C 
ENDBRANCH  23  24
ENDBRANCH  21  23
ENDBRANCH  14  21
ENDBRANCH  10  13
ENDBRANCH   5  10
ENDBRANCH   2   4
ENDBRANCH   1   2
BRANCH   1  26
ATOM     26  C   UNL A   1      32.495  30.598  26.474  1.00  0.00     0.274 C 
BRANCH  26  27
ATOM     27  C   UNL A   1      33.295  31.220  27.609  1.00  0.00     0.275 C 
BRANCH  27  28
ATOM     28  O   UNL A   1      34.661  30.855  27.481  1.00  0.00    -0.458 OA
BRANCH  28  29
ATOM     29  C   UNL A   1      35.537  31.760  27.969  1.00  0.00     0.338 C 
ATOM     30  O   UNL A   1      35.675  32.922  27.626  1.00  0.00    -0.246 OA
BRANCH  29  31
ATOM     31  C   UNL A   1      36.395  31.103  28.954  1.00  0.00     0.060 A 
ATOM     32  C   UNL A   1      37.419  31.880  29.502  1.00  0.00     0.016 A 
ATOM     33  C   UNL A   1      36.393  29.705  29.003  1.00  0.00     0.016 A 
ATOM     34  C   UNL A   1      38.597  31.249  29.809  1.00  0.00     0.010 A 
ATOM     35  C   UNL A   1      37.574  29.080  29.282  1.00  0.00     0.010 A 
ATOM     36  C   UNL A   1      38.681  29.878  29.562  1.00  0.00    -0.014 A 
BRANCH  36  37
ATOM     37  C   UNL A   1      39.968  29.241  29.641  1.00  0.00     0.031 A 
ATOM     38  C   UNL A   1      40.446  29.142  31.029  1.00  0.00     0.074 A 
ATOM     39  C   UNL A   1      40.539  28.701  28.548  1.00  0.00     0.049 A 
ATOM     40  N   UNL A   1      41.436  29.777  31.558  1.00  0.00    -0.248 NA
ATOM     41  C   UNL A   1      39.592  28.435  32.001  1.00  0.00     0.031 C 
ATOM     42  C   UNL A   1      39.979  28.565  27.200  1.00  0.00     0.029 A 
ATOM     43  N   UNL A   1      41.721  28.037  28.455  1.00  0.00    -0.354 N 
ATOM     44  C   UNL A   1      41.470  29.349  32.877  1.00  0.00     0.074 A 
ATOM     45  C   UNL A   1      40.194  28.747  33.148  1.00  0.00     0.031 C 
ATOM     46  C   UNL A   1      40.709  27.665  26.503  1.00  0.00     0.029 A 
ATOM     47  C   UNL A   1      41.842  27.254  27.310  1.00  0.00     0.049 A 
ATOM     48  H   UNL A   1      42.429  28.105  29.136  1.00  0.00     0.167 HD
ATOM     49  C   UNL A   1      42.654  29.234  33.532  1.00  0.00     0.037 A 
ATOM     50  C   UNL A   1      42.760  26.265  27.147  1.00  0.00     0.037 A 
ATOM     51  C   UNL A   1      43.692  29.982  32.865  1.00  0.00     0.049 A 
ATOM     52  C   UNL A   1      43.848  26.518  28.136  1.00  0.00     0.074 A 
ATOM     53  C   UNL A   1      43.849  31.311  32.519  1.00  0.00     0.029 A 
ATOM     54  N   UNL A   1      44.578  29.282  32.082  1.00  0.00    -0.354 N 
ATOM     55  N   UNL A   1      44.661  27.536  28.064  1.00  0.00    -0.248 NA
ATOM     56  C   UNL A   1      43.695  25.938  29.465  1.00  0.00     0.031 C 
ATOM     57  C   UNL A   1      44.460  31.290  31.231  1.00  0.00     0.029 A 
ATOM     58  C   UNL A   1      44.717  29.961  30.897  1.00  0.00     0.049 A 
ATOM     59  H   UNL A   1      45.032  28.443  32.327  1.00  0.00     0.167 HD
ATOM     60  C   UNL A   1      44.765  27.998  29.370  1.00  0.00     0.074 A 
ATOM     61  C   UNL A   1      44.201  26.934  30.199  1.00  0.00     0.031 C 
ATOM     62  C   UNL A   1      45.007  29.316  29.637  1.00  0.00     0.037 A 
BRANCH  49  63
ATOM     63  C   UNL A   1      42.951  28.123  34.504  1.00  0.00     0.057 A 
ATOM     64  C   UNL A   1      43.280  28.455  35.827  1.00  0.00     0.134 A 
ATOM     65  C   UNL A   1      43.205  26.782  34.140  1.00  0.00     0.134 A 
ATOM     66  F   UNL A   1      43.102  29.703  36.286  1.00  0.00    -0.206 F 
ATOM     67  C   UNL A   1      43.885  27.541  36.697  1.00  0.00     0.040 A 
ATOM     68  C   UNL A   1      43.754  25.849  35.018  1.00  0.00     0.040 A 
ATOM     69  F   UNL A   1      43.040  26.324  32.894  1.00  0.00    -0.206 F 
ATOM     70  C   UNL A   1      44.128  26.235  36.292  1.00  0.00     0.006 A 
ENDBRANCH  49  63
BRANCH  50  71
ATOM     71  C   UNL A   1      42.580  24.949  26.486  1.00  0.00     0.057 A 
ATOM     72  C   UNL A   1      43.427  24.546  25.440  1.00  0.00     0.134 A 
ATOM     73  C   UNL A   1      41.766  23.941  27.034  1.00  0.00     0.134 A 
ATOM     74  F   UNL A   1      44.269  25.421  24.872  1.00  0.00    -0.206 F 
ATOM     75  C   UNL A   1      43.485  23.218  24.994  1.00  0.00     0.040 A 
ATOM     76  C   UNL A   1      41.809  22.614  26.592  1.00  0.00     0.040 A 
ATOM     77  F   UNL A   1      40.965  24.182  28.080  1.00  0.00    -0.206 F 
ATOM     78  C   UNL A   1      42.683  22.243  25.580  1.00  0.00     0.006 A 
ENDBRANCH  50  71
BRANCH  62  79
ATOM     79  C   UNL A   1      45.384  30.211  28.486  1.00  0.00     0.057 A 
ATOM     80  C   UNL A   1      44.459  30.888  27.674  1.00  0.00     0.134 A 
ATOM     81  C   UNL A   1      46.735  30.516  28.288  1.00  0.00     0.134 A 
ATOM     82  F   UNL A   1      43.141  30.750  27.863  1.00  0.00    -0.206 F 
ATOM     83  C   UNL A   1      44.863  31.781  26.677  1.00  0.00     0.040 A 
ATOM     84  C   UNL A   1      47.151  31.433  27.320  1.00  0.00     0.040 A 
ATOM     85  F   UNL A   1      47.674  29.957  29.066  1.00  0.00    -0.206 F 
ATOM     86  C   UNL A   1      46.215  32.059  26.501  1.00  0.00     0.006 A 
ENDBRANCH  62  79
ENDBRANCH  36  37
ENDBRANCH  29  31
ENDBRANCH  28  29
ENDBRANCH  27  28
ENDBRANCH  26  27
ENDBRANCH   1  26
TORSDOF 16
ENDMDL
MODEL 3
REMARK VINA RESULT:     -11.1      2.561      6.306
REMARK SMILES CCOC(=O)c1c(S(=O)(=O)N2CCC[C@@H](C(=O)OCCOC(=O)c3ccc(-c4c5nc(c(-c6c(F)cccc6F)c6ccc([nH]6)c(-c6c(F)cccc6F)c6nc(c(-c7c(F)cccc7F)c7ccc4[nH]7)C=C6)C=C5)cc3)C2)c(C)n(C)c1C
REMARK SMILES IDX 18 1 16 2 17 3 15 4 11 5 12 6 78 7 13 8 14 9 8 10 9 11 10 12
REMARK SMILES IDX 7 13 6 14 83 15 79 16 81 17 84 18 80 19 82 20 4 21 5 22 3 23
REMARK SMILES IDX 2 24 1 25 19 26 20 27 21 28 22 29 23 30 24 31 25 32 77 33
REMARK SMILES IDX 26 34 76 35 27 36 28 37 29 38 70 39 30 40 75 41 69 42 71 43
REMARK SMILES IDX 31 44 74 45 68 46 67 47 32 49 58 50 41 51 57 52 42 53 45 54
REMARK SMILES IDX 56 55 72 56 43 57 44 58 55 60 73 61 46 62 33 63 34 64 39 65
REMARK SMILES IDX 35 66 36 67 38 68 40 69 37 70 59 71 60 72 65 73 61 74 62 75
REMARK SMILES IDX 64 76 66 77 63 78 47 79 48 80 53 81 49 82 50 83 52 84 54 85
REMARK SMILES IDX 51 86
REMARK H PARENT 71 48 45 59
REMARK Flexibility Score: inf
ROOT
ATOM      1  O   UNL A   1      31.980  28.691  26.597  1.00  0.00    -0.462 OA
ENDROOT
BRANCH   1   2
ATOM      2  C   UNL A   1      31.657  27.385  26.350  1.00  0.00     0.310 C 
ATOM      3  O   UNL A   1      30.743  26.781  26.895  1.00  0.00    -0.252 OA
BRANCH   2   4
ATOM      4  C   UNL A   1      32.541  26.792  25.263  1.00  0.00     0.114 C 
ATOM      5  N   UNL A   1      32.788  24.507  24.187  1.00  0.00    -0.197 NA
ATOM      6  C   UNL A   1      32.607  25.063  22.839  1.00  0.00     0.102 C 
ATOM      7  C   UNL A   1      32.437  25.284  25.381  1.00  0.00     0.117 C 
ATOM      8  C   UNL A   1      32.850  26.562  22.778  1.00  0.00     0.018 C 
ATOM      9  C   UNL A   1      32.137  27.314  23.886  1.00  0.00     0.018 C 
BRANCH   5  10
ATOM     10  S   UNL A   1      32.508  22.850  24.355  1.00  0.00     0.245 S 
ATOM     11  O   UNL A   1      32.032  22.367  23.075  1.00  0.00    -0.207 OA
ATOM     12  O   UNL A   1      31.739  22.643  25.565  1.00  0.00    -0.207 OA
BRANCH  10  13
ATOM     13  C   UNL A   1      33.939  21.873  24.610  1.00  0.00     0.118 A 
ATOM     14  C   UNL A   1      34.117  20.454  24.742  1.00  0.00     0.101 A 
ATOM     15  C   UNL A   1      35.492  20.247  24.918  1.00  0.00     0.030 A 
ATOM     16  C   UNL A   1      35.188  22.470  24.794  1.00  0.00     0.035 A 
ATOM     17  N   UNL A   1      36.115  21.471  24.964  1.00  0.00    -0.350 N 
ATOM     18  C   UNL A   1      36.248  18.960  25.010  1.00  0.00     0.065 C 
ATOM     19  C   UNL A   1      35.528  23.928  24.815  1.00  0.00     0.066 C 
ATOM     20  C   UNL A   1      37.537  21.693  25.138  1.00  0.00     0.149 C 
BRANCH  14  21
ATOM     21  C   UNL A   1      33.208  19.319  24.659  1.00  0.00     0.341 C 
ATOM     22  O   UNL A   1      32.661  18.813  25.634  1.00  0.00    -0.246 OA
BRANCH  21  23
ATOM     23  O   UNL A   1      32.902  18.998  23.366  1.00  0.00    -0.462 OA
BRANCH  23  24
ATOM     24  C   UNL A   1      32.724  17.599  23.081  1.00  0.00     0.230 C 
ATOM     25  C   UNL A   1      34.026  16.840  23.132  1.00  0.00     0.049 C 
ENDBRANCH  23  24
ENDBRANCH  21  23
ENDBRANCH  14  21
ENDBRANCH  10  13
ENDBRANCH   5  10
ENDBRANCH   2   4
ENDBRANCH   1   2
BRANCH   1  26
ATOM     26  C   UNL A   1      33.208  28.987  27.290  1.00  0.00     0.274 C 
BRANCH  26  27
ATOM     27  C   UNL A   1      33.683  30.412  27.048  1.00  0.00     0.275 C 
BRANCH  27  28
ATOM     28  O   UNL A   1      35.088  30.482  27.241  1.00  0.00    -0.458 OA
BRANCH  28  29
ATOM     29  C   UNL A   1      35.507  31.532  27.980  1.00  0.00     0.338 C 
ATOM     30  O   UNL A   1      35.226  32.709  27.828  1.00  0.00    -0.246 OA
BRANCH  29  31
ATOM     31  C   UNL A   1      36.454  31.052  28.986  1.00  0.00     0.060 A 
ATOM     32  C   UNL A   1      37.546  31.881  29.255  1.00  0.00     0.016 A 
ATOM     33  C   UNL A   1      36.430  29.694  29.320  1.00  0.00     0.016 A 
ATOM     34  C   UNL A   1      38.738  31.277  29.562  1.00  0.00     0.010 A 
ATOM     35  C   UNL A   1      37.622  29.091  29.599  1.00  0.00     0.010 A 
ATOM     36  C   UNL A   1      38.768  29.882  29.594  1.00  0.00    -0.014 A 
BRANCH  36  37
ATOM     37  C   UNL A   1      40.043  29.222  29.670  1.00  0.00     0.031 A 
ATOM     38  C   UNL A   1      40.519  29.105  31.058  1.00  0.00     0.074 A 
ATOM     39  C   UNL A   1      40.605  28.679  28.574  1.00  0.00     0.049 A 
ATOM     40  N   UNL A   1      41.519  29.718  31.591  1.00  0.00    -0.248 NA
ATOM     41  C   UNL A   1      39.651  28.407  32.024  1.00  0.00     0.031 C 
ATOM     42  C   UNL A   1      40.044  28.562  27.224  1.00  0.00     0.029 A 
ATOM     43  N   UNL A   1      41.776  27.996  28.477  1.00  0.00    -0.354 N 
ATOM     44  C   UNL A   1      41.545  29.281  32.908  1.00  0.00     0.074 A 
ATOM     45  C   UNL A   1      40.258  28.700  33.174  1.00  0.00     0.031 C 
ATOM     46  C   UNL A   1      40.758  27.654  26.521  1.00  0.00     0.029 A 
ATOM     47  C   UNL A   1      41.884  27.218  27.327  1.00  0.00     0.049 A 
ATOM     48  H   UNL A   1      42.485  28.046  29.159  1.00  0.00     0.167 HD
ATOM     49  C   UNL A   1      42.726  29.141  33.562  1.00  0.00     0.037 A 
ATOM     50  C   UNL A   1      42.784  26.214  27.158  1.00  0.00     0.037 A 
ATOM     51  C   UNL A   1      43.777  29.875  32.901  1.00  0.00     0.049 A 
ATOM     52  C   UNL A   1      43.876  26.441  28.149  1.00  0.00     0.074 A 
ATOM     53  C   UNL A   1      43.958  31.203  32.564  1.00  0.00     0.029 A 
ATOM     54  N   UNL A   1      44.652  29.165  32.114  1.00  0.00    -0.354 N 
ATOM     55  N   UNL A   1      44.707  27.445  28.084  1.00  0.00    -0.248 NA
ATOM     56  C   UNL A   1      43.712  25.855  29.474  1.00  0.00     0.031 C 
ATOM     57  C   UNL A   1      44.570  31.180  31.277  1.00  0.00     0.029 A 
ATOM     58  C   UNL A   1      44.804  29.849  30.934  1.00  0.00     0.049 A 
ATOM     59  H   UNL A   1      45.091  28.316  32.354  1.00  0.00     0.167 HD
ATOM     60  C   UNL A   1      44.818  27.896  29.393  1.00  0.00     0.074 A 
ATOM     61  C   UNL A   1      44.234  26.837  30.215  1.00  0.00     0.031 C 
ATOM     62  C   UNL A   1      45.083  29.207  29.670  1.00  0.00     0.037 A 
BRANCH  49  63
ATOM     63  C   UNL A   1      43.002  28.019  34.528  1.00  0.00     0.057 A 
ATOM     64  C   UNL A   1      43.107  26.711  34.031  1.00  0.00     0.134 A 
ATOM     65  C   UNL A   1      42.887  28.120  35.932  1.00  0.00     0.134 A 
ATOM     66  F   UNL A   1      43.203  26.484  32.712  1.00  0.00    -0.206 F 
ATOM     67  C   UNL A   1      43.028  25.588  34.861  1.00  0.00     0.040 A 
ATOM     68  C   UNL A   1      42.867  27.009  36.774  1.00  0.00     0.040 A 
ATOM     69  F   UNL A   1      42.683  29.282  36.563  1.00  0.00    -0.206 F 
ATOM     70  C   UNL A   1      42.903  25.735  36.237  1.00  0.00     0.006 A 
ENDBRANCH  49  63
BRANCH  50  71
ATOM     71  C   UNL A   1      42.582  24.906  26.487  1.00  0.00     0.057 A 
ATOM     72  C   UNL A   1      43.418  24.497  25.436  1.00  0.00     0.134 A 
ATOM     73  C   UNL A   1      41.754  23.907  27.032  1.00  0.00     0.134 A 
ATOM     74  F   UNL A   1      44.272  25.363  24.871  1.00  0.00    -0.206 F 
ATOM     75  C   UNL A   1      43.454  23.172  24.980  1.00  0.00     0.040 A 
ATOM     76  C   UNL A   1      41.774  22.583  26.579  1.00  0.00     0.040 A 
ATOM     77  F   UNL A   1      40.960  24.152  28.082  1.00  0.00    -0.206 F 
ATOM     78  C   UNL A   1      42.639  22.206  25.561  1.00  0.00     0.006 A 
ENDBRANCH  50  71
BRANCH  62  79
ATOM     79  C   UNL A   1      45.476  30.104  28.525  1.00  0.00     0.057 A 
ATOM     80  C   UNL A   1      44.566  30.826  27.736  1.00  0.00     0.134 A 
ATOM     81  C   UNL A   1      46.835  30.360  28.311  1.00  0.00     0.134 A 
ATOM     82  F   UNL A   1      43.246  30.734  27.942  1.00  0.00    -0.206 F 
ATOM     83  C   UNL A   1      44.989  31.716  26.745  1.00  0.00     0.040 A 
ATOM     84  C   UNL A   1      47.271  31.274  27.349  1.00  0.00     0.040 A 
ATOM     85  F   UNL A   1      47.764  29.756  29.068  1.00  0.00    -0.206 F 
ATOM     86  C   UNL A   1      46.348  31.946  26.552  1.00  0.00     0.006 A 
ENDBRANCH  62  79
ENDBRANCH  36  37
ENDBRANCH  29  31
ENDBRANCH  28  29
ENDBRANCH  27  28
ENDBRANCH  26  27
ENDBRANCH   1  26
TORSDOF 16
ENDMDL
