MODEL 1
REMARK VINA RESULT:     -12.7      0.000      0.000
REMARK SMILES CS(=O)(=O)c1ccc(-c2cc(Cl)cnc2-c2ccc(C(=O)OCCOC(=O)c3ccc(-c4c5nc(c(-c6c(F)cccc6F)c6ccc([nH]6)c(-c6c(F)cccc6F)c6nc(c(-c7c(F)cccc7F)c7ccc4[nH]7)C=C6)C=C5)cc3)nc2)cc1
REMARK SMILES IDX 23 1 22 2 20 3 21 4 19 5 16 6 17 7 83 8 18 9 82 10 15 11
REMARK SMILES IDX 9 12 10 13 11 14 14 15 12 16 13 17 8 18 5 19 6 20 85 21 7 22
REMARK SMILES IDX 84 23 2 24 1 25 3 26 4 27 24 28 25 29 26 30 27 31 28 32
REMARK SMILES IDX 29 33 81 34 30 35 80 36 31 37 32 38 33 39 74 40 34 41 79 42
REMARK SMILES IDX 73 43 75 44 35 45 78 46 72 47 71 48 36 50 62 51 45 52 61 53
REMARK SMILES IDX 46 54 49 55 60 56 76 57 47 58 48 59 59 61 77 62 50 63 37 64
REMARK SMILES IDX 38 65 43 66 39 67 40 68 42 69 44 70 41 71 63 72 64 73 69 74
REMARK SMILES IDX 65 75 66 76 68 77 70 78 67 79 51 80 52 81 57 82 53 83 54 84
REMARK SMILES IDX 56 85 58 86 55 87
REMARK H PARENT 75 49 49 60
REMARK Flexibility Score: inf
ROOT
ATOM      1  C   UNL A   1      31.396  31.846  26.870  1.00  0.00     0.275 C 
ENDROOT
BRANCH   1   2
ATOM      2  O   UNL A   1      31.994  30.859  26.007  1.00  0.00    -0.457 OA
BRANCH   2   3
ATOM      3  C   UNL A   1      33.011  30.155  26.569  1.00  0.00     0.357 C 
ATOM      4  O   UNL A   1      33.925  30.631  27.227  1.00  0.00    -0.244 OA
BRANCH   3   5
ATOM      5  C   UNL A   1      32.820  28.685  26.377  1.00  0.00     0.148 A 
ATOM      6  C   UNL A   1      32.570  26.018  25.730  1.00  0.00     0.019 A 
ATOM      7  C   UNL A   1      31.569  26.654  26.479  1.00  0.00     0.014 A 
ATOM      8  C   UNL A   1      33.697  26.764  25.423  1.00  0.00     0.122 A 
ATOM      9  C   UNL A   1      31.696  28.005  26.822  1.00  0.00     0.037 A 
ATOM     10  N   UNL A   1      33.819  28.077  25.685  1.00  0.00    -0.249 NA
BRANCH   6  11
ATOM     11  C   UNL A   1      32.379  24.722  25.078  1.00  0.00     0.080 A 
ATOM     12  C   UNL A   1      31.496  24.588  23.979  1.00  0.00     0.010 A 
ATOM     13  C   UNL A   1      31.414  23.332  23.366  1.00  0.00     0.033 A 
ATOM     14  C   UNL A   1      32.209  22.288  23.832  1.00  0.00     0.060 A 
ATOM     15  N   UNL A   1      33.165  23.717  25.535  1.00  0.00    -0.254 NA
ATOM     16  Cl  UNL A   1      32.137  20.744  23.088  1.00  0.00    -0.083 Cl
ATOM     17  C   UNL A   1      33.062  22.524  24.900  1.00  0.00     0.132 A 
BRANCH  12  18
ATOM     18  C   UNL A   1      30.702  25.730  23.491  1.00  0.00    -0.016 A 
ATOM     19  C   UNL A   1      29.335  28.111  22.919  1.00  0.00     0.067 A 
ATOM     20  C   UNL A   1      30.628  27.927  22.430  1.00  0.00     0.021 A 
ATOM     21  C   UNL A   1      28.704  27.109  23.661  1.00  0.00     0.021 A 
ATOM     22  C   UNL A   1      31.294  26.729  22.695  1.00  0.00     0.010 A 
ATOM     23  C   UNL A   1      29.387  25.923  23.940  1.00  0.00     0.010 A 
BRANCH  19  24
ATOM     24  S   UNL A   1      28.526  29.675  22.678  1.00  0.00     0.175 S 
ATOM     25  C   UNL A   1      29.435  30.769  23.734  1.00  0.00     0.163 C 
ATOM     26  O   UNL A   1      27.179  29.555  23.199  1.00  0.00    -0.224 OA
ATOM     27  O   UNL A   1      28.757  30.076  21.303  1.00  0.00    -0.224 OA
ENDBRANCH  19  24
ENDBRANCH  12  18
ENDBRANCH   6  11
ENDBRANCH   3   5
ENDBRANCH   2   3
ENDBRANCH   1   2
BRANCH   1  28
ATOM     28  C   UNL A   1      32.164  33.172  26.824  1.00  0.00     0.275 C 
BRANCH  28  29
ATOM     29  O   UNL A   1      32.163  33.844  28.099  1.00  0.00    -0.458 OA
BRANCH  29  30
ATOM     30  C   UNL A   1      33.259  34.597  28.355  1.00  0.00     0.338 C 
ATOM     31  O   UNL A   1      33.336  35.814  28.346  1.00  0.00    -0.246 OA
BRANCH  30  32
ATOM     32  C   UNL A   1      34.389  33.737  28.743  1.00  0.00     0.060 A 
ATOM     33  C   UNL A   1      34.160  32.757  29.703  1.00  0.00     0.016 A 
ATOM     34  C   UNL A   1      35.685  33.977  28.292  1.00  0.00     0.016 A 
ATOM     35  C   UNL A   1      35.212  32.052  30.271  1.00  0.00     0.010 A 
ATOM     36  C   UNL A   1      36.745  33.223  28.819  1.00  0.00     0.010 A 
ATOM     37  C   UNL A   1      36.521  32.270  29.832  1.00  0.00    -0.014 A 
BRANCH  37  38
ATOM     38  C   UNL A   1      37.637  31.524  30.470  1.00  0.00     0.031 A 
ATOM     39  C   UNL A   1      37.974  31.760  31.916  1.00  0.00     0.074 A 
ATOM     40  C   UNL A   1      38.314  30.594  29.769  1.00  0.00     0.049 A 
ATOM     41  N   UNL A   1      38.978  31.297  32.618  1.00  0.00    -0.248 NA
ATOM     42  C   UNL A   1      37.061  32.628  32.675  1.00  0.00     0.031 C 
ATOM     43  C   UNL A   1      38.047  30.221  28.378  1.00  0.00     0.029 A 
ATOM     44  N   UNL A   1      39.364  29.787  30.132  1.00  0.00    -0.354 N 
ATOM     45  C   UNL A   1      38.835  31.842  33.888  1.00  0.00     0.074 A 
ATOM     46  C   UNL A   1      37.656  32.680  33.858  1.00  0.00     0.031 C 
ATOM     47  C   UNL A   1      38.902  29.253  28.011  1.00  0.00     0.029 A 
ATOM     48  C   UNL A   1      39.817  28.984  29.114  1.00  0.00     0.049 A 
ATOM     49  H   UNL A   1      39.755  29.785  31.037  1.00  0.00     0.167 HD
ATOM     50  C   UNL A   1      39.617  31.656  34.979  1.00  0.00     0.037 A 
ATOM     51  C   UNL A   1      40.875  28.153  29.060  1.00  0.00     0.037 A 
ATOM     52  C   UNL A   1      40.774  30.800  35.014  1.00  0.00     0.049 A 
ATOM     53  C   UNL A   1      41.757  28.007  30.268  1.00  0.00     0.074 A 
ATOM     54  C   UNL A   1      41.645  30.568  36.065  1.00  0.00     0.029 A 
ATOM     55  N   UNL A   1      41.213  30.024  33.953  1.00  0.00    -0.354 N 
ATOM     56  N   UNL A   1      41.645  28.571  31.445  1.00  0.00    -0.248 NA
ATOM     57  C   UNL A   1      42.919  27.116  30.136  1.00  0.00     0.031 C 
ATOM     58  C   UNL A   1      42.626  29.669  35.632  1.00  0.00     0.029 A 
ATOM     59  C   UNL A   1      42.344  29.315  34.323  1.00  0.00     0.049 A 
ATOM     60  H   UNL A   1      40.784  29.982  33.068  1.00  0.00     0.167 HD
ATOM     61  C   UNL A   1      42.711  28.095  32.196  1.00  0.00     0.074 A 
ATOM     62  C   UNL A   1      43.445  27.178  31.350  1.00  0.00     0.031 C 
ATOM     63  C   UNL A   1      43.055  28.397  33.472  1.00  0.00     0.037 A 
BRANCH  50  64
ATOM     64  C   UNL A   1      39.256  32.408  36.225  1.00  0.00     0.057 A 
ATOM     65  C   UNL A   1      39.780  33.678  36.501  1.00  0.00     0.134 A 
ATOM     66  C   UNL A   1      38.339  31.874  37.139  1.00  0.00     0.134 A 
ATOM     67  F   UNL A   1      40.673  34.238  35.672  1.00  0.00    -0.206 F 
ATOM     68  C   UNL A   1      39.416  34.382  37.649  1.00  0.00     0.040 A 
ATOM     69  C   UNL A   1      37.950  32.579  38.280  1.00  0.00     0.040 A 
ATOM     70  F   UNL A   1      37.796  30.665  36.932  1.00  0.00    -0.206 F 
ATOM     71  C   UNL A   1      38.492  33.836  38.539  1.00  0.00     0.006 A 
ENDBRANCH  50  64
BRANCH  51  72
ATOM     72  C   UNL A   1      41.192  27.433  27.800  1.00  0.00     0.057 A 
ATOM     73  C   UNL A   1      41.968  28.024  26.798  1.00  0.00     0.134 A 
ATOM     74  C   UNL A   1      40.704  26.142  27.561  1.00  0.00     0.134 A 
ATOM     75  F   UNL A   1      42.443  29.268  26.956  1.00  0.00    -0.206 F 
ATOM     76  C   UNL A   1      42.234  27.365  25.596  1.00  0.00     0.040 A 
ATOM     77  C   UNL A   1      40.985  25.461  26.377  1.00  0.00     0.040 A 
ATOM     78  F   UNL A   1      39.952  25.520  28.482  1.00  0.00    -0.206 F 
ATOM     79  C   UNL A   1      41.746  26.076  25.386  1.00  0.00     0.006 A 
ENDBRANCH  51  72
BRANCH  63  80
ATOM     80  C   UNL A   1      44.258  27.703  34.035  1.00  0.00     0.057 A 
ATOM     81  C   UNL A   1      44.167  26.441  34.635  1.00  0.00     0.134 A 
ATOM     82  C   UNL A   1      45.525  28.292  33.950  1.00  0.00     0.134 A 
ATOM     83  F   UNL A   1      42.978  25.831  34.758  1.00  0.00    -0.206 F 
ATOM     84  C   UNL A   1      45.293  25.797  35.149  1.00  0.00     0.040 A 
ATOM     85  C   UNL A   1      46.662  27.648  34.442  1.00  0.00     0.040 A 
ATOM     86  F   UNL A   1      45.679  29.497  33.383  1.00  0.00    -0.206 F 
ATOM     87  C   UNL A   1      46.546  26.400  35.048  1.00  0.00     0.006 A 
ENDBRANCH  63  80
ENDBRANCH  37  38
ENDBRANCH  30  32
ENDBRANCH  29  30
ENDBRANCH  28  29
ENDBRANCH   1  28
TORSDOF 14
ENDMDL
MODEL 2
REMARK VINA RESULT:     -12.6      4.279      8.408
REMARK SMILES CS(=O)(=O)c1ccc(-c2cc(Cl)cnc2-c2ccc(C(=O)OCCOC(=O)c3ccc(-c4c5nc(c(-c6c(F)cccc6F)c6ccc([nH]6)c(-c6c(F)cccc6F)c6nc(c(-c7c(F)cccc7F)c7ccc4[nH]7)C=C6)C=C5)cc3)nc2)cc1
REMARK SMILES IDX 23 1 22 2 20 3 21 4 19 5 16 6 17 7 83 8 18 9 82 10 15 11
REMARK SMILES IDX 9 12 10 13 11 14 14 15 12 16 13 17 8 18 5 19 6 20 85 21 7 22
REMARK SMILES IDX 84 23 2 24 1 25 3 26 4 27 24 28 25 29 26 30 27 31 28 32
REMARK SMILES IDX 29 33 81 34 30 35 80 36 31 37 32 38 33 39 74 40 34 41 79 42
REMARK SMILES IDX 73 43 75 44 35 45 78 46 72 47 71 48 36 50 62 51 45 52 61 53
REMARK SMILES IDX 46 54 49 55 60 56 76 57 47 58 48 59 59 61 77 62 50 63 37 64
REMARK SMILES IDX 38 65 43 66 39 67 40 68 42 69 44 70 41 71 63 72 64 73 69 74
REMARK SMILES IDX 65 75 66 76 68 77 70 78 67 79 51 80 52 81 57 82 53 83 54 84
REMARK SMILES IDX 56 85 58 86 55 87
REMARK H PARENT 75 49 49 60
REMARK Flexibility Score: inf
ROOT
ATOM      1  C   UNL A   1      39.882  21.447  26.213  1.00  0.00     0.275 C 
ENDROOT
BRANCH   1   2
ATOM      2  O   UNL A   1      38.590  22.078  26.109  1.00  0.00    -0.457 OA
BRANCH   2   3
ATOM      3  C   UNL A   1      37.730  21.473  25.250  1.00  0.00     0.357 C 
ATOM      4  O   UNL A   1      37.784  20.304  24.897  1.00  0.00    -0.244 OA
BRANCH   3   5
ATOM      5  C   UNL A   1      36.619  22.395  24.861  1.00  0.00     0.148 A 
ATOM      6  C   UNL A   1      34.402  23.957  24.371  1.00  0.00     0.019 A 
ATOM      7  C   UNL A   1      35.138  23.429  23.300  1.00  0.00     0.014 A 
ATOM      8  C   UNL A   1      34.894  23.728  25.647  1.00  0.00     0.122 A 
ATOM      9  C   UNL A   1      36.272  22.645  23.542  1.00  0.00     0.037 A 
ATOM     10  N   UNL A   1      35.942  22.929  25.911  1.00  0.00    -0.249 NA
BRANCH   6  11
ATOM     11  C   UNL A   1      33.059  24.516  24.220  1.00  0.00     0.080 A 
ATOM     12  C   UNL A   1      31.930  23.667  24.106  1.00  0.00     0.010 A 
ATOM     13  C   UNL A   1      30.672  24.274  24.029  1.00  0.00     0.033 A 
ATOM     14  C   UNL A   1      30.573  25.661  24.094  1.00  0.00     0.060 A 
ATOM     15  N   UNL A   1      32.976  25.867  24.294  1.00  0.00    -0.254 NA
ATOM     16  Cl  UNL A   1      29.040  26.428  24.017  1.00  0.00    -0.083 Cl
ATOM     17  C   UNL A   1      31.735  26.407  24.231  1.00  0.00     0.132 A 
BRANCH  12  18
ATOM     18  C   UNL A   1      32.075  22.201  24.081  1.00  0.00    -0.016 A 
ATOM     19  C   UNL A   1      32.780  19.487  24.003  1.00  0.00     0.067 A 
ATOM     20  C   UNL A   1      32.690  20.138  25.234  1.00  0.00     0.021 A 
ATOM     21  C   UNL A   1      32.490  20.164  22.815  1.00  0.00     0.021 A 
ATOM     22  C   UNL A   1      32.312  21.482  25.269  1.00  0.00     0.010 A 
ATOM     23  C   UNL A   1      32.135  21.515  22.859  1.00  0.00     0.010 A 
BRANCH  19  24
ATOM     24  S   UNL A   1      33.364  17.810  23.945  1.00  0.00     0.175 S 
ATOM     25  C   UNL A   1      32.524  17.040  25.300  1.00  0.00     0.163 C 
ATOM     26  O   UNL A   1      34.783  17.831  24.240  1.00  0.00    -0.224 OA
ATOM     27  O   UNL A   1      32.871  17.221  22.713  1.00  0.00    -0.224 OA
ENDBRANCH  19  24
ENDBRANCH  12  18
ENDBRANCH   6  11
ENDBRANCH   3   5
ENDBRANCH   2   3
ENDBRANCH   1   2
BRANCH   1  28
ATOM     28  C   UNL A   1      40.993  22.477  26.444  1.00  0.00     0.275 C 
BRANCH  28  29
ATOM     29  O   UNL A   1      40.508  23.831  26.348  1.00  0.00    -0.458 OA
BRANCH  29  30
ATOM     30  C   UNL A   1      41.458  24.792  26.434  1.00  0.00     0.338 C 
ATOM     31  O   UNL A   1      42.481  24.879  25.775  1.00  0.00    -0.246 OA
BRANCH  30  32
ATOM     32  C   UNL A   1      41.058  25.818  27.410  1.00  0.00     0.060 A 
ATOM     33  C   UNL A   1      41.872  26.939  27.544  1.00  0.00     0.016 A 
ATOM     34  C   UNL A   1      39.992  25.627  28.286  1.00  0.00     0.016 A 
ATOM     35  C   UNL A   1      41.680  27.841  28.581  1.00  0.00     0.010 A 
ATOM     36  C   UNL A   1      39.757  26.570  29.298  1.00  0.00     0.010 A 
ATOM     37  C   UNL A   1      40.615  27.674  29.470  1.00  0.00    -0.014 A 
BRANCH  37  38
ATOM     38  C   UNL A   1      40.441  28.638  30.588  1.00  0.00     0.031 A 
ATOM     39  C   UNL A   1      39.396  29.716  30.500  1.00  0.00     0.074 A 
ATOM     40  C   UNL A   1      41.182  28.515  31.707  1.00  0.00     0.049 A 
ATOM     41  N   UNL A   1      39.170  30.717  31.313  1.00  0.00    -0.248 NA
ATOM     42  C   UNL A   1      38.484  29.660  29.348  1.00  0.00     0.031 C 
ATOM     43  C   UNL A   1      42.185  27.476  31.948  1.00  0.00     0.029 A 
ATOM     44  N   UNL A   1      41.202  29.267  32.854  1.00  0.00    -0.354 N 
ATOM     45  C   UNL A   1      38.113  31.426  30.755  1.00  0.00     0.074 A 
ATOM     46  C   UNL A   1      37.750  30.749  29.529  1.00  0.00     0.031 C 
ATOM     47  C   UNL A   1      42.714  27.650  33.169  1.00  0.00     0.029 A 
ATOM     48  C   UNL A   1      42.137  28.847  33.770  1.00  0.00     0.049 A 
ATOM     49  H   UNL A   1      40.604  30.035  33.007  1.00  0.00     0.167 HD
ATOM     50  C   UNL A   1      37.501  32.538  31.228  1.00  0.00     0.037 A 
ATOM     51  C   UNL A   1      42.516  29.388  34.943  1.00  0.00     0.037 A 
ATOM     52  C   UNL A   1      37.845  33.194  32.462  1.00  0.00     0.049 A 
ATOM     53  C   UNL A   1      41.857  30.652  35.417  1.00  0.00     0.074 A 
ATOM     54  C   UNL A   1      37.300  34.343  33.011  1.00  0.00     0.029 A 
ATOM     55  N   UNL A   1      38.815  32.751  33.347  1.00  0.00    -0.354 N 
ATOM     56  N   UNL A   1      40.899  31.345  34.854  1.00  0.00    -0.248 NA
ATOM     57  C   UNL A   1      42.341  31.216  36.686  1.00  0.00     0.031 C 
ATOM     58  C   UNL A   1      37.957  34.607  34.218  1.00  0.00     0.029 A 
ATOM     59  C   UNL A   1      38.885  33.603  34.436  1.00  0.00     0.049 A 
ATOM     60  H   UNL A   1      39.370  31.948  33.221  1.00  0.00     0.167 HD
ATOM     61  C   UNL A   1      40.656  32.416  35.703  1.00  0.00     0.074 A 
ATOM     62  C   UNL A   1      41.551  32.269  36.831  1.00  0.00     0.031 C 
ATOM     63  C   UNL A   1      39.774  33.435  35.557  1.00  0.00     0.037 A 
BRANCH  50  64
ATOM     64  C   UNL A   1      36.403  33.130  30.395  1.00  0.00     0.057 A 
ATOM     65  C   UNL A   1      36.669  33.864  29.232  1.00  0.00     0.134 A 
ATOM     66  C   UNL A   1      35.060  32.925  30.737  1.00  0.00     0.134 A 
ATOM     67  F   UNL A   1      37.935  34.106  28.858  1.00  0.00    -0.206 F 
ATOM     68  C   UNL A   1      35.640  34.387  28.448  1.00  0.00     0.040 A 
ATOM     69  C   UNL A   1      34.021  33.424  29.948  1.00  0.00     0.040 A 
ATOM     70  F   UNL A   1      34.736  32.227  31.835  1.00  0.00    -0.206 F 
ATOM     71  C   UNL A   1      34.310  34.160  28.802  1.00  0.00     0.006 A 
ENDBRANCH  50  64
BRANCH  51  72
ATOM     72  C   UNL A   1      43.612  28.764  35.729  1.00  0.00     0.057 A 
ATOM     73  C   UNL A   1      43.361  27.730  36.636  1.00  0.00     0.134 A 
ATOM     74  C   UNL A   1      44.935  29.208  35.606  1.00  0.00     0.134 A 
ATOM     75  F   UNL A   1      42.112  27.279  36.818  1.00  0.00    -0.206 F 
ATOM     76  C   UNL A   1      44.383  27.170  37.406  1.00  0.00     0.040 A 
ATOM     77  C   UNL A   1      45.970  28.639  36.348  1.00  0.00     0.040 A 
ATOM     78  F   UNL A   1      45.242  30.198  34.754  1.00  0.00    -0.206 F 
ATOM     79  C   UNL A   1      45.693  27.621  37.258  1.00  0.00     0.006 A 
ENDBRANCH  51  72
BRANCH  63  80
ATOM     80  C   UNL A   1      39.715  34.448  36.660  1.00  0.00     0.057 A 
ATOM     81  C   UNL A   1      38.953  34.236  37.815  1.00  0.00     0.134 A 
ATOM     82  C   UNL A   1      40.453  35.635  36.576  1.00  0.00     0.134 A 
ATOM     83  F   UNL A   1      38.214  33.124  37.947  1.00  0.00    -0.206 F 
ATOM     84  C   UNL A   1      38.910  35.180  38.841  1.00  0.00     0.040 A 
ATOM     85  C   UNL A   1      40.434  36.578  37.606  1.00  0.00     0.040 A 
ATOM     86  F   UNL A   1      41.206  35.895  35.498  1.00  0.00    -0.206 F 
ATOM     87  C   UNL A   1      39.657  36.353  38.740  1.00  0.00     0.006 A 
ENDBRANCH  63  80
ENDBRANCH  37  38
ENDBRANCH  30  32
ENDBRANCH  29  30
ENDBRANCH  28  29
ENDBRANCH   1  28
TORSDOF 14
ENDMDL
MODEL 3
REMARK VINA RESULT:     -12.4      4.305      7.695
REMARK SMILES CS(=O)(=O)c1ccc(-c2cc(Cl)cnc2-c2ccc(C(=O)OCCOC(=O)c3ccc(-c4c5nc(c(-c6c(F)cccc6F)c6ccc([nH]6)c(-c6c(F)cccc6F)c6nc(c(-c7c(F)cccc7F)c7ccc4[nH]7)C=C6)C=C5)cc3)nc2)cc1
REMARK SMILES IDX 23 1 22 2 20 3 21 4 19 5 16 6 17 7 83 8 18 9 82 10 15 11
REMARK SMILES IDX 9 12 10 13 11 14 14 15 12 16 13 17 8 18 5 19 6 20 85 21 7 22
REMARK SMILES IDX 84 23 2 24 1 25 3 26 4 27 24 28 25 29 26 30 27 31 28 32
REMARK SMILES IDX 29 33 81 34 30 35 80 36 31 37 32 38 33 39 74 40 34 41 79 42
REMARK SMILES IDX 73 43 75 44 35 45 78 46 72 47 71 48 36 50 62 51 45 52 61 53
REMARK SMILES IDX 46 54 49 55 60 56 76 57 47 58 48 59 59 61 77 62 50 63 37 64
REMARK SMILES IDX 38 65 43 66 39 67 40 68 42 69 44 70 41 71 63 72 64 73 69 74
REMARK SMILES IDX 65 75 66 76 68 77 70 78 67 79 51 80 52 81 57 82 53 83 54 84
REMARK SMILES IDX 56 85 58 86 55 87
REMARK H PARENT 75 49 49 60
REMARK Flexibility Score: inf
ROOT
ATOM      1  C   UNL A   1      34.098  32.074  27.960  1.00  0.00     0.275 C 
ENDROOT
BRANCH   1   2
ATOM      2  O   UNL A   1      33.860  30.685  27.657  1.00  0.00    -0.457 OA
BRANCH   2   3
ATOM      3  C   UNL A   1      32.729  30.444  26.945  1.00  0.00     0.357 C 
ATOM      4  O   UNL A   1      31.955  31.296  26.533  1.00  0.00    -0.244 OA
BRANCH   3   5
ATOM      5  C   UNL A   1      32.595  28.992  26.621  1.00  0.00     0.148 A 
ATOM      6  C   UNL A   1      32.439  26.388  25.732  1.00  0.00     0.019 A 
ATOM      7  C   UNL A   1      31.435  26.905  26.563  1.00  0.00     0.014 A 
ATOM      8  C   UNL A   1      33.525  27.209  25.467  1.00  0.00     0.122 A 
ATOM      9  C   UNL A   1      31.514  28.223  27.028  1.00  0.00     0.037 A 
ATOM     10  N   UNL A   1      33.598  28.496  25.849  1.00  0.00    -0.249 NA
BRANCH   6  11
ATOM     11  C   UNL A   1      32.285  25.151  24.966  1.00  0.00     0.080 A 
ATOM     12  C   UNL A   1      31.406  25.091  23.857  1.00  0.00     0.010 A 
ATOM     13  C   UNL A   1      31.358  23.893  23.134  1.00  0.00     0.033 A 
ATOM     14  C   UNL A   1      32.182  22.834  23.507  1.00  0.00     0.060 A 
ATOM     15  N   UNL A   1      33.098  24.130  25.333  1.00  0.00    -0.254 NA
ATOM     16  Cl  UNL A   1      32.153  21.361  22.627  1.00  0.00    -0.083 Cl
ATOM     17  C   UNL A   1      33.028  22.997  24.594  1.00  0.00     0.132 A 
BRANCH  12  18
ATOM     18  C   UNL A   1      30.580  26.250  23.472  1.00  0.00    -0.016 A 
ATOM     19  C   UNL A   1      29.128  28.624  23.124  1.00  0.00     0.067 A 
ATOM     20  C   UNL A   1      30.448  28.555  22.678  1.00  0.00     0.021 A 
ATOM     21  C   UNL A   1      28.514  27.514  23.709  1.00  0.00     0.021 A 
ATOM     22  C   UNL A   1      31.158  27.362  22.830  1.00  0.00     0.010 A 
ATOM     23  C   UNL A   1      29.239  26.331  23.877  1.00  0.00     0.010 A 
BRANCH  19  24
ATOM     24  S   UNL A   1      28.257  30.170  23.033  1.00  0.00     0.175 S 
ATOM     25  C   UNL A   1      28.191  30.496  21.293  1.00  0.00     0.163 C 
ATOM     26  O   UNL A   1      29.091  31.179  23.654  1.00  0.00    -0.224 OA
ATOM     27  O   UNL A   1      26.903  29.934  23.501  1.00  0.00    -0.224 OA
ENDBRANCH  19  24
ENDBRANCH  12  18
ENDBRANCH   6  11
ENDBRANCH   3   5
ENDBRANCH   2   3
ENDBRANCH   1   2
BRANCH   1  28
ATOM     28  C   UNL A   1      34.575  32.261  29.404  1.00  0.00     0.275 C 
BRANCH  28  29
ATOM     29  O   UNL A   1      36.003  32.113  29.529  1.00  0.00    -0.458 OA
BRANCH  29  30
ATOM     30  C   UNL A   1      36.411  31.192  30.433  1.00  0.00     0.338 C 
ATOM     31  O   UNL A   1      35.855  30.882  31.473  1.00  0.00    -0.246 OA
BRANCH  30  32
ATOM     32  C   UNL A   1      37.627  30.513  29.956  1.00  0.00     0.060 A 
ATOM     33  C   UNL A   1      38.620  30.228  30.888  1.00  0.00     0.016 A 
ATOM     34  C   UNL A   1      37.865  30.292  28.601  1.00  0.00     0.016 A 
ATOM     35  C   UNL A   1      39.873  29.785  30.486  1.00  0.00     0.010 A 
ATOM     36  C   UNL A   1      39.109  29.785  28.196  1.00  0.00     0.010 A 
ATOM     37  C   UNL A   1      40.133  29.551  29.133  1.00  0.00    -0.014 A 
BRANCH  37  38
ATOM     38  C   UNL A   1      41.488  29.100  28.720  1.00  0.00     0.031 A 
ATOM     39  C   UNL A   1      41.720  27.666  28.328  1.00  0.00     0.074 A 
ATOM     40  C   UNL A   1      42.501  29.986  28.644  1.00  0.00     0.049 A 
ATOM     41  N   UNL A   1      42.845  27.055  28.053  1.00  0.00    -0.248 NA
ATOM     42  C   UNL A   1      40.531  26.807  28.231  1.00  0.00     0.031 C 
ATOM     43  C   UNL A   1      42.396  31.417  28.934  1.00  0.00     0.029 A 
ATOM     44  N   UNL A   1      43.816  29.814  28.293  1.00  0.00    -0.354 N 
ATOM     45  C   UNL A   1      42.503  25.737  27.782  1.00  0.00     0.074 A 
ATOM     46  C   UNL A   1      41.069  25.632  27.937  1.00  0.00     0.031 C 
ATOM     47  C   UNL A   1      43.593  31.994  28.738  1.00  0.00     0.029 A 
ATOM     48  C   UNL A   1      44.561  30.966  28.374  1.00  0.00     0.049 A 
ATOM     49  H   UNL A   1      44.190  28.948  28.009  1.00  0.00     0.167 HD
ATOM     50  C   UNL A   1      43.314  24.710  27.431  1.00  0.00     0.037 A 
ATOM     51  C   UNL A   1      45.883  31.166  28.214  1.00  0.00     0.037 A 
ATOM     52  C   UNL A   1      44.738  24.823  27.250  1.00  0.00     0.049 A 
ATOM     53  C   UNL A   1      46.767  29.998  27.878  1.00  0.00     0.074 A 
ATOM     54  C   UNL A   1      45.649  23.832  26.922  1.00  0.00     0.029 A 
ATOM     55  N   UNL A   1      45.457  26.002  27.367  1.00  0.00    -0.354 N 
ATOM     56  N   UNL A   1      46.441  28.745  27.680  1.00  0.00    -0.248 NA
ATOM     57  C   UNL A   1      48.206  30.272  27.755  1.00  0.00     0.031 C 
ATOM     58  C   UNL A   1      46.922  24.409  26.864  1.00  0.00     0.029 A 
ATOM     59  C   UNL A   1      46.799  25.764  27.120  1.00  0.00     0.049 A 
ATOM     60  H   UNL A   1      45.070  26.879  27.591  1.00  0.00     0.167 HD
ATOM     61  C   UNL A   1      47.628  28.084  27.396  1.00  0.00     0.074 A 
ATOM     62  C   UNL A   1      48.680  29.079  27.425  1.00  0.00     0.031 C 
ATOM     63  C   UNL A   1      47.830  26.768  27.141  1.00  0.00     0.037 A 
BRANCH  50  64
ATOM     64  C   UNL A   1      42.682  23.364  27.237  1.00  0.00     0.057 A 
ATOM     65  C   UNL A   1      42.344  22.542  28.320  1.00  0.00     0.134 A 
ATOM     66  C   UNL A   1      42.368  22.903  25.952  1.00  0.00     0.134 A 
ATOM     67  F   UNL A   1      42.631  22.920  29.574  1.00  0.00    -0.206 F 
ATOM     68  C   UNL A   1      41.730  21.303  28.131  1.00  0.00     0.040 A 
ATOM     69  C   UNL A   1      41.733  21.676  25.752  1.00  0.00     0.040 A 
ATOM     70  F   UNL A   1      42.660  23.643  24.873  1.00  0.00    -0.206 F 
ATOM     71  C   UNL A   1      41.415  20.870  26.843  1.00  0.00     0.006 A 
ENDBRANCH  50  64
BRANCH  51  72
ATOM     72  C   UNL A   1      46.461  32.518  28.421  1.00  0.00     0.057 A 
ATOM     73  C   UNL A   1      46.907  32.936  29.679  1.00  0.00     0.134 A 
ATOM     74  C   UNL A   1      46.559  33.433  27.365  1.00  0.00     0.134 A 
ATOM     75  F   UNL A   1      46.816  32.115  30.735  1.00  0.00    -0.206 F 
ATOM     76  C   UNL A   1      47.413  34.221  29.884  1.00  0.00     0.040 A 
ATOM     77  C   UNL A   1      47.089  34.710  27.550  1.00  0.00     0.040 A 
ATOM     78  F   UNL A   1      46.148  33.095  26.133  1.00  0.00    -0.206 F 
ATOM     79  C   UNL A   1      47.510  35.110  28.815  1.00  0.00     0.006 A 
ENDBRANCH  51  72
BRANCH  63  80
ATOM     80  C   UNL A   1      49.235  26.341  26.842  1.00  0.00     0.057 A 
ATOM     81  C   UNL A   1      49.748  26.358  25.539  1.00  0.00     0.134 A 
ATOM     82  C   UNL A   1      50.091  25.935  27.873  1.00  0.00     0.134 A 
ATOM     83  F   UNL A   1      48.973  26.723  24.508  1.00  0.00    -0.206 F 
ATOM     84  C   UNL A   1      51.060  25.966  25.270  1.00  0.00     0.040 A 
ATOM     85  C   UNL A   1      51.411  25.561  27.618  1.00  0.00     0.040 A 
ATOM     86  F   UNL A   1      49.661  25.902  29.142  1.00  0.00    -0.206 F 
ATOM     87  C   UNL A   1      51.897  25.572  26.312  1.00  0.00     0.006 A 
ENDBRANCH  63  80
ENDBRANCH  37  38
ENDBRANCH  30  32
ENDBRANCH  29  30
ENDBRANCH  28  29
ENDBRANCH   1  28
TORSDOF 14
ENDMDL
