MODEL 1
REMARK VINA RESULT:     -10.1      0.000      0.000
REMARK SMILES CN(CC(=O)N1C[C@@H](O)C[C@H]1C(=O)OCCOC(=O)c1ccc(-c2c3nc(c(-c4c(F)cccc4F)c4ccc([nH]4)c(-c4c(F)cccc4F)c4nc(c(-c5c(F)cccc5F)c5ccc2[nH]5)C=C4)C=C3)cc1)C(=O)c1cccs1
REMARK SMILES IDX 14 1 12 2 13 3 11 4 6 5 7 6 8 7 10 8 4 9 5 10 3 11 2 12 1 13
REMARK SMILES IDX 74 14 75 15 76 16 77 17 80 18 78 19 79 20 9 21 15 23 16 24
REMARK SMILES IDX 17 25 18 26 19 27 20 28 21 29 73 30 22 31 72 32 23 33 24 34
REMARK SMILES IDX 25 35 66 36 26 37 71 38 65 39 67 40 27 41 70 42 64 43 63 44
REMARK SMILES IDX 28 46 54 47 37 48 53 49 38 50 41 51 52 52 68 53 39 54 40 55
REMARK SMILES IDX 51 57 69 58 42 59 29 60 30 61 35 62 31 63 32 64 34 65 36 66
REMARK SMILES IDX 33 67 55 68 56 69 61 70 57 71 58 72 60 73 62 74 59 75 43 76
REMARK SMILES IDX 44 77 49 78 45 79 46 80 48 81 50 82 47 83
REMARK H PARENT 9 22 67 45 41 56
REMARK Flexibility Score: inf
ROOT
ATOM      1  O   UNL A   1      33.148  34.160  29.459  1.00  0.00    -0.461 OA
ENDROOT
BRANCH   1   2
ATOM      2  C   UNL A   1      33.227  35.470  29.827  1.00  0.00     0.329 C 
ATOM      3  O   UNL A   1      33.600  36.380  29.091  1.00  0.00    -0.250 OA
BRANCH   2   4
ATOM      4  C   UNL A   1      32.978  35.696  31.322  1.00  0.00     0.197 C 
ATOM      5  N   UNL A   1      33.932  35.127  32.293  1.00  0.00    -0.325 N 
ATOM      6  C   UNL A   1      34.665  36.191  32.947  1.00  0.00     0.152 C 
ATOM      7  C   UNL A   1      33.704  37.375  32.895  1.00  0.00     0.136 C 
ATOM      8  C   UNL A   1      33.027  37.214  31.545  1.00  0.00     0.070 C 
BRANCH   5   9
ATOM      9  C   UNL A   1      33.846  33.791  32.611  1.00  0.00     0.243 C 
ATOM     10  O   UNL A   1      32.884  33.403  33.285  1.00  0.00    -0.273 OA
BRANCH   9  11
ATOM     11  C   UNL A   1      34.934  32.745  32.280  1.00  0.00     0.219 C 
BRANCH  11  12
ATOM     12  N   UNL A   1      36.300  32.865  32.775  1.00  0.00    -0.332 N 
ATOM     13  C   UNL A   1      36.450  33.233  34.179  1.00  0.00     0.147 C 
BRANCH  12  14
ATOM     14  C   UNL A   1      37.436  32.365  32.118  1.00  0.00     0.264 C 
ATOM     15  O   UNL A   1      37.861  31.243  32.398  1.00  0.00    -0.268 OA
BRANCH  14  16
ATOM     16  C   UNL A   1      38.053  33.172  31.075  1.00  0.00     0.092 A 
ATOM     17  C   UNL A   1      37.981  33.088  29.699  1.00  0.00     0.025 A 
ATOM     18  S   UNL A   1      39.036  34.495  31.565  1.00  0.00    -0.139 S 
ATOM     19  C   UNL A   1      38.795  34.064  29.050  1.00  0.00     0.012 A 
ATOM     20  C   UNL A   1      39.425  34.893  29.950  1.00  0.00     0.065 A 
ENDBRANCH  14  16
ENDBRANCH  12  14
ENDBRANCH  11  12
ENDBRANCH   9  11
ENDBRANCH   5   9
BRANCH   7  21
ATOM     21  O   UNL A   1      34.350  38.628  33.011  1.00  0.00    -0.391 OA
ATOM     22  H   UNL A   1      35.035  38.704  32.329  1.00  0.00     0.211 HD
ENDBRANCH   7  21
ENDBRANCH   2   4
ENDBRANCH   1   2
BRANCH   1  23
ATOM     23  C   UNL A   1      33.663  33.868  28.143  1.00  0.00     0.274 C 
BRANCH  23  24
ATOM     24  C   UNL A   1      34.986  33.114  28.218  1.00  0.00     0.275 C 
BRANCH  24  25
ATOM     25  O   UNL A   1      34.807  31.891  28.948  1.00  0.00    -0.458 OA
BRANCH  25  26
ATOM     26  C   UNL A   1      34.823  30.764  28.199  1.00  0.00     0.338 C 
ATOM     27  O   UNL A   1      33.916  30.314  27.522  1.00  0.00    -0.246 OA
BRANCH  26  28
ATOM     28  C   UNL A   1      36.123  30.094  28.352  1.00  0.00     0.060 A 
ATOM     29  C   UNL A   1      36.463  29.486  29.560  1.00  0.00     0.016 A 
ATOM     30  C   UNL A   1      37.058  30.188  27.323  1.00  0.00     0.016 A 
ATOM     31  C   UNL A   1      37.770  29.060  29.782  1.00  0.00     0.010 A 
ATOM     32  C   UNL A   1      38.343  29.676  27.513  1.00  0.00     0.010 A 
ATOM     33  C   UNL A   1      38.720  29.144  28.757  1.00  0.00    -0.014 A 
BRANCH  33  34
ATOM     34  C   UNL A   1      40.121  28.716  28.998  1.00  0.00     0.031 A 
ATOM     35  C   UNL A   1      41.098  29.663  29.637  1.00  0.00     0.074 A 
ATOM     36  C   UNL A   1      40.515  27.478  28.646  1.00  0.00     0.049 A 
ATOM     37  N   UNL A   1      42.395  29.547  29.773  1.00  0.00    -0.248 NA
ATOM     38  C   UNL A   1      40.545  30.912  30.187  1.00  0.00     0.031 C 
ATOM     39  C   UNL A   1      39.656  26.447  28.063  1.00  0.00     0.029 A 
ATOM     40  N   UNL A   1      41.747  26.878  28.728  1.00  0.00    -0.354 N 
ATOM     41  C   UNL A   1      42.819  30.725  30.376  1.00  0.00     0.074 A 
ATOM     42  C   UNL A   1      41.642  31.544  30.580  1.00  0.00     0.031 C 
ATOM     43  C   UNL A   1      40.379  25.336  27.858  1.00  0.00     0.029 A 
ATOM     44  C   UNL A   1      41.765  25.600  28.228  1.00  0.00     0.049 A 
ATOM     45  H   UNL A   1      42.539  27.320  29.109  1.00  0.00     0.167 HD
ATOM     46  C   UNL A   1      44.076  31.088  30.723  1.00  0.00     0.037 A 
ATOM     47  C   UNL A   1      42.791  24.748  28.050  1.00  0.00     0.037 A 
ATOM     48  C   UNL A   1      45.236  30.250  30.561  1.00  0.00     0.049 A 
ATOM     49  C   UNL A   1      44.179  25.182  28.421  1.00  0.00     0.074 A 
ATOM     50  C   UNL A   1      46.552  30.523  30.891  1.00  0.00     0.029 A 
ATOM     51  N   UNL A   1      45.213  28.968  30.035  1.00  0.00    -0.354 N 
ATOM     52  N   UNL A   1      44.577  26.317  28.940  1.00  0.00    -0.248 NA
ATOM     53  C   UNL A   1      45.261  24.223  28.166  1.00  0.00     0.031 C 
ATOM     54  C   UNL A   1      47.330  29.414  30.543  1.00  0.00     0.029 A 
ATOM     55  C   UNL A   1      46.494  28.438  30.026  1.00  0.00     0.049 A 
ATOM     56  H   UNL A   1      44.406  28.502  29.716  1.00  0.00     0.167 HD
ATOM     57  C   UNL A   1      45.952  26.208  29.083  1.00  0.00     0.074 A 
ATOM     58  C   UNL A   1      46.318  24.887  28.613  1.00  0.00     0.031 C 
ATOM     59  C   UNL A   1      46.835  27.121  29.555  1.00  0.00     0.037 A 
BRANCH  46  60
ATOM     60  C   UNL A   1      44.268  32.464  31.288  1.00  0.00     0.057 A 
ATOM     61  C   UNL A   1      44.437  33.586  30.469  1.00  0.00     0.134 A 
ATOM     62  C   UNL A   1      44.252  32.669  32.674  1.00  0.00     0.134 A 
ATOM     63  F   UNL A   1      44.478  33.454  29.134  1.00  0.00    -0.206 F 
ATOM     64  C   UNL A   1      44.599  34.863  31.010  1.00  0.00     0.040 A 
ATOM     65  C   UNL A   1      44.392  33.944  33.225  1.00  0.00     0.040 A 
ATOM     66  F   UNL A   1      44.090  31.635  33.513  1.00  0.00    -0.206 F 
ATOM     67  C   UNL A   1      44.570  35.045  32.391  1.00  0.00     0.006 A 
ENDBRANCH  46  60
BRANCH  47  68
ATOM     68  C   UNL A   1      42.543  23.412  27.458  1.00  0.00     0.057 A 
ATOM     69  C   UNL A   1      42.542  23.226  26.071  1.00  0.00     0.134 A 
ATOM     70  C   UNL A   1      42.317  22.288  28.262  1.00  0.00     0.134 A 
ATOM     71  F   UNL A   1      42.732  24.269  25.251  1.00  0.00    -0.206 F 
ATOM     72  C   UNL A   1      42.318  21.970  25.505  1.00  0.00     0.040 A 
ATOM     73  C   UNL A   1      42.115  21.023  27.710  1.00  0.00     0.040 A 
ATOM     74  F   UNL A   1      42.309  22.403  29.599  1.00  0.00    -0.206 F 
ATOM     75  C   UNL A   1      42.111  20.863  26.326  1.00  0.00     0.006 A 
ENDBRANCH  47  68
BRANCH  59  76
ATOM     76  C   UNL A   1      48.272  26.706  29.608  1.00  0.00     0.057 A 
ATOM     77  C   UNL A   1      49.164  27.015  28.573  1.00  0.00     0.134 A 
ATOM     78  C   UNL A   1      48.774  26.009  30.713  1.00  0.00     0.134 A 
ATOM     79  F   UNL A   1      48.737  27.667  27.480  1.00  0.00    -0.206 F 
ATOM     80  C   UNL A   1      50.502  26.626  28.626  1.00  0.00     0.040 A 
ATOM     81  C   UNL A   1      50.116  25.632  30.787  1.00  0.00     0.040 A 
ATOM     82  F   UNL A   1      47.970  25.689  31.738  1.00  0.00    -0.206 F 
ATOM     83  C   UNL A   1      50.982  25.936  29.739  1.00  0.00     0.006 A 
ENDBRANCH  59  76
ENDBRANCH  33  34
ENDBRANCH  26  28
ENDBRANCH  25  26
ENDBRANCH  24  25
ENDBRANCH  23  24
ENDBRANCH   1  23
TORSDOF 17
ENDMDL
MODEL 2
REMARK VINA RESULT:     -10.0      0.663      1.825
REMARK SMILES CN(CC(=O)N1C[C@@H](O)C[C@H]1C(=O)OCCOC(=O)c1ccc(-c2c3nc(c(-c4c(F)cccc4F)c4ccc([nH]4)c(-c4c(F)cccc4F)c4nc(c(-c5c(F)cccc5F)c5ccc2[nH]5)C=C4)C=C3)cc1)C(=O)c1cccs1
REMARK SMILES IDX 14 1 12 2 13 3 11 4 6 5 7 6 8 7 10 8 4 9 5 10 3 11 2 12 1 13
REMARK SMILES IDX 74 14 75 15 76 16 77 17 80 18 78 19 79 20 9 21 15 23 16 24
REMARK SMILES IDX 17 25 18 26 19 27 20 28 21 29 73 30 22 31 72 32 23 33 24 34
REMARK SMILES IDX 25 35 66 36 26 37 71 38 65 39 67 40 27 41 70 42 64 43 63 44
REMARK SMILES IDX 28 46 54 47 37 48 53 49 38 50 41 51 52 52 68 53 39 54 40 55
REMARK SMILES IDX 51 57 69 58 42 59 29 60 30 61 35 62 31 63 32 64 34 65 36 66
REMARK SMILES IDX 33 67 55 68 56 69 61 70 57 71 58 72 60 73 62 74 59 75 43 76
REMARK SMILES IDX 44 77 49 78 45 79 46 80 48 81 50 82 47 83
REMARK H PARENT 9 22 67 45 41 56
REMARK Flexibility Score: inf
ROOT
ATOM      1  O   UNL A   1      33.491  33.480  29.515  1.00  0.00    -0.461 OA
ENDROOT
BRANCH   1   2
ATOM      2  C   UNL A   1      34.033  34.637  29.991  1.00  0.00     0.329 C 
ATOM      3  O   UNL A   1      35.050  35.164  29.549  1.00  0.00    -0.250 OA
BRANCH   2   4
ATOM      4  C   UNL A   1      33.355  35.143  31.269  1.00  0.00     0.197 C 
ATOM      5  N   UNL A   1      34.144  35.198  32.515  1.00  0.00    -0.325 N 
ATOM      6  C   UNL A   1      34.367  36.577  32.897  1.00  0.00     0.152 C 
ATOM      7  C   UNL A   1      33.168  37.313  32.306  1.00  0.00     0.136 C 
ATOM      8  C   UNL A   1      32.932  36.591  30.991  1.00  0.00     0.070 C 
BRANCH   5   9
ATOM      9  C   UNL A   1      34.345  34.041  33.232  1.00  0.00     0.243 C 
ATOM     10  O   UNL A   1      33.496  33.143  33.157  1.00  0.00    -0.273 OA
BRANCH   9  11
ATOM     11  C   UNL A   1      35.509  33.822  34.224  1.00  0.00     0.219 C 
BRANCH  11  12
ATOM     12  N   UNL A   1      36.643  32.961  33.910  1.00  0.00    -0.332 N 
ATOM     13  C   UNL A   1      37.469  32.542  35.037  1.00  0.00     0.147 C 
BRANCH  12  14
ATOM     14  C   UNL A   1      36.814  32.272  32.698  1.00  0.00     0.264 C 
ATOM     15  O   UNL A   1      36.381  31.125  32.581  1.00  0.00    -0.268 OA
BRANCH  14  16
ATOM     16  C   UNL A   1      37.453  32.960  31.586  1.00  0.00     0.092 A 
ATOM     17  C   UNL A   1      37.395  32.737  30.225  1.00  0.00     0.025 A 
ATOM     18  S   UNL A   1      38.452  34.310  31.951  1.00  0.00    -0.139 S 
ATOM     19  C   UNL A   1      38.231  33.630  29.490  1.00  0.00     0.012 A 
ATOM     20  C   UNL A   1      38.864  34.537  30.309  1.00  0.00     0.065 A 
ENDBRANCH  14  16
ENDBRANCH  12  14
ENDBRANCH  11  12
ENDBRANCH   9  11
ENDBRANCH   5   9
BRANCH   7  21
ATOM     21  O   UNL A   1      33.397  38.695  32.112  1.00  0.00    -0.391 OA
ATOM     22  H   UNL A   1      34.037  38.820  31.394  1.00  0.00     0.211 HD
ENDBRANCH   7  21
ENDBRANCH   2   4
ENDBRANCH   1   2
BRANCH   1  23
ATOM     23  C   UNL A   1      33.436  33.384  28.076  1.00  0.00     0.274 C 
BRANCH  23  24
ATOM     24  C   UNL A   1      34.335  32.267  27.558  1.00  0.00     0.275 C 
BRANCH  24  25
ATOM     25  O   UNL A   1      34.367  31.190  28.507  1.00  0.00    -0.458 OA
BRANCH  25  26
ATOM     26  C   UNL A   1      34.808  30.006  28.023  1.00  0.00     0.338 C 
ATOM     27  O   UNL A   1      34.162  29.167  27.421  1.00  0.00    -0.246 OA
BRANCH  26  28
ATOM     28  C   UNL A   1      36.226  29.833  28.373  1.00  0.00     0.060 A 
ATOM     29  C   UNL A   1      37.219  30.075  27.424  1.00  0.00     0.016 A 
ATOM     30  C   UNL A   1      36.556  29.301  29.618  1.00  0.00     0.016 A 
ATOM     31  C   UNL A   1      38.533  29.691  27.678  1.00  0.00     0.010 A 
ATOM     32  C   UNL A   1      37.889  29.003  29.907  1.00  0.00     0.010 A 
ATOM     33  C   UNL A   1      38.882  29.159  28.925  1.00  0.00    -0.014 A 
BRANCH  33  34
ATOM     34  C   UNL A   1      40.276  28.724  29.190  1.00  0.00     0.031 A 
ATOM     35  C   UNL A   1      41.224  29.636  29.917  1.00  0.00     0.074 A 
ATOM     36  C   UNL A   1      40.690  27.510  28.781  1.00  0.00     0.049 A 
ATOM     37  N   UNL A   1      42.516  29.518  30.092  1.00  0.00    -0.248 NA
ATOM     38  C   UNL A   1      40.644  30.849  30.518  1.00  0.00     0.031 C 
ATOM     39  C   UNL A   1      39.858  26.511  28.108  1.00  0.00     0.029 A 
ATOM     40  N   UNL A   1      41.922  26.912  28.872  1.00  0.00    -0.354 N 
ATOM     41  C   UNL A   1      42.911  30.660  30.777  1.00  0.00     0.074 A 
ATOM     42  C   UNL A   1      41.723  31.461  30.986  1.00  0.00     0.031 C 
ATOM     43  C   UNL A   1      40.595  25.417  27.865  1.00  0.00     0.029 A 
ATOM     44  C   UNL A   1      41.966  25.665  28.299  1.00  0.00     0.049 A 
ATOM     45  H   UNL A   1      42.697  27.334  29.305  1.00  0.00     0.167 HD
ATOM     46  C   UNL A   1      44.153  31.008  31.189  1.00  0.00     0.037 A 
ATOM     47  C   UNL A   1      43.002  24.829  28.107  1.00  0.00     0.037 A 
ATOM     48  C   UNL A   1      45.323  30.186  31.019  1.00  0.00     0.049 A 
ATOM     49  C   UNL A   1      44.374  25.247  28.552  1.00  0.00     0.074 A 
ATOM     50  C   UNL A   1      46.625  30.445  31.411  1.00  0.00     0.029 A 
ATOM     51  N   UNL A   1      45.327  28.936  30.419  1.00  0.00    -0.354 N 
ATOM     52  N   UNL A   1      44.746  26.352  29.150  1.00  0.00    -0.248 NA
ATOM     53  C   UNL A   1      45.471  24.309  28.281  1.00  0.00     0.031 C 
ATOM     54  C   UNL A   1      47.422  29.361  31.027  1.00  0.00     0.029 A 
ATOM     55  C   UNL A   1      46.610  28.414  30.424  1.00  0.00     0.049 A 
ATOM     56  H   UNL A   1      44.535  28.487  30.045  1.00  0.00     0.167 HD
ATOM     57  C   UNL A   1      46.116  26.240  29.335  1.00  0.00     0.074 A 
ATOM     58  C   UNL A   1      46.506  24.950  28.802  1.00  0.00     0.031 C 
ATOM     59  C   UNL A   1      46.976  27.128  29.891  1.00  0.00     0.037 A 
BRANCH  46  60
ATOM     60  C   UNL A   1      44.316  32.350  31.839  1.00  0.00     0.057 A 
ATOM     61  C   UNL A   1      44.215  32.521  33.223  1.00  0.00     0.134 A 
ATOM     62  C   UNL A   1      44.609  33.480  31.064  1.00  0.00     0.134 A 
ATOM     63  F   UNL A   1      43.920  31.482  34.019  1.00  0.00    -0.206 F 
ATOM     64  C   UNL A   1      44.386  33.775  33.816  1.00  0.00     0.040 A 
ATOM     65  C   UNL A   1      44.802  34.734  31.647  1.00  0.00     0.040 A 
ATOM     66  F   UNL A   1      44.723  33.382  29.731  1.00  0.00    -0.206 F 
ATOM     67  C   UNL A   1      44.686  34.885  33.027  1.00  0.00     0.006 A 
ENDBRANCH  46  60
BRANCH  47  68
ATOM     68  C   UNL A   1      42.784  23.529  27.431  1.00  0.00     0.057 A 
ATOM     69  C   UNL A   1      42.395  22.396  28.155  1.00  0.00     0.134 A 
ATOM     70  C   UNL A   1      42.941  23.390  26.047  1.00  0.00     0.134 A 
ATOM     71  F   UNL A   1      42.249  22.464  29.485  1.00  0.00    -0.206 F 
ATOM     72  C   UNL A   1      42.178  21.169  27.526  1.00  0.00     0.040 A 
ATOM     73  C   UNL A   1      42.704  22.176  25.403  1.00  0.00     0.040 A 
ATOM     74  F   UNL A   1      43.308  24.442  25.299  1.00  0.00    -0.206 F 
ATOM     75  C   UNL A   1      42.325  21.059  26.145  1.00  0.00     0.006 A 
ENDBRANCH  47  68
BRANCH  59  76
ATOM     76  C   UNL A   1      48.413  26.717  29.970  1.00  0.00     0.057 A 
ATOM     77  C   UNL A   1      48.905  25.972  31.048  1.00  0.00     0.134 A 
ATOM     78  C   UNL A   1      49.309  27.052  28.947  1.00  0.00     0.134 A 
ATOM     79  F   UNL A   1      48.099  25.636  32.066  1.00  0.00    -0.206 F 
ATOM     80  C   UNL A   1      50.246  25.592  31.117  1.00  0.00     0.040 A 
ATOM     81  C   UNL A   1      50.647  26.661  28.995  1.00  0.00     0.040 A 
ATOM     82  F   UNL A   1      48.896  27.760  27.886  1.00  0.00    -0.206 F 
ATOM     83  C   UNL A   1      51.119  25.933  30.086  1.00  0.00     0.006 A 
ENDBRANCH  59  76
ENDBRANCH  33  34
ENDBRANCH  26  28
ENDBRANCH  25  26
ENDBRANCH  24  25
ENDBRANCH  23  24
ENDBRANCH   1  23
TORSDOF 17
ENDMDL
MODEL 3
REMARK VINA RESULT:      -9.9      1.971      6.503
REMARK SMILES CN(CC(=O)N1C[C@@H](O)C[C@H]1C(=O)OCCOC(=O)c1ccc(-c2c3nc(c(-c4c(F)cccc4F)c4ccc([nH]4)c(-c4c(F)cccc4F)c4nc(c(-c5c(F)cccc5F)c5ccc2[nH]5)C=C4)C=C3)cc1)C(=O)c1cccs1
REMARK SMILES IDX 14 1 12 2 13 3 11 4 6 5 7 6 8 7 10 8 4 9 5 10 3 11 2 12 1 13
REMARK SMILES IDX 74 14 75 15 76 16 77 17 80 18 78 19 79 20 9 21 15 23 16 24
REMARK SMILES IDX 17 25 18 26 19 27 20 28 21 29 73 30 22 31 72 32 23 33 24 34
REMARK SMILES IDX 25 35 66 36 26 37 71 38 65 39 67 40 27 41 70 42 64 43 63 44
REMARK SMILES IDX 28 46 54 47 37 48 53 49 38 50 41 51 52 52 68 53 39 54 40 55
REMARK SMILES IDX 51 57 69 58 42 59 29 60 30 61 35 62 31 63 32 64 34 65 36 66
REMARK SMILES IDX 33 67 55 68 56 69 61 70 57 71 58 72 60 73 62 74 59 75 43 76
REMARK SMILES IDX 44 77 49 78 45 79 46 80 48 81 50 82 47 83
REMARK H PARENT 9 22 67 45 41 56
REMARK Flexibility Score: inf
ROOT
ATOM      1  O   UNL A   1      34.955  34.306  29.671  1.00  0.00    -0.461 OA
ENDROOT
BRANCH   1   2
ATOM      2  C   UNL A   1      33.642  34.668  29.727  1.00  0.00     0.329 C 
ATOM      3  O   UNL A   1      32.914  34.802  28.747  1.00  0.00    -0.250 OA
BRANCH   2   4
ATOM      4  C   UNL A   1      33.185  35.077  31.131  1.00  0.00     0.197 C 
ATOM      5  N   UNL A   1      34.159  35.018  32.238  1.00  0.00    -0.325 N 
ATOM      6  C   UNL A   1      34.477  36.357  32.688  1.00  0.00     0.152 C 
ATOM      7  C   UNL A   1      33.222  37.158  32.352  1.00  0.00     0.136 C 
ATOM      8  C   UNL A   1      32.765  36.550  31.037  1.00  0.00     0.070 C 
BRANCH   5   9
ATOM      9  C   UNL A   1      34.436  33.803  32.821  1.00  0.00     0.243 C 
ATOM     10  O   UNL A   1      33.862  32.794  32.390  1.00  0.00    -0.273 OA
BRANCH   9  11
ATOM     11  C   UNL A   1      35.335  33.618  34.064  1.00  0.00     0.219 C 
BRANCH  11  12
ATOM     12  N   UNL A   1      36.747  33.269  33.954  1.00  0.00    -0.332 N 
ATOM     13  C   UNL A   1      37.071  31.850  34.058  1.00  0.00     0.147 C 
BRANCH  12  14
ATOM     14  C   UNL A   1      37.746  34.121  33.459  1.00  0.00     0.264 C 
ATOM     15  O   UNL A   1      38.061  35.128  34.095  1.00  0.00    -0.268 OA
BRANCH  14  16
ATOM     16  C   UNL A   1      38.429  33.758  32.226  1.00  0.00     0.092 A 
ATOM     17  C   UNL A   1      38.023  33.826  30.908  1.00  0.00     0.025 A 
ATOM     18  S   UNL A   1      40.034  33.153  32.351  1.00  0.00    -0.139 S 
ATOM     19  C   UNL A   1      39.005  33.310  30.009  1.00  0.00     0.012 A 
ATOM     20  C   UNL A   1      40.146  32.909  30.664  1.00  0.00     0.065 A 
ENDBRANCH  14  16
ENDBRANCH  12  14
ENDBRANCH  11  12
ENDBRANCH   9  11
ENDBRANCH   5   9
BRANCH   7  21
ATOM     21  O   UNL A   1      33.457  38.547  32.234  1.00  0.00    -0.391 OA
ATOM     22  H   UNL A   1      33.806  38.743  31.351  1.00  0.00     0.211 HD
ENDBRANCH   7  21
ENDBRANCH   2   4
ENDBRANCH   1   2
BRANCH   1  23
ATOM     23  C   UNL A   1      35.269  33.314  28.671  1.00  0.00     0.274 C 
BRANCH  23  24
ATOM     24  C   UNL A   1      34.638  31.967  29.005  1.00  0.00     0.275 C 
BRANCH  24  25
ATOM     25  O   UNL A   1      35.600  30.919  28.817  1.00  0.00    -0.458 OA
BRANCH  25  26
ATOM     26  C   UNL A   1      36.314  30.585  29.917  1.00  0.00     0.338 C 
ATOM     27  O   UNL A   1      36.022  30.798  31.080  1.00  0.00    -0.246 OA
BRANCH  26  28
ATOM     28  C   UNL A   1      37.571  29.940  29.507  1.00  0.00     0.060 A 
ATOM     29  C   UNL A   1      38.468  29.475  30.468  1.00  0.00     0.016 A 
ATOM     30  C   UNL A   1      37.911  29.918  28.155  1.00  0.00     0.016 A 
ATOM     31  C   UNL A   1      39.749  29.081  30.091  1.00  0.00     0.010 A 
ATOM     32  C   UNL A   1      39.163  29.435  27.770  1.00  0.00     0.010 A 
ATOM     33  C   UNL A   1      40.106  29.049  28.738  1.00  0.00    -0.014 A 
BRANCH  33  34
ATOM     34  C   UNL A   1      41.478  28.655  28.334  1.00  0.00     0.031 A 
ATOM     35  C   UNL A   1      41.768  27.234  27.939  1.00  0.00     0.074 A 
ATOM     36  C   UNL A   1      42.464  29.572  28.321  1.00  0.00     0.049 A 
ATOM     37  N   UNL A   1      42.922  26.654  27.725  1.00  0.00    -0.248 NA
ATOM     38  C   UNL A   1      40.607  26.345  27.771  1.00  0.00     0.031 C 
ATOM     39  C   UNL A   1      42.306  30.993  28.636  1.00  0.00     0.029 A 
ATOM     40  N   UNL A   1      43.798  29.442  28.030  1.00  0.00    -0.354 N 
ATOM     41  C   UNL A   1      42.630  25.324  27.448  1.00  0.00     0.074 A 
ATOM     42  C   UNL A   1      41.191  25.181  27.521  1.00  0.00     0.031 C 
ATOM     43  C   UNL A   1      43.491  31.607  28.502  1.00  0.00     0.029 A 
ATOM     44  C   UNL A   1      44.503  30.612  28.163  1.00  0.00     0.049 A 
ATOM     45  H   UNL A   1      44.210  28.592  27.752  1.00  0.00     0.167 HD
ATOM     46  C   UNL A   1      43.487  24.315  27.163  1.00  0.00     0.037 A 
ATOM     47  C   UNL A   1      45.823  30.852  28.062  1.00  0.00     0.037 A 
ATOM     48  C   UNL A   1      44.914  24.472  27.045  1.00  0.00     0.049 A 
ATOM     49  C   UNL A   1      46.755  29.714  27.767  1.00  0.00     0.074 A 
ATOM     50  C   UNL A   1      45.868  23.514  26.750  1.00  0.00     0.029 A 
ATOM     51  N   UNL A   1      45.589  25.673  27.204  1.00  0.00    -0.354 N 
ATOM     52  N   UNL A   1      46.475  28.451  27.561  1.00  0.00    -0.248 NA
ATOM     53  C   UNL A   1      48.188  30.032  27.709  1.00  0.00     0.031 C 
ATOM     54  C   UNL A   1      47.124  24.131  26.752  1.00  0.00     0.029 A 
ATOM     55  C   UNL A   1      46.948  25.479  27.017  1.00  0.00     0.049 A 
ATOM     56  H   UNL A   1      45.165  26.536  27.416  1.00  0.00     0.167 HD
ATOM     57  C   UNL A   1      47.693  27.824  27.339  1.00  0.00     0.074 A 
ATOM     58  C   UNL A   1      48.712  28.850  27.418  1.00  0.00     0.031 C 
ATOM     59  C   UNL A   1      47.945  26.514  27.098  1.00  0.00     0.037 A 
BRANCH  46  60
ATOM     60  C   UNL A   1      42.908  22.944  26.987  1.00  0.00     0.057 A 
ATOM     61  C   UNL A   1      42.765  22.354  25.726  1.00  0.00     0.134 A 
ATOM     62  C   UNL A   1      42.516  22.192  28.103  1.00  0.00     0.134 A 
ATOM     63  F   UNL A   1      43.106  23.027  24.617  1.00  0.00    -0.206 F 
ATOM     64  C   UNL A   1      42.238  21.068  25.579  1.00  0.00     0.040 A 
ATOM     65  C   UNL A   1      42.008  20.899  27.969  1.00  0.00     0.040 A 
ATOM     66  F   UNL A   1      42.631  22.699  29.339  1.00  0.00    -0.206 F 
ATOM     67  C   UNL A   1      41.864  20.335  26.704  1.00  0.00     0.006 A 
ENDBRANCH  46  60
BRANCH  47  68
ATOM     68  C   UNL A   1      46.339  32.225  28.277  1.00  0.00     0.057 A 
ATOM     69  C   UNL A   1      46.817  32.627  29.529  1.00  0.00     0.134 A 
ATOM     70  C   UNL A   1      46.383  33.160  27.236  1.00  0.00     0.134 A 
ATOM     71  F   UNL A   1      46.782  31.781  30.568  1.00  0.00    -0.206 F 
ATOM     72  C   UNL A   1      47.314  33.915  29.740  1.00  0.00     0.040 A 
ATOM     73  C   UNL A   1      46.898  34.442  27.427  1.00  0.00     0.040 A 
ATOM     74  F   UNL A   1      45.942  32.831  26.012  1.00  0.00    -0.206 F 
ATOM     75  C   UNL A   1      47.362  34.824  28.684  1.00  0.00     0.006 A 
ENDBRANCH  47  68
BRANCH  59  76
ATOM     76  C   UNL A   1      49.376  26.132  26.878  1.00  0.00     0.057 A 
ATOM     77  C   UNL A   1      49.955  26.160  25.604  1.00  0.00     0.134 A 
ATOM     78  C   UNL A   1      50.187  25.752  27.954  1.00  0.00     0.134 A 
ATOM     79  F   UNL A   1      49.223  26.500  24.532  1.00  0.00    -0.206 F 
ATOM     80  C   UNL A   1      51.288  25.802  25.404  1.00  0.00     0.040 A 
ATOM     81  C   UNL A   1      51.527  25.411  27.770  1.00  0.00     0.040 A 
ATOM     82  F   UNL A   1      49.690  25.710  29.199  1.00  0.00    -0.206 F 
ATOM     83  C   UNL A   1      52.079  25.431  26.490  1.00  0.00     0.006 A 
ENDBRANCH  59  76
ENDBRANCH  33  34
ENDBRANCH  26  28
ENDBRANCH  25  26
ENDBRANCH  24  25
ENDBRANCH  23  24
ENDBRANCH   1  23
TORSDOF 17
ENDMDL
