MODEL 1
REMARK VINA RESULT:     -11.5      0.000      0.000
REMARK SMILES NS(=O)(=O)c1ccc(-n2nc(C(=O)NCCCCCCCCCCC(=O)OCCOC(=O)c3ccc(-c4c5nc(c(-c6c(F)cccc6F)c6ccc([nH]6)c(-c6c(F)cccc6F)c6nc(c(-c7c(F)cccc7F)c7ccc4[nH]7)C=C6)C=C5)cc3)cc2-c2ccccc2)cc1
REMARK SMILES IDX 21 1 20 2 19 3 18 4 17 5 16 6 15 7 14 8 12 9 13 10 11 12
REMARK SMILES IDX 9 13 10 14 88 15 87 16 8 17 5 18 6 19 96 20 7 21 95 22 2 23
REMARK SMILES IDX 3 24 4 25 1 26 89 29 90 30 94 31 91 32 93 33 92 34 22 35
REMARK SMILES IDX 23 36 24 37 25 38 26 39 27 40 28 41 29 42 30 43 31 44 32 45
REMARK SMILES IDX 33 46 34 47 86 48 35 49 85 50 36 51 37 52 38 53 79 54 39 55
REMARK SMILES IDX 84 56 78 57 80 58 40 59 83 60 77 61 76 62 41 64 67 65 50 66
REMARK SMILES IDX 66 67 51 68 54 69 65 70 81 71 52 72 53 73 64 75 82 76 55 77
REMARK SMILES IDX 42 78 43 79 48 80 44 81 45 82 47 83 49 84 46 85 68 86 69 87
REMARK SMILES IDX 74 88 70 89 71 90 73 91 75 92 72 93 56 94 57 95 62 96 58 97
REMARK SMILES IDX 59 98 61 99 63 100 60 101
REMARK H PARENT 14 11 1 27 1 28 80 63 54 74
REMARK Flexibility Score: inf
ROOT
ATOM      1  C   UNL A   1      36.656  23.404  25.229  1.00  0.00     0.000 C 
ENDROOT
BRANCH   1   2
ATOM      2  C   UNL A   1      35.639  22.316  25.572  1.00  0.00     0.000 C 
BRANCH   2   3
ATOM      3  C   UNL A   1      35.004  22.537  26.946  1.00  0.00     0.000 C 
BRANCH   3   4
ATOM      4  C   UNL A   1      33.774  21.647  27.162  1.00  0.00     0.000 C 
BRANCH   4   5
ATOM      5  C   UNL A   1      33.205  21.095  25.848  1.00  0.00     0.002 C 
BRANCH   5   6
ATOM      6  C   UNL A   1      31.918  21.802  25.420  1.00  0.00     0.021 C 
BRANCH   6   7
ATOM      7  C   UNL A   1      31.728  21.703  23.911  1.00  0.00     0.116 C 
BRANCH   7   8
ATOM      8  N   UNL A   1      32.952  22.062  23.242  1.00  0.00    -0.351 N 
ATOM      9  C   UNL A   1      33.525  23.272  22.953  1.00  0.00     0.271 C 
ATOM     10  O   UNL A   1      34.516  23.227  22.216  1.00  0.00    -0.267 OA
ATOM     11  H   UNL A   1      33.477  21.289  22.932  1.00  0.00     0.163 HD
BRANCH   9  12
ATOM     12  C   UNL A   1      33.027  24.535  23.537  1.00  0.00     0.151 A 
ATOM     13  N   UNL A   1      31.977  26.411  23.531  1.00  0.00    -0.232 N 
ATOM     14  N   UNL A   1      32.057  25.221  22.902  1.00  0.00    -0.162 NA
ATOM     15  C   UNL A   1      32.790  26.474  24.643  1.00  0.00     0.075 A 
ATOM     16  C   UNL A   1      33.379  25.233  24.713  1.00  0.00     0.065 A 
BRANCH  13  17
ATOM     17  C   UNL A   1      31.073  27.390  23.075  1.00  0.00     0.065 A 
ATOM     18  C   UNL A   1      29.334  29.450  22.484  1.00  0.00     0.082 A 
ATOM     19  C   UNL A   1      30.662  29.531  22.053  1.00  0.00     0.024 A 
ATOM     20  C   UNL A   1      28.858  28.325  23.167  1.00  0.00     0.024 A 
ATOM     21  C   UNL A   1      31.542  28.500  22.364  1.00  0.00     0.030 A 
ATOM     22  C   UNL A   1      29.726  27.270  23.435  1.00  0.00     0.030 A 
BRANCH  18  23
ATOM     23  S   UNL A   1      28.245  30.807  22.197  1.00  0.00     0.238 S 
ATOM     24  O   UNL A   1      27.299  30.901  23.282  1.00  0.00    -0.207 OA
ATOM     25  O   UNL A   1      27.840  30.785  20.809  1.00  0.00    -0.207 OA
BRANCH  23  26
ATOM     26  N   UNL A   1      29.268  32.123  22.375  1.00  0.00    -0.225 NA
ATOM     27  H   UNL A   1      29.094  32.571  23.274  1.00  0.00     0.137 HD
ATOM     28  H   UNL A   1      29.097  32.791  21.623  1.00  0.00     0.137 HD
ENDBRANCH  23  26
ENDBRANCH  18  23
ENDBRANCH  13  17
BRANCH  15  29
ATOM     29  C   UNL A   1      32.886  27.537  25.636  1.00  0.00     0.000 A 
ATOM     30  C   UNL A   1      31.752  27.995  26.314  1.00  0.00     0.010 A 
ATOM     31  C   UNL A   1      34.148  28.033  25.993  1.00  0.00     0.010 A 
ATOM     32  C   UNL A   1      31.879  28.942  27.331  1.00  0.00     0.001 A 
ATOM     33  C   UNL A   1      34.273  28.977  27.012  1.00  0.00     0.001 A 
ATOM     34  C   UNL A   1      33.138  29.428  27.682  1.00  0.00     0.000 A 
ENDBRANCH  15  29
ENDBRANCH   9  12
ENDBRANCH   7   8
ENDBRANCH   6   7
ENDBRANCH   5   6
ENDBRANCH   4   5
ENDBRANCH   3   4
ENDBRANCH   2   3
ENDBRANCH   1   2
BRANCH   1  35
ATOM     35  C   UNL A   1      37.964  23.216  25.996  1.00  0.00     0.001 C 
BRANCH  35  36
ATOM     36  C   UNL A   1      38.576  21.833  25.759  1.00  0.00     0.012 C 
BRANCH  36  37
ATOM     37  C   UNL A   1      39.977  21.616  26.341  1.00  0.00     0.123 C 
BRANCH  37  38
ATOM     38  C   UNL A   1      40.626  20.261  26.129  1.00  0.00     0.305 C 
ATOM     39  O   UNL A   1      40.007  19.285  25.723  1.00  0.00    -0.252 OA
BRANCH  38  40
ATOM     40  O   UNL A   1      41.958  20.270  26.387  1.00  0.00    -0.462 OA
BRANCH  40  41
ATOM     41  C   UNL A   1      42.586  19.023  26.733  1.00  0.00     0.274 C 
BRANCH  41  42
ATOM     42  C   UNL A   1      43.505  18.531  25.622  1.00  0.00     0.275 C 
BRANCH  42  43
ATOM     43  O   UNL A   1      43.488  19.434  24.519  1.00  0.00    -0.458 OA
BRANCH  43  44
ATOM     44  C   UNL A   1      44.714  19.815  24.103  1.00  0.00     0.338 C 
ATOM     45  O   UNL A   1      45.580  19.117  23.607  1.00  0.00    -0.246 OA
BRANCH  44  46
ATOM     46  C   UNL A   1      44.979  21.182  24.530  1.00  0.00     0.060 A 
ATOM     47  C   UNL A   1      46.020  21.410  25.438  1.00  0.00     0.016 A 
ATOM     48  C   UNL A   1      43.966  22.115  24.295  1.00  0.00     0.016 A 
ATOM     49  C   UNL A   1      45.955  22.531  26.237  1.00  0.00     0.010 A 
ATOM     50  C   UNL A   1      43.884  23.208  25.113  1.00  0.00     0.010 A 
ATOM     51  C   UNL A   1      44.841  23.367  26.116  1.00  0.00    -0.014 A 
BRANCH  51  52
ATOM     52  C   UNL A   1      44.719  24.510  26.991  1.00  0.00     0.031 A 
ATOM     53  C   UNL A   1      45.866  25.441  26.889  1.00  0.00     0.074 A 
ATOM     54  C   UNL A   1      43.573  24.779  27.646  1.00  0.00     0.049 A 
ATOM     55  N   UNL A   1      46.692  25.784  27.818  1.00  0.00    -0.248 NA
ATOM     56  C   UNL A   1      46.226  25.935  25.548  1.00  0.00     0.031 C 
ATOM     57  C   UNL A   1      42.295  24.068  27.549  1.00  0.00     0.029 A 
ATOM     58  N   UNL A   1      43.274  25.835  28.447  1.00  0.00    -0.354 N 
ATOM     59  C   UNL A   1      47.542  26.710  27.225  1.00  0.00     0.074 A 
ATOM     60  C   UNL A   1      47.346  26.607  25.804  1.00  0.00     0.031 C 
ATOM     61  C   UNL A   1      41.317  24.839  28.074  1.00  0.00     0.029 A 
ATOM     62  C   UNL A   1      41.913  26.036  28.643  1.00  0.00     0.049 A 
ATOM     63  H   UNL A   1      43.962  26.408  28.855  1.00  0.00     0.167 HD
ATOM     64  C   UNL A   1      48.121  27.696  27.960  1.00  0.00     0.037 A 
ATOM     65  C   UNL A   1      41.332  27.147  29.163  1.00  0.00     0.037 A 
ATOM     66  C   UNL A   1      48.124  27.375  29.363  1.00  0.00     0.049 A 
ATOM     67  C   UNL A   1      42.387  27.909  29.878  1.00  0.00     0.074 A 
ATOM     68  C   UNL A   1      48.621  26.329  30.117  1.00  0.00     0.029 A 
ATOM     69  N   UNL A   1      47.211  28.012  30.168  1.00  0.00    -0.354 N 
ATOM     70  N   UNL A   1      42.953  27.511  30.981  1.00  0.00    -0.248 NA
ATOM     71  C   UNL A   1      43.132  28.908  29.125  1.00  0.00     0.031 C 
ATOM     72  C   UNL A   1      47.647  26.107  31.134  1.00  0.00     0.029 A 
ATOM     73  C   UNL A   1      46.644  27.064  30.980  1.00  0.00     0.049 A 
ATOM     74  H   UNL A   1      47.003  28.974  30.163  1.00  0.00     0.167 HD
ATOM     75  C   UNL A   1      44.289  27.851  30.835  1.00  0.00     0.074 A 
ATOM     76  C   UNL A   1      44.319  28.801  29.726  1.00  0.00     0.031 C 
ATOM     77  C   UNL A   1      45.271  27.109  31.428  1.00  0.00     0.037 A 
BRANCH  64  78
ATOM     78  C   UNL A   1      48.297  29.101  27.442  1.00  0.00     0.057 A 
ATOM     79  C   UNL A   1      49.551  29.719  27.559  1.00  0.00     0.134 A 
ATOM     80  C   UNL A   1      47.230  29.960  27.102  1.00  0.00     0.134 A 
ATOM     81  F   UNL A   1      50.635  29.012  27.909  1.00  0.00    -0.206 F 
ATOM     82  C   UNL A   1      49.719  31.100  27.406  1.00  0.00     0.040 A 
ATOM     83  C   UNL A   1      47.397  31.329  26.889  1.00  0.00     0.040 A 
ATOM     84  F   UNL A   1      45.956  29.551  27.061  1.00  0.00    -0.206 F 
ATOM     85  C   UNL A   1      48.640  31.910  27.071  1.00  0.00     0.006 A 
ENDBRANCH  64  78
BRANCH  65  86
ATOM     86  C   UNL A   1      40.016  27.747  28.841  1.00  0.00     0.057 A 
ATOM     87  C   UNL A   1      39.017  27.862  29.819  1.00  0.00     0.134 A 
ATOM     88  C   UNL A   1      39.799  28.471  27.656  1.00  0.00     0.134 A 
ATOM     89  F   UNL A   1      39.146  27.242  31.002  1.00  0.00    -0.206 F 
ATOM     90  C   UNL A   1      37.887  28.671  29.643  1.00  0.00     0.040 A 
ATOM     91  C   UNL A   1      38.670  29.274  27.461  1.00  0.00     0.040 A 
ATOM     92  F   UNL A   1      40.717  28.499  26.679  1.00  0.00    -0.206 F 
ATOM     93  C   UNL A   1      37.716  29.391  28.464  1.00  0.00     0.006 A 
ENDBRANCH  65  86
BRANCH  77  94
ATOM     94  C   UNL A   1      44.848  26.092  32.455  1.00  0.00     0.057 A 
ATOM     95  C   UNL A   1      44.477  24.771  32.155  1.00  0.00     0.134 A 
ATOM     96  C   UNL A   1      44.930  26.429  33.810  1.00  0.00     0.134 A 
ATOM     97  F   UNL A   1      44.474  24.319  30.895  1.00  0.00    -0.206 F 
ATOM     98  C   UNL A   1      44.141  23.851  33.152  1.00  0.00     0.040 A 
ATOM     99  C   UNL A   1      44.633  25.508  34.818  1.00  0.00     0.040 A 
ATOM    100  F   UNL A   1      45.335  27.653  34.179  1.00  0.00    -0.206 F 
ATOM    101  C   UNL A   1      44.223  24.219  34.491  1.00  0.00     0.006 A 
ENDBRANCH  77  94
ENDBRANCH  51  52
ENDBRANCH  44  46
ENDBRANCH  43  44
ENDBRANCH  42  43
ENDBRANCH  41  42
ENDBRANCH  40  41
ENDBRANCH  38  40
ENDBRANCH  37  38
ENDBRANCH  36  37
ENDBRANCH  35  36
ENDBRANCH   1  35
TORSDOF 26
ENDMDL
MODEL 2
REMARK VINA RESULT:     -10.7      2.118      2.942
REMARK SMILES NS(=O)(=O)c1ccc(-n2nc(C(=O)NCCCCCCCCCCC(=O)OCCOC(=O)c3ccc(-c4c5nc(c(-c6c(F)cccc6F)c6ccc([nH]6)c(-c6c(F)cccc6F)c6nc(c(-c7c(F)cccc7F)c7ccc4[nH]7)C=C6)C=C5)cc3)cc2-c2ccccc2)cc1
REMARK SMILES IDX 21 1 20 2 19 3 18 4 17 5 16 6 15 7 14 8 12 9 13 10 11 12
REMARK SMILES IDX 9 13 10 14 88 15 87 16 8 17 5 18 6 19 96 20 7 21 95 22 2 23
REMARK SMILES IDX 3 24 4 25 1 26 89 29 90 30 94 31 91 32 93 33 92 34 22 35
REMARK SMILES IDX 23 36 24 37 25 38 26 39 27 40 28 41 29 42 30 43 31 44 32 45
REMARK SMILES IDX 33 46 34 47 86 48 35 49 85 50 36 51 37 52 38 53 79 54 39 55
REMARK SMILES IDX 84 56 78 57 80 58 40 59 83 60 77 61 76 62 41 64 67 65 50 66
REMARK SMILES IDX 66 67 51 68 54 69 65 70 81 71 52 72 53 73 64 75 82 76 55 77
REMARK SMILES IDX 42 78 43 79 48 80 44 81 45 82 47 83 49 84 46 85 68 86 69 87
REMARK SMILES IDX 74 88 70 89 71 90 73 91 75 92 72 93 56 94 57 95 62 96 58 97
REMARK SMILES IDX 59 98 61 99 63 100 60 101
REMARK H PARENT 14 11 1 27 1 28 80 63 54 74
REMARK Flexibility Score: inf
ROOT
ATOM      1  C   UNL A   1      36.626  23.662  25.557  1.00  0.00     0.000 C 
ENDROOT
BRANCH   1   2
ATOM      2  C   UNL A   1      35.183  24.164  25.553  1.00  0.00     0.000 C 
BRANCH   2   3
ATOM      3  C   UNL A   1      34.728  24.589  24.155  1.00  0.00     0.000 C 
BRANCH   3   4
ATOM      4  C   UNL A   1      34.858  23.452  23.136  1.00  0.00     0.000 C 
BRANCH   4   5
ATOM      5  C   UNL A   1      33.507  22.811  22.789  1.00  0.00     0.002 C 
BRANCH   5   6
ATOM      6  C   UNL A   1      32.954  21.949  23.925  1.00  0.00     0.021 C 
BRANCH   6   7
ATOM      7  C   UNL A   1      31.517  22.342  24.245  1.00  0.00     0.116 C 
BRANCH   7   8
ATOM      8  N   UNL A   1      31.381  22.583  25.658  1.00  0.00    -0.351 N 
ATOM      9  C   UNL A   1      31.467  23.723  26.413  1.00  0.00     0.271 C 
ATOM     10  O   UNL A   1      31.457  23.551  27.636  1.00  0.00    -0.267 OA
ATOM     11  H   UNL A   1      31.189  21.772  26.183  1.00  0.00     0.163 HD
BRANCH   9  12
ATOM     12  C   UNL A   1      31.505  25.067  25.800  1.00  0.00     0.151 A 
ATOM     13  N   UNL A   1      31.934  27.173  25.731  1.00  0.00    -0.232 N 
ATOM     14  N   UNL A   1      32.275  26.025  26.352  1.00  0.00    -0.162 NA
ATOM     15  C   UNL A   1      31.043  26.968  24.698  1.00  0.00     0.075 A 
ATOM     16  C   UNL A   1      30.855  25.606  24.668  1.00  0.00     0.065 A 
BRANCH  13  17
ATOM     17  C   UNL A   1      32.536  28.387  26.114  1.00  0.00     0.065 A 
ATOM     18  C   UNL A   1      33.623  30.690  27.179  1.00  0.00     0.082 A 
ATOM     19  C   UNL A   1      34.455  29.595  26.926  1.00  0.00     0.024 A 
ATOM     20  C   UNL A   1      32.261  30.659  26.858  1.00  0.00     0.024 A 
ATOM     21  C   UNL A   1      33.905  28.429  26.405  1.00  0.00     0.030 A 
ATOM     22  C   UNL A   1      31.719  29.509  26.290  1.00  0.00     0.030 A 
BRANCH  18  23
ATOM     23  S   UNL A   1      34.291  32.127  27.952  1.00  0.00     0.238 S 
ATOM     24  O   UNL A   1      33.298  33.172  27.965  1.00  0.00    -0.207 OA
ATOM     25  O   UNL A   1      35.633  32.333  27.453  1.00  0.00    -0.207 OA
BRANCH  23  26
ATOM     26  N   UNL A   1      34.446  31.629  29.545  1.00  0.00    -0.225 NA
ATOM     27  H   UNL A   1      33.610  31.114  29.823  1.00  0.00     0.137 HD
ATOM     28  H   UNL A   1      34.558  32.445  30.147  1.00  0.00     0.137 HD
ENDBRANCH  23  26
ENDBRANCH  18  23
ENDBRANCH  13  17
BRANCH  15  29
ATOM     29  C   UNL A   1      30.542  27.935  23.730  1.00  0.00     0.000 A 
ATOM     30  C   UNL A   1      29.251  28.461  23.837  1.00  0.00     0.010 A 
ATOM     31  C   UNL A   1      31.403  28.425  22.738  1.00  0.00     0.010 A 
ATOM     32  C   UNL A   1      28.825  29.458  22.960  1.00  0.00     0.001 A 
ATOM     33  C   UNL A   1      30.977  29.423  21.863  1.00  0.00     0.001 A 
ATOM     34  C   UNL A   1      29.689  29.942  21.977  1.00  0.00     0.000 A 
ENDBRANCH  15  29
ENDBRANCH   9  12
ENDBRANCH   7   8
ENDBRANCH   6   7
ENDBRANCH   5   6
ENDBRANCH   4   5
ENDBRANCH   3   4
ENDBRANCH   2   3
ENDBRANCH   1   2
BRANCH   1  35
ATOM     35  C   UNL A   1      36.704  22.170  25.879  1.00  0.00     0.001 C 
BRANCH  35  36
ATOM     36  C   UNL A   1      37.843  21.478  25.125  1.00  0.00     0.012 C 
BRANCH  36  37
ATOM     37  C   UNL A   1      39.162  21.341  25.894  1.00  0.00     0.123 C 
BRANCH  37  38
ATOM     38  C   UNL A   1      39.764  19.954  26.020  1.00  0.00     0.305 C 
ATOM     39  O   UNL A   1      39.295  18.974  25.453  1.00  0.00    -0.252 OA
BRANCH  38  40
ATOM     40  O   UNL A   1      40.889  19.936  26.776  1.00  0.00    -0.462 OA
BRANCH  40  41
ATOM     41  C   UNL A   1      42.026  20.684  26.310  1.00  0.00     0.274 C 
BRANCH  41  42
ATOM     42  C   UNL A   1      43.123  19.766  25.785  1.00  0.00     0.275 C 
BRANCH  42  43
ATOM     43  O   UNL A   1      43.476  20.118  24.449  1.00  0.00    -0.458 OA
BRANCH  43  44
ATOM     44  C   UNL A   1      44.787  20.390  24.281  1.00  0.00     0.338 C 
ATOM     45  O   UNL A   1      45.674  19.612  23.978  1.00  0.00    -0.246 OA
BRANCH  44  46
ATOM     46  C   UNL A   1      45.073  21.744  24.733  1.00  0.00     0.060 A 
ATOM     47  C   UNL A   1      45.976  21.921  25.790  1.00  0.00     0.016 A 
ATOM     48  C   UNL A   1      44.173  22.736  24.337  1.00  0.00     0.016 A 
ATOM     49  C   UNL A   1      45.863  23.058  26.561  1.00  0.00     0.010 A 
ATOM     50  C   UNL A   1      44.039  23.847  25.125  1.00  0.00     0.010 A 
ATOM     51  C   UNL A   1      44.839  23.962  26.262  1.00  0.00    -0.014 A 
BRANCH  51  52
ATOM     52  C   UNL A   1      44.660  25.126  27.099  1.00  0.00     0.031 A 
ATOM     53  C   UNL A   1      45.735  26.130  26.930  1.00  0.00     0.074 A 
ATOM     54  C   UNL A   1      43.517  25.339  27.778  1.00  0.00     0.049 A 
ATOM     55  N   UNL A   1      46.560  26.565  27.821  1.00  0.00    -0.248 NA
ATOM     56  C   UNL A   1      46.023  26.597  25.562  1.00  0.00     0.031 C 
ATOM     57  C   UNL A   1      42.290  24.537  27.744  1.00  0.00     0.029 A 
ATOM     58  N   UNL A   1      43.165  26.400  28.550  1.00  0.00    -0.354 N 
ATOM     59  C   UNL A   1      47.326  27.525  27.170  1.00  0.00     0.074 A 
ATOM     60  C   UNL A   1      47.098  27.355  25.760  1.00  0.00     0.031 C 
ATOM     61  C   UNL A   1      41.274  25.257  28.271  1.00  0.00     0.029 A 
ATOM     62  C   UNL A   1      41.800  26.513  28.778  1.00  0.00     0.049 A 
ATOM     63  H   UNL A   1      43.822  27.035  28.916  1.00  0.00     0.167 HD
ATOM     64  C   UNL A   1      47.852  28.577  27.852  1.00  0.00     0.037 A 
ATOM     65  C   UNL A   1      41.155  27.600  29.275  1.00  0.00     0.037 A 
ATOM     66  C   UNL A   1      47.917  28.310  29.265  1.00  0.00     0.049 A 
ATOM     67  C   UNL A   1      42.173  28.460  29.931  1.00  0.00     0.074 A 
ATOM     68  C   UNL A   1      48.508  27.330  30.040  1.00  0.00     0.029 A 
ATOM     69  N   UNL A   1      46.983  28.911  30.073  1.00  0.00    -0.354 N 
ATOM     70  N   UNL A   1      42.795  28.144  31.031  1.00  0.00    -0.248 NA
ATOM     71  C   UNL A   1      42.824  29.480  29.121  1.00  0.00     0.031 C 
ATOM     72  C   UNL A   1      47.579  27.079  31.093  1.00  0.00     0.029 A 
ATOM     73  C   UNL A   1      46.507  27.957  30.935  1.00  0.00     0.049 A 
ATOM     74  H   UNL A   1      46.707  29.855  30.040  1.00  0.00     0.167 HD
ATOM     75  C   UNL A   1      44.099  28.571  30.833  1.00  0.00     0.074 A 
ATOM     76  C   UNL A   1      44.032  29.479  29.690  1.00  0.00     0.031 C 
ATOM     77  C   UNL A   1      45.147  27.923  31.422  1.00  0.00     0.037 A 
BRANCH  64  78
ATOM     78  C   UNL A   1      47.915  29.969  27.279  1.00  0.00     0.057 A 
ATOM     79  C   UNL A   1      49.130  30.669  27.315  1.00  0.00     0.134 A 
ATOM     80  C   UNL A   1      46.780  30.748  26.961  1.00  0.00     0.134 A 
ATOM     81  F   UNL A   1      50.273  30.044  27.636  1.00  0.00    -0.206 F 
ATOM     82  C   UNL A   1      49.202  32.051  27.107  1.00  0.00     0.040 A 
ATOM     83  C   UNL A   1      46.849  32.116  26.695  1.00  0.00     0.040 A 
ATOM     84  F   UNL A   1      45.535  30.258  26.995  1.00  0.00    -0.206 F 
ATOM     85  C   UNL A   1      48.059  32.779  26.797  1.00  0.00     0.006 A 
ENDBRANCH  64  78
BRANCH  65  86
ATOM     86  C   UNL A   1      39.792  28.094  28.972  1.00  0.00     0.057 A 
ATOM     87  C   UNL A   1      38.811  28.166  29.973  1.00  0.00     0.134 A 
ATOM     88  C   UNL A   1      39.494  28.764  27.773  1.00  0.00     0.134 A 
ATOM     89  F   UNL A   1      39.013  27.591  31.168  1.00  0.00    -0.206 F 
ATOM     90  C   UNL A   1      37.621  28.886  29.803  1.00  0.00     0.040 A 
ATOM     91  C   UNL A   1      38.305  29.478  27.586  1.00  0.00     0.040 A 
ATOM     92  F   UNL A   1      40.384  28.830  26.772  1.00  0.00    -0.206 F 
ATOM     93  C   UNL A   1      37.370  29.556  28.610  1.00  0.00     0.006 A 
ENDBRANCH  65  86
BRANCH  77  94
ATOM     94  C   UNL A   1      44.826  26.919  32.497  1.00  0.00     0.057 A 
ATOM     95  C   UNL A   1      44.614  25.550  32.263  1.00  0.00     0.134 A 
ATOM     96  C   UNL A   1      44.845  27.331  33.832  1.00  0.00     0.134 A 
ATOM     97  F   UNL A   1      44.685  25.035  31.029  1.00  0.00    -0.206 F 
ATOM     98  C   UNL A   1      44.368  24.650  33.304  1.00  0.00     0.040 A 
ATOM     99  C   UNL A   1      44.638  26.436  34.885  1.00  0.00     0.040 A 
ATOM    100  F   UNL A   1      45.101  28.612  34.140  1.00  0.00    -0.206 F 
ATOM    101  C   UNL A   1      44.383  25.094  34.622  1.00  0.00     0.006 A 
ENDBRANCH  77  94
ENDBRANCH  51  52
ENDBRANCH  44  46
ENDBRANCH  43  44
ENDBRANCH  42  43
ENDBRANCH  41  42
ENDBRANCH  40  41
ENDBRANCH  38  40
ENDBRANCH  37  38
ENDBRANCH  36  37
ENDBRANCH  35  36
ENDBRANCH   1  35
TORSDOF 26
ENDMDL
MODEL 3
REMARK VINA RESULT:      -9.2      3.844      9.090
REMARK SMILES NS(=O)(=O)c1ccc(-n2nc(C(=O)NCCCCCCCCCCC(=O)OCCOC(=O)c3ccc(-c4c5nc(c(-c6c(F)cccc6F)c6ccc([nH]6)c(-c6c(F)cccc6F)c6nc(c(-c7c(F)cccc7F)c7ccc4[nH]7)C=C6)C=C5)cc3)cc2-c2ccccc2)cc1
REMARK SMILES IDX 21 1 20 2 19 3 18 4 17 5 16 6 15 7 14 8 12 9 13 10 11 12
REMARK SMILES IDX 9 13 10 14 88 15 87 16 8 17 5 18 6 19 96 20 7 21 95 22 2 23
REMARK SMILES IDX 3 24 4 25 1 26 89 29 90 30 94 31 91 32 93 33 92 34 22 35
REMARK SMILES IDX 23 36 24 37 25 38 26 39 27 40 28 41 29 42 30 43 31 44 32 45
REMARK SMILES IDX 33 46 34 47 86 48 35 49 85 50 36 51 37 52 38 53 79 54 39 55
REMARK SMILES IDX 84 56 78 57 80 58 40 59 83 60 77 61 76 62 41 64 67 65 50 66
REMARK SMILES IDX 66 67 51 68 54 69 65 70 81 71 52 72 53 73 64 75 82 76 55 77
REMARK SMILES IDX 42 78 43 79 48 80 44 81 45 82 47 83 49 84 46 85 68 86 69 87
REMARK SMILES IDX 74 88 70 89 71 90 73 91 75 92 72 93 56 94 57 95 62 96 58 97
REMARK SMILES IDX 59 98 61 99 63 100 60 101
REMARK H PARENT 14 11 1 27 1 28 80 63 54 74
REMARK Flexibility Score: inf
ROOT
ATOM      1  C   UNL A   1      37.219  30.173  28.783  1.00  0.00     0.000 C 
ENDROOT
BRANCH   1   2
ATOM      2  C   UNL A   1      38.024  28.914  28.465  1.00  0.00     0.000 C 
BRANCH   2   3
ATOM      3  C   UNL A   1      38.484  28.191  29.733  1.00  0.00     0.000 C 
BRANCH   3   4
ATOM      4  C   UNL A   1      38.907  26.745  29.451  1.00  0.00     0.000 C 
BRANCH   4   5
ATOM      5  C   UNL A   1      39.142  26.478  27.958  1.00  0.00     0.002 C 
BRANCH   5   6
ATOM      6  C   UNL A   1      39.725  25.088  27.693  1.00  0.00     0.021 C 
BRANCH   6   7
ATOM      7  C   UNL A   1      38.873  24.334  26.679  1.00  0.00     0.116 C 
BRANCH   7   8
ATOM      8  N   UNL A   1      39.490  23.071  26.370  1.00  0.00    -0.351 N 
ATOM      9  C   UNL A   1      38.974  21.862  25.979  1.00  0.00     0.271 C 
ATOM     10  O   UNL A   1      39.779  20.926  25.951  1.00  0.00    -0.267 OA
ATOM     11  H   UNL A   1      40.470  23.074  26.455  1.00  0.00     0.163 HD
BRANCH   9  12
ATOM     12  C   UNL A   1      37.564  21.711  25.561  1.00  0.00     0.151 A 
ATOM     13  N   UNL A   1      35.486  22.253  25.458  1.00  0.00    -0.232 N 
ATOM     14  N   UNL A   1      36.718  22.750  25.697  1.00  0.00    -0.162 NA
ATOM     15  C   UNL A   1      35.520  20.937  25.049  1.00  0.00     0.075 A 
ATOM     16  C   UNL A   1      36.858  20.621  25.006  1.00  0.00     0.065 A 
BRANCH  13  17
ATOM     17  C   UNL A   1      34.358  23.089  25.564  1.00  0.00     0.065 A 
ATOM     18  C   UNL A   1      32.328  24.910  25.985  1.00  0.00     0.082 A 
ATOM     19  C   UNL A   1      33.134  25.036  24.849  1.00  0.00     0.024 A 
ATOM     20  C   UNL A   1      32.499  23.853  26.886  1.00  0.00     0.024 A 
ATOM     21  C   UNL A   1      34.166  24.127  24.645  1.00  0.00     0.030 A 
ATOM     22  C   UNL A   1      33.500  22.915  26.656  1.00  0.00     0.030 A 
BRANCH  18  23
ATOM     23  S   UNL A   1      31.095  26.128  26.313  1.00  0.00     0.238 S 
ATOM     24  O   UNL A   1      31.611  27.095  27.251  1.00  0.00    -0.207 OA
ATOM     25  O   UNL A   1      29.828  25.458  26.501  1.00  0.00    -0.207 OA
BRANCH  23  26
ATOM     26  N   UNL A   1      30.996  26.932  24.845  1.00  0.00    -0.225 NA
ATOM     27  H   UNL A   1      31.720  26.584  24.216  1.00  0.00     0.137 HD
ATOM     28  H   UNL A   1      31.127  27.932  24.994  1.00  0.00     0.137 HD
ENDBRANCH  23  26
ENDBRANCH  18  23
ENDBRANCH  13  17
BRANCH  15  29
ATOM     29  C   UNL A   1      34.416  20.103  24.588  1.00  0.00     0.000 A 
ATOM     30  C   UNL A   1      33.278  20.670  24.006  1.00  0.00     0.010 A 
ATOM     31  C   UNL A   1      34.544  18.708  24.632  1.00  0.00     0.010 A 
ATOM     32  C   UNL A   1      32.279  19.851  23.481  1.00  0.00     0.001 A 
ATOM     33  C   UNL A   1      33.545  17.891  24.104  1.00  0.00     0.001 A 
ATOM     34  C   UNL A   1      32.414  18.464  23.526  1.00  0.00     0.000 A 
ENDBRANCH  15  29
ENDBRANCH   9  12
ENDBRANCH   7   8
ENDBRANCH   6   7
ENDBRANCH   5   6
ENDBRANCH   4   5
ENDBRANCH   3   4
ENDBRANCH   2   3
ENDBRANCH   1   2
BRANCH   1  35
ATOM     35  C   UNL A   1      36.184  30.470  27.699  1.00  0.00     0.001 C 
BRANCH  35  36
ATOM     36  C   UNL A   1      35.132  31.478  28.170  1.00  0.00     0.012 C 
BRANCH  36  37
ATOM     37  C   UNL A   1      35.540  32.362  29.354  1.00  0.00     0.123 C 
BRANCH  37  38
ATOM     38  C   UNL A   1      34.437  33.072  30.116  1.00  0.00     0.305 C 
ATOM     39  O   UNL A   1      33.662  33.858  29.584  1.00  0.00    -0.252 OA
BRANCH  38  40
ATOM     40  O   UNL A   1      34.377  32.701  31.420  1.00  0.00    -0.462 OA
BRANCH  40  41
ATOM     41  C   UNL A   1      34.760  33.667  32.414  1.00  0.00     0.274 C 
BRANCH  41  42
ATOM     42  C   UNL A   1      35.610  33.037  33.510  1.00  0.00     0.275 C 
BRANCH  42  43
ATOM     43  O   UNL A   1      36.365  31.943  32.994  1.00  0.00    -0.458 OA
BRANCH  43  44
ATOM     44  C   UNL A   1      37.434  31.611  33.748  1.00  0.00     0.338 C 
ATOM     45  O   UNL A   1      37.714  32.019  34.861  1.00  0.00    -0.246 OA
BRANCH  44  46
ATOM     46  C   UNL A   1      38.376  30.832  32.955  1.00  0.00     0.060 A 
ATOM     47  C   UNL A   1      38.273  29.436  32.973  1.00  0.00     0.016 A 
ATOM     48  C   UNL A   1      39.526  31.498  32.524  1.00  0.00     0.016 A 
ATOM     49  C   UNL A   1      39.404  28.695  32.701  1.00  0.00     0.010 A 
ATOM     50  C   UNL A   1      40.655  30.763  32.288  1.00  0.00     0.010 A 
ATOM     51  C   UNL A   1      40.597  29.378  32.444  1.00  0.00    -0.014 A 
BRANCH  51  52
ATOM     52  C   UNL A   1      41.808  28.621  32.224  1.00  0.00     0.031 A 
ATOM     53  C   UNL A   1      42.272  27.906  33.434  1.00  0.00     0.074 A 
ATOM     54  C   UNL A   1      42.305  28.430  30.987  1.00  0.00     0.049 A 
ATOM     55  N   UNL A   1      43.389  28.052  34.060  1.00  0.00    -0.248 NA
ATOM     56  C   UNL A   1      41.307  27.027  34.118  1.00  0.00     0.031 C 
ATOM     57  C   UNL A   1      41.722  28.852  29.709  1.00  0.00     0.029 A 
ATOM     58  N   UNL A   1      43.385  27.700  30.603  1.00  0.00    -0.354 N 
ATOM     59  C   UNL A   1      43.354  27.119  35.090  1.00  0.00     0.074 A 
ATOM     60  C   UNL A   1      41.991  26.674  35.204  1.00  0.00     0.031 C 
ATOM     61  C   UNL A   1      42.324  28.178  28.703  1.00  0.00     0.029 A 
ATOM     62  C   UNL A   1      43.402  27.373  29.252  1.00  0.00     0.049 A 
ATOM     63  H   UNL A   1      44.094  27.426  31.227  1.00  0.00     0.167 HD
ATOM     64  C   UNL A   1      44.499  26.565  35.569  1.00  0.00     0.037 A 
ATOM     65  C   UNL A   1      44.198  26.447  28.660  1.00  0.00     0.037 A 
ATOM     66  C   UNL A   1      45.650  27.365  35.238  1.00  0.00     0.049 A 
ATOM     67  C   UNL A   1      45.322  26.166  29.589  1.00  0.00     0.074 A 
ATOM     68  C   UNL A   1      46.020  28.675  35.474  1.00  0.00     0.029 A 
ATOM     69  N   UNL A   1      46.464  26.926  34.224  1.00  0.00    -0.354 N 
ATOM     70  N   UNL A   1      46.270  27.017  29.865  1.00  0.00    -0.248 NA
ATOM     71  C   UNL A   1      45.152  25.092  30.557  1.00  0.00     0.031 C 
ATOM     72  C   UNL A   1      46.687  29.093  34.285  1.00  0.00     0.029 A 
ATOM     73  C   UNL A   1      46.740  28.001  33.419  1.00  0.00     0.049 A 
ATOM     74  H   UNL A   1      46.793  26.006  34.098  1.00  0.00     0.167 HD
ATOM     75  C   UNL A   1      46.500  26.859  31.223  1.00  0.00     0.074 A 
ATOM     76  C   UNL A   1      45.863  25.591  31.571  1.00  0.00     0.031 C 
ATOM     77  C   UNL A   1      46.925  27.907  31.989  1.00  0.00     0.037 A 
BRANCH  64  78
ATOM     78  C   UNL A   1      44.598  25.114  35.964  1.00  0.00     0.057 A 
ATOM     79  C   UNL A   1      45.220  24.778  37.176  1.00  0.00     0.134 A 
ATOM     80  C   UNL A   1      44.370  24.035  35.084  1.00  0.00     0.134 A 
ATOM     81  F   UNL A   1      45.518  25.723  38.080  1.00  0.00    -0.206 F 
ATOM     82  C   UNL A   1      45.636  23.473  37.465  1.00  0.00     0.040 A 
ATOM     83  C   UNL A   1      44.728  22.720  35.386  1.00  0.00     0.040 A 
ATOM     84  F   UNL A   1      43.890  24.201  33.845  1.00  0.00    -0.206 F 
ATOM     85  C   UNL A   1      45.392  22.439  36.567  1.00  0.00     0.006 A 
ENDBRANCH  64  78
BRANCH  65  86
ATOM     86  C   UNL A   1      43.907  25.574  27.498  1.00  0.00     0.057 A 
ATOM     87  C   UNL A   1      44.562  25.763  26.272  1.00  0.00     0.134 A 
ATOM     88  C   UNL A   1      43.194  24.370  27.633  1.00  0.00     0.134 A 
ATOM     89  F   UNL A   1      45.301  26.862  26.056  1.00  0.00    -0.206 F 
ATOM     90  C   UNL A   1      44.537  24.801  25.254  1.00  0.00     0.040 A 
ATOM     91  C   UNL A   1      43.151  23.405  26.621  1.00  0.00     0.040 A 
ATOM     92  F   UNL A   1      42.590  24.044  28.785  1.00  0.00    -0.206 F 
ATOM     93  C   UNL A   1      43.838  23.610  25.432  1.00  0.00     0.006 A 
ENDBRANCH  65  86
BRANCH  77  94
ATOM     94  C   UNL A   1      47.393  29.145  31.273  1.00  0.00     0.057 A 
ATOM     95  C   UNL A   1      48.708  29.350  30.823  1.00  0.00     0.134 A 
ATOM     96  C   UNL A   1      46.452  30.119  30.924  1.00  0.00     0.134 A 
ATOM     97  F   UNL A   1      49.659  28.427  31.009  1.00  0.00    -0.206 F 
ATOM     98  C   UNL A   1      49.079  30.498  30.116  1.00  0.00     0.040 A 
ATOM     99  C   UNL A   1      46.801  31.253  30.186  1.00  0.00     0.040 A 
ATOM    100  F   UNL A   1      45.163  29.966  31.266  1.00  0.00    -0.206 F 
ATOM    101  C   UNL A   1      48.121  31.454  29.794  1.00  0.00     0.006 A 
ENDBRANCH  77  94
ENDBRANCH  51  52
ENDBRANCH  44  46
ENDBRANCH  43  44
ENDBRANCH  42  43
ENDBRANCH  41  42
ENDBRANCH  40  41
ENDBRANCH  38  40
ENDBRANCH  37  38
ENDBRANCH  36  37
ENDBRANCH  35  36
ENDBRANCH   1  35
TORSDOF 26
ENDMDL
