MODEL 1
REMARK VINA RESULT:     -12.9      0.000      0.000
REMARK SMILES C[C@H]1Oc2ccccc2C=C1/C=C/C(=O)N[C@H](C(=O)OCCOC(=O)c1ccc(-c2c3nc(c(-c4c(F)cccc4F)c4ccc([nH]4)c(-c4c(F)cccc4F)c4nc(c(-c5c(F)cccc5F)c5ccc2[nH]5)C=C4)C=C3)cc1)c1ccccc1
REMARK SMILES IDX 21 1 20 2 18 3 19 4 17 5 16 6 14 7 15 8 13 10 12 11 11 12
REMARK SMILES IDX 1 13 2 14 3 15 4 16 10 17 5 18 9 19 6 20 8 21 7 22 80 23
REMARK SMILES IDX 81 24 85 25 82 26 84 27 83 28 22 29 23 30 24 31 25 32 26 33
REMARK SMILES IDX 27 34 79 35 28 36 78 37 29 38 30 39 31 40 72 41 32 42 77 43
REMARK SMILES IDX 71 44 73 45 33 46 76 47 70 48 69 49 34 51 60 52 43 53 59 54
REMARK SMILES IDX 44 55 47 56 58 57 74 58 45 59 46 60 57 62 75 63 48 64 35 65
REMARK SMILES IDX 36 66 41 67 37 68 38 69 40 70 42 71 39 72 61 73 62 74 67 75
REMARK SMILES IDX 63 76 64 77 66 78 68 79 65 80 49 81 50 82 55 83 51 84 52 85
REMARK SMILES IDX 54 86 56 87 53 88
REMARK H PARENT 16 9 73 50 47 61
REMARK Flexibility Score: inf
ROOT
ATOM      1  C   UNL A   1      32.830  29.046  25.105  1.00  0.00     0.274 C 
ENDROOT
BRANCH   1   2
ATOM      2  O   UNL A   1      32.250  27.731  25.240  1.00  0.00    -0.460 OA
BRANCH   2   3
ATOM      3  C   UNL A   1      32.126  26.998  24.094  1.00  0.00     0.333 C 
ATOM      4  O   UNL A   1      33.051  26.691  23.350  1.00  0.00    -0.249 OA
BRANCH   3   5
ATOM      5  C   UNL A   1      30.654  26.641  23.823  1.00  0.00     0.223 C 
BRANCH   5   6
ATOM      6  N   UNL A   1      30.075  26.204  25.102  1.00  0.00    -0.335 N 
ATOM      7  C   UNL A   1      30.292  25.085  25.838  1.00  0.00     0.244 C 
ATOM      8  O   UNL A   1      29.662  24.900  26.876  1.00  0.00    -0.270 OA
ATOM      9  H   UNL A   1      29.421  26.830  25.489  1.00  0.00     0.165 HD
BRANCH   7  10
ATOM     10  C   UNL A   1      31.180  24.023  25.322  1.00  0.00     0.071 C 
ATOM     11  C   UNL A   1      31.389  22.864  25.961  1.00  0.00     0.013 C 
BRANCH  11  12
ATOM     12  C   UNL A   1      32.286  21.812  25.510  1.00  0.00    -0.007 C 
ATOM     13  C   UNL A   1      33.800  21.898  27.570  1.00  0.00     0.058 C 
ATOM     14  C   UNL A   1      33.717  21.815  26.043  1.00  0.00     0.200 C 
ATOM     15  O   UNL A   1      34.547  20.692  25.679  1.00  0.00    -0.485 OA
ATOM     16  C   UNL A   1      34.027  19.720  24.881  1.00  0.00     0.127 A 
ATOM     17  C   UNL A   1      31.848  20.855  24.681  1.00  0.00     0.019 C 
ATOM     18  C   UNL A   1      34.858  18.629  24.627  1.00  0.00     0.047 A 
ATOM     19  C   UNL A   1      32.741  19.761  24.343  1.00  0.00     0.017 A 
ATOM     20  C   UNL A   1      34.410  17.576  23.831  1.00  0.00     0.004 A 
ATOM     21  C   UNL A   1      32.301  18.715  23.526  1.00  0.00     0.012 A 
ATOM     22  C   UNL A   1      33.133  17.622  23.274  1.00  0.00     0.001 A 
ENDBRANCH  11  12
ENDBRANCH   7  10
ENDBRANCH   5   6
BRANCH   5  23
ATOM     23  C   UNL A   1      29.877  27.761  23.145  1.00  0.00    -0.014 A 
ATOM     24  C   UNL A   1      30.503  28.756  22.371  1.00  0.00     0.006 A 
ATOM     25  C   UNL A   1      28.483  27.833  23.310  1.00  0.00     0.006 A 
ATOM     26  C   UNL A   1      29.769  29.815  21.831  1.00  0.00     0.000 A 
ATOM     27  C   UNL A   1      27.749  28.885  22.754  1.00  0.00     0.000 A 
ATOM     28  C   UNL A   1      28.393  29.880  22.024  1.00  0.00     0.000 A 
ENDBRANCH   5  23
ENDBRANCH   3   5
ENDBRANCH   2   3
ENDBRANCH   1   2
BRANCH   1  29
ATOM     29  C   UNL A   1      31.860  30.111  25.603  1.00  0.00     0.275 C 
BRANCH  29  30
ATOM     30  O   UNL A   1      32.180  30.436  26.964  1.00  0.00    -0.458 OA
BRANCH  30  31
ATOM     31  C   UNL A   1      32.830  31.607  27.153  1.00  0.00     0.338 C 
ATOM     32  O   UNL A   1      32.416  32.735  26.956  1.00  0.00    -0.246 OA
BRANCH  31  33
ATOM     33  C   UNL A   1      34.160  31.313  27.705  1.00  0.00     0.060 A 
ATOM     34  C   UNL A   1      35.049  32.339  28.000  1.00  0.00     0.016 A 
ATOM     35  C   UNL A   1      34.477  29.996  28.024  1.00  0.00     0.016 A 
ATOM     36  C   UNL A   1      36.274  32.025  28.601  1.00  0.00     0.010 A 
ATOM     37  C   UNL A   1      35.638  29.704  28.729  1.00  0.00     0.010 A 
ATOM     38  C   UNL A   1      36.572  30.707  28.999  1.00  0.00    -0.014 A 
BRANCH  38  39
ATOM     39  C   UNL A   1      37.844  30.376  29.698  1.00  0.00     0.031 A 
ATOM     40  C   UNL A   1      38.096  30.826  31.116  1.00  0.00     0.074 A 
ATOM     41  C   UNL A   1      38.802  29.694  29.038  1.00  0.00     0.049 A 
ATOM     42  N   UNL A   1      39.113  30.555  31.900  1.00  0.00    -0.248 NA
ATOM     43  C   UNL A   1      37.109  31.731  31.727  1.00  0.00     0.031 C 
ATOM     44  C   UNL A   1      38.751  29.312  27.625  1.00  0.00     0.029 A 
ATOM     45  N   UNL A   1      39.996  29.180  29.477  1.00  0.00    -0.354 N 
ATOM     46  C   UNL A   1      38.892  31.268  33.073  1.00  0.00     0.074 A 
ATOM     47  C   UNL A   1      37.691  32.045  32.873  1.00  0.00     0.031 C 
ATOM     48  C   UNL A   1      39.821  28.553  27.337  1.00  0.00     0.029 A 
ATOM     49  C   UNL A   1      40.643  28.417  28.534  1.00  0.00     0.049 A 
ATOM     50  H   UNL A   1      40.356  29.344  30.379  1.00  0.00     0.167 HD
ATOM     51  C   UNL A   1      39.595  31.247  34.230  1.00  0.00     0.037 A 
ATOM     52  C   UNL A   1      41.752  27.662  28.636  1.00  0.00     0.037 A 
ATOM     53  C   UNL A   1      40.759  30.432  34.452  1.00  0.00     0.049 A 
ATOM     54  C   UNL A   1      42.467  27.580  29.955  1.00  0.00     0.074 A 
ATOM     55  C   UNL A   1      41.492  30.267  35.614  1.00  0.00     0.029 A 
ATOM     56  N   UNL A   1      41.354  29.636  33.487  1.00  0.00    -0.354 N 
ATOM     57  N   UNL A   1      42.178  28.167  31.091  1.00  0.00    -0.248 NA
ATOM     58  C   UNL A   1      43.655  26.716  30.008  1.00  0.00     0.031 C 
ATOM     59  C   UNL A   1      42.544  29.385  35.345  1.00  0.00     0.029 A 
ATOM     60  C   UNL A   1      42.447  28.979  34.024  1.00  0.00     0.049 A 
ATOM     61  H   UNL A   1      41.044  29.550  32.556  1.00  0.00     0.167 HD
ATOM     62  C   UNL A   1      43.133  27.727  31.998  1.00  0.00     0.074 A 
ATOM     63  C   UNL A   1      43.995  26.808  31.285  1.00  0.00     0.031 C 
ATOM     64  C   UNL A   1      43.287  28.060  33.303  1.00  0.00     0.037 A 
BRANCH  51  65
ATOM     65  C   UNL A   1      39.092  32.103  35.358  1.00  0.00     0.057 A 
ATOM     66  C   UNL A   1      39.451  33.453  35.455  1.00  0.00     0.134 A 
ATOM     67  C   UNL A   1      38.262  31.583  36.361  1.00  0.00     0.134 A 
ATOM     68  F   UNL A   1      40.252  34.014  34.538  1.00  0.00    -0.206 F 
ATOM     69  C   UNL A   1      38.994  34.255  36.503  1.00  0.00     0.040 A 
ATOM     70  C   UNL A   1      37.776  32.382  37.397  1.00  0.00     0.040 A 
ATOM     71  F   UNL A   1      37.873  30.299  36.322  1.00  0.00    -0.206 F 
ATOM     72  C   UNL A   1      38.147  33.721  37.473  1.00  0.00     0.006 A 
ENDBRANCH  51  65
BRANCH  52  73
ATOM     73  C   UNL A   1      42.214  26.857  27.480  1.00  0.00     0.057 A 
ATOM     74  C   UNL A   1      41.829  25.523  27.310  1.00  0.00     0.134 A 
ATOM     75  C   UNL A   1      43.046  27.419  26.502  1.00  0.00     0.134 A 
ATOM     76  F   UNL A   1      41.044  24.924  28.218  1.00  0.00    -0.206 F 
ATOM     77  C   UNL A   1      42.249  24.777  26.207  1.00  0.00     0.040 A 
ATOM     78  C   UNL A   1      43.454  26.694  25.383  1.00  0.00     0.040 A 
ATOM     79  F   UNL A   1      43.436  28.699  26.605  1.00  0.00    -0.206 F 
ATOM     80  C   UNL A   1      43.056  25.367  25.235  1.00  0.00     0.006 A 
ENDBRANCH  52  73
BRANCH  64  81
ATOM     81  C   UNL A   1      44.411  27.403  34.044  1.00  0.00     0.057 A 
ATOM     82  C   UNL A   1      45.679  27.996  34.088  1.00  0.00     0.134 A 
ATOM     83  C   UNL A   1      44.244  26.174  34.696  1.00  0.00     0.134 A 
ATOM     84  F   UNL A   1      45.904  29.169  33.477  1.00  0.00    -0.206 F 
ATOM     85  C   UNL A   1      46.743  27.390  34.756  1.00  0.00     0.040 A 
ATOM     86  C   UNL A   1      45.294  25.570  35.387  1.00  0.00     0.040 A 
ATOM     87  F   UNL A   1      43.049  25.566  34.701  1.00  0.00    -0.206 F 
ATOM     88  C   UNL A   1      46.550  26.175  35.414  1.00  0.00     0.006 A 
ENDBRANCH  64  81
ENDBRANCH  38  39
ENDBRANCH  31  33
ENDBRANCH  30  31
ENDBRANCH  29  30
ENDBRANCH   1  29
TORSDOF 15
ENDMDL
MODEL 2
REMARK VINA RESULT:     -12.9      4.143      7.446
REMARK SMILES C[C@H]1Oc2ccccc2C=C1/C=C/C(=O)N[C@H](C(=O)OCCOC(=O)c1ccc(-c2c3nc(c(-c4c(F)cccc4F)c4ccc([nH]4)c(-c4c(F)cccc4F)c4nc(c(-c5c(F)cccc5F)c5ccc2[nH]5)C=C4)C=C3)cc1)c1ccccc1
REMARK SMILES IDX 21 1 20 2 18 3 19 4 17 5 16 6 14 7 15 8 13 10 12 11 11 12
REMARK SMILES IDX 1 13 2 14 3 15 4 16 10 17 5 18 9 19 6 20 8 21 7 22 80 23
REMARK SMILES IDX 81 24 85 25 82 26 84 27 83 28 22 29 23 30 24 31 25 32 26 33
REMARK SMILES IDX 27 34 79 35 28 36 78 37 29 38 30 39 31 40 72 41 32 42 77 43
REMARK SMILES IDX 71 44 73 45 33 46 76 47 70 48 69 49 34 51 60 52 43 53 59 54
REMARK SMILES IDX 44 55 47 56 58 57 74 58 45 59 46 60 57 62 75 63 48 64 35 65
REMARK SMILES IDX 36 66 41 67 37 68 38 69 40 70 42 71 39 72 61 73 62 74 67 75
REMARK SMILES IDX 63 76 64 77 66 78 68 79 65 80 49 81 50 82 55 83 51 84 52 85
REMARK SMILES IDX 54 86 56 87 53 88
REMARK H PARENT 16 9 73 50 47 61
REMARK Flexibility Score: inf
ROOT
ATOM      1  C   UNL A   1      32.963  29.907  25.805  1.00  0.00     0.274 C 
ENDROOT
BRANCH   1   2
ATOM      2  O   UNL A   1      31.585  30.167  25.461  1.00  0.00    -0.460 OA
BRANCH   2   3
ATOM      3  C   UNL A   1      30.995  29.287  24.598  1.00  0.00     0.333 C 
ATOM      4  O   UNL A   1      30.100  29.568  23.808  1.00  0.00    -0.249 OA
BRANCH   3   5
ATOM      5  C   UNL A   1      31.567  27.870  24.776  1.00  0.00     0.223 C 
BRANCH   5   6
ATOM      6  N   UNL A   1      30.564  27.093  25.519  1.00  0.00    -0.335 N 
ATOM      7  C   UNL A   1      30.674  25.927  26.207  1.00  0.00     0.244 C 
ATOM      8  O   UNL A   1      29.683  25.425  26.729  1.00  0.00    -0.270 OA
ATOM      9  H   UNL A   1      29.660  27.484  25.517  1.00  0.00     0.165 HD
BRANCH   7  10
ATOM     10  C   UNL A   1      31.955  25.190  26.208  1.00  0.00     0.071 C 
ATOM     11  C   UNL A   1      32.176  24.099  25.462  1.00  0.00     0.013 C 
BRANCH  11  12
ATOM     12  C   UNL A   1      33.404  23.321  25.466  1.00  0.00    -0.007 C 
ATOM     13  C   UNL A   1      32.698  21.763  23.564  1.00  0.00     0.058 C 
ATOM     14  C   UNL A   1      33.343  21.886  24.948  1.00  0.00     0.200 C 
ATOM     15  O   UNL A   1      34.597  21.179  24.844  1.00  0.00    -0.485 OA
ATOM     16  C   UNL A   1      35.742  21.811  25.225  1.00  0.00     0.127 A 
ATOM     17  C   UNL A   1      34.554  23.870  25.878  1.00  0.00     0.019 C 
ATOM     18  C   UNL A   1      36.925  21.097  25.033  1.00  0.00     0.047 A 
ATOM     19  C   UNL A   1      35.778  23.097  25.762  1.00  0.00     0.017 A 
ATOM     20  C   UNL A   1      38.150  21.666  25.378  1.00  0.00     0.004 A 
ATOM     21  C   UNL A   1      37.006  23.656  26.130  1.00  0.00     0.012 A 
ATOM     22  C   UNL A   1      38.191  22.943  25.935  1.00  0.00     0.001 A 
ENDBRANCH  11  12
ENDBRANCH   7  10
ENDBRANCH   5   6
BRANCH   5  23
ATOM     23  C   UNL A   1      31.999  27.226  23.467  1.00  0.00    -0.014 A 
ATOM     24  C   UNL A   1      31.132  26.438  22.687  1.00  0.00     0.006 A 
ATOM     25  C   UNL A   1      33.321  27.394  23.018  1.00  0.00     0.006 A 
ATOM     26  C   UNL A   1      31.586  25.796  21.532  1.00  0.00     0.000 A 
ATOM     27  C   UNL A   1      33.767  26.765  21.852  1.00  0.00     0.000 A 
ATOM     28  C   UNL A   1      32.904  25.958  21.116  1.00  0.00     0.000 A 
ENDBRANCH   5  23
ENDBRANCH   3   5
ENDBRANCH   2   3
ENDBRANCH   1   2
BRANCH   1  29
ATOM     29  C   UNL A   1      33.207  30.193  27.282  1.00  0.00     0.275 C 
BRANCH  29  30
ATOM     30  O   UNL A   1      34.451  29.594  27.675  1.00  0.00    -0.458 OA
BRANCH  30  31
ATOM     31  C   UNL A   1      35.292  30.389  28.376  1.00  0.00     0.338 C 
ATOM     32  O   UNL A   1      35.024  31.399  28.999  1.00  0.00    -0.246 OA
BRANCH  31  33
ATOM     33  C   UNL A   1      36.638  29.802  28.317  1.00  0.00     0.060 A 
ATOM     34  C   UNL A   1      37.390  29.864  27.150  1.00  0.00     0.016 A 
ATOM     35  C   UNL A   1      37.191  29.272  29.480  1.00  0.00     0.016 A 
ATOM     36  C   UNL A   1      38.698  29.367  27.157  1.00  0.00     0.010 A 
ATOM     37  C   UNL A   1      38.527  28.894  29.514  1.00  0.00     0.010 A 
ATOM     38  C   UNL A   1      39.293  28.902  28.346  1.00  0.00    -0.014 A 
BRANCH  38  39
ATOM     39  C   UNL A   1      40.706  28.434  28.375  1.00  0.00     0.031 A 
ATOM     40  C   UNL A   1      41.062  27.002  28.056  1.00  0.00     0.074 A 
ATOM     41  C   UNL A   1      41.680  29.296  28.728  1.00  0.00     0.049 A 
ATOM     42  N   UNL A   1      42.247  26.449  27.954  1.00  0.00    -0.248 NA
ATOM     43  C   UNL A   1      39.952  26.053  27.868  1.00  0.00     0.031 C 
ATOM     44  C   UNL A   1      41.471  30.670  29.190  1.00  0.00     0.029 A 
ATOM     45  N   UNL A   1      43.045  29.151  28.730  1.00  0.00    -0.354 N 
ATOM     46  C   UNL A   1      42.019  25.098  27.714  1.00  0.00     0.074 A 
ATOM     47  C   UNL A   1      40.589  24.898  27.762  1.00  0.00     0.031 C 
ATOM     48  C   UNL A   1      42.664  31.267  29.348  1.00  0.00     0.029 A 
ATOM     49  C   UNL A   1      43.718  30.313  29.024  1.00  0.00     0.049 A 
ATOM     50  H   UNL A   1      43.498  28.297  28.541  1.00  0.00     0.167 HD
ATOM     51  C   UNL A   1      42.911  24.119  27.431  1.00  0.00     0.037 A 
ATOM     52  C   UNL A   1      45.036  30.587  28.997  1.00  0.00     0.037 A 
ATOM     53  C   UNL A   1      44.330  24.326  27.326  1.00  0.00     0.049 A 
ATOM     54  C   UNL A   1      46.002  29.510  28.592  1.00  0.00     0.074 A 
ATOM     55  C   UNL A   1      45.311  23.424  26.956  1.00  0.00     0.029 A 
ATOM     56  N   UNL A   1      44.967  25.529  27.583  1.00  0.00    -0.354 N 
ATOM     57  N   UNL A   1      45.762  28.268  28.250  1.00  0.00    -0.248 NA
ATOM     58  C   UNL A   1      47.424  29.881  28.554  1.00  0.00     0.031 C 
ATOM     59  C   UNL A   1      46.548  24.077  27.011  1.00  0.00     0.029 A 
ATOM     60  C   UNL A   1      46.330  25.393  27.385  1.00  0.00     0.049 A 
ATOM     61  H   UNL A   1      44.517  26.358  27.866  1.00  0.00     0.167 HD
ATOM     62  C   UNL A   1      46.997  27.716  27.937  1.00  0.00     0.074 A 
ATOM     63  C   UNL A   1      47.980  28.765  28.107  1.00  0.00     0.031 C 
ATOM     64  C   UNL A   1      47.292  26.451  27.549  1.00  0.00     0.037 A 
BRANCH  51  65
ATOM     65  C   UNL A   1      42.365  22.743  27.174  1.00  0.00     0.057 A 
ATOM     66  C   UNL A   1      41.942  21.926  28.229  1.00  0.00     0.134 A 
ATOM     67  C   UNL A   1      42.274  22.220  25.876  1.00  0.00     0.134 A 
ATOM     68  F   UNL A   1      42.011  22.356  29.497  1.00  0.00    -0.206 F 
ATOM     69  C   UNL A   1      41.439  20.642  28.000  1.00  0.00     0.040 A 
ATOM     70  C   UNL A   1      41.747  20.951  25.634  1.00  0.00     0.040 A 
ATOM     71  F   UNL A   1      42.653  22.956  24.820  1.00  0.00    -0.206 F 
ATOM     72  C   UNL A   1      41.332  20.156  26.699  1.00  0.00     0.006 A 
ENDBRANCH  51  65
BRANCH  52  73
ATOM     73  C   UNL A   1      45.517  31.960  29.284  1.00  0.00     0.057 A 
ATOM     74  C   UNL A   1      45.589  32.939  28.288  1.00  0.00     0.134 A 
ATOM     75  C   UNL A   1      45.902  32.327  30.580  1.00  0.00     0.134 A 
ATOM     76  F   UNL A   1      45.246  32.646  27.024  1.00  0.00    -0.206 F 
ATOM     77  C   UNL A   1      46.021  34.236  28.569  1.00  0.00     0.040 A 
ATOM     78  C   UNL A   1      46.313  33.625  30.882  1.00  0.00     0.040 A 
ATOM     79  F   UNL A   1      45.841  31.434  31.579  1.00  0.00    -0.206 F 
ATOM     80  C   UNL A   1      46.375  34.584  29.873  1.00  0.00     0.006 A 
ENDBRANCH  52  73
BRANCH  64  81
ATOM     81  C   UNL A   1      48.730  26.147  27.257  1.00  0.00     0.057 A 
ATOM     82  C   UNL A   1      49.231  26.253  25.955  1.00  0.00     0.134 A 
ATOM     83  C   UNL A   1      49.611  25.730  28.263  1.00  0.00     0.134 A 
ATOM     84  F   UNL A   1      48.435  26.641  24.947  1.00  0.00    -0.206 F 
ATOM     85  C   UNL A   1      50.562  25.955  25.661  1.00  0.00     0.040 A 
ATOM     86  C   UNL A   1      50.950  25.452  27.986  1.00  0.00     0.040 A 
ATOM     87  F   UNL A   1      49.193  25.625  29.533  1.00  0.00    -0.206 F 
ATOM     88  C   UNL A   1      51.428  25.559  26.680  1.00  0.00     0.006 A 
ENDBRANCH  64  81
ENDBRANCH  38  39
ENDBRANCH  31  33
ENDBRANCH  30  31
ENDBRANCH  29  30
ENDBRANCH   1  29
TORSDOF 15
ENDMDL
MODEL 3
REMARK VINA RESULT:     -12.8      1.219      2.516
REMARK SMILES C[C@H]1Oc2ccccc2C=C1/C=C/C(=O)N[C@H](C(=O)OCCOC(=O)c1ccc(-c2c3nc(c(-c4c(F)cccc4F)c4ccc([nH]4)c(-c4c(F)cccc4F)c4nc(c(-c5c(F)cccc5F)c5ccc2[nH]5)C=C4)C=C3)cc1)c1ccccc1
REMARK SMILES IDX 21 1 20 2 18 3 19 4 17 5 16 6 14 7 15 8 13 10 12 11 11 12
REMARK SMILES IDX 1 13 2 14 3 15 4 16 10 17 5 18 9 19 6 20 8 21 7 22 80 23
REMARK SMILES IDX 81 24 85 25 82 26 84 27 83 28 22 29 23 30 24 31 25 32 26 33
REMARK SMILES IDX 27 34 79 35 28 36 78 37 29 38 30 39 31 40 72 41 32 42 77 43
REMARK SMILES IDX 71 44 73 45 33 46 76 47 70 48 69 49 34 51 60 52 43 53 59 54
REMARK SMILES IDX 44 55 47 56 58 57 74 58 45 59 46 60 57 62 75 63 48 64 35 65
REMARK SMILES IDX 36 66 41 67 37 68 38 69 40 70 42 71 39 72 61 73 62 74 67 75
REMARK SMILES IDX 63 76 64 77 66 78 68 79 65 80 49 81 50 82 55 83 51 84 52 85
REMARK SMILES IDX 54 86 56 87 53 88
REMARK H PARENT 16 9 73 50 47 61
REMARK Flexibility Score: inf
ROOT
ATOM      1  C   UNL A   1      30.718  30.103  24.722  1.00  0.00     0.274 C 
ENDROOT
BRANCH   1   2
ATOM      2  O   UNL A   1      30.661  29.558  23.386  1.00  0.00    -0.460 OA
BRANCH   2   3
ATOM      3  C   UNL A   1      29.909  28.430  23.219  1.00  0.00     0.333 C 
ATOM      4  O   UNL A   1      28.685  28.384  23.272  1.00  0.00    -0.249 OA
BRANCH   3   5
ATOM      5  C   UNL A   1      30.803  27.197  22.998  1.00  0.00     0.223 C 
BRANCH   5   6
ATOM      6  N   UNL A   1      32.063  27.680  22.413  1.00  0.00    -0.335 N 
ATOM      7  C   UNL A   1      33.196  27.014  22.072  1.00  0.00     0.244 C 
ATOM      8  O   UNL A   1      34.160  27.630  21.626  1.00  0.00    -0.270 OA
ATOM      9  H   UNL A   1      32.088  28.649  22.240  1.00  0.00     0.165 HD
BRANCH   7  10
ATOM     10  C   UNL A   1      33.322  25.572  22.368  1.00  0.00     0.071 C 
ATOM     11  C   UNL A   1      34.026  25.093  23.402  1.00  0.00     0.013 C 
BRANCH  11  12
ATOM     12  C   UNL A   1      34.210  23.682  23.704  1.00  0.00    -0.007 C 
ATOM     13  C   UNL A   1      35.899  24.065  25.586  1.00  0.00     0.058 C 
ATOM     14  C   UNL A   1      35.530  23.253  24.341  1.00  0.00     0.200 C 
ATOM     15  O   UNL A   1      35.637  21.872  24.745  1.00  0.00    -0.485 OA
ATOM     16  C   UNL A   1      34.583  21.038  24.523  1.00  0.00     0.127 A 
ATOM     17  C   UNL A   1      33.230  22.802  23.460  1.00  0.00     0.019 C 
ATOM     18  C   UNL A   1      34.726  19.735  25.001  1.00  0.00     0.047 A 
ATOM     19  C   UNL A   1      33.410  21.423  23.877  1.00  0.00     0.017 A 
ATOM     20  C   UNL A   1      33.696  18.811  24.834  1.00  0.00     0.004 A 
ATOM     21  C   UNL A   1      32.386  20.487  23.689  1.00  0.00     0.012 A 
ATOM     22  C   UNL A   1      32.528  19.184  24.171  1.00  0.00     0.001 A 
ENDBRANCH  11  12
ENDBRANCH   7  10
ENDBRANCH   5   6
BRANCH   5  23
ATOM     23  C   UNL A   1      30.989  26.356  24.253  1.00  0.00    -0.014 A 
ATOM     24  C   UNL A   1      31.727  26.805  25.365  1.00  0.00     0.006 A 
ATOM     25  C   UNL A   1      30.429  25.067  24.310  1.00  0.00     0.006 A 
ATOM     26  C   UNL A   1      31.945  25.975  26.467  1.00  0.00     0.000 A 
ATOM     27  C   UNL A   1      30.634  24.246  25.422  1.00  0.00     0.000 A 
ATOM     28  C   UNL A   1      31.400  24.695  26.494  1.00  0.00     0.000 A 
ENDBRANCH   5  23
ENDBRANCH   3   5
ENDBRANCH   2   3
ENDBRANCH   1   2
BRANCH   1  29
ATOM     29  C   UNL A   1      32.148  30.073  25.250  1.00  0.00     0.275 C 
BRANCH  29  30
ATOM     30  O   UNL A   1      32.129  30.317  26.665  1.00  0.00    -0.458 OA
BRANCH  30  31
ATOM     31  C   UNL A   1      32.663  31.494  27.066  1.00  0.00     0.338 C 
ATOM     32  O   UNL A   1      32.154  32.599  27.032  1.00  0.00    -0.246 OA
BRANCH  31  33
ATOM     33  C   UNL A   1      33.996  31.229  27.624  1.00  0.00     0.060 A 
ATOM     34  C   UNL A   1      34.829  32.276  28.001  1.00  0.00     0.016 A 
ATOM     35  C   UNL A   1      34.373  29.911  27.865  1.00  0.00     0.016 A 
ATOM     36  C   UNL A   1      36.058  31.982  28.605  1.00  0.00     0.010 A 
ATOM     37  C   UNL A   1      35.534  29.630  28.573  1.00  0.00     0.010 A 
ATOM     38  C   UNL A   1      36.413  30.657  28.924  1.00  0.00    -0.014 A 
BRANCH  38  39
ATOM     39  C   UNL A   1      37.688  30.344  29.626  1.00  0.00     0.031 A 
ATOM     40  C   UNL A   1      37.924  30.781  31.051  1.00  0.00     0.074 A 
ATOM     41  C   UNL A   1      38.663  29.690  28.963  1.00  0.00     0.049 A 
ATOM     42  N   UNL A   1      38.942  30.521  31.836  1.00  0.00    -0.248 NA
ATOM     43  C   UNL A   1      36.916  31.659  31.667  1.00  0.00     0.031 C 
ATOM     44  C   UNL A   1      38.627  29.323  27.545  1.00  0.00     0.029 A 
ATOM     45  N   UNL A   1      39.865  29.194  29.402  1.00  0.00    -0.354 N 
ATOM     46  C   UNL A   1      38.702  31.215  33.017  1.00  0.00     0.074 A 
ATOM     47  C   UNL A   1      37.486  31.970  32.820  1.00  0.00     0.031 C 
ATOM     48  C   UNL A   1      39.713  28.590  27.253  1.00  0.00     0.029 A 
ATOM     49  C   UNL A   1      40.532  28.456  28.452  1.00  0.00     0.049 A 
ATOM     50  H   UNL A   1      40.217  29.354  30.307  1.00  0.00     0.167 HD
ATOM     51  C   UNL A   1      39.399  31.194  34.177  1.00  0.00     0.037 A 
ATOM     52  C   UNL A   1      41.656  27.722  28.551  1.00  0.00     0.037 A 
ATOM     53  C   UNL A   1      40.578  30.400  34.395  1.00  0.00     0.049 A 
ATOM     54  C   UNL A   1      42.366  27.638  29.873  1.00  0.00     0.074 A 
ATOM     55  C   UNL A   1      41.308  30.236  35.559  1.00  0.00     0.029 A 
ATOM     56  N   UNL A   1      41.193  29.628  33.424  1.00  0.00    -0.354 N 
ATOM     57  N   UNL A   1      42.060  28.205  31.015  1.00  0.00    -0.248 NA
ATOM     58  C   UNL A   1      43.570  26.798  29.922  1.00  0.00     0.031 C 
ATOM     59  C   UNL A   1      42.380  29.378  35.285  1.00  0.00     0.029 A 
ATOM     60  C   UNL A   1      42.298  28.987  33.959  1.00  0.00     0.049 A 
ATOM     61  H   UNL A   1      40.891  29.547  32.490  1.00  0.00     0.167 HD
ATOM     62  C   UNL A   1      43.018  27.774  31.921  1.00  0.00     0.074 A 
ATOM     63  C   UNL A   1      43.903  26.881  31.202  1.00  0.00     0.031 C 
ATOM     64  C   UNL A   1      43.159  28.093  33.230  1.00  0.00     0.037 A 
BRANCH  51  65
ATOM     65  C   UNL A   1      38.874  32.026  35.312  1.00  0.00     0.057 A 
ATOM     66  C   UNL A   1      39.101  33.407  35.361  1.00  0.00     0.134 A 
ATOM     67  C   UNL A   1      38.153  31.454  36.371  1.00  0.00     0.134 A 
ATOM     68  F   UNL A   1      39.792  34.020  34.390  1.00  0.00    -0.206 F 
ATOM     69  C   UNL A   1      38.622  34.188  36.416  1.00  0.00     0.040 A 
ATOM     70  C   UNL A   1      37.646  32.228  37.414  1.00  0.00     0.040 A 
ATOM     71  F   UNL A   1      37.892  30.137  36.380  1.00  0.00    -0.206 F 
ATOM     72  C   UNL A   1      37.884  33.599  37.442  1.00  0.00     0.006 A 
ENDBRANCH  51  65
BRANCH  52  73
ATOM     73  C   UNL A   1      42.140  26.940  27.388  1.00  0.00     0.057 A 
ATOM     74  C   UNL A   1      43.024  27.484  26.451  1.00  0.00     0.134 A 
ATOM     75  C   UNL A   1      41.735  25.612  27.200  1.00  0.00     0.134 A 
ATOM     76  F   UNL A   1      43.438  28.754  26.568  1.00  0.00    -0.206 F 
ATOM     77  C   UNL A   1      43.494  26.735  25.370  1.00  0.00     0.040 A 
ATOM     78  C   UNL A   1      42.215  24.843  26.139  1.00  0.00     0.040 A 
ATOM     79  F   UNL A   1      40.900  25.032  28.075  1.00  0.00    -0.206 F 
ATOM     80  C   UNL A   1      43.096  25.407  25.219  1.00  0.00     0.006 A 
ENDBRANCH  52  73
BRANCH  64  81
ATOM     81  C   UNL A   1      44.293  27.451  33.969  1.00  0.00     0.057 A 
ATOM     82  C   UNL A   1      44.118  26.220  34.612  1.00  0.00     0.134 A 
ATOM     83  C   UNL A   1      45.550  28.061  34.062  1.00  0.00     0.134 A 
ATOM     84  F   UNL A   1      42.935  25.588  34.567  1.00  0.00    -0.206 F 
ATOM     85  C   UNL A   1      45.156  25.615  35.322  1.00  0.00     0.040 A 
ATOM     86  C   UNL A   1      46.603  27.456  34.748  1.00  0.00     0.040 A 
ATOM     87  F   UNL A   1      45.782  29.234  33.453  1.00  0.00    -0.206 F 
ATOM     88  C   UNL A   1      46.406  26.231  35.385  1.00  0.00     0.006 A 
ENDBRANCH  64  81
ENDBRANCH  38  39
ENDBRANCH  31  33
ENDBRANCH  30  31
ENDBRANCH  29  30
ENDBRANCH   1  29
TORSDOF 15
ENDMDL
