MODEL 1
REMARK VINA RESULT:     -11.3      0.000      0.000
REMARK SMILES O=C(OCCOC(=O)c1cn(-c2ncnc3ccccc23)cn1)c1ccc(-c2c3nc(c(-c4c(F)cccc4F)c4ccc([nH]4)c(-c4c(F)cccc4F)c4nc(c(-c5c(F)cccc5F)c5ccc2[nH]5)C=C4)C=C3)cc1
REMARK SMILES IDX 4 1 3 2 2 3 1 4 24 5 25 6 77 7 26 8 76 9 27 10 28 11 29 12
REMARK SMILES IDX 70 13 30 14 75 15 69 16 71 17 31 18 74 19 68 20 67 21 32 23
REMARK SMILES IDX 58 24 41 25 57 26 42 27 45 28 56 29 72 30 43 31 44 32 55 34
REMARK SMILES IDX 73 35 46 36 33 37 34 38 39 39 35 40 36 41 38 42 40 43 37 44
REMARK SMILES IDX 59 45 60 46 65 47 61 48 62 49 64 50 66 51 63 52 47 53 48 54
REMARK SMILES IDX 53 55 49 56 50 57 52 58 54 59 51 60 5 61 6 62 7 63 8 64 9 65
REMARK SMILES IDX 10 66 23 67 11 68 22 69 12 70 13 71 21 72 14 73 16 74 20 75
REMARK SMILES IDX 15 76 17 77 19 78 18 79
REMARK H PARENT 71 22 45 33
REMARK Flexibility Score: inf
ROOT
ATOM      1  C   UNL A   1      33.579  33.920  27.915  1.00  0.00     0.275 C 
ENDROOT
BRANCH   1   2
ATOM      2  O   UNL A   1      34.701  33.086  28.282  1.00  0.00    -0.458 OA
BRANCH   2   3
ATOM      3  C   UNL A   1      34.599  31.745  28.134  1.00  0.00     0.338 C 
ATOM      4  O   UNL A   1      33.654  31.177  27.614  1.00  0.00    -0.246 OA
BRANCH   3   5
ATOM      5  C   UNL A   1      35.870  31.084  28.508  1.00  0.00     0.060 A 
ATOM      6  C   UNL A   1      36.948  31.815  29.025  1.00  0.00     0.016 A 
ATOM      7  C   UNL A   1      35.973  29.699  28.343  1.00  0.00     0.016 A 
ATOM      8  C   UNL A   1      38.153  31.184  29.287  1.00  0.00     0.010 A 
ATOM      9  C   UNL A   1      37.178  29.063  28.615  1.00  0.00     0.010 A 
ATOM     10  C   UNL A   1      38.276  29.815  29.043  1.00  0.00    -0.014 A 
BRANCH  10  11
ATOM     11  C   UNL A   1      39.575  29.200  29.294  1.00  0.00     0.031 A 
ATOM     12  C   UNL A   1      39.927  28.936  30.721  1.00  0.00     0.074 A 
ATOM     13  C   UNL A   1      40.360  28.758  28.294  1.00  0.00     0.049 A 
ATOM     14  N   UNL A   1      40.964  29.329  31.388  1.00  0.00    -0.248 NA
ATOM     15  C   UNL A   1      38.962  28.169  31.523  1.00  0.00     0.031 C 
ATOM     16  C   UNL A   1      40.038  28.669  26.867  1.00  0.00     0.029 A 
ATOM     17  N   UNL A   1      41.591  28.179  28.369  1.00  0.00    -0.354 N 
ATOM     18  C   UNL A   1      40.870  28.733  32.647  1.00  0.00     0.074 A 
ATOM     19  C   UNL A   1      39.568  28.118  32.709  1.00  0.00     0.031 C 
ATOM     20  C   UNL A   1      40.941  27.869  26.258  1.00  0.00     0.029 A 
ATOM     21  C   UNL A   1      41.970  27.507  27.217  1.00  0.00     0.049 A 
ATOM     22  H   UNL A   1      42.162  28.235  29.170  1.00  0.00     0.167 HD
ATOM     23  C   UNL A   1      41.939  28.629  33.485  1.00  0.00     0.037 A 
ATOM     24  C   UNL A   1      43.014  26.654  27.085  1.00  0.00     0.037 A 
ATOM     25  C   UNL A   1      42.981  29.557  33.140  1.00  0.00     0.049 A 
ATOM     26  C   UNL A   1      43.953  26.902  28.206  1.00  0.00     0.074 A 
ATOM     27  C   UNL A   1      43.075  30.932  33.060  1.00  0.00     0.029 A 
ATOM     28  N   UNL A   1      44.097  29.076  32.503  1.00  0.00    -0.354 N 
ATOM     29  N   UNL A   1      44.678  27.977  28.331  1.00  0.00    -0.248 NA
ATOM     30  C   UNL A   1      43.780  26.121  29.422  1.00  0.00     0.031 C 
ATOM     31  C   UNL A   1      43.945  31.177  31.958  1.00  0.00     0.029 A 
ATOM     32  C   UNL A   1      44.354  29.936  31.468  1.00  0.00     0.049 A 
ATOM     33  H   UNL A   1      44.612  28.273  32.743  1.00  0.00     0.167 HD
ATOM     34  C   UNL A   1      44.690  28.237  29.693  1.00  0.00     0.074 A 
ATOM     35  C   UNL A   1      44.215  27.008  30.320  1.00  0.00     0.031 C 
ATOM     36  C   UNL A   1      44.817  29.510  30.170  1.00  0.00     0.037 A 
BRANCH  23  37
ATOM     37  C   UNL A   1      42.190  27.470  34.421  1.00  0.00     0.057 A 
ATOM     38  C   UNL A   1      41.905  27.611  35.794  1.00  0.00     0.134 A 
ATOM     39  C   UNL A   1      42.978  26.352  34.086  1.00  0.00     0.134 A 
ATOM     40  F   UNL A   1      41.170  28.640  36.244  1.00  0.00    -0.206 F 
ATOM     41  C   UNL A   1      42.438  26.753  36.765  1.00  0.00     0.040 A 
ATOM     42  C   UNL A   1      43.473  25.461  35.043  1.00  0.00     0.040 A 
ATOM     43  F   UNL A   1      43.392  26.119  32.835  1.00  0.00    -0.206 F 
ATOM     44  C   UNL A   1      43.235  25.680  36.390  1.00  0.00     0.006 A 
ENDBRANCH  23  37
BRANCH  24  45
ATOM     45  C   UNL A   1      43.107  25.455  26.225  1.00  0.00     0.057 A 
ATOM     46  C   UNL A   1      44.142  25.306  25.293  1.00  0.00     0.134 A 
ATOM     47  C   UNL A   1      42.332  24.308  26.478  1.00  0.00     0.134 A 
ATOM     48  F   UNL A   1      44.964  26.329  25.019  1.00  0.00    -0.206 F 
ATOM     49  C   UNL A   1      44.401  24.083  24.660  1.00  0.00     0.040 A 
ATOM     50  C   UNL A   1      42.573  23.086  25.846  1.00  0.00     0.040 A 
ATOM     51  F   UNL A   1      41.371  24.314  27.413  1.00  0.00    -0.206 F 
ATOM     52  C   UNL A   1      43.621  22.966  24.943  1.00  0.00     0.006 A 
ENDBRANCH  24  45
BRANCH  36  53
ATOM     53  C   UNL A   1      45.191  30.594  29.199  1.00  0.00     0.057 A 
ATOM     54  C   UNL A   1      44.259  31.299  28.422  1.00  0.00     0.134 A 
ATOM     55  C   UNL A   1      46.514  31.049  29.169  1.00  0.00     0.134 A 
ATOM     56  F   UNL A   1      42.955  31.008  28.469  1.00  0.00    -0.206 F 
ATOM     57  C   UNL A   1      44.637  32.376  27.615  1.00  0.00     0.040 A 
ATOM     58  C   UNL A   1      46.897  32.145  28.393  1.00  0.00     0.040 A 
ATOM     59  F   UNL A   1      47.448  30.464  29.935  1.00  0.00    -0.206 F 
ATOM     60  C   UNL A   1      45.959  32.806  27.603  1.00  0.00     0.006 A 
ENDBRANCH  36  53
ENDBRANCH  10  11
ENDBRANCH   3   5
ENDBRANCH   2   3
ENDBRANCH   1   2
BRANCH   1  61
ATOM     61  C   UNL A   1      33.356  35.185  28.738  1.00  0.00     0.275 C 
BRANCH  61  62
ATOM     62  O   UNL A   1      32.900  34.800  30.041  1.00  0.00    -0.457 OA
BRANCH  62  63
ATOM     63  C   UNL A   1      33.014  35.744  31.016  1.00  0.00     0.358 C 
ATOM     64  O   UNL A   1      32.441  36.828  31.027  1.00  0.00    -0.244 OA
BRANCH  63  65
ATOM     65  C   UNL A   1      34.016  35.355  31.991  1.00  0.00     0.166 A 
ATOM     66  C   UNL A   1      34.899  34.312  31.830  1.00  0.00     0.130 A 
ATOM     67  N   UNL A   1      34.183  35.928  33.240  1.00  0.00    -0.229 NA
ATOM     68  N   UNL A   1      35.653  34.286  32.975  1.00  0.00    -0.289 N 
ATOM     69  C   UNL A   1      35.154  35.248  33.811  1.00  0.00     0.206 A 
BRANCH  68  70
ATOM     70  C   UNL A   1      36.731  33.421  33.239  1.00  0.00     0.149 A 
ATOM     71  N   UNL A   1      36.541  32.504  34.213  1.00  0.00    -0.218 NA
ATOM     72  C   UNL A   1      37.886  33.521  32.445  1.00  0.00     0.044 A 
ATOM     73  C   UNL A   1      37.499  31.579  34.303  1.00  0.00     0.224 A 
ATOM     74  C   UNL A   1      38.818  32.505  32.670  1.00  0.00     0.076 A 
ATOM     75  C   UNL A   1      38.191  34.568  31.528  1.00  0.00     0.014 A 
ATOM     76  N   UNL A   1      38.620  31.528  33.567  1.00  0.00    -0.236 NA
ATOM     77  C   UNL A   1      40.001  32.530  31.940  1.00  0.00     0.029 A 
ATOM     78  C   UNL A   1      39.390  34.579  30.827  1.00  0.00     0.001 A 
ATOM     79  C   UNL A   1      40.295  33.550  31.028  1.00  0.00     0.002 A 
ENDBRANCH  68  70
ENDBRANCH  63  65
ENDBRANCH  62  63
ENDBRANCH  61  62
ENDBRANCH   1  61
TORSDOF 12
ENDMDL
MODEL 2
REMARK VINA RESULT:     -11.2      0.391      1.490
REMARK SMILES O=C(OCCOC(=O)c1cn(-c2ncnc3ccccc23)cn1)c1ccc(-c2c3nc(c(-c4c(F)cccc4F)c4ccc([nH]4)c(-c4c(F)cccc4F)c4nc(c(-c5c(F)cccc5F)c5ccc2[nH]5)C=C4)C=C3)cc1
REMARK SMILES IDX 4 1 3 2 2 3 1 4 24 5 25 6 77 7 26 8 76 9 27 10 28 11 29 12
REMARK SMILES IDX 70 13 30 14 75 15 69 16 71 17 31 18 74 19 68 20 67 21 32 23
REMARK SMILES IDX 58 24 41 25 57 26 42 27 45 28 56 29 72 30 43 31 44 32 55 34
REMARK SMILES IDX 73 35 46 36 33 37 34 38 39 39 35 40 36 41 38 42 40 43 37 44
REMARK SMILES IDX 59 45 60 46 65 47 61 48 62 49 64 50 66 51 63 52 47 53 48 54
REMARK SMILES IDX 53 55 49 56 50 57 52 58 54 59 51 60 5 61 6 62 7 63 8 64 9 65
REMARK SMILES IDX 10 66 23 67 11 68 22 69 12 70 13 71 21 72 14 73 16 74 20 75
REMARK SMILES IDX 15 76 17 77 19 78 18 79
REMARK H PARENT 71 22 45 33
REMARK Flexibility Score: inf
ROOT
ATOM      1  C   UNL A   1      33.962  33.963  28.003  1.00  0.00     0.275 C 
ENDROOT
BRANCH   1   2
ATOM      2  O   UNL A   1      34.560  32.941  28.831  1.00  0.00    -0.458 OA
BRANCH   2   3
ATOM      3  C   UNL A   1      34.551  31.658  28.400  1.00  0.00     0.338 C 
ATOM      4  O   UNL A   1      33.615  31.129  27.825  1.00  0.00    -0.246 OA
BRANCH   3   5
ATOM      5  C   UNL A   1      35.895  31.054  28.543  1.00  0.00     0.060 A 
ATOM      6  C   UNL A   1      36.113  29.693  28.291  1.00  0.00     0.016 A 
ATOM      7  C   UNL A   1      36.957  31.878  28.927  1.00  0.00     0.016 A 
ATOM      8  C   UNL A   1      37.363  29.137  28.512  1.00  0.00     0.010 A 
ATOM      9  C   UNL A   1      38.213  31.324  29.140  1.00  0.00     0.010 A 
ATOM     10  C   UNL A   1      38.400  29.948  28.975  1.00  0.00    -0.014 A 
BRANCH  10  11
ATOM     11  C   UNL A   1      39.688  29.314  29.235  1.00  0.00     0.031 A 
ATOM     12  C   UNL A   1      40.075  29.147  30.667  1.00  0.00     0.074 A 
ATOM     13  C   UNL A   1      40.430  28.775  28.249  1.00  0.00     0.049 A 
ATOM     14  N   UNL A   1      41.144  29.557  31.274  1.00  0.00    -0.248 NA
ATOM     15  C   UNL A   1      39.115  28.472  31.551  1.00  0.00     0.031 C 
ATOM     16  C   UNL A   1      40.062  28.590  26.843  1.00  0.00     0.029 A 
ATOM     17  N   UNL A   1      41.646  28.167  28.333  1.00  0.00    -0.354 N 
ATOM     18  C   UNL A   1      41.070  29.059  32.576  1.00  0.00     0.074 A 
ATOM     19  C   UNL A   1      39.755  28.491  32.721  1.00  0.00     0.031 C 
ATOM     20  C   UNL A   1      40.923  27.720  26.271  1.00  0.00     0.029 A 
ATOM     21  C   UNL A   1      41.970  27.400  27.225  1.00  0.00     0.049 A 
ATOM     22  H   UNL A   1      42.242  28.265  29.111  1.00  0.00     0.167 HD
ATOM     23  C   UNL A   1      42.162  28.986  33.389  1.00  0.00     0.037 A 
ATOM     24  C   UNL A   1      42.986  26.508  27.128  1.00  0.00     0.037 A 
ATOM     25  C   UNL A   1      43.218  29.854  32.946  1.00  0.00     0.049 A 
ATOM     26  C   UNL A   1      43.964  26.811  28.200  1.00  0.00     0.074 A 
ATOM     27  C   UNL A   1      43.348  31.215  32.759  1.00  0.00     0.029 A 
ATOM     28  N   UNL A   1      44.301  29.293  32.315  1.00  0.00    -0.354 N 
ATOM     29  N   UNL A   1      44.723  27.870  28.223  1.00  0.00    -0.248 NA
ATOM     30  C   UNL A   1      43.807  26.128  29.476  1.00  0.00     0.031 C 
ATOM     31  C   UNL A   1      44.191  31.351  31.618  1.00  0.00     0.029 A 
ATOM     32  C   UNL A   1      44.550  30.065  31.212  1.00  0.00     0.049 A 
ATOM     33  H   UNL A   1      44.800  28.495  32.600  1.00  0.00     0.167 HD
ATOM     34  C   UNL A   1      44.784  28.229  29.561  1.00  0.00     0.074 A 
ATOM     35  C   UNL A   1      44.293  27.065  30.292  1.00  0.00     0.031 C 
ATOM     36  C   UNL A   1      44.961  29.530  29.937  1.00  0.00     0.037 A 
BRANCH  23  37
ATOM     37  C   UNL A   1      42.408  27.893  34.402  1.00  0.00     0.057 A 
ATOM     38  C   UNL A   1      42.888  26.640  33.970  1.00  0.00     0.134 A 
ATOM     39  C   UNL A   1      41.903  27.919  35.717  1.00  0.00     0.134 A 
ATOM     40  F   UNL A   1      43.387  26.482  32.735  1.00  0.00    -0.206 F 
ATOM     41  C   UNL A   1      42.793  25.486  34.758  1.00  0.00     0.040 A 
ATOM     42  C   UNL A   1      41.849  26.781  36.529  1.00  0.00     0.040 A 
ATOM     43  F   UNL A   1      41.347  29.014  36.248  1.00  0.00    -0.206 F 
ATOM     44  C   UNL A   1      42.261  25.553  36.038  1.00  0.00     0.006 A 
ENDBRANCH  23  37
BRANCH  24  45
ATOM     45  C   UNL A   1      43.019  25.246  26.358  1.00  0.00     0.057 A 
ATOM     46  C   UNL A   1      43.999  25.012  25.386  1.00  0.00     0.134 A 
ATOM     47  C   UNL A   1      42.247  24.133  26.740  1.00  0.00     0.134 A 
ATOM     48  F   UNL A   1      44.815  25.999  24.991  1.00  0.00    -0.206 F 
ATOM     49  C   UNL A   1      44.211  23.741  24.835  1.00  0.00     0.040 A 
ATOM     50  C   UNL A   1      42.441  22.863  26.192  1.00  0.00     0.040 A 
ATOM     51  F   UNL A   1      41.339  24.224  27.723  1.00  0.00    -0.206 F 
ATOM     52  C   UNL A   1      43.436  22.660  25.245  1.00  0.00     0.006 A 
ENDBRANCH  24  45
BRANCH  36  53
ATOM     53  C   UNL A   1      45.336  30.527  28.877  1.00  0.00     0.057 A 
ATOM     54  C   UNL A   1      46.657  30.777  28.476  1.00  0.00     0.134 A 
ATOM     55  C   UNL A   1      44.321  31.131  28.127  1.00  0.00     0.134 A 
ATOM     56  F   UNL A   1      47.689  30.159  29.062  1.00  0.00    -0.206 F 
ATOM     57  C   UNL A   1      46.955  31.629  27.409  1.00  0.00     0.040 A 
ATOM     58  C   UNL A   1      44.605  31.958  27.037  1.00  0.00     0.040 A 
ATOM     59  F   UNL A   1      43.032  30.888  28.411  1.00  0.00    -0.206 F 
ATOM     60  C   UNL A   1      45.926  32.218  26.681  1.00  0.00     0.006 A 
ENDBRANCH  36  53
ENDBRANCH  10  11
ENDBRANCH   3   5
ENDBRANCH   2   3
ENDBRANCH   1   2
BRANCH   1  61
ATOM     61  C   UNL A   1      33.344  35.161  28.718  1.00  0.00     0.275 C 
BRANCH  61  62
ATOM     62  O   UNL A   1      32.978  34.756  30.042  1.00  0.00    -0.457 OA
BRANCH  62  63
ATOM     63  C   UNL A   1      33.050  35.719  31.002  1.00  0.00     0.358 C 
ATOM     64  O   UNL A   1      32.469  36.799  30.971  1.00  0.00    -0.244 OA
BRANCH  63  65
ATOM     65  C   UNL A   1      34.018  35.358  32.020  1.00  0.00     0.166 A 
ATOM     66  C   UNL A   1      34.960  34.365  31.884  1.00  0.00     0.130 A 
ATOM     67  N   UNL A   1      34.090  35.907  33.288  1.00  0.00    -0.229 NA
ATOM     68  N   UNL A   1      35.655  34.348  33.066  1.00  0.00    -0.289 N 
ATOM     69  C   UNL A   1      35.064  35.263  33.895  1.00  0.00     0.206 A 
BRANCH  68  70
ATOM     70  C   UNL A   1      36.760  33.532  33.368  1.00  0.00     0.149 A 
ATOM     71  N   UNL A   1      36.617  32.689  34.414  1.00  0.00    -0.218 NA
ATOM     72  C   UNL A   1      37.893  33.597  32.539  1.00  0.00     0.044 A 
ATOM     73  C   UNL A   1      37.601  31.797  34.551  1.00  0.00     0.224 A 
ATOM     74  C   UNL A   1      38.856  32.624  32.818  1.00  0.00     0.076 A 
ATOM     75  C   UNL A   1      38.148  34.575  31.535  1.00  0.00     0.014 A 
ATOM     76  N   UNL A   1      38.704  31.715  33.792  1.00  0.00    -0.236 NA
ATOM     77  C   UNL A   1      40.020  32.619  32.057  1.00  0.00     0.029 A 
ATOM     78  C   UNL A   1      39.329  34.560  30.805  1.00  0.00     0.001 A 
ATOM     79  C   UNL A   1      40.265  33.572  31.061  1.00  0.00     0.002 A 
ENDBRANCH  68  70
ENDBRANCH  63  65
ENDBRANCH  62  63
ENDBRANCH  61  62
ENDBRANCH   1  61
TORSDOF 12
ENDMDL
MODEL 3
REMARK VINA RESULT:     -11.1      4.039     10.887
REMARK SMILES O=C(OCCOC(=O)c1cn(-c2ncnc3ccccc23)cn1)c1ccc(-c2c3nc(c(-c4c(F)cccc4F)c4ccc([nH]4)c(-c4c(F)cccc4F)c4nc(c(-c5c(F)cccc5F)c5ccc2[nH]5)C=C4)C=C3)cc1
REMARK SMILES IDX 4 1 3 2 2 3 1 4 24 5 25 6 77 7 26 8 76 9 27 10 28 11 29 12
REMARK SMILES IDX 70 13 30 14 75 15 69 16 71 17 31 18 74 19 68 20 67 21 32 23
REMARK SMILES IDX 58 24 41 25 57 26 42 27 45 28 56 29 72 30 43 31 44 32 55 34
REMARK SMILES IDX 73 35 46 36 33 37 34 38 39 39 35 40 36 41 38 42 40 43 37 44
REMARK SMILES IDX 59 45 60 46 65 47 61 48 62 49 64 50 66 51 63 52 47 53 48 54
REMARK SMILES IDX 53 55 49 56 50 57 52 58 54 59 51 60 5 61 6 62 7 63 8 64 9 65
REMARK SMILES IDX 10 66 23 67 11 68 22 69 12 70 13 71 21 72 14 73 16 74 20 75
REMARK SMILES IDX 15 76 17 77 19 78 18 79
REMARK H PARENT 71 22 45 33
REMARK Flexibility Score: inf
ROOT
ATOM      1  C   UNL A   1      40.754  20.020  26.407  1.00  0.00     0.275 C 
ENDROOT
BRANCH   1   2
ATOM      2  O   UNL A   1      40.893  21.442  26.620  1.00  0.00    -0.458 OA
BRANCH   2   3
ATOM      3  C   UNL A   1      39.799  22.231  26.520  1.00  0.00     0.338 C 
ATOM      4  O   UNL A   1      38.696  21.843  26.176  1.00  0.00    -0.246 OA
BRANCH   3   5
ATOM      5  C   UNL A   1      40.078  23.576  27.073  1.00  0.00     0.060 A 
ATOM      6  C   UNL A   1      41.191  23.812  27.891  1.00  0.00     0.016 A 
ATOM      7  C   UNL A   1      39.206  24.621  26.752  1.00  0.00     0.016 A 
ATOM      8  C   UNL A   1      41.381  25.060  28.462  1.00  0.00     0.010 A 
ATOM      9  C   UNL A   1      39.401  25.875  27.316  1.00  0.00     0.010 A 
ATOM     10  C   UNL A   1      40.462  26.078  28.204  1.00  0.00    -0.014 A 
BRANCH  10  11
ATOM     11  C   UNL A   1      40.678  27.363  28.859  1.00  0.00     0.031 A 
ATOM     12  C   UNL A   1      41.749  28.233  28.290  1.00  0.00     0.074 A 
ATOM     13  C   UNL A   1      39.866  27.812  29.835  1.00  0.00     0.049 A 
ATOM     14  N   UNL A   1      42.779  28.749  28.882  1.00  0.00    -0.248 NA
ATOM     15  C   UNL A   1      41.685  28.527  26.851  1.00  0.00     0.031 C 
ATOM     16  C   UNL A   1      38.608  27.224  30.302  1.00  0.00     0.029 A 
ATOM     17  N   UNL A   1      39.946  28.973  30.543  1.00  0.00    -0.354 N 
ATOM     18  C   UNL A   1      43.409  29.561  27.936  1.00  0.00     0.074 A 
ATOM     19  C   UNL A   1      42.756  29.303  26.679  1.00  0.00     0.031 C 
ATOM     20  C   UNL A   1      37.938  28.139  31.037  1.00  0.00     0.029 A 
ATOM     21  C   UNL A   1      38.775  29.314  31.202  1.00  0.00     0.049 A 
ATOM     22  H   UNL A   1      40.764  29.521  30.585  1.00  0.00     0.167 HD
ATOM     23  C   UNL A   1      44.306  30.524  28.288  1.00  0.00     0.037 A 
ATOM     24  C   UNL A   1      38.489  30.507  31.777  1.00  0.00     0.037 A 
ATOM     25  C   UNL A   1      44.839  30.304  29.604  1.00  0.00     0.049 A 
ATOM     26  C   UNL A   1      39.766  31.224  32.004  1.00  0.00     0.074 A 
ATOM     27  C   UNL A   1      45.565  29.297  30.207  1.00  0.00     0.029 A 
ATOM     28  N   UNL A   1      44.382  31.091  30.632  1.00  0.00    -0.354 N 
ATOM     29  N   UNL A   1      40.661  30.869  32.880  1.00  0.00    -0.248 NA
ATOM     30  C   UNL A   1      40.239  32.117  30.955  1.00  0.00     0.031 C 
ATOM     31  C   UNL A   1      45.078  29.243  31.546  1.00  0.00     0.029 A 
ATOM     32  C   UNL A   1      44.119  30.248  31.679  1.00  0.00     0.049 A 
ATOM     33  H   UNL A   1      44.268  32.069  30.620  1.00  0.00     0.167 HD
ATOM     34  C   UNL A   1      41.877  31.131  32.268  1.00  0.00     0.074 A 
ATOM     35  C   UNL A   1      41.556  31.994  31.134  1.00  0.00     0.031 C 
ATOM     36  C   UNL A   1      42.993  30.402  32.567  1.00  0.00     0.037 A 
BRANCH  23  37
ATOM     37  C   UNL A   1      44.467  31.849  27.580  1.00  0.00     0.057 A 
ATOM     38  C   UNL A   1      45.521  32.022  26.661  1.00  0.00     0.134 A 
ATOM     39  C   UNL A   1      43.831  33.037  27.991  1.00  0.00     0.134 A 
ATOM     40  F   UNL A   1      46.213  30.970  26.198  1.00  0.00    -0.206 F 
ATOM     41  C   UNL A   1      45.962  33.287  26.251  1.00  0.00     0.040 A 
ATOM     42  C   UNL A   1      44.232  34.302  27.549  1.00  0.00     0.040 A 
ATOM     43  F   UNL A   1      42.860  33.045  28.912  1.00  0.00    -0.206 F 
ATOM     44  C   UNL A   1      45.323  34.433  26.706  1.00  0.00     0.006 A 
ENDBRANCH  23  37
BRANCH  24  45
ATOM     45  C   UNL A   1      37.175  31.178  31.876  1.00  0.00     0.057 A 
ATOM     46  C   UNL A   1      36.692  31.658  33.099  1.00  0.00     0.134 A 
ATOM     47  C   UNL A   1      36.477  31.596  30.727  1.00  0.00     0.134 A 
ATOM     48  F   UNL A   1      37.318  31.353  34.244  1.00  0.00    -0.206 F 
ATOM     49  C   UNL A   1      35.588  32.517  33.177  1.00  0.00     0.040 A 
ATOM     50  C   UNL A   1      35.369  32.444  30.791  1.00  0.00     0.040 A 
ATOM     51  F   UNL A   1      36.902  31.266  29.499  1.00  0.00    -0.206 F 
ATOM     52  C   UNL A   1      34.928  32.920  32.019  1.00  0.00     0.006 A 
ENDBRANCH  24  45
BRANCH  36  53
ATOM     53  C   UNL A   1      42.936  29.479  33.750  1.00  0.00     0.057 A 
ATOM     54  C   UNL A   1      43.197  29.885  35.068  1.00  0.00     0.134 A 
ATOM     55  C   UNL A   1      42.445  28.181  33.573  1.00  0.00     0.134 A 
ATOM     56  F   UNL A   1      43.566  31.140  35.347  1.00  0.00    -0.206 F 
ATOM     57  C   UNL A   1      43.023  29.021  36.153  1.00  0.00     0.040 A 
ATOM     58  C   UNL A   1      42.234  27.320  34.653  1.00  0.00     0.040 A 
ATOM     59  F   UNL A   1      42.112  27.744  32.348  1.00  0.00    -0.206 F 
ATOM     60  C   UNL A   1      42.535  27.735  35.948  1.00  0.00     0.006 A 
ENDBRANCH  36  53
ENDBRANCH  10  11
ENDBRANCH   3   5
ENDBRANCH   2   3
ENDBRANCH   1   2
BRANCH   1  61
ATOM     61  C   UNL A   1      42.039  19.204  26.300  1.00  0.00     0.275 C 
BRANCH  61  62
ATOM     62  O   UNL A   1      42.679  19.533  25.061  1.00  0.00    -0.457 OA
BRANCH  62  63
ATOM     63  C   UNL A   1      44.012  19.262  24.988  1.00  0.00     0.358 C 
ATOM     64  O   UNL A   1      44.511  18.141  24.990  1.00  0.00    -0.244 OA
BRANCH  63  65
ATOM     65  C   UNL A   1      44.788  20.486  25.041  1.00  0.00     0.166 A 
ATOM     66  C   UNL A   1      44.308  21.697  25.483  1.00  0.00     0.130 A 
ATOM     67  N   UNL A   1      46.091  20.629  24.594  1.00  0.00    -0.229 NA
ATOM     68  N   UNL A   1      45.352  22.578  25.358  1.00  0.00    -0.289 N 
ATOM     69  C   UNL A   1      46.387  21.898  24.776  1.00  0.00     0.206 A 
BRANCH  68  70
ATOM     70  C   UNL A   1      45.348  23.930  25.747  1.00  0.00     0.149 A 
ATOM     71  N   UNL A   1      45.518  24.839  24.762  1.00  0.00    -0.218 NA
ATOM     72  C   UNL A   1      45.106  24.243  27.096  1.00  0.00     0.044 A 
ATOM     73  C   UNL A   1      45.314  26.106  25.130  1.00  0.00     0.224 A 
ATOM     74  C   UNL A   1      44.946  25.609  27.340  1.00  0.00     0.076 A 
ATOM     75  C   UNL A   1      45.085  23.324  28.184  1.00  0.00     0.014 A 
ATOM     76  N   UNL A   1      45.020  26.531  26.368  1.00  0.00    -0.236 NA
ATOM     77  C   UNL A   1      44.718  26.016  28.650  1.00  0.00     0.029 A 
ATOM     78  C   UNL A   1      44.876  23.760  29.485  1.00  0.00     0.001 A 
ATOM     79  C   UNL A   1      44.683  25.112  29.718  1.00  0.00     0.002 A 
ENDBRANCH  68  70
ENDBRANCH  63  65
ENDBRANCH  62  63
ENDBRANCH  61  62
ENDBRANCH   1  61
TORSDOF 12
ENDMDL
