MODEL 1
REMARK VINA RESULT:     -12.2      0.000      0.000
REMARK SMILES Cc1cc2c(=O)c3ccccc3oc2c(C(=O)OCCOC(=O)c2ccc(-c3c4nc(c(-c5c(F)cccc5F)c5ccc([nH]5)c(-c5c(F)cccc5F)c5nc(c(-c6c(F)cccc6F)c6ccc3[nH]6)C=C5)C=C4)cc2)c1C
REMARK SMILES IDX 20 1 19 2 18 3 16 4 17 5 15 6 1 7 2 8 3 9 78 10 4 11 79 12
REMARK SMILES IDX 5 13 14 14 6 15 7 16 13 17 8 18 12 19 9 20 11 21 10 22 21 23
REMARK SMILES IDX 22 24 23 25 24 26 25 27 77 28 26 29 76 30 27 31 28 32 29 33
REMARK SMILES IDX 70 34 30 35 75 36 69 37 71 38 31 39 74 40 68 41 67 42 32 44
REMARK SMILES IDX 58 45 41 46 57 47 42 48 45 49 56 50 72 51 43 52 44 53 55 55
REMARK SMILES IDX 73 56 46 57 33 58 34 59 39 60 35 61 36 62 38 63 40 64 37 65
REMARK SMILES IDX 59 66 60 67 65 68 61 69 62 70 64 71 66 72 63 73 47 74 48 75
REMARK SMILES IDX 53 76 49 77 50 78 52 79 54 80 51 81
REMARK H PARENT 71 43 45 54
REMARK Flexibility Score: inf
ROOT
ATOM      1  C   UNL A   1      32.969  29.460  24.844  1.00  0.00     0.275 C 
ENDROOT
BRANCH   1   2
ATOM      2  C   UNL A   1      33.741  28.198  24.450  1.00  0.00     0.275 C 
BRANCH   2   3
ATOM      3  O   UNL A   1      33.611  27.944  23.036  1.00  0.00    -0.458 OA
BRANCH   3   4
ATOM      4  C   UNL A   1      33.185  26.722  22.628  1.00  0.00     0.342 C 
ATOM      5  O   UNL A   1      33.727  26.037  21.776  1.00  0.00    -0.246 OA
BRANCH   4   6
ATOM      6  C   UNL A   1      31.963  26.308  23.403  1.00  0.00     0.106 A 
ATOM      7  C   UNL A   1      28.203  27.111  23.829  1.00  0.00     0.044 C 
ATOM      8  C   UNL A   1      29.584  26.536  23.996  1.00  0.00    -0.046 A 
ATOM      9  C   UNL A   1      29.764  25.576  24.996  1.00  0.00     0.019 A 
ATOM     10  C   UNL A   1      30.693  26.941  23.209  1.00  0.00    -0.030 A 
ATOM     11  C   UNL A   1      31.001  24.965  25.175  1.00  0.00     0.067 A 
ATOM     12  C   UNL A   1      30.510  28.058  22.206  1.00  0.00     0.046 C 
ATOM     13  C   UNL A   1      31.170  24.032  26.298  1.00  0.00     0.200 A 
ATOM     14  C   UNL A   1      32.085  25.263  24.348  1.00  0.00     0.153 A 
ATOM     15  O   UNL A   1      30.253  23.773  27.066  1.00  0.00    -0.288 OA
ATOM     16  C   UNL A   1      32.493  23.440  26.466  1.00  0.00     0.065 A 
ATOM     17  O   UNL A   1      33.262  24.544  24.429  1.00  0.00    -0.455 OA
ATOM     18  C   UNL A   1      32.796  22.674  27.597  1.00  0.00     0.016 A 
ATOM     19  C   UNL A   1      33.432  23.652  25.465  1.00  0.00     0.138 A 
ATOM     20  C   UNL A   1      34.048  22.080  27.706  1.00  0.00     0.001 A 
ATOM     21  C   UNL A   1      34.651  22.982  25.536  1.00  0.00     0.048 A 
ATOM     22  C   UNL A   1      34.962  22.206  26.661  1.00  0.00     0.004 A 
ENDBRANCH   4   6
ENDBRANCH   3   4
ENDBRANCH   2   3
ENDBRANCH   1   2
BRANCH   1  23
ATOM     23  O   UNL A   1      32.792  29.503  26.270  1.00  0.00    -0.458 OA
BRANCH  23  24
ATOM     24  C   UNL A   1      32.958  30.725  26.826  1.00  0.00     0.338 C 
ATOM     25  O   UNL A   1      32.129  31.618  26.912  1.00  0.00    -0.246 OA
BRANCH  24  26
ATOM     26  C   UNL A   1      34.252  30.749  27.530  1.00  0.00     0.060 A 
ATOM     27  C   UNL A   1      34.987  31.922  27.726  1.00  0.00     0.016 A 
ATOM     28  C   UNL A   1      34.736  29.528  27.997  1.00  0.00     0.016 A 
ATOM     29  C   UNL A   1      36.238  31.859  28.357  1.00  0.00     0.010 A 
ATOM     30  C   UNL A   1      35.974  29.472  28.626  1.00  0.00     0.010 A 
ATOM     31  C   UNL A   1      36.753  30.625  28.782  1.00  0.00    -0.014 A 
BRANCH  31  32
ATOM     32  C   UNL A   1      38.044  30.506  29.499  1.00  0.00     0.031 A 
ATOM     33  C   UNL A   1      39.224  29.799  28.892  1.00  0.00     0.074 A 
ATOM     34  C   UNL A   1      38.089  30.907  30.781  1.00  0.00     0.049 A 
ATOM     35  N   UNL A   1      40.389  29.521  29.427  1.00  0.00    -0.248 NA
ATOM     36  C   UNL A   1      39.050  29.279  27.531  1.00  0.00     0.031 C 
ATOM     37  C   UNL A   1      36.971  31.502  31.512  1.00  0.00     0.029 A 
ATOM     38  N   UNL A   1      39.105  30.855  31.697  1.00  0.00    -0.354 N 
ATOM     39  C   UNL A   1      41.068  28.747  28.491  1.00  0.00     0.074 A 
ATOM     40  C   UNL A   1      40.170  28.585  27.365  1.00  0.00     0.031 C 
ATOM     41  C   UNL A   1      37.372  31.790  32.760  1.00  0.00     0.029 A 
ATOM     42  C   UNL A   1      38.769  31.396  32.912  1.00  0.00     0.049 A 
ATOM     43  H   UNL A   1      39.990  30.469  31.503  1.00  0.00     0.167 HD
ATOM     44  C   UNL A   1      42.317  28.216  28.578  1.00  0.00     0.037 A 
ATOM     45  C   UNL A   1      39.516  31.581  34.013  1.00  0.00     0.037 A 
ATOM     46  C   UNL A   1      43.219  28.452  29.684  1.00  0.00     0.049 A 
ATOM     47  C   UNL A   1      40.955  31.153  34.009  1.00  0.00     0.074 A 
ATOM     48  C   UNL A   1      44.555  28.099  29.800  1.00  0.00     0.029 A 
ATOM     49  N   UNL A   1      42.883  29.104  30.862  1.00  0.00    -0.354 N 
ATOM     50  N   UNL A   1      41.629  30.519  33.082  1.00  0.00    -0.248 NA
ATOM     51  C   UNL A   1      41.743  31.492  35.201  1.00  0.00     0.031 C 
ATOM     52  C   UNL A   1      45.015  28.503  31.059  1.00  0.00     0.029 A 
ATOM     53  C   UNL A   1      43.984  29.160  31.707  1.00  0.00     0.049 A 
ATOM     54  H   UNL A   1      41.994  29.473  31.068  1.00  0.00     0.167 HD
ATOM     55  C   UNL A   1      42.926  30.408  33.565  1.00  0.00     0.074 A 
ATOM     56  C   UNL A   1      42.949  31.066  34.854  1.00  0.00     0.031 C 
ATOM     57  C   UNL A   1      44.000  29.809  32.994  1.00  0.00     0.037 A 
BRANCH  44  58
ATOM     58  C   UNL A   1      42.805  27.340  27.451  1.00  0.00     0.057 A 
ATOM     59  C   UNL A   1      43.438  27.902  26.330  1.00  0.00     0.134 A 
ATOM     60  C   UNL A   1      42.581  25.957  27.424  1.00  0.00     0.134 A 
ATOM     61  F   UNL A   1      43.670  29.222  26.267  1.00  0.00    -0.206 F 
ATOM     62  C   UNL A   1      43.825  27.126  25.234  1.00  0.00     0.040 A 
ATOM     63  C   UNL A   1      43.001  25.164  26.352  1.00  0.00     0.040 A 
ATOM     64  F   UNL A   1      41.971  25.346  28.450  1.00  0.00    -0.206 F 
ATOM     65  C   UNL A   1      43.616  25.750  25.248  1.00  0.00     0.006 A 
ENDBRANCH  44  58
BRANCH  45  66
ATOM     66  C   UNL A   1      38.946  32.306  35.172  1.00  0.00     0.057 A 
ATOM     67  C   UNL A   1      38.974  33.701  35.263  1.00  0.00     0.134 A 
ATOM     68  C   UNL A   1      38.357  31.598  36.227  1.00  0.00     0.134 A 
ATOM     69  F   UNL A   1      39.546  34.432  34.295  1.00  0.00    -0.206 F 
ATOM     70  C   UNL A   1      38.430  34.367  36.361  1.00  0.00     0.040 A 
ATOM     71  C   UNL A   1      37.784  32.251  37.315  1.00  0.00     0.040 A 
ATOM     72  F   UNL A   1      38.297  30.258  36.188  1.00  0.00    -0.206 F 
ATOM     73  C   UNL A   1      37.822  33.641  37.386  1.00  0.00     0.006 A 
ENDBRANCH  45  66
BRANCH  57  74
ATOM     74  C   UNL A   1      45.297  29.873  33.753  1.00  0.00     0.057 A 
ATOM     75  C   UNL A   1      45.638  28.865  34.666  1.00  0.00     0.134 A 
ATOM     76  C   UNL A   1      46.216  30.915  33.573  1.00  0.00     0.134 A 
ATOM     77  F   UNL A   1      44.803  27.842  34.897  1.00  0.00    -0.206 F 
ATOM     78  C   UNL A   1      46.852  28.885  35.357  1.00  0.00     0.040 A 
ATOM     79  C   UNL A   1      47.447  30.929  34.234  1.00  0.00     0.040 A 
ATOM     80  F   UNL A   1      45.959  31.906  32.705  1.00  0.00    -0.206 F 
ATOM     81  C   UNL A   1      47.766  29.913  35.132  1.00  0.00     0.006 A 
ENDBRANCH  57  74
ENDBRANCH  31  32
ENDBRANCH  24  26
ENDBRANCH  23  24
ENDBRANCH   1  23
TORSDOF 11
ENDMDL
MODEL 2
REMARK VINA RESULT:     -12.1      3.147      6.794
REMARK SMILES Cc1cc2c(=O)c3ccccc3oc2c(C(=O)OCCOC(=O)c2ccc(-c3c4nc(c(-c5c(F)cccc5F)c5ccc([nH]5)c(-c5c(F)cccc5F)c5nc(c(-c6c(F)cccc6F)c6ccc3[nH]6)C=C5)C=C4)cc2)c1C
REMARK SMILES IDX 20 1 19 2 18 3 16 4 17 5 15 6 1 7 2 8 3 9 78 10 4 11 79 12
REMARK SMILES IDX 5 13 14 14 6 15 7 16 13 17 8 18 12 19 9 20 11 21 10 22 21 23
REMARK SMILES IDX 22 24 23 25 24 26 25 27 77 28 26 29 76 30 27 31 28 32 29 33
REMARK SMILES IDX 70 34 30 35 75 36 69 37 71 38 31 39 74 40 68 41 67 42 32 44
REMARK SMILES IDX 58 45 41 46 57 47 42 48 45 49 56 50 72 51 43 52 44 53 55 55
REMARK SMILES IDX 73 56 46 57 33 58 34 59 39 60 35 61 36 62 38 63 40 64 37 65
REMARK SMILES IDX 59 66 60 67 65 68 61 69 62 70 64 71 66 72 63 73 47 74 48 75
REMARK SMILES IDX 53 76 49 77 50 78 52 79 54 80 51 81
REMARK H PARENT 71 43 45 54
REMARK Flexibility Score: inf
ROOT
ATOM      1  C   UNL A   1      32.789  29.547  27.106  1.00  0.00     0.275 C 
ENDROOT
BRANCH   1   2
ATOM      2  C   UNL A   1      32.873  29.960  25.634  1.00  0.00     0.275 C 
BRANCH   2   3
ATOM      3  O   UNL A   1      33.627  28.990  24.876  1.00  0.00    -0.458 OA
BRANCH   3   4
ATOM      4  C   UNL A   1      33.121  28.543  23.699  1.00  0.00     0.342 C 
ATOM      5  O   UNL A   1      33.541  28.845  22.594  1.00  0.00    -0.246 OA
BRANCH   4   6
ATOM      6  C   UNL A   1      31.983  27.590  23.947  1.00  0.00     0.106 A 
ATOM      7  C   UNL A   1      28.139  27.282  23.651  1.00  0.00     0.044 C 
ATOM      8  C   UNL A   1      29.589  27.017  23.957  1.00  0.00    -0.046 A 
ATOM      9  C   UNL A   1      29.903  25.806  24.578  1.00  0.00     0.019 A 
ATOM     10  C   UNL A   1      30.624  27.942  23.666  1.00  0.00    -0.030 A 
ATOM     11  C   UNL A   1      31.227  25.471  24.846  1.00  0.00     0.067 A 
ATOM     12  C   UNL A   1      30.259  29.294  23.093  1.00  0.00     0.046 C 
ATOM     13  C   UNL A   1      31.504  24.231  25.585  1.00  0.00     0.200 A 
ATOM     14  C   UNL A   1      32.278  26.311  24.476  1.00  0.00     0.153 A 
ATOM     15  O   UNL A   1      30.607  23.487  25.958  1.00  0.00    -0.288 OA
ATOM     16  C   UNL A   1      32.905  23.938  25.872  1.00  0.00     0.065 A 
ATOM     17  O   UNL A   1      33.593  25.906  24.603  1.00  0.00    -0.455 OA
ATOM     18  C   UNL A   1      33.256  22.874  26.710  1.00  0.00     0.016 A 
ATOM     19  C   UNL A   1      33.871  24.739  25.278  1.00  0.00     0.138 A 
ATOM     20  C   UNL A   1      34.599  22.586  26.924  1.00  0.00     0.001 A 
ATOM     21  C   UNL A   1      35.212  24.390  25.423  1.00  0.00     0.048 A 
ATOM     22  C   UNL A   1      35.575  23.323  26.254  1.00  0.00     0.004 A 
ENDBRANCH   4   6
ENDBRANCH   3   4
ENDBRANCH   2   3
ENDBRANCH   1   2
BRANCH   1  23
ATOM     23  O   UNL A   1      34.103  29.252  27.609  1.00  0.00    -0.458 OA
BRANCH  23  24
ATOM     24  C   UNL A   1      34.771  30.317  28.109  1.00  0.00     0.338 C 
ATOM     25  O   UNL A   1      34.306  31.401  28.426  1.00  0.00    -0.246 OA
BRANCH  24  26
ATOM     26  C   UNL A   1      36.147  29.898  28.431  1.00  0.00     0.060 A 
ATOM     27  C   UNL A   1      36.508  29.373  29.676  1.00  0.00     0.016 A 
ATOM     28  C   UNL A   1      37.103  30.055  27.429  1.00  0.00     0.016 A 
ATOM     29  C   UNL A   1      37.847  29.046  29.928  1.00  0.00     0.010 A 
ATOM     30  C   UNL A   1      38.429  29.725  27.683  1.00  0.00     0.010 A 
ATOM     31  C   UNL A   1      38.823  29.252  28.940  1.00  0.00    -0.014 A 
BRANCH  31  32
ATOM     32  C   UNL A   1      40.243  28.878  29.135  1.00  0.00     0.031 A 
ATOM     33  C   UNL A   1      41.248  29.848  29.691  1.00  0.00     0.074 A 
ATOM     34  C   UNL A   1      40.653  27.694  28.648  1.00  0.00     0.049 A 
ATOM     35  N   UNL A   1      42.545  29.711  29.828  1.00  0.00    -0.248 NA
ATOM     36  C   UNL A   1      40.740  31.168  30.083  1.00  0.00     0.031 C 
ATOM     37  C   UNL A   1      39.789  26.718  27.984  1.00  0.00     0.029 A 
ATOM     38  N   UNL A   1      41.896  27.123  28.619  1.00  0.00    -0.354 N 
ATOM     39  C   UNL A   1      43.019  30.942  30.270  1.00  0.00     0.074 A 
ATOM     40  C   UNL A   1      41.866  31.817  30.355  1.00  0.00     0.031 C 
ATOM     41  C   UNL A   1      40.526  25.651  27.638  1.00  0.00     0.029 A 
ATOM     42  C   UNL A   1      41.907  25.873  28.054  1.00  0.00     0.049 A 
ATOM     43  H   UNL A   1      42.703  27.564  28.970  1.00  0.00     0.167 HD
ATOM     44  C   UNL A   1      44.297  31.302  30.562  1.00  0.00     0.037 A 
ATOM     45  C   UNL A   1      42.913  24.993  27.917  1.00  0.00     0.037 A 
ATOM     46  C   UNL A   1      45.419  30.389  30.535  1.00  0.00     0.049 A 
ATOM     47  C   UNL A   1      44.280  25.352  28.426  1.00  0.00     0.074 A 
ATOM     48  C   UNL A   1      46.720  30.606  30.964  1.00  0.00     0.029 A 
ATOM     49  N   UNL A   1      45.376  29.086  30.060  1.00  0.00    -0.354 N 
ATOM     50  N   UNL A   1      44.703  26.478  28.945  1.00  0.00    -0.248 NA
ATOM     51  C   UNL A   1      45.303  24.300  28.351  1.00  0.00     0.031 C 
ATOM     52  C   UNL A   1      47.470  29.450  30.714  1.00  0.00     0.029 A 
ATOM     53  C   UNL A   1      46.624  28.491  30.183  1.00  0.00     0.049 A 
ATOM     54  H   UNL A   1      44.576  28.648  29.689  1.00  0.00     0.167 HD
ATOM     55  C   UNL A   1      46.032  26.262  29.284  1.00  0.00     0.074 A 
ATOM     56  C   UNL A   1      46.334  24.889  28.938  1.00  0.00     0.031 C 
ATOM     57  C   UNL A   1      46.924  27.126  29.829  1.00  0.00     0.037 A 
BRANCH  44  58
ATOM     58  C   UNL A   1      44.569  32.734  30.952  1.00  0.00     0.057 A 
ATOM     59  C   UNL A   1      44.429  33.151  32.286  1.00  0.00     0.134 A 
ATOM     60  C   UNL A   1      44.886  33.722  30.011  1.00  0.00     0.134 A 
ATOM     61  F   UNL A   1      44.106  32.271  33.246  1.00  0.00    -0.206 F 
ATOM     62  C   UNL A   1      44.592  34.486  32.663  1.00  0.00     0.040 A 
ATOM     63  C   UNL A   1      45.093  35.054  30.382  1.00  0.00     0.040 A 
ATOM     64  F   UNL A   1      45.024  33.408  28.714  1.00  0.00    -0.206 F 
ATOM     65  C   UNL A   1      44.936  35.441  31.711  1.00  0.00     0.006 A 
ENDBRANCH  44  58
BRANCH  45  66
ATOM     66  C   UNL A   1      42.638  23.644  27.371  1.00  0.00     0.057 A 
ATOM     67  C   UNL A   1      42.294  22.567  28.194  1.00  0.00     0.134 A 
ATOM     68  C   UNL A   1      42.723  23.410  25.993  1.00  0.00     0.134 A 
ATOM     69  F   UNL A   1      42.221  22.725  29.523  1.00  0.00    -0.206 F 
ATOM     70  C   UNL A   1      42.037  21.303  27.662  1.00  0.00     0.040 A 
ATOM     71  C   UNL A   1      42.440  22.161  25.446  1.00  0.00     0.040 A 
ATOM     72  F   UNL A   1      43.043  24.410  25.158  1.00  0.00    -0.206 F 
ATOM     73  C   UNL A   1      42.097  21.101  26.283  1.00  0.00     0.006 A 
ENDBRANCH  45  66
BRANCH  57  74
ATOM     74  C   UNL A   1      48.301  26.593  30.112  1.00  0.00     0.057 A 
ATOM     75  C   UNL A   1      48.587  25.971  31.334  1.00  0.00     0.134 A 
ATOM     76  C   UNL A   1      49.339  26.676  29.174  1.00  0.00     0.134 A 
ATOM     77  F   UNL A   1      47.646  25.864  32.283  1.00  0.00    -0.206 F 
ATOM     78  C   UNL A   1      49.849  25.437  31.606  1.00  0.00     0.040 A 
ATOM     79  C   UNL A   1      50.596  26.118  29.421  1.00  0.00     0.040 A 
ATOM     80  F   UNL A   1      49.132  27.247  27.978  1.00  0.00    -0.206 F 
ATOM     81  C   UNL A   1      50.854  25.499  30.642  1.00  0.00     0.006 A 
ENDBRANCH  57  74
ENDBRANCH  31  32
ENDBRANCH  24  26
ENDBRANCH  23  24
ENDBRANCH   1  23
TORSDOF 11
ENDMDL
MODEL 3
REMARK VINA RESULT:     -12.1      3.585      7.219
REMARK SMILES Cc1cc2c(=O)c3ccccc3oc2c(C(=O)OCCOC(=O)c2ccc(-c3c4nc(c(-c5c(F)cccc5F)c5ccc([nH]5)c(-c5c(F)cccc5F)c5nc(c(-c6c(F)cccc6F)c6ccc3[nH]6)C=C5)C=C4)cc2)c1C
REMARK SMILES IDX 20 1 19 2 18 3 16 4 17 5 15 6 1 7 2 8 3 9 78 10 4 11 79 12
REMARK SMILES IDX 5 13 14 14 6 15 7 16 13 17 8 18 12 19 9 20 11 21 10 22 21 23
REMARK SMILES IDX 22 24 23 25 24 26 25 27 77 28 26 29 76 30 27 31 28 32 29 33
REMARK SMILES IDX 70 34 30 35 75 36 69 37 71 38 31 39 74 40 68 41 67 42 32 44
REMARK SMILES IDX 58 45 41 46 57 47 42 48 45 49 56 50 72 51 43 52 44 53 55 55
REMARK SMILES IDX 73 56 46 57 33 58 34 59 39 60 35 61 36 62 38 63 40 64 37 65
REMARK SMILES IDX 59 66 60 67 65 68 61 69 62 70 64 71 66 72 63 73 47 74 48 75
REMARK SMILES IDX 53 76 49 77 50 78 52 79 54 80 51 81
REMARK H PARENT 71 43 45 54
REMARK Flexibility Score: inf
ROOT
ATOM      1  C   UNL A   1      39.185  19.806  25.315  1.00  0.00     0.275 C 
ENDROOT
BRANCH   1   2
ATOM      2  C   UNL A   1      38.645  21.224  25.516  1.00  0.00     0.275 C 
BRANCH   2   3
ATOM      3  O   UNL A   1      37.214  21.201  25.701  1.00  0.00    -0.458 OA
BRANCH   3   4
ATOM      4  C   UNL A   1      36.415  21.560  24.664  1.00  0.00     0.342 C 
ATOM      5  O   UNL A   1      36.796  22.094  23.636  1.00  0.00    -0.246 OA
BRANCH   4   6
ATOM      6  C   UNL A   1      34.987  21.175  24.946  1.00  0.00     0.106 A 
ATOM      7  C   UNL A   1      32.620  18.120  25.083  1.00  0.00     0.044 C 
ATOM      8  C   UNL A   1      33.171  19.521  25.101  1.00  0.00    -0.046 A 
ATOM      9  C   UNL A   1      32.272  20.562  25.343  1.00  0.00     0.019 A 
ATOM     10  C   UNL A   1      34.537  19.819  24.863  1.00  0.00    -0.030 A 
ATOM     11  C   UNL A   1      32.718  21.877  25.424  1.00  0.00     0.067 A 
ATOM     12  C   UNL A   1      35.479  18.694  24.495  1.00  0.00     0.046 C 
ATOM     13  C   UNL A   1      31.726  22.950  25.585  1.00  0.00     0.200 A 
ATOM     14  C   UNL A   1      34.072  22.194  25.301  1.00  0.00     0.153 A 
ATOM     15  O   UNL A   1      30.527  22.714  25.661  1.00  0.00    -0.288 OA
ATOM     16  C   UNL A   1      32.238  24.316  25.632  1.00  0.00     0.065 A 
ATOM     17  O   UNL A   1      34.528  23.477  25.536  1.00  0.00    -0.455 OA
ATOM     18  C   UNL A   1      31.363  25.408  25.616  1.00  0.00     0.016 A 
ATOM     19  C   UNL A   1      33.613  24.492  25.706  1.00  0.00     0.138 A 
ATOM     20  C   UNL A   1      31.877  26.696  25.714  1.00  0.00     0.001 A 
ATOM     21  C   UNL A   1      34.115  25.778  25.894  1.00  0.00     0.048 A 
ATOM     22  C   UNL A   1      33.248  26.878  25.887  1.00  0.00     0.004 A 
ENDBRANCH   4   6
ENDBRANCH   3   4
ENDBRANCH   2   3
ENDBRANCH   1   2
BRANCH   1  23
ATOM     23  O   UNL A   1      40.140  19.493  26.342  1.00  0.00    -0.458 OA
BRANCH  23  24
ATOM     24  C   UNL A   1      41.429  19.749  26.017  1.00  0.00     0.338 C 
ATOM     25  O   UNL A   1      42.163  19.071  25.315  1.00  0.00    -0.246 OA
BRANCH  24  26
ATOM     26  C   UNL A   1      41.763  21.112  26.464  1.00  0.00     0.060 A 
ATOM     27  C   UNL A   1      42.261  22.093  25.600  1.00  0.00     0.016 A 
ATOM     28  C   UNL A   1      41.570  21.396  27.815  1.00  0.00     0.016 A 
ATOM     29  C   UNL A   1      42.609  23.352  26.108  1.00  0.00     0.010 A 
ATOM     30  C   UNL A   1      41.912  22.648  28.312  1.00  0.00     0.010 A 
ATOM     31  C   UNL A   1      42.465  23.626  27.477  1.00  0.00    -0.014 A 
BRANCH  31  32
ATOM     32  C   UNL A   1      42.769  24.954  28.059  1.00  0.00     0.031 A 
ATOM     33  C   UNL A   1      44.146  25.309  28.544  1.00  0.00     0.074 A 
ATOM     34  C   UNL A   1      41.740  25.786  28.295  1.00  0.00     0.049 A 
ATOM     35  N   UNL A   1      44.553  26.389  29.169  1.00  0.00    -0.248 NA
ATOM     36  C   UNL A   1      45.189  24.294  28.363  1.00  0.00     0.031 C 
ATOM     37  C   UNL A   1      40.342  25.501  27.972  1.00  0.00     0.029 A 
ATOM     38  N   UNL A   1      41.709  27.025  28.877  1.00  0.00    -0.354 N 
ATOM     39  C   UNL A   1      45.884  26.162  29.506  1.00  0.00     0.074 A 
ATOM     40  C   UNL A   1      46.204  24.830  29.031  1.00  0.00     0.031 C 
ATOM     41  C   UNL A   1      39.590  26.552  28.334  1.00  0.00     0.029 A 
ATOM     42  C   UNL A   1      40.453  27.576  28.914  1.00  0.00     0.049 A 
ATOM     43  H   UNL A   1      42.508  27.476  29.232  1.00  0.00     0.167 HD
ATOM     44  C   UNL A   1      46.744  26.987  30.159  1.00  0.00     0.037 A 
ATOM     45  C   UNL A   1      40.051  28.785  29.339  1.00  0.00     0.037 A 
ATOM     46  C   UNL A   1      46.419  28.338  30.561  1.00  0.00     0.049 A 
ATOM     47  C   UNL A   1      41.065  29.750  29.884  1.00  0.00     0.074 A 
ATOM     48  C   UNL A   1      47.260  29.311  31.081  1.00  0.00     0.029 A 
ATOM     49  N   UNL A   1      45.158  28.912  30.483  1.00  0.00    -0.354 N 
ATOM     50  N   UNL A   1      42.345  29.575  30.099  1.00  0.00    -0.248 NA
ATOM     51  C   UNL A   1      40.576  31.094  30.219  1.00  0.00     0.031 C 
ATOM     52  C   UNL A   1      46.501  30.456  31.352  1.00  0.00     0.029 A 
ATOM     53  C   UNL A   1      45.199  30.220  30.947  1.00  0.00     0.049 A 
ATOM     54  H   UNL A   1      44.352  28.457  30.147  1.00  0.00     0.167 HD
ATOM     55  C   UNL A   1      42.820  30.792  30.569  1.00  0.00     0.074 A 
ATOM     56  C   UNL A   1      41.696  31.704  30.578  1.00  0.00     0.031 C 
ATOM     57  C   UNL A   1      44.075  31.122  30.962  1.00  0.00     0.037 A 
BRANCH  44  58
ATOM     58  C   UNL A   1      48.128  26.477  30.476  1.00  0.00     0.057 A 
ATOM     59  C   UNL A   1      49.164  26.586  29.534  1.00  0.00     0.134 A 
ATOM     60  C   UNL A   1      48.426  25.804  31.668  1.00  0.00     0.134 A 
ATOM     61  F   UNL A   1      48.956  27.197  28.357  1.00  0.00    -0.206 F 
ATOM     62  C   UNL A   1      50.433  26.048  29.766  1.00  0.00     0.040 A 
ATOM     63  C   UNL A   1      49.703  25.298  31.930  1.00  0.00     0.040 A 
ATOM     64  F   UNL A   1      47.488  25.646  32.614  1.00  0.00    -0.206 F 
ATOM     65  C   UNL A   1      50.708  25.410  30.973  1.00  0.00     0.006 A 
ENDBRANCH  44  58
BRANCH  45  66
ATOM     66  C   UNL A   1      38.638  29.192  29.161  1.00  0.00     0.057 A 
ATOM     67  C   UNL A   1      37.722  29.176  30.217  1.00  0.00     0.134 A 
ATOM     68  C   UNL A   1      38.176  29.605  27.905  1.00  0.00     0.134 A 
ATOM     69  F   UNL A   1      38.100  28.767  31.437  1.00  0.00    -0.206 F 
ATOM     70  C   UNL A   1      36.395  29.565  30.031  1.00  0.00     0.040 A 
ATOM     71  C   UNL A   1      36.862  30.024  27.712  1.00  0.00     0.040 A 
ATOM     72  F   UNL A   1      39.015  29.645  26.859  1.00  0.00    -0.206 F 
ATOM     73  C   UNL A   1      35.966  30.002  28.777  1.00  0.00     0.006 A 
ENDBRANCH  45  66
BRANCH  57  74
ATOM     74  C   UNL A   1      44.296  32.543  31.404  1.00  0.00     0.057 A 
ATOM     75  C   UNL A   1      44.654  33.530  30.476  1.00  0.00     0.134 A 
ATOM     76  C   UNL A   1      44.139  32.941  32.738  1.00  0.00     0.134 A 
ATOM     77  F   UNL A   1      44.833  33.220  29.184  1.00  0.00    -0.206 F 
ATOM     78  C   UNL A   1      44.832  34.862  30.856  1.00  0.00     0.040 A 
ATOM     79  C   UNL A   1      44.281  34.276  33.125  1.00  0.00     0.040 A 
ATOM     80  F   UNL A   1      43.784  32.051  33.677  1.00  0.00    -0.206 F 
ATOM     81  C   UNL A   1      44.632  35.240  32.183  1.00  0.00     0.006 A 
ENDBRANCH  57  74
ENDBRANCH  31  32
ENDBRANCH  24  26
ENDBRANCH  23  24
ENDBRANCH   1  23
TORSDOF 11
ENDMDL
