MODEL 1
REMARK VINA RESULT:     -11.0      0.000      0.000
REMARK SMILES COc1ccc(COc2cncc(C(=O)OCCOC(=O)c3ccc(-c4c5nc(c(-c6c(F)cccc6F)c6ccc([nH]6)c(-c6c(F)cccc6F)c6nc(c(-c7c(F)cccc7F)c7ccc4[nH]7)C=C6)C=C5)cc3)n2)cc1
REMARK SMILES IDX 17 1 16 2 14 3 15 4 13 5 9 6 10 7 76 8 11 9 12 10 8 11 7 12
REMARK SMILES IDX 6 13 3 14 4 15 78 16 5 17 77 18 2 19 1 20 18 21 19 22 20 23
REMARK SMILES IDX 21 24 22 25 23 26 75 27 24 28 74 29 25 30 26 31 27 32 68 33
REMARK SMILES IDX 28 34 73 35 67 36 69 37 29 38 72 39 66 40 65 41 30 43 56 44
REMARK SMILES IDX 39 45 55 46 40 47 43 48 54 49 70 50 41 51 42 52 53 54 71 55
REMARK SMILES IDX 44 56 31 57 32 58 37 59 33 60 34 61 36 62 38 63 35 64 57 65
REMARK SMILES IDX 58 66 63 67 59 68 60 69 62 70 64 71 61 72 45 73 46 74 51 75
REMARK SMILES IDX 47 76 48 77 50 78 52 79 49 80
REMARK H PARENT 69 42 43 53
REMARK Flexibility Score: inf
ROOT
ATOM      1  C   UNL A   1      46.470  22.327  24.407  1.00  0.00     0.275 C 
ENDROOT
BRANCH   1   2
ATOM      2  O   UNL A   1      45.781  21.323  25.183  1.00  0.00    -0.457 OA
BRANCH   2   3
ATOM      3  C   UNL A   1      44.911  20.562  24.472  1.00  0.00     0.358 C 
ATOM      4  O   UNL A   1      44.926  20.398  23.262  1.00  0.00    -0.244 OA
BRANCH   3   5
ATOM      5  C   UNL A   1      43.967  19.816  25.334  1.00  0.00     0.170 A 
ATOM      6  C   UNL A   1      41.901  19.434  26.231  1.00  0.00     0.233 A 
ATOM      7  C   UNL A   1      42.321  18.151  26.592  1.00  0.00     0.179 A 
ATOM      8  N   UNL A   1      42.723  20.304  25.593  1.00  0.00    -0.203 NA
ATOM      9  N   UNL A   1      43.572  17.691  26.389  1.00  0.00    -0.257 NA
ATOM     10  C   UNL A   1      44.369  18.545  25.723  1.00  0.00     0.147 A 
BRANCH   6  11
ATOM     11  O   UNL A   1      40.585  19.820  26.318  1.00  0.00    -0.472 OA
BRANCH  11  12
ATOM     12  C   UNL A   1      40.394  21.196  26.689  1.00  0.00     0.267 C 
BRANCH  12  13
ATOM     13  C   UNL A   1      39.175  21.822  26.042  1.00  0.00    -0.010 A 
ATOM     14  C   UNL A   1      36.703  22.875  25.207  1.00  0.00     0.118 A 
ATOM     15  C   UNL A   1      37.063  21.566  24.877  1.00  0.00     0.047 A 
ATOM     16  C   UNL A   1      37.596  23.672  25.922  1.00  0.00     0.047 A 
ATOM     17  C   UNL A   1      38.299  21.047  25.269  1.00  0.00     0.011 A 
ATOM     18  C   UNL A   1      38.831  23.152  26.329  1.00  0.00     0.011 A 
BRANCH  14  19
ATOM     19  O   UNL A   1      35.439  23.237  24.831  1.00  0.00    -0.497 OA
ATOM     20  C   UNL A   1      34.631  22.207  24.277  1.00  0.00     0.278 C 
ENDBRANCH  14  19
ENDBRANCH  12  13
ENDBRANCH  11  12
ENDBRANCH   6  11
ENDBRANCH   3   5
ENDBRANCH   2   3
ENDBRANCH   1   2
BRANCH   1  21
ATOM     21  C   UNL A   1      45.852  23.714  24.596  1.00  0.00     0.275 C 
BRANCH  21  22
ATOM     22  O   UNL A   1      44.838  23.695  25.622  1.00  0.00    -0.458 OA
BRANCH  22  23
ATOM     23  C   UNL A   1      43.570  23.864  25.193  1.00  0.00     0.338 C 
ATOM     24  O   UNL A   1      43.025  23.296  24.251  1.00  0.00    -0.246 OA
BRANCH  23  25
ATOM     25  C   UNL A   1      42.834  24.818  26.040  1.00  0.00     0.060 A 
ATOM     26  C   UNL A   1      43.150  26.169  25.973  1.00  0.00     0.016 A 
ATOM     27  C   UNL A   1      41.995  24.357  27.053  1.00  0.00     0.016 A 
ATOM     28  C   UNL A   1      42.787  27.023  27.016  1.00  0.00     0.010 A 
ATOM     29  C   UNL A   1      41.498  25.254  28.010  1.00  0.00     0.010 A 
ATOM     30  C   UNL A   1      41.942  26.590  28.051  1.00  0.00    -0.014 A 
BRANCH  30  31
ATOM     31  C   UNL A   1      41.562  27.509  29.175  1.00  0.00     0.031 A 
ATOM     32  C   UNL A   1      42.370  27.545  30.457  1.00  0.00     0.074 A 
ATOM     33  C   UNL A   1      40.505  28.343  29.065  1.00  0.00     0.049 A 
ATOM     34  N   UNL A   1      42.090  28.127  31.598  1.00  0.00    -0.248 NA
ATOM     35  C   UNL A   1      43.646  26.812  30.466  1.00  0.00     0.031 C 
ATOM     36  C   UNL A   1      39.631  28.461  27.898  1.00  0.00     0.029 A 
ATOM     37  N   UNL A   1      39.996  29.270  29.947  1.00  0.00    -0.354 N 
ATOM     38  C   UNL A   1      43.104  27.762  32.478  1.00  0.00     0.074 A 
ATOM     39  C   UNL A   1      44.012  26.912  31.736  1.00  0.00     0.031 C 
ATOM     40  C   UNL A   1      38.751  29.451  28.100  1.00  0.00     0.029 A 
ATOM     41  C   UNL A   1      38.919  29.967  29.453  1.00  0.00     0.049 A 
ATOM     42  H   UNL A   1      40.368  29.418  30.846  1.00  0.00     0.167 HD
ATOM     43  C   UNL A   1      43.266  28.097  33.781  1.00  0.00     0.037 A 
ATOM     44  C   UNL A   1      38.120  30.887  30.025  1.00  0.00     0.037 A 
ATOM     45  C   UNL A   1      42.425  29.020  34.500  1.00  0.00     0.049 A 
ATOM     46  C   UNL A   1      38.333  31.268  31.460  1.00  0.00     0.074 A 
ATOM     47  C   UNL A   1      42.533  29.442  35.815  1.00  0.00     0.029 A 
ATOM     48  N   UNL A   1      41.339  29.689  33.957  1.00  0.00    -0.354 N 
ATOM     49  N   UNL A   1      39.248  30.848  32.296  1.00  0.00    -0.248 NA
ATOM     50  C   UNL A   1      37.383  32.229  32.038  1.00  0.00     0.031 C 
ATOM     51  C   UNL A   1      41.500  30.348  36.075  1.00  0.00     0.029 A 
ATOM     52  C   UNL A   1      40.769  30.517  34.912  1.00  0.00     0.049 A 
ATOM     53  H   UNL A   1      41.020  29.590  33.031  1.00  0.00     0.167 HD
ATOM     54  C   UNL A   1      38.988  31.492  33.497  1.00  0.00     0.074 A 
ATOM     55  C   UNL A   1      37.843  32.351  33.275  1.00  0.00     0.031 C 
ATOM     56  C   UNL A   1      39.633  31.369  34.682  1.00  0.00     0.037 A 
BRANCH  43  57
ATOM     57  C   UNL A   1      44.385  27.439  34.537  1.00  0.00     0.057 A 
ATOM     58  C   UNL A   1      44.242  26.193  35.155  1.00  0.00     0.134 A 
ATOM     59  C   UNL A   1      45.646  28.050  34.601  1.00  0.00     0.134 A 
ATOM     60  F   UNL A   1      43.061  25.558  35.140  1.00  0.00    -0.206 F 
ATOM     61  C   UNL A   1      45.304  25.586  35.831  1.00  0.00     0.040 A 
ATOM     62  C   UNL A   1      46.722  27.444  35.251  1.00  0.00     0.040 A 
ATOM     63  F   UNL A   1      45.856  29.240  34.020  1.00  0.00    -0.206 F 
ATOM     64  C   UNL A   1      46.551  26.210  35.874  1.00  0.00     0.006 A 
ENDBRANCH  43  57
BRANCH  44  65
ATOM     65  C   UNL A   1      37.010  31.486  29.239  1.00  0.00     0.057 A 
ATOM     66  C   UNL A   1      35.830  30.775  29.000  1.00  0.00     0.134 A 
ATOM     67  C   UNL A   1      37.096  32.788  28.729  1.00  0.00     0.134 A 
ATOM     68  F   UNL A   1      35.699  29.514  29.440  1.00  0.00    -0.206 F 
ATOM     69  C   UNL A   1      34.771  31.337  28.284  1.00  0.00     0.040 A 
ATOM     70  C   UNL A   1      36.035  33.372  28.036  1.00  0.00     0.040 A 
ATOM     71  F   UNL A   1      38.201  33.520  28.926  1.00  0.00    -0.206 F 
ATOM     72  C   UNL A   1      34.870  32.644  27.809  1.00  0.00     0.006 A 
ENDBRANCH  44  65
BRANCH  56  73
ATOM     73  C   UNL A   1      39.130  32.204  35.821  1.00  0.00     0.057 A 
ATOM     74  C   UNL A   1      38.241  31.688  36.772  1.00  0.00     0.134 A 
ATOM     75  C   UNL A   1      39.554  33.529  35.978  1.00  0.00     0.134 A 
ATOM     76  F   UNL A   1      37.786  30.430  36.667  1.00  0.00    -0.206 F 
ATOM     77  C   UNL A   1      37.774  32.469  37.831  1.00  0.00     0.040 A 
ATOM     78  C   UNL A   1      39.109  34.313  37.043  1.00  0.00     0.040 A 
ATOM     79  F   UNL A   1      40.408  34.079  35.103  1.00  0.00    -0.206 F 
ATOM     80  C   UNL A   1      38.213  33.785  37.970  1.00  0.00     0.006 A 
ENDBRANCH  56  73
ENDBRANCH  30  31
ENDBRANCH  23  25
ENDBRANCH  22  23
ENDBRANCH  21  22
ENDBRANCH   1  21
TORSDOF 15
ENDMDL
MODEL 2
REMARK VINA RESULT:     -10.9      5.582     12.168
REMARK SMILES COc1ccc(COc2cncc(C(=O)OCCOC(=O)c3ccc(-c4c5nc(c(-c6c(F)cccc6F)c6ccc([nH]6)c(-c6c(F)cccc6F)c6nc(c(-c7c(F)cccc7F)c7ccc4[nH]7)C=C6)C=C5)cc3)n2)cc1
REMARK SMILES IDX 17 1 16 2 14 3 15 4 13 5 9 6 10 7 76 8 11 9 12 10 8 11 7 12
REMARK SMILES IDX 6 13 3 14 4 15 78 16 5 17 77 18 2 19 1 20 18 21 19 22 20 23
REMARK SMILES IDX 21 24 22 25 23 26 75 27 24 28 74 29 25 30 26 31 27 32 68 33
REMARK SMILES IDX 28 34 73 35 67 36 69 37 29 38 72 39 66 40 65 41 30 43 56 44
REMARK SMILES IDX 39 45 55 46 40 47 43 48 54 49 70 50 41 51 42 52 53 54 71 55
REMARK SMILES IDX 44 56 31 57 32 58 37 59 33 60 34 61 36 62 38 63 35 64 57 65
REMARK SMILES IDX 58 66 63 67 59 68 60 69 62 70 64 71 61 72 45 73 46 74 51 75
REMARK SMILES IDX 47 76 48 77 50 78 52 79 49 80
REMARK H PARENT 69 42 43 53
REMARK Flexibility Score: inf
ROOT
ATOM      1  C   UNL A   1      34.496  35.242  33.359  1.00  0.00     0.275 C 
ENDROOT
BRANCH   1   2
ATOM      2  O   UNL A   1      33.445  34.673  32.548  1.00  0.00    -0.457 OA
BRANCH   2   3
ATOM      3  C   UNL A   1      32.732  35.580  31.835  1.00  0.00     0.358 C 
ATOM      4  O   UNL A   1      31.759  36.201  32.235  1.00  0.00    -0.244 OA
BRANCH   3   5
ATOM      5  C   UNL A   1      33.324  35.859  30.508  1.00  0.00     0.170 A 
ATOM      6  C   UNL A   1      34.212  35.217  28.502  1.00  0.00     0.233 A 
ATOM      7  C   UNL A   1      33.991  36.510  28.018  1.00  0.00     0.179 A 
ATOM      8  N   UNL A   1      33.885  34.861  29.770  1.00  0.00    -0.203 NA
ATOM      9  N   UNL A   1      33.491  37.512  28.768  1.00  0.00    -0.257 NA
ATOM     10  C   UNL A   1      33.136  37.142  30.011  1.00  0.00     0.147 A 
BRANCH   6  11
ATOM     11  O   UNL A   1      34.583  34.184  27.676  1.00  0.00    -0.472 OA
BRANCH  11  12
ATOM     12  C   UNL A   1      35.206  33.078  28.352  1.00  0.00     0.267 C 
BRANCH  12  13
ATOM     13  C   UNL A   1      34.802  31.732  27.786  1.00  0.00    -0.010 A 
ATOM     14  C   UNL A   1      33.960  29.125  27.147  1.00  0.00     0.118 A 
ATOM     15  C   UNL A   1      35.309  29.393  27.390  1.00  0.00     0.047 A 
ATOM     16  C   UNL A   1      33.036  30.168  27.184  1.00  0.00     0.047 A 
ATOM     17  C   UNL A   1      35.735  30.690  27.685  1.00  0.00     0.011 A 
ATOM     18  C   UNL A   1      33.455  31.468  27.492  1.00  0.00     0.011 A 
BRANCH  14  19
ATOM     19  O   UNL A   1      33.663  27.806  26.946  1.00  0.00    -0.497 OA
ATOM     20  C   UNL A   1      32.304  27.507  26.652  1.00  0.00     0.278 C 
ENDBRANCH  14  19
ENDBRANCH  12  13
ENDBRANCH  11  12
ENDBRANCH   6  11
ENDBRANCH   3   5
ENDBRANCH   2   3
ENDBRANCH   1   2
BRANCH   1  21
ATOM     21  C   UNL A   1      35.883  34.870  32.832  1.00  0.00     0.275 C 
BRANCH  21  22
ATOM     22  O   UNL A   1      35.861  33.587  32.173  1.00  0.00    -0.458 OA
BRANCH  22  23
ATOM     23  C   UNL A   1      36.373  32.557  32.880  1.00  0.00     0.338 C 
ATOM     24  O   UNL A   1      36.122  32.262  34.045  1.00  0.00    -0.246 OA
BRANCH  23  25
ATOM     25  C   UNL A   1      37.283  31.737  32.061  1.00  0.00     0.060 A 
ATOM     26  C   UNL A   1      38.085  30.788  32.681  1.00  0.00     0.016 A 
ATOM     27  C   UNL A   1      37.504  32.056  30.723  1.00  0.00     0.016 A 
ATOM     28  C   UNL A   1      39.218  30.299  32.029  1.00  0.00     0.010 A 
ATOM     29  C   UNL A   1      38.549  31.437  30.021  1.00  0.00     0.010 A 
ATOM     30  C   UNL A   1      39.469  30.601  30.680  1.00  0.00    -0.014 A 
BRANCH  30  31
ATOM     31  C   UNL A   1      40.694  30.080  29.987  1.00  0.00     0.031 A 
ATOM     32  C   UNL A   1      41.929  30.945  29.836  1.00  0.00     0.074 A 
ATOM     33  C   UNL A   1      40.735  28.821  29.498  1.00  0.00     0.049 A 
ATOM     34  N   UNL A   1      43.002  30.740  29.111  1.00  0.00    -0.248 NA
ATOM     35  C   UNL A   1      41.952  32.216  30.578  1.00  0.00     0.031 C 
ATOM     36  C   UNL A   1      39.650  27.843  29.574  1.00  0.00     0.029 A 
ATOM     37  N   UNL A   1      41.742  28.139  28.854  1.00  0.00    -0.354 N 
ATOM     38  C   UNL A   1      43.781  31.885  29.241  1.00  0.00     0.074 A 
ATOM     39  C   UNL A   1      43.062  32.780  30.122  1.00  0.00     0.031 C 
ATOM     40  C   UNL A   1      40.072  26.672  29.077  1.00  0.00     0.029 A 
ATOM     41  C   UNL A   1      41.417  26.841  28.541  1.00  0.00     0.049 A 
ATOM     42  H   UNL A   1      42.613  28.544  28.638  1.00  0.00     0.167 HD
ATOM     43  C   UNL A   1      44.982  32.170  28.679  1.00  0.00     0.037 A 
ATOM     44  C   UNL A   1      42.094  25.895  27.863  1.00  0.00     0.037 A 
ATOM     45  C   UNL A   1      45.753  31.248  27.882  1.00  0.00     0.049 A 
ATOM     46  C   UNL A   1      43.435  26.219  27.274  1.00  0.00     0.074 A 
ATOM     47  C   UNL A   1      46.993  31.442  27.298  1.00  0.00     0.029 A 
ATOM     48  N   UNL A   1      45.371  29.950  27.583  1.00  0.00    -0.354 N 
ATOM     49  N   UNL A   1      44.115  27.335  27.340  1.00  0.00    -0.248 NA
ATOM     50  C   UNL A   1      44.087  25.160  26.491  1.00  0.00     0.031 C 
ATOM     51  C   UNL A   1      47.354  30.269  26.627  1.00  0.00     0.029 A 
ATOM     52  C   UNL A   1      46.352  29.333  26.822  1.00  0.00     0.049 A 
ATOM     53  H   UNL A   1      44.529  29.529  27.870  1.00  0.00     0.167 HD
ATOM     54  C   UNL A   1      45.275  27.115  26.611  1.00  0.00     0.074 A 
ATOM     55  C   UNL A   1      45.218  25.750  26.131  1.00  0.00     0.031 C 
ATOM     56  C   UNL A   1      46.289  27.975  26.352  1.00  0.00     0.037 A 
BRANCH  43  57
ATOM     57  C   UNL A   1      45.536  33.552  28.878  1.00  0.00     0.057 A 
ATOM     58  C   UNL A   1      46.411  33.867  29.923  1.00  0.00     0.134 A 
ATOM     59  C   UNL A   1      45.221  34.573  27.970  1.00  0.00     0.134 A 
ATOM     60  F   UNL A   1      46.746  32.940  30.832  1.00  0.00    -0.206 F 
ATOM     61  C   UNL A   1      46.936  35.153  30.073  1.00  0.00     0.040 A 
ATOM     62  C   UNL A   1      45.758  35.856  28.094  1.00  0.00     0.040 A 
ATOM     63  F   UNL A   1      44.398  34.337  26.938  1.00  0.00    -0.206 F 
ATOM     64  C   UNL A   1      46.614  36.150  29.152  1.00  0.00     0.006 A 
ENDBRANCH  43  57
BRANCH  44  65
ATOM     65  C   UNL A   1      41.487  24.552  27.672  1.00  0.00     0.057 A 
ATOM     66  C   UNL A   1      41.886  23.462  28.451  1.00  0.00     0.134 A 
ATOM     67  C   UNL A   1      40.480  24.335  26.722  1.00  0.00     0.134 A 
ATOM     68  F   UNL A   1      42.865  23.602  29.358  1.00  0.00    -0.206 F 
ATOM     69  C   UNL A   1      41.306  22.202  28.296  1.00  0.00     0.040 A 
ATOM     70  C   UNL A   1      39.872  23.088  26.576  1.00  0.00     0.040 A 
ATOM     71  F   UNL A   1      40.054  25.341  25.945  1.00  0.00    -0.206 F 
ATOM     72  C   UNL A   1      40.287  22.017  27.363  1.00  0.00     0.006 A 
ENDBRANCH  44  65
BRANCH  56  73
ATOM     73  C   UNL A   1      47.431  27.454  25.532  1.00  0.00     0.057 A 
ATOM     74  C   UNL A   1      48.515  26.792  26.120  1.00  0.00     0.134 A 
ATOM     75  C   UNL A   1      47.436  27.602  24.140  1.00  0.00     0.134 A 
ATOM     76  F   UNL A   1      48.575  26.634  27.451  1.00  0.00    -0.206 F 
ATOM     77  C   UNL A   1      49.577  26.310  25.352  1.00  0.00     0.040 A 
ATOM     78  C   UNL A   1      48.483  27.107  23.360  1.00  0.00     0.040 A 
ATOM     79  F   UNL A   1      46.424  28.223  23.517  1.00  0.00    -0.206 F 
ATOM     80  C   UNL A   1      49.559  26.464  23.967  1.00  0.00     0.006 A 
ENDBRANCH  56  73
ENDBRANCH  30  31
ENDBRANCH  23  25
ENDBRANCH  22  23
ENDBRANCH  21  22
ENDBRANCH   1  21
TORSDOF 15
ENDMDL
MODEL 3
REMARK VINA RESULT:     -10.8      1.426      3.136
REMARK SMILES COc1ccc(COc2cncc(C(=O)OCCOC(=O)c3ccc(-c4c5nc(c(-c6c(F)cccc6F)c6ccc([nH]6)c(-c6c(F)cccc6F)c6nc(c(-c7c(F)cccc7F)c7ccc4[nH]7)C=C6)C=C5)cc3)n2)cc1
REMARK SMILES IDX 17 1 16 2 14 3 15 4 13 5 9 6 10 7 76 8 11 9 12 10 8 11 7 12
REMARK SMILES IDX 6 13 3 14 4 15 78 16 5 17 77 18 2 19 1 20 18 21 19 22 20 23
REMARK SMILES IDX 21 24 22 25 23 26 75 27 24 28 74 29 25 30 26 31 27 32 68 33
REMARK SMILES IDX 28 34 73 35 67 36 69 37 29 38 72 39 66 40 65 41 30 43 56 44
REMARK SMILES IDX 39 45 55 46 40 47 43 48 54 49 70 50 41 51 42 52 53 54 71 55
REMARK SMILES IDX 44 56 31 57 32 58 37 59 33 60 34 61 36 62 38 63 35 64 57 65
REMARK SMILES IDX 58 66 63 67 59 68 60 69 62 70 64 71 61 72 45 73 46 74 51 75
REMARK SMILES IDX 47 76 48 77 50 78 52 79 49 80
REMARK H PARENT 69 42 43 53
REMARK Flexibility Score: inf
ROOT
ATOM      1  C   UNL A   1      42.950  21.073  26.165  1.00  0.00     0.275 C 
ENDROOT
BRANCH   1   2
ATOM      2  O   UNL A   1      41.602  20.831  25.707  1.00  0.00    -0.457 OA
BRANCH   2   3
ATOM      3  C   UNL A   1      40.646  21.006  26.654  1.00  0.00     0.358 C 
ATOM      4  O   UNL A   1      40.748  20.718  27.836  1.00  0.00    -0.244 OA
BRANCH   3   5
ATOM      5  C   UNL A   1      39.453  21.716  26.139  1.00  0.00     0.170 A 
ATOM      6  C   UNL A   1      37.384  21.778  25.173  1.00  0.00     0.233 A 
ATOM      7  C   UNL A   1      37.233  23.088  25.635  1.00  0.00     0.179 A 
ATOM      8  N   UNL A   1      38.508  21.058  25.413  1.00  0.00    -0.203 NA
ATOM      9  N   UNL A   1      38.194  23.758  26.302  1.00  0.00    -0.257 NA
ATOM     10  C   UNL A   1      39.290  23.027  26.568  1.00  0.00     0.147 A 
BRANCH   6  11
ATOM     11  O   UNL A   1      36.338  21.074  24.626  1.00  0.00    -0.472 OA
BRANCH  11  12
ATOM     12  C   UNL A   1      35.141  21.073  25.424  1.00  0.00     0.267 C 
BRANCH  12  13
ATOM     13  C   UNL A   1      33.941  21.641  24.695  1.00  0.00    -0.010 A 
ATOM     14  C   UNL A   1      31.779  23.054  23.577  1.00  0.00     0.118 A 
ATOM     15  C   UNL A   1      31.584  22.217  24.678  1.00  0.00     0.047 A 
ATOM     16  C   UNL A   1      33.048  23.155  23.009  1.00  0.00     0.047 A 
ATOM     17  C   UNL A   1      32.650  21.496  25.222  1.00  0.00     0.011 A 
ATOM     18  C   UNL A   1      34.123  22.445  23.558  1.00  0.00     0.011 A 
BRANCH  14  19
ATOM     19  O   UNL A   1      30.675  23.761  23.189  1.00  0.00    -0.497 OA
ATOM     20  C   UNL A   1      30.488  25.024  23.814  1.00  0.00     0.278 C 
ENDBRANCH  14  19
ENDBRANCH  12  13
ENDBRANCH  11  12
ENDBRANCH   6  11
ENDBRANCH   3   5
ENDBRANCH   2   3
ENDBRANCH   1   2
BRANCH   1  21
ATOM     21  C   UNL A   1      43.780  21.817  25.117  1.00  0.00     0.275 C 
BRANCH  21  22
ATOM     22  O   UNL A   1      43.147  23.055  24.736  1.00  0.00    -0.458 OA
BRANCH  22  23
ATOM     23  C   UNL A   1      43.832  24.179  25.037  1.00  0.00     0.338 C 
ATOM     24  O   UNL A   1      44.946  24.497  24.633  1.00  0.00    -0.246 OA
BRANCH  23  25
ATOM     25  C   UNL A   1      43.051  25.070  25.913  1.00  0.00     0.060 A 
ATOM     26  C   UNL A   1      43.245  26.443  25.831  1.00  0.00     0.016 A 
ATOM     27  C   UNL A   1      42.298  24.543  26.961  1.00  0.00     0.016 A 
ATOM     28  C   UNL A   1      42.853  27.267  26.888  1.00  0.00     0.010 A 
ATOM     29  C   UNL A   1      41.765  25.398  27.936  1.00  0.00     0.010 A 
ATOM     30  C   UNL A   1      42.092  26.767  27.957  1.00  0.00    -0.014 A 
BRANCH  30  31
ATOM     31  C   UNL A   1      41.681  27.655  29.095  1.00  0.00     0.031 A 
ATOM     32  C   UNL A   1      42.482  27.692  30.381  1.00  0.00     0.074 A 
ATOM     33  C   UNL A   1      40.601  28.460  28.994  1.00  0.00     0.049 A 
ATOM     34  N   UNL A   1      42.180  28.246  31.531  1.00  0.00    -0.248 NA
ATOM     35  C   UNL A   1      43.778  26.997  30.384  1.00  0.00     0.031 C 
ATOM     36  C   UNL A   1      39.729  28.572  27.825  1.00  0.00     0.029 A 
ATOM     37  N   UNL A   1      40.060  29.356  29.889  1.00  0.00    -0.354 N 
ATOM     38  C   UNL A   1      43.200  27.895  32.409  1.00  0.00     0.074 A 
ATOM     39  C   UNL A   1      44.136  27.086  31.658  1.00  0.00     0.031 C 
ATOM     40  C   UNL A   1      38.819  29.533  28.039  1.00  0.00     0.029 A 
ATOM     41  C   UNL A   1      38.966  30.029  29.402  1.00  0.00     0.049 A 
ATOM     42  H   UNL A   1      40.424  29.500  30.792  1.00  0.00     0.167 HD
ATOM     43  C   UNL A   1      43.347  28.213  33.719  1.00  0.00     0.037 A 
ATOM     44  C   UNL A   1      38.137  30.916  29.985  1.00  0.00     0.037 A 
ATOM     45  C   UNL A   1      42.475  29.098  34.450  1.00  0.00     0.049 A 
ATOM     46  C   UNL A   1      38.333  31.278  31.428  1.00  0.00     0.074 A 
ATOM     47  C   UNL A   1      42.565  29.500  35.772  1.00  0.00     0.029 A 
ATOM     48  N   UNL A   1      41.372  29.744  33.913  1.00  0.00    -0.354 N 
ATOM     49  N   UNL A   1      39.256  30.870  32.261  1.00  0.00    -0.248 NA
ATOM     50  C   UNL A   1      37.352  32.201  32.017  1.00  0.00     0.031 C 
ATOM     51  C   UNL A   1      41.505  30.371  36.043  1.00  0.00     0.029 A 
ATOM     52  C   UNL A   1      40.774  30.539  34.878  1.00  0.00     0.049 A 
ATOM     53  H   UNL A   1      41.061  29.652  32.984  1.00  0.00     0.167 HD
ATOM     54  C   UNL A   1      38.971  31.486  33.472  1.00  0.00     0.074 A 
ATOM     55  C   UNL A   1      37.803  32.315  33.259  1.00  0.00     0.031 C 
ATOM     56  C   UNL A   1      39.615  31.362  34.657  1.00  0.00     0.037 A 
BRANCH  43  57
ATOM     57  C   UNL A   1      44.480  27.575  34.469  1.00  0.00     0.057 A 
ATOM     58  C   UNL A   1      45.727  28.193  34.615  1.00  0.00     0.134 A 
ATOM     59  C   UNL A   1      44.297  26.337  35.101  1.00  0.00     0.134 A 
ATOM     60  F   UNL A   1      45.972  29.375  34.029  1.00  0.00    -0.206 F 
ATOM     61  C   UNL A   1      46.760  27.594  35.340  1.00  0.00     0.040 A 
ATOM     62  C   UNL A   1      45.313  25.738  35.850  1.00  0.00     0.040 A 
ATOM     63  F   UNL A   1      43.123  25.694  35.013  1.00  0.00    -0.206 F 
ATOM     64  C   UNL A   1      46.550  26.365  35.966  1.00  0.00     0.006 A 
ENDBRANCH  43  57
BRANCH  44  65
ATOM     65  C   UNL A   1      37.014  31.496  29.204  1.00  0.00     0.057 A 
ATOM     66  C   UNL A   1      35.851  30.759  28.958  1.00  0.00     0.134 A 
ATOM     67  C   UNL A   1      37.069  32.804  28.707  1.00  0.00     0.134 A 
ATOM     68  F   UNL A   1      35.751  29.491  29.384  1.00  0.00    -0.206 F 
ATOM     69  C   UNL A   1      34.780  31.302  28.245  1.00  0.00     0.040 A 
ATOM     70  C   UNL A   1      35.995  33.369  28.019  1.00  0.00     0.040 A 
ATOM     71  F   UNL A   1      38.156  33.561  28.913  1.00  0.00    -0.206 F 
ATOM     72  C   UNL A   1      34.848  32.616  27.784  1.00  0.00     0.006 A 
ENDBRANCH  44  65
BRANCH  56  73
ATOM     73  C   UNL A   1      39.082  32.161  35.808  1.00  0.00     0.057 A 
ATOM     74  C   UNL A   1      39.452  33.496  36.008  1.00  0.00     0.134 A 
ATOM     75  C   UNL A   1      38.177  31.594  36.714  1.00  0.00     0.134 A 
ATOM     76  F   UNL A   1      40.327  34.091  35.184  1.00  0.00    -0.206 F 
ATOM     77  C   UNL A   1      38.954  34.237  37.082  1.00  0.00     0.040 A 
ATOM     78  C   UNL A   1      37.659  32.330  37.780  1.00  0.00     0.040 A 
ATOM     79  F   UNL A   1      37.781  30.320  36.573  1.00  0.00    -0.206 F 
ATOM     80  C   UNL A   1      38.051  33.653  37.969  1.00  0.00     0.006 A 
ENDBRANCH  56  73
ENDBRANCH  30  31
ENDBRANCH  23  25
ENDBRANCH  22  23
ENDBRANCH  21  22
ENDBRANCH   1  21
TORSDOF 15
ENDMDL
