MODEL 1
REMARK VINA RESULT:     -12.0      0.000      0.000
REMARK SMILES CC(C)(C)OC(=O)N1CCN(c2nc3ccccc3s2)[C@H](C(=O)OCCOC(=O)c2ccc(-c3c4nc(c(-c5c(F)cccc5F)c5ccc([nH]5)c(-c5c(F)cccc5F)c5nc(c(-c6c(F)cccc6F)c6ccc3[nH]6)C=C5)C=C4)cc2)C1
REMARK SMILES IDX 25 1 24 2 22 3 23 4 21 5 8 6 9 7 84 8 10 9 11 10 6 11 7 12
REMARK SMILES IDX 5 13 2 14 1 15 3 16 4 17 12 18 13 19 20 20 14 21 19 22 15 23
REMARK SMILES IDX 18 24 16 25 17 26 26 27 27 28 28 29 29 30 30 31 31 32 83 33
REMARK SMILES IDX 32 34 82 35 33 36 34 37 35 38 76 39 36 40 81 41 75 42 77 43
REMARK SMILES IDX 37 44 80 45 74 46 73 47 38 49 64 50 47 51 63 52 48 53 51 54
REMARK SMILES IDX 62 55 78 56 49 57 50 58 61 60 79 61 52 62 39 63 40 64 45 65
REMARK SMILES IDX 41 66 42 67 44 68 46 69 43 70 65 71 66 72 71 73 67 74 68 75
REMARK SMILES IDX 70 76 72 77 69 78 53 79 54 80 59 81 55 82 56 83 58 84 60 85
REMARK SMILES IDX 57 86
REMARK H PARENT 77 48 51 59
REMARK Flexibility Score: inf
ROOT
ATOM      1  C   UNL A   1      32.745  29.638  26.439  1.00  0.00     0.274 C 
ENDROOT
BRANCH   1   2
ATOM      2  O   UNL A   1      33.126  28.267  26.739  1.00  0.00    -0.460 OA
BRANCH   2   3
ATOM      3  C   UNL A   1      32.072  27.433  26.916  1.00  0.00     0.330 C 
ATOM      4  O   UNL A   1      31.219  27.620  27.786  1.00  0.00    -0.250 OA
BRANCH   3   5
ATOM      5  C   UNL A   1      32.062  26.152  26.103  1.00  0.00     0.214 C 
ATOM      6  N   UNL A   1      33.382  24.123  25.604  1.00  0.00    -0.304 N 
ATOM      7  C   UNL A   1      32.539  23.842  24.430  1.00  0.00     0.144 C 
ATOM      8  C   UNL A   1      33.460  25.532  26.031  1.00  0.00     0.160 C 
ATOM      9  C   UNL A   1      31.151  24.518  24.519  1.00  0.00     0.141 C 
ATOM     10  N   UNL A   1      31.337  25.948  24.813  1.00  0.00    -0.331 N 
BRANCH   6  11
ATOM     11  C   UNL A   1      34.173  23.123  26.120  1.00  0.00     0.410 C 
ATOM     12  O   UNL A   1      34.323  22.965  27.332  1.00  0.00    -0.224 OA
BRANCH  11  13
ATOM     13  O   UNL A   1      34.809  22.396  25.164  1.00  0.00    -0.444 OA
BRANCH  13  14
ATOM     14  C   UNL A   1      36.217  22.636  24.866  1.00  0.00     0.106 C 
ATOM     15  C   UNL A   1      36.279  23.005  23.374  1.00  0.00     0.056 C 
ATOM     16  C   UNL A   1      37.002  21.342  25.089  1.00  0.00     0.056 C 
ATOM     17  C   UNL A   1      36.824  23.814  25.648  1.00  0.00     0.056 C 
ENDBRANCH  13  14
ENDBRANCH  11  13
ENDBRANCH   6  11
BRANCH  10  18
ATOM     18  C   UNL A   1      30.711  26.852  24.010  1.00  0.00     0.187 A 
ATOM     19  N   UNL A   1      29.396  26.946  23.910  1.00  0.00    -0.220 NA
ATOM     20  S   UNL A   1      31.534  27.757  22.779  1.00  0.00    -0.097 S 
ATOM     21  C   UNL A   1      29.042  28.063  23.153  1.00  0.00     0.084 A 
ATOM     22  C   UNL A   1      30.094  28.681  22.487  1.00  0.00     0.056 A 
ATOM     23  C   UNL A   1      27.768  28.670  23.058  1.00  0.00     0.030 A 
ATOM     24  C   UNL A   1      29.904  29.897  21.795  1.00  0.00     0.021 A 
ATOM     25  C   UNL A   1      27.572  29.898  22.436  1.00  0.00     0.002 A 
ATOM     26  C   UNL A   1      28.642  30.515  21.822  1.00  0.00     0.002 A 
ENDBRANCH  10  18
ENDBRANCH   3   5
ENDBRANCH   2   3
ENDBRANCH   1   2
BRANCH   1  27
ATOM     27  C   UNL A   1      33.426  30.657  27.362  1.00  0.00     0.275 C 
BRANCH  27  28
ATOM     28  O   UNL A   1      34.871  30.626  27.199  1.00  0.00    -0.458 OA
BRANCH  28  29
ATOM     29  C   UNL A   1      35.506  30.605  28.391  1.00  0.00     0.338 C 
ATOM     30  O   UNL A   1      35.117  31.236  29.361  1.00  0.00    -0.246 OA
BRANCH  29  31
ATOM     31  C   UNL A   1      36.720  29.777  28.534  1.00  0.00     0.060 A 
ATOM     32  C   UNL A   1      37.248  29.492  29.799  1.00  0.00     0.016 A 
ATOM     33  C   UNL A   1      37.564  29.723  27.425  1.00  0.00     0.016 A 
ATOM     34  C   UNL A   1      38.625  29.298  29.982  1.00  0.00     0.010 A 
ATOM     35  C   UNL A   1      38.930  29.458  27.598  1.00  0.00     0.010 A 
ATOM     36  C   UNL A   1      39.490  29.315  28.884  1.00  0.00    -0.014 A 
BRANCH  36  37
ATOM     37  C   UNL A   1      40.917  28.922  29.020  1.00  0.00     0.031 A 
ATOM     38  C   UNL A   1      42.075  29.867  29.185  1.00  0.00     0.074 A 
ATOM     39  C   UNL A   1      41.155  27.623  28.798  1.00  0.00     0.049 A 
ATOM     40  N   UNL A   1      43.294  29.770  28.710  1.00  0.00    -0.248 NA
ATOM     41  C   UNL A   1      41.843  31.093  29.950  1.00  0.00     0.031 C 
ATOM     42  C   UNL A   1      40.121  26.597  28.676  1.00  0.00     0.029 A 
ATOM     43  N   UNL A   1      42.331  26.968  28.573  1.00  0.00    -0.354 N 
ATOM     44  C   UNL A   1      43.909  30.998  28.963  1.00  0.00     0.074 A 
ATOM     45  C   UNL A   1      42.923  31.809  29.645  1.00  0.00     0.031 C 
ATOM     46  C   UNL A   1      40.702  25.442  28.342  1.00  0.00     0.029 A 
ATOM     47  C   UNL A   1      42.130  25.674  28.175  1.00  0.00     0.049 A 
ATOM     48  H   UNL A   1      43.219  27.378  28.685  1.00  0.00     0.167 HD
ATOM     49  C   UNL A   1      45.178  31.379  28.654  1.00  0.00     0.037 A 
ATOM     50  C   UNL A   1      42.994  24.782  27.671  1.00  0.00     0.037 A 
ATOM     51  C   UNL A   1      46.205  30.433  28.259  1.00  0.00     0.049 A 
ATOM     52  C   UNL A   1      44.428  25.160  27.528  1.00  0.00     0.074 A 
ATOM     53  C   UNL A   1      47.568  30.643  28.133  1.00  0.00     0.029 A 
ATOM     54  N   UNL A   1      45.989  29.086  28.001  1.00  0.00    -0.354 N 
ATOM     55  N   UNL A   1      44.986  26.338  27.662  1.00  0.00    -0.248 NA
ATOM     56  C   UNL A   1      45.356  24.076  27.198  1.00  0.00     0.031 C 
ATOM     57  C   UNL A   1      48.172  29.432  27.773  1.00  0.00     0.029 A 
ATOM     58  C   UNL A   1      47.193  28.454  27.725  1.00  0.00     0.049 A 
ATOM     59  H   UNL A   1      45.109  28.644  28.012  1.00  0.00     0.167 HD
ATOM     60  C   UNL A   1      46.341  26.137  27.450  1.00  0.00     0.074 A 
ATOM     61  C   UNL A   1      46.515  24.719  27.200  1.00  0.00     0.031 C 
ATOM     62  C   UNL A   1      47.348  27.045  27.463  1.00  0.00     0.037 A 
BRANCH  49  63
ATOM     63  C   UNL A   1      45.579  32.840  28.730  1.00  0.00     0.057 A 
ATOM     64  C   UNL A   1      46.170  33.437  29.850  1.00  0.00     0.134 A 
ATOM     65  C   UNL A   1      45.460  33.650  27.583  1.00  0.00     0.134 A 
ATOM     66  F   UNL A   1      46.367  32.734  30.975  1.00  0.00    -0.206 F 
ATOM     67  C   UNL A   1      46.579  34.777  29.846  1.00  0.00     0.040 A 
ATOM     68  C   UNL A   1      45.910  34.975  27.550  1.00  0.00     0.040 A 
ATOM     69  F   UNL A   1      44.936  33.156  26.449  1.00  0.00    -0.206 F 
ATOM     70  C   UNL A   1      46.460  35.548  28.691  1.00  0.00     0.006 A 
ENDBRANCH  49  63
BRANCH  50  71
ATOM     71  C   UNL A   1      42.473  23.439  27.352  1.00  0.00     0.057 A 
ATOM     72  C   UNL A   1      42.309  23.057  26.018  1.00  0.00     0.134 A 
ATOM     73  C   UNL A   1      42.328  22.459  28.342  1.00  0.00     0.134 A 
ATOM     74  F   UNL A   1      42.459  23.959  25.037  1.00  0.00    -0.206 F 
ATOM     75  C   UNL A   1      42.024  21.739  25.674  1.00  0.00     0.040 A 
ATOM     76  C   UNL A   1      42.066  21.131  28.009  1.00  0.00     0.040 A 
ATOM     77  F   UNL A   1      42.527  22.763  29.633  1.00  0.00    -0.206 F 
ATOM     78  C   UNL A   1      41.917  20.769  26.671  1.00  0.00     0.006 A 
ENDBRANCH  50  71
BRANCH  62  79
ATOM     79  C   UNL A   1      48.730  26.514  27.219  1.00  0.00     0.057 A 
ATOM     80  C   UNL A   1      49.282  26.459  25.933  1.00  0.00     0.134 A 
ATOM     81  C   UNL A   1      49.515  26.046  28.281  1.00  0.00     0.134 A 
ATOM     82  F   UNL A   1      48.575  26.878  24.873  1.00  0.00    -0.206 F 
ATOM     83  C   UNL A   1      50.550  25.923  25.706  1.00  0.00     0.040 A 
ATOM     84  C   UNL A   1      50.795  25.534  28.071  1.00  0.00     0.040 A 
ATOM     85  F   UNL A   1      49.049  26.076  29.539  1.00  0.00    -0.206 F 
ATOM     86  C   UNL A   1      51.312  25.462  26.778  1.00  0.00     0.006 A 
ENDBRANCH  62  79
ENDBRANCH  36  37
ENDBRANCH  29  31
ENDBRANCH  28  29
ENDBRANCH  27  28
ENDBRANCH   1  27
TORSDOF 15
ENDMDL
MODEL 2
REMARK VINA RESULT:     -11.8      4.684      9.461
REMARK SMILES CC(C)(C)OC(=O)N1CCN(c2nc3ccccc3s2)[C@H](C(=O)OCCOC(=O)c2ccc(-c3c4nc(c(-c5c(F)cccc5F)c5ccc([nH]5)c(-c5c(F)cccc5F)c5nc(c(-c6c(F)cccc6F)c6ccc3[nH]6)C=C5)C=C4)cc2)C1
REMARK SMILES IDX 25 1 24 2 22 3 23 4 21 5 8 6 9 7 84 8 10 9 11 10 6 11 7 12
REMARK SMILES IDX 5 13 2 14 1 15 3 16 4 17 12 18 13 19 20 20 14 21 19 22 15 23
REMARK SMILES IDX 18 24 16 25 17 26 26 27 27 28 28 29 29 30 30 31 31 32 83 33
REMARK SMILES IDX 32 34 82 35 33 36 34 37 35 38 76 39 36 40 81 41 75 42 77 43
REMARK SMILES IDX 37 44 80 45 74 46 73 47 38 49 64 50 47 51 63 52 48 53 51 54
REMARK SMILES IDX 62 55 78 56 49 57 50 58 61 60 79 61 52 62 39 63 40 64 45 65
REMARK SMILES IDX 41 66 42 67 44 68 46 69 43 70 65 71 66 72 71 73 67 74 68 75
REMARK SMILES IDX 70 76 72 77 69 78 53 79 54 80 59 81 55 82 56 83 58 84 60 85
REMARK SMILES IDX 57 86
REMARK H PARENT 77 48 51 59
REMARK Flexibility Score: inf
ROOT
ATOM      1  C   UNL A   1      36.046  22.893  24.275  1.00  0.00     0.274 C 
ENDROOT
BRANCH   1   2
ATOM      2  O   UNL A   1      35.520  24.105  23.670  1.00  0.00    -0.460 OA
BRANCH   2   3
ATOM      3  C   UNL A   1      34.264  23.971  23.177  1.00  0.00     0.330 C 
ATOM      4  O   UNL A   1      34.029  23.930  21.967  1.00  0.00    -0.250 OA
BRANCH   3   5
ATOM      5  C   UNL A   1      33.121  24.034  24.173  1.00  0.00     0.214 C 
ATOM      6  N   UNL A   1      32.180  25.393  26.010  1.00  0.00    -0.304 N 
ATOM      7  C   UNL A   1      31.320  24.271  26.423  1.00  0.00     0.144 C 
ATOM      8  C   UNL A   1      33.418  25.038  25.290  1.00  0.00     0.160 C 
ATOM      9  C   UNL A   1      31.078  23.256  25.282  1.00  0.00     0.141 C 
ATOM     10  N   UNL A   1      32.377  22.858  24.716  1.00  0.00    -0.331 N 
BRANCH   6  11
ATOM     11  C   UNL A   1      31.893  26.661  26.457  1.00  0.00     0.410 C 
ATOM     12  O   UNL A   1      30.980  26.885  27.253  1.00  0.00    -0.224 OA
BRANCH  11  13
ATOM     13  O   UNL A   1      32.664  27.620  25.882  1.00  0.00    -0.444 OA
BRANCH  13  14
ATOM     14  C   UNL A   1      32.102  28.519  24.880  1.00  0.00     0.106 C 
ATOM     15  C   UNL A   1      33.209  28.735  23.833  1.00  0.00     0.056 C 
ATOM     16  C   UNL A   1      31.777  29.861  25.540  1.00  0.00     0.056 C 
ATOM     17  C   UNL A   1      30.887  27.938  24.137  1.00  0.00     0.056 C 
ENDBRANCH  13  14
ENDBRANCH  11  13
ENDBRANCH   6  11
BRANCH  10  18
ATOM     18  C   UNL A   1      32.645  21.527  24.608  1.00  0.00     0.187 A 
ATOM     19  N   UNL A   1      32.045  20.734  23.738  1.00  0.00    -0.220 NA
ATOM     20  S   UNL A   1      33.547  20.641  25.797  1.00  0.00    -0.097 S 
ATOM     21  C   UNL A   1      32.638  19.471  23.736  1.00  0.00     0.084 A 
ATOM     22  C   UNL A   1      33.537  19.242  24.772  1.00  0.00     0.056 A 
ATOM     23  C   UNL A   1      32.488  18.451  22.769  1.00  0.00     0.030 A 
ATOM     24  C   UNL A   1      34.310  18.060  24.818  1.00  0.00     0.021 A 
ATOM     25  C   UNL A   1      33.283  17.309  22.760  1.00  0.00     0.002 A 
ATOM     26  C   UNL A   1      34.201  17.126  23.773  1.00  0.00     0.002 A 
ENDBRANCH  10  18
ENDBRANCH   3   5
ENDBRANCH   2   3
ENDBRANCH   1   2
BRANCH   1  27
ATOM     27  C   UNL A   1      36.673  23.143  25.653  1.00  0.00     0.275 C 
BRANCH  27  28
ATOM     28  O   UNL A   1      37.774  24.089  25.562  1.00  0.00    -0.458 OA
BRANCH  28  29
ATOM     29  C   UNL A   1      38.875  23.634  26.199  1.00  0.00     0.338 C 
ATOM     30  O   UNL A   1      39.323  22.512  26.031  1.00  0.00    -0.246 OA
BRANCH  29  31
ATOM     31  C   UNL A   1      39.576  24.537  27.135  1.00  0.00     0.060 A 
ATOM     32  C   UNL A   1      39.143  24.671  28.459  1.00  0.00     0.016 A 
ATOM     33  C   UNL A   1      40.312  25.572  26.559  1.00  0.00     0.016 A 
ATOM     34  C   UNL A   1      39.314  25.876  29.157  1.00  0.00     0.010 A 
ATOM     35  C   UNL A   1      40.545  26.751  27.281  1.00  0.00     0.010 A 
ATOM     36  C   UNL A   1      39.986  26.946  28.561  1.00  0.00    -0.014 A 
BRANCH  36  37
ATOM     37  C   UNL A   1      40.350  28.159  29.339  1.00  0.00     0.031 A 
ATOM     38  C   UNL A   1      41.441  28.244  30.371  1.00  0.00     0.074 A 
ATOM     39  C   UNL A   1      39.497  29.181  29.199  1.00  0.00     0.049 A 
ATOM     40  N   UNL A   1      41.468  28.931  31.489  1.00  0.00    -0.248 NA
ATOM     41  C   UNL A   1      42.643  27.440  30.151  1.00  0.00     0.031 C 
ATOM     42  C   UNL A   1      38.432  29.245  28.198  1.00  0.00     0.029 A 
ATOM     43  N   UNL A   1      39.355  30.320  29.937  1.00  0.00    -0.354 N 
ATOM     44  C   UNL A   1      42.600  28.500  32.183  1.00  0.00     0.074 A 
ATOM     45  C   UNL A   1      43.231  27.503  31.344  1.00  0.00     0.031 C 
ATOM     46  C   UNL A   1      37.705  30.343  28.417  1.00  0.00     0.029 A 
ATOM     47  C   UNL A   1      38.224  31.013  29.602  1.00  0.00     0.049 A 
ATOM     48  H   UNL A   1      39.993  30.609  30.630  1.00  0.00     0.167 HD
ATOM     49  C   UNL A   1      43.050  28.921  33.396  1.00  0.00     0.037 A 
ATOM     50  C   UNL A   1      37.631  32.047  30.216  1.00  0.00     0.037 A 
ATOM     51  C   UNL A   1      42.561  30.127  34.036  1.00  0.00     0.049 A 
ATOM     52  C   UNL A   1      38.257  32.622  31.438  1.00  0.00     0.074 A 
ATOM     53  C   UNL A   1      43.074  30.785  35.142  1.00  0.00     0.029 A 
ATOM     54  N   UNL A   1      41.494  30.890  33.584  1.00  0.00    -0.354 N 
ATOM     55  N   UNL A   1      39.254  32.156  32.151  1.00  0.00    -0.248 NA
ATOM     56  C   UNL A   1      37.696  33.885  31.922  1.00  0.00     0.031 C 
ATOM     57  C   UNL A   1      42.303  31.930  35.374  1.00  0.00     0.029 A 
ATOM     58  C   UNL A   1      41.339  32.015  34.382  1.00  0.00     0.049 A 
ATOM     59  H   UNL A   1      40.929  30.667  32.810  1.00  0.00     0.167 HD
ATOM     60  C   UNL A   1      39.457  33.081  33.163  1.00  0.00     0.074 A 
ATOM     61  C   UNL A   1      38.489  34.142  32.953  1.00  0.00     0.031 C 
ATOM     62  C   UNL A   1      40.362  33.053  34.171  1.00  0.00     0.037 A 
BRANCH  49  63
ATOM     63  C   UNL A   1      44.120  28.135  34.130  1.00  0.00     0.057 A 
ATOM     64  C   UNL A   1      43.865  27.020  34.936  1.00  0.00     0.134 A 
ATOM     65  C   UNL A   1      45.477  28.458  33.926  1.00  0.00     0.134 A 
ATOM     66  F   UNL A   1      42.607  26.607  35.153  1.00  0.00    -0.206 F 
ATOM     67  C   UNL A   1      44.897  26.291  35.542  1.00  0.00     0.040 A 
ATOM     68  C   UNL A   1      46.518  27.709  34.485  1.00  0.00     0.040 A 
ATOM     69  F   UNL A   1      45.822  29.492  33.141  1.00  0.00    -0.206 F 
ATOM     70  C   UNL A   1      46.229  26.628  35.309  1.00  0.00     0.006 A 
ENDBRANCH  49  63
BRANCH  50  71
ATOM     71  C   UNL A   1      36.415  32.600  29.588  1.00  0.00     0.057 A 
ATOM     72  C   UNL A   1      35.166  32.362  30.168  1.00  0.00     0.134 A 
ATOM     73  C   UNL A   1      36.491  33.527  28.543  1.00  0.00     0.134 A 
ATOM     74  F   UNL A   1      35.051  31.496  31.186  1.00  0.00    -0.206 F 
ATOM     75  C   UNL A   1      34.028  33.034  29.733  1.00  0.00     0.040 A 
ATOM     76  C   UNL A   1      35.364  34.225  28.114  1.00  0.00     0.040 A 
ATOM     77  F   UNL A   1      37.675  33.830  27.988  1.00  0.00    -0.206 F 
ATOM     78  C   UNL A   1      34.128  33.980  28.713  1.00  0.00     0.006 A 
ENDBRANCH  50  71
BRANCH  62  79
ATOM     79  C   UNL A   1      40.354  34.225  35.109  1.00  0.00     0.057 A 
ATOM     80  C   UNL A   1      41.113  35.375  34.858  1.00  0.00     0.134 A 
ATOM     81  C   UNL A   1      39.583  34.199  36.279  1.00  0.00     0.134 A 
ATOM     82  F   UNL A   1      41.884  35.454  33.763  1.00  0.00    -0.206 F 
ATOM     83  C   UNL A   1      41.138  36.443  35.756  1.00  0.00     0.040 A 
ATOM     84  C   UNL A   1      39.577  35.273  37.170  1.00  0.00     0.040 A 
ATOM     85  F   UNL A   1      38.828  33.132  36.575  1.00  0.00    -0.206 F 
ATOM     86  C   UNL A   1      40.364  36.394  36.914  1.00  0.00     0.006 A 
ENDBRANCH  62  79
ENDBRANCH  36  37
ENDBRANCH  29  31
ENDBRANCH  28  29
ENDBRANCH  27  28
ENDBRANCH   1  27
TORSDOF 15
ENDMDL
MODEL 3
REMARK VINA RESULT:     -11.8      3.682      6.982
REMARK SMILES CC(C)(C)OC(=O)N1CCN(c2nc3ccccc3s2)[C@H](C(=O)OCCOC(=O)c2ccc(-c3c4nc(c(-c5c(F)cccc5F)c5ccc([nH]5)c(-c5c(F)cccc5F)c5nc(c(-c6c(F)cccc6F)c6ccc3[nH]6)C=C5)C=C4)cc2)C1
REMARK SMILES IDX 25 1 24 2 22 3 23 4 21 5 8 6 9 7 84 8 10 9 11 10 6 11 7 12
REMARK SMILES IDX 5 13 2 14 1 15 3 16 4 17 12 18 13 19 20 20 14 21 19 22 15 23
REMARK SMILES IDX 18 24 16 25 17 26 26 27 27 28 28 29 29 30 30 31 31 32 83 33
REMARK SMILES IDX 32 34 82 35 33 36 34 37 35 38 76 39 36 40 81 41 75 42 77 43
REMARK SMILES IDX 37 44 80 45 74 46 73 47 38 49 64 50 47 51 63 52 48 53 51 54
REMARK SMILES IDX 62 55 78 56 49 57 50 58 61 60 79 61 52 62 39 63 40 64 45 65
REMARK SMILES IDX 41 66 42 67 44 68 46 69 43 70 65 71 66 72 71 73 67 74 68 75
REMARK SMILES IDX 70 76 72 77 69 78 53 79 54 80 59 81 55 82 56 83 58 84 60 85
REMARK SMILES IDX 57 86
REMARK H PARENT 77 48 51 59
REMARK Flexibility Score: inf
ROOT
ATOM      1  C   UNL A   1      31.693  28.360  26.732  1.00  0.00     0.274 C 
ENDROOT
BRANCH   1   2
ATOM      2  O   UNL A   1      32.566  27.227  26.470  1.00  0.00    -0.460 OA
BRANCH   2   3
ATOM      3  C   UNL A   1      31.903  26.085  26.162  1.00  0.00     0.330 C 
ATOM      4  O   UNL A   1      31.190  25.494  26.976  1.00  0.00    -0.250 OA
BRANCH   3   5
ATOM      5  C   UNL A   1      32.198  25.458  24.812  1.00  0.00     0.214 C 
ATOM      6  N   UNL A   1      33.945  24.273  23.528  1.00  0.00    -0.304 N 
ATOM      7  C   UNL A   1      33.217  24.525  22.272  1.00  0.00     0.144 C 
ATOM      8  C   UNL A   1      33.700  25.225  24.627  1.00  0.00     0.160 C 
ATOM      9  C   UNL A   1      31.713  24.798  22.502  1.00  0.00     0.141 C 
ATOM     10  N   UNL A   1      31.571  25.855  23.515  1.00  0.00    -0.331 N 
BRANCH   6  11
ATOM     11  C   UNL A   1      34.923  23.307  23.557  1.00  0.00     0.410 C 
ATOM     12  O   UNL A   1      35.900  23.339  22.808  1.00  0.00    -0.224 OA
BRANCH  11  13
ATOM     13  O   UNL A   1      34.658  22.303  24.434  1.00  0.00    -0.444 OA
BRANCH  13  14
ATOM     14  C   UNL A   1      35.523  22.080  25.587  1.00  0.00     0.106 C 
ATOM     15  C   UNL A   1      36.441  20.904  25.210  1.00  0.00     0.056 C 
ATOM     16  C   UNL A   1      34.663  21.672  26.785  1.00  0.00     0.056 C 
ATOM     17  C   UNL A   1      36.434  23.274  25.919  1.00  0.00     0.056 C 
ENDBRANCH  13  14
ENDBRANCH  11  13
ENDBRANCH   6  11
BRANCH  10  18
ATOM     18  C   UNL A   1      30.783  26.925  23.216  1.00  0.00     0.187 A 
ATOM     19  N   UNL A   1      29.463  26.877  23.215  1.00  0.00    -0.220 NA
ATOM     20  S   UNL A   1      31.392  28.376  22.483  1.00  0.00    -0.097 S 
ATOM     21  C   UNL A   1      28.926  28.152  23.042  1.00  0.00     0.084 A 
ATOM     22  C   UNL A   1      29.843  29.133  22.680  1.00  0.00     0.056 A 
ATOM     23  C   UNL A   1      27.593  28.563  23.270  1.00  0.00     0.030 A 
ATOM     24  C   UNL A   1      29.465  30.491  22.602  1.00  0.00     0.021 A 
ATOM     25  C   UNL A   1      27.213  29.902  23.260  1.00  0.00     0.002 A 
ATOM     26  C   UNL A   1      28.153  30.861  22.944  1.00  0.00     0.002 A 
ENDBRANCH  10  18
ENDBRANCH   3   5
ENDBRANCH   2   3
ENDBRANCH   1   2
BRANCH   1  27
ATOM     27  C   UNL A   1      31.931  29.527  25.765  1.00  0.00     0.275 C 
BRANCH  27  28
ATOM     28  O   UNL A   1      33.272  30.069  25.921  1.00  0.00    -0.458 OA
BRANCH  28  29
ATOM     29  C   UNL A   1      33.327  30.983  26.914  1.00  0.00     0.338 C 
ATOM     30  O   UNL A   1      32.471  31.837  27.078  1.00  0.00    -0.246 OA
BRANCH  29  31
ATOM     31  C   UNL A   1      34.469  30.944  27.851  1.00  0.00     0.060 A 
ATOM     32  C   UNL A   1      35.356  32.024  27.943  1.00  0.00     0.016 A 
ATOM     33  C   UNL A   1      34.906  29.678  28.238  1.00  0.00     0.016 A 
ATOM     34  C   UNL A   1      36.703  31.826  28.278  1.00  0.00     0.010 A 
ATOM     35  C   UNL A   1      36.236  29.491  28.642  1.00  0.00     0.010 A 
ATOM     36  C   UNL A   1      37.169  30.547  28.597  1.00  0.00    -0.014 A 
BRANCH  36  37
ATOM     37  C   UNL A   1      38.536  30.338  29.140  1.00  0.00     0.031 A 
ATOM     38  C   UNL A   1      39.577  29.415  28.567  1.00  0.00     0.074 A 
ATOM     39  C   UNL A   1      38.749  30.906  30.334  1.00  0.00     0.049 A 
ATOM     40  N   UNL A   1      40.468  28.684  29.194  1.00  0.00    -0.248 NA
ATOM     41  C   UNL A   1      39.612  29.258  27.112  1.00  0.00     0.031 C 
ATOM     42  C   UNL A   1      37.845  31.862  30.972  1.00  0.00     0.029 A 
ATOM     43  N   UNL A   1      39.752  30.712  31.237  1.00  0.00    -0.354 N 
ATOM     44  C   UNL A   1      41.039  27.853  28.228  1.00  0.00     0.074 A 
ATOM     45  C   UNL A   1      40.394  28.189  26.976  1.00  0.00     0.031 C 
ATOM     46  C   UNL A   1      38.305  32.134  32.196  1.00  0.00     0.029 A 
ATOM     47  C   UNL A   1      39.494  31.326  32.432  1.00  0.00     0.049 A 
ATOM     48  H   UNL A   1      40.567  30.191  31.051  1.00  0.00     0.167 HD
ATOM     49  C   UNL A   1      42.012  26.918  28.397  1.00  0.00     0.037 A 
ATOM     50  C   UNL A   1      40.114  31.210  33.615  1.00  0.00     0.037 A 
ATOM     51  C   UNL A   1      42.829  26.847  29.593  1.00  0.00     0.049 A 
ATOM     52  C   UNL A   1      41.308  30.326  33.725  1.00  0.00     0.074 A 
ATOM     53  C   UNL A   1      43.981  26.107  29.808  1.00  0.00     0.029 A 
ATOM     54  N   UNL A   1      42.623  27.596  30.743  1.00  0.00    -0.354 N 
ATOM     55  N   UNL A   1      41.780  29.467  32.856  1.00  0.00    -0.248 NA
ATOM     56  C   UNL A   1      42.075  30.423  34.969  1.00  0.00     0.031 C 
ATOM     57  C   UNL A   1      44.454  26.386  31.095  1.00  0.00     0.029 A 
ATOM     58  C   UNL A   1      43.628  27.341  31.666  1.00  0.00     0.049 A 
ATOM     59  H   UNL A   1      41.873  28.217  30.884  1.00  0.00     0.167 HD
ATOM     60  C   UNL A   1      42.916  28.928  33.438  1.00  0.00     0.074 A 
ATOM     61  C   UNL A   1      43.068  29.578  34.727  1.00  0.00     0.031 C 
ATOM     62  C   UNL A   1      43.756  27.984  32.950  1.00  0.00     0.037 A 
BRANCH  49  63
ATOM     63  C   UNL A   1      42.297  25.903  27.305  1.00  0.00     0.057 A 
ATOM     64  C   UNL A   1      43.227  26.093  26.277  1.00  0.00     0.134 A 
ATOM     65  C   UNL A   1      41.679  24.637  27.361  1.00  0.00     0.134 A 
ATOM     66  F   UNL A   1      43.899  27.248  26.168  1.00  0.00    -0.206 F 
ATOM     67  C   UNL A   1      43.498  25.096  25.329  1.00  0.00     0.040 A 
ATOM     68  C   UNL A   1      41.977  23.617  26.451  1.00  0.00     0.040 A 
ATOM     69  F   UNL A   1      40.797  24.350  28.332  1.00  0.00    -0.206 F 
ATOM     70  C   UNL A   1      42.880  23.850  25.420  1.00  0.00     0.006 A 
ENDBRANCH  49  63
BRANCH  50  71
ATOM     71  C   UNL A   1      39.607  32.033  34.730  1.00  0.00     0.057 A 
ATOM     72  C   UNL A   1      40.000  33.369  34.841  1.00  0.00     0.134 A 
ATOM     73  C   UNL A   1      38.583  31.574  35.568  1.00  0.00     0.134 A 
ATOM     74  F   UNL A   1      40.963  33.855  34.044  1.00  0.00    -0.206 F 
ATOM     75  C   UNL A   1      39.386  34.230  35.745  1.00  0.00     0.040 A 
ATOM     76  C   UNL A   1      37.943  32.432  36.461  1.00  0.00     0.040 A 
ATOM     77  F   UNL A   1      38.133  30.314  35.464  1.00  0.00    -0.206 F 
ATOM     78  C   UNL A   1      38.344  33.765  36.548  1.00  0.00     0.006 A 
ENDBRANCH  50  71
BRANCH  62  79
ATOM     79  C   UNL A   1      44.928  27.619  33.814  1.00  0.00     0.057 A 
ATOM     80  C   UNL A   1      46.146  28.306  33.733  1.00  0.00     0.134 A 
ATOM     81  C   UNL A   1      44.838  26.565  34.733  1.00  0.00     0.134 A 
ATOM     82  F   UNL A   1      46.299  29.314  32.862  1.00  0.00    -0.206 F 
ATOM     83  C   UNL A   1      47.245  27.934  34.506  1.00  0.00     0.040 A 
ATOM     84  C   UNL A   1      45.922  26.202  35.533  1.00  0.00     0.040 A 
ATOM     85  F   UNL A   1      43.698  25.871  34.866  1.00  0.00    -0.206 F 
ATOM     86  C   UNL A   1      47.133  26.881  35.413  1.00  0.00     0.006 A 
ENDBRANCH  62  79
ENDBRANCH  36  37
ENDBRANCH  29  31
ENDBRANCH  28  29
ENDBRANCH  27  28
ENDBRANCH   1  27
TORSDOF 15
ENDMDL
