MODEL 1
REMARK VINA RESULT:     -11.8      0.000      0.000
REMARK SMILES Cc1ccc([C@@H](C)Nc2ccc(N)cc2C(=O)OCCOC(=O)c2ccc(-c3c4nc(c(-c5c(F)cccc5F)c5ccc([nH]5)c(-c5c(F)cccc5F)c5nc(c(-c6c(F)cccc6F)c6ccc3[nH]6)C=C5)C=C4)cc2)cc1F
REMARK SMILES IDX 19 1 18 2 16 3 17 4 15 5 9 6 10 7 11 8 14 9 12 10 8 11 6 13
REMARK SMILES IDX 7 14 5 15 1 16 2 17 3 18 79 19 4 20 78 21 80 22 13 23 20 26
REMARK SMILES IDX 21 27 22 28 23 29 24 30 25 31 77 32 26 33 76 34 27 35 28 36
REMARK SMILES IDX 29 37 70 38 30 39 75 40 69 41 71 42 31 43 74 44 68 45 67 46
REMARK SMILES IDX 32 48 58 49 41 50 57 51 42 52 45 53 56 54 72 55 43 56 44 57
REMARK SMILES IDX 55 59 73 60 46 61 33 62 34 63 39 64 35 65 36 66 38 67 40 68
REMARK SMILES IDX 37 69 59 70 60 71 65 72 61 73 62 74 64 75 66 76 63 77 47 78
REMARK SMILES IDX 48 79 53 80 49 81 50 82 52 83 54 84 51 85
REMARK H PARENT 8 12 13 24 13 25 71 47 45 58
REMARK Flexibility Score: inf
ROOT
ATOM      1  C   UNL A   1      33.066  30.435  27.237  1.00  0.00     0.275 C 
ENDROOT
BRANCH   1   2
ATOM      2  O   UNL A   1      33.066  29.235  26.429  1.00  0.00    -0.458 OA
BRANCH   2   3
ATOM      3  C   UNL A   1      32.011  28.385  26.599  1.00  0.00     0.340 C 
ATOM      4  O   UNL A   1      31.488  28.106  27.653  1.00  0.00    -0.246 OA
BRANCH   3   5
ATOM      5  C   UNL A   1      31.484  27.913  25.291  1.00  0.00     0.085 A 
ATOM      6  C   UNL A   1      30.962  26.642  25.018  1.00  0.00     0.049 A 
ATOM      7  C   UNL A   1      30.472  26.459  23.698  1.00  0.00     0.029 A 
ATOM      8  C   UNL A   1      30.504  27.450  22.711  1.00  0.00     0.027 A 
ATOM      9  C   UNL A   1      31.501  28.919  24.282  1.00  0.00     0.043 A 
ATOM     10  C   UNL A   1      31.048  28.690  22.985  1.00  0.00     0.032 A 
BRANCH   6  11
ATOM     11  N   UNL A   1      30.758  25.557  25.843  1.00  0.00    -0.378 N 
ATOM     12  H   UNL A   1      30.420  25.838  26.725  1.00  0.00     0.161 HD
BRANCH  11  13
ATOM     13  C   UNL A   1      30.905  24.104  25.771  1.00  0.00     0.106 C 
ATOM     14  C   UNL A   1      30.176  23.333  26.870  1.00  0.00     0.036 C 
BRANCH  13  15
ATOM     15  C   UNL A   1      32.287  23.653  25.299  1.00  0.00    -0.023 A 
ATOM     16  C   UNL A   1      36.174  22.974  23.478  1.00  0.00     0.047 C 
ATOM     17  C   UNL A   1      34.828  23.164  24.107  1.00  0.00    -0.015 A 
ATOM     18  C   UNL A   1      33.674  22.576  23.585  1.00  0.00     0.007 A 
ATOM     19  C   UNL A   1      34.704  23.955  25.243  1.00  0.00     0.126 A 
ATOM     20  C   UNL A   1      32.421  22.827  24.168  1.00  0.00     0.006 A 
ATOM     21  C   UNL A   1      33.466  24.189  25.842  1.00  0.00     0.045 A 
ATOM     22  F   UNL A   1      35.790  24.562  25.740  1.00  0.00    -0.207 F 
ENDBRANCH  13  15
ENDBRANCH  11  13
ENDBRANCH   6  11
BRANCH  10  23
ATOM     23  N   UNL A   1      31.014  29.698  22.037  1.00  0.00    -0.399 N 
ATOM     24  H   UNL A   1      31.853  30.116  21.734  1.00  0.00     0.156 HD
ATOM     25  H   UNL A   1      30.153  29.996  21.667  1.00  0.00     0.156 HD
ENDBRANCH  10  23
ENDBRANCH   3   5
ENDBRANCH   2   3
ENDBRANCH   1   2
BRANCH   1  26
ATOM     26  C   UNL A   1      34.462  30.808  27.712  1.00  0.00     0.275 C 
BRANCH  26  27
ATOM     27  O   UNL A   1      34.388  31.587  28.911  1.00  0.00    -0.458 OA
BRANCH  27  28
ATOM     28  C   UNL A   1      34.686  32.885  28.689  1.00  0.00     0.338 C 
ATOM     29  O   UNL A   1      34.645  33.472  27.616  1.00  0.00    -0.246 OA
BRANCH  28  30
ATOM     30  C   UNL A   1      35.380  33.482  29.848  1.00  0.00     0.060 A 
ATOM     31  C   UNL A   1      36.493  34.210  29.394  1.00  0.00     0.016 A 
ATOM     32  C   UNL A   1      35.532  32.485  30.816  1.00  0.00     0.016 A 
ATOM     33  C   UNL A   1      37.729  33.593  29.448  1.00  0.00     0.010 A 
ATOM     34  C   UNL A   1      36.754  31.858  30.870  1.00  0.00     0.010 A 
ATOM     35  C   UNL A   1      37.819  32.372  30.118  1.00  0.00    -0.014 A 
BRANCH  35  36
ATOM     36  C   UNL A   1      39.083  31.713  30.334  1.00  0.00     0.031 A 
ATOM     37  C   UNL A   1      39.228  30.406  29.684  1.00  0.00     0.074 A 
ATOM     38  C   UNL A   1      40.092  32.287  31.013  1.00  0.00     0.049 A 
ATOM     39  N   UNL A   1      40.007  29.470  30.094  1.00  0.00    -0.248 NA
ATOM     40  C   UNL A   1      38.396  30.024  28.543  1.00  0.00     0.031 C 
ATOM     41  C   UNL A   1      41.496  31.908  30.969  1.00  0.00     0.029 A 
ATOM     42  N   UNL A   1      40.023  33.233  32.022  1.00  0.00    -0.354 N 
ATOM     43  C   UNL A   1      40.049  28.543  29.081  1.00  0.00     0.074 A 
ATOM     44  C   UNL A   1      38.918  28.838  28.235  1.00  0.00     0.031 C 
ATOM     45  C   UNL A   1      42.126  32.446  32.025  1.00  0.00     0.029 A 
ATOM     46  C   UNL A   1      41.114  33.028  32.885  1.00  0.00     0.049 A 
ATOM     47  H   UNL A   1      39.332  33.927  32.119  1.00  0.00     0.167 HD
ATOM     48  C   UNL A   1      41.164  27.774  28.939  1.00  0.00     0.037 A 
ATOM     49  C   UNL A   1      40.907  32.665  34.191  1.00  0.00     0.037 A 
ATOM     50  C   UNL A   1      42.146  28.076  29.981  1.00  0.00     0.049 A 
ATOM     51  C   UNL A   1      41.390  31.278  34.547  1.00  0.00     0.074 A 
ATOM     52  C   UNL A   1      43.285  28.865  30.024  1.00  0.00     0.029 A 
ATOM     53  N   UNL A   1      41.815  27.835  31.303  1.00  0.00    -0.354 N 
ATOM     54  N   UNL A   1      41.895  30.435  33.691  1.00  0.00    -0.248 NA
ATOM     55  C   UNL A   1      41.268  30.701  35.883  1.00  0.00     0.031 C 
ATOM     56  C   UNL A   1      43.663  29.040  31.385  1.00  0.00     0.029 A 
ATOM     57  C   UNL A   1      42.758  28.354  32.170  1.00  0.00     0.049 A 
ATOM     58  H   UNL A   1      41.008  27.351  31.591  1.00  0.00     0.167 HD
ATOM     59  C   UNL A   1      42.111  29.227  34.298  1.00  0.00     0.074 A 
ATOM     60  C   UNL A   1      41.698  29.444  35.672  1.00  0.00     0.031 C 
ATOM     61  C   UNL A   1      42.574  28.145  33.599  1.00  0.00     0.037 A 
BRANCH  48  62
ATOM     62  C   UNL A   1      41.468  27.040  27.659  1.00  0.00     0.057 A 
ATOM     63  C   UNL A   1      41.382  25.639  27.595  1.00  0.00     0.134 A 
ATOM     64  C   UNL A   1      41.911  27.651  26.471  1.00  0.00     0.134 A 
ATOM     65  F   UNL A   1      40.860  24.917  28.593  1.00  0.00    -0.206 F 
ATOM     66  C   UNL A   1      41.830  24.900  26.494  1.00  0.00     0.040 A 
ATOM     67  C   UNL A   1      42.418  26.924  25.384  1.00  0.00     0.040 A 
ATOM     68  F   UNL A   1      41.827  28.977  26.292  1.00  0.00    -0.206 F 
ATOM     69  C   UNL A   1      42.393  25.538  25.402  1.00  0.00     0.006 A 
ENDBRANCH  48  62
BRANCH  49  70
ATOM     70  C   UNL A   1      39.707  33.329  34.765  1.00  0.00     0.057 A 
ATOM     71  C   UNL A   1      38.553  32.535  34.854  1.00  0.00     0.134 A 
ATOM     72  C   UNL A   1      39.855  34.378  35.682  1.00  0.00     0.134 A 
ATOM     73  F   UNL A   1      38.349  31.537  33.979  1.00  0.00    -0.206 F 
ATOM     74  C   UNL A   1      37.713  32.622  35.958  1.00  0.00     0.040 A 
ATOM     75  C   UNL A   1      38.993  34.491  36.773  1.00  0.00     0.040 A 
ATOM     76  F   UNL A   1      40.922  35.187  35.628  1.00  0.00    -0.206 F 
ATOM     77  C   UNL A   1      37.958  33.573  36.941  1.00  0.00     0.006 A 
ENDBRANCH  49  70
BRANCH  61  78
ATOM     78  C   UNL A   1      42.840  26.774  34.178  1.00  0.00     0.057 A 
ATOM     79  C   UNL A   1      44.083  26.132  34.119  1.00  0.00     0.134 A 
ATOM     80  C   UNL A   1      41.806  25.996  34.752  1.00  0.00     0.134 A 
ATOM     81  F   UNL A   1      45.113  26.666  33.446  1.00  0.00    -0.206 F 
ATOM     82  C   UNL A   1      44.313  24.880  34.707  1.00  0.00     0.040 A 
ATOM     83  C   UNL A   1      42.010  24.730  35.301  1.00  0.00     0.040 A 
ATOM     84  F   UNL A   1      40.536  26.417  34.817  1.00  0.00    -0.206 F 
ATOM     85  C   UNL A   1      43.277  24.178  35.310  1.00  0.00     0.006 A 
ENDBRANCH  61  78
ENDBRANCH  35  36
ENDBRANCH  28  30
ENDBRANCH  27  28
ENDBRANCH  26  27
ENDBRANCH   1  26
TORSDOF 15
ENDMDL
MODEL 2
REMARK VINA RESULT:     -11.7      1.645      3.270
REMARK SMILES Cc1ccc([C@@H](C)Nc2ccc(N)cc2C(=O)OCCOC(=O)c2ccc(-c3c4nc(c(-c5c(F)cccc5F)c5ccc([nH]5)c(-c5c(F)cccc5F)c5nc(c(-c6c(F)cccc6F)c6ccc3[nH]6)C=C5)C=C4)cc2)cc1F
REMARK SMILES IDX 19 1 18 2 16 3 17 4 15 5 9 6 10 7 11 8 14 9 12 10 8 11 6 13
REMARK SMILES IDX 7 14 5 15 1 16 2 17 3 18 79 19 4 20 78 21 80 22 13 23 20 26
REMARK SMILES IDX 21 27 22 28 23 29 24 30 25 31 77 32 26 33 76 34 27 35 28 36
REMARK SMILES IDX 29 37 70 38 30 39 75 40 69 41 71 42 31 43 74 44 68 45 67 46
REMARK SMILES IDX 32 48 58 49 41 50 57 51 42 52 45 53 56 54 72 55 43 56 44 57
REMARK SMILES IDX 55 59 73 60 46 61 33 62 34 63 39 64 35 65 36 66 38 67 40 68
REMARK SMILES IDX 37 69 59 70 60 71 65 72 61 73 62 74 64 75 66 76 63 77 47 78
REMARK SMILES IDX 48 79 53 80 49 81 50 82 52 83 54 84 51 85
REMARK H PARENT 8 12 13 24 13 25 71 47 45 58
REMARK Flexibility Score: inf
ROOT
ATOM      1  C   UNL A   1      33.918  28.640  27.245  1.00  0.00     0.275 C 
ENDROOT
BRANCH   1   2
ATOM      2  O   UNL A   1      34.046  27.824  26.057  1.00  0.00    -0.458 OA
BRANCH   2   3
ATOM      3  C   UNL A   1      33.252  26.716  25.989  1.00  0.00     0.340 C 
ATOM      4  O   UNL A   1      32.110  26.636  26.379  1.00  0.00    -0.246 OA
BRANCH   3   5
ATOM      5  C   UNL A   1      33.927  25.614  25.254  1.00  0.00     0.085 A 
ATOM      6  C   UNL A   1      33.774  25.311  23.894  1.00  0.00     0.049 A 
ATOM      7  C   UNL A   1      34.574  24.239  23.419  1.00  0.00     0.029 A 
ATOM      8  C   UNL A   1      35.454  23.507  24.224  1.00  0.00     0.027 A 
ATOM      9  C   UNL A   1      34.834  24.871  26.062  1.00  0.00     0.043 A 
ATOM     10  C   UNL A   1      35.574  23.798  25.570  1.00  0.00     0.032 A 
BRANCH   6  11
ATOM     11  N   UNL A   1      33.040  25.937  22.909  1.00  0.00    -0.378 N 
ATOM     12  H   UNL A   1      32.576  25.281  22.339  1.00  0.00     0.161 HD
BRANCH  11  13
ATOM     13  C   UNL A   1      32.760  27.306  22.478  1.00  0.00     0.106 C 
ATOM     14  C   UNL A   1      33.946  28.263  22.583  1.00  0.00     0.036 C 
BRANCH  13  15
ATOM     15  C   UNL A   1      31.352  27.781  22.831  1.00  0.00    -0.023 A 
ATOM     16  C   UNL A   1      27.155  28.871  23.135  1.00  0.00     0.047 C 
ATOM     17  C   UNL A   1      28.613  28.533  23.053  1.00  0.00    -0.015 A 
ATOM     18  C   UNL A   1      29.556  29.427  22.543  1.00  0.00     0.007 A 
ATOM     19  C   UNL A   1      29.057  27.289  23.485  1.00  0.00     0.126 A 
ATOM     20  C   UNL A   1      30.904  29.052  22.424  1.00  0.00     0.006 A 
ATOM     21  C   UNL A   1      30.398  26.917  23.394  1.00  0.00     0.045 A 
ATOM     22  F   UNL A   1      28.166  26.398  23.941  1.00  0.00    -0.207 F 
ENDBRANCH  13  15
ENDBRANCH  11  13
ENDBRANCH   6  11
BRANCH  10  23
ATOM     23  N   UNL A   1      36.496  23.128  26.354  1.00  0.00    -0.399 N 
ATOM     24  H   UNL A   1      36.189  22.472  27.022  1.00  0.00     0.156 HD
ATOM     25  H   UNL A   1      37.457  23.308  26.245  1.00  0.00     0.156 HD
ENDBRANCH  10  23
ENDBRANCH   3   5
ENDBRANCH   2   3
ENDBRANCH   1   2
BRANCH   1  26
ATOM     26  C   UNL A   1      34.601  29.990  27.091  1.00  0.00     0.275 C 
BRANCH  26  27
ATOM     27  O   UNL A   1      34.770  30.611  28.370  1.00  0.00    -0.458 OA
BRANCH  27  28
ATOM     28  C   UNL A   1      34.215  31.841  28.411  1.00  0.00     0.338 C 
ATOM     29  O   UNL A   1      33.394  32.300  27.628  1.00  0.00    -0.246 OA
BRANCH  28  30
ATOM     30  C   UNL A   1      34.938  32.726  29.348  1.00  0.00     0.060 A 
ATOM     31  C   UNL A   1      35.930  33.430  28.643  1.00  0.00     0.016 A 
ATOM     32  C   UNL A   1      35.272  31.972  30.477  1.00  0.00     0.016 A 
ATOM     33  C   UNL A   1      37.222  32.943  28.695  1.00  0.00     0.010 A 
ATOM     34  C   UNL A   1      36.551  31.473  30.531  1.00  0.00     0.010 A 
ATOM     35  C   UNL A   1      37.492  31.903  29.585  1.00  0.00    -0.014 A 
BRANCH  35  36
ATOM     36  C   UNL A   1      38.830  31.411  29.800  1.00  0.00     0.031 A 
ATOM     37  C   UNL A   1      39.109  30.085  29.238  1.00  0.00     0.074 A 
ATOM     38  C   UNL A   1      39.784  32.146  30.399  1.00  0.00     0.049 A 
ATOM     39  N   UNL A   1      40.004  29.278  29.683  1.00  0.00    -0.248 NA
ATOM     40  C   UNL A   1      38.295  29.527  28.157  1.00  0.00     0.031 C 
ATOM     41  C   UNL A   1      41.221  31.928  30.330  1.00  0.00     0.029 A 
ATOM     42  N   UNL A   1      39.634  33.149  31.342  1.00  0.00    -0.354 N 
ATOM     43  C   UNL A   1      40.125  28.289  28.736  1.00  0.00     0.074 A 
ATOM     44  C   UNL A   1      38.943  28.390  27.914  1.00  0.00     0.031 C 
ATOM     45  C   UNL A   1      41.814  32.611  31.322  1.00  0.00     0.029 A 
ATOM     46  C   UNL A   1      40.765  33.135  32.177  1.00  0.00     0.049 A 
ATOM     47  H   UNL A   1      38.869  33.764  31.415  1.00  0.00     0.167 HD
ATOM     48  C   UNL A   1      41.318  27.645  28.608  1.00  0.00     0.037 A 
ATOM     49  C   UNL A   1      40.640  32.848  33.511  1.00  0.00     0.037 A 
ATOM     50  C   UNL A   1      42.287  28.134  29.589  1.00  0.00     0.049 A 
ATOM     51  C   UNL A   1      41.292  31.556  33.945  1.00  0.00     0.074 A 
ATOM     52  C   UNL A   1      43.327  29.050  29.534  1.00  0.00     0.029 A 
ATOM     53  N   UNL A   1      42.025  27.954  30.936  1.00  0.00    -0.354 N 
ATOM     54  N   UNL A   1      41.867  30.715  33.131  1.00  0.00    -0.248 NA
ATOM     55  C   UNL A   1      41.277  31.068  35.322  1.00  0.00     0.031 C 
ATOM     56  C   UNL A   1      43.720  29.367  30.865  1.00  0.00     0.029 A 
ATOM     57  C   UNL A   1      42.924  28.641  31.729  1.00  0.00     0.049 A 
ATOM     58  H   UNL A   1      41.288  27.403  31.286  1.00  0.00     0.167 HD
ATOM     59  C   UNL A   1      42.242  29.589  33.813  1.00  0.00     0.074 A 
ATOM     60  C   UNL A   1      41.845  29.857  35.183  1.00  0.00     0.031 C 
ATOM     61  C   UNL A   1      42.808  28.518  33.174  1.00  0.00     0.037 A 
BRANCH  48  62
ATOM     62  C   UNL A   1      41.669  26.859  27.371  1.00  0.00     0.057 A 
ATOM     63  C   UNL A   1      41.710  25.454  27.399  1.00  0.00     0.134 A 
ATOM     64  C   UNL A   1      42.037  27.428  26.137  1.00  0.00     0.134 A 
ATOM     65  F   UNL A   1      41.272  24.756  28.453  1.00  0.00    -0.206 F 
ATOM     66  C   UNL A   1      42.209  24.688  26.340  1.00  0.00     0.040 A 
ATOM     67  C   UNL A   1      42.593  26.679  25.090  1.00  0.00     0.040 A 
ATOM     68  F   UNL A   1      41.829  28.726  25.875  1.00  0.00    -0.206 F 
ATOM     69  C   UNL A   1      42.695  25.301  25.197  1.00  0.00     0.006 A 
ENDBRANCH  48  62
BRANCH  49  70
ATOM     70  C   UNL A   1      39.387  33.410  34.081  1.00  0.00     0.057 A 
ATOM     71  C   UNL A   1      38.344  32.494  34.286  1.00  0.00     0.134 A 
ATOM     72  C   UNL A   1      39.435  34.545  34.902  1.00  0.00     0.134 A 
ATOM     73  F   UNL A   1      38.235  31.406  33.507  1.00  0.00    -0.206 F 
ATOM     74  C   UNL A   1      37.537  32.574  35.416  1.00  0.00     0.040 A 
ATOM     75  C   UNL A   1      38.604  34.648  36.017  1.00  0.00     0.040 A 
ATOM     76  F   UNL A   1      40.391  35.469  34.733  1.00  0.00    -0.206 F 
ATOM     77  C   UNL A   1      37.696  33.630  36.306  1.00  0.00     0.006 A 
ENDBRANCH  49  70
BRANCH  61  78
ATOM     78  C   UNL A   1      43.250  27.233  33.838  1.00  0.00     0.057 A 
ATOM     79  C   UNL A   1      44.548  26.719  33.750  1.00  0.00     0.134 A 
ATOM     80  C   UNL A   1      42.336  26.403  34.532  1.00  0.00     0.134 A 
ATOM     81  F   UNL A   1      45.478  27.298  32.977  1.00  0.00    -0.206 F 
ATOM     82  C   UNL A   1      44.942  25.548  34.415  1.00  0.00     0.040 A 
ATOM     83  C   UNL A   1      42.703  25.213  35.161  1.00  0.00     0.040 A 
ATOM     84  F   UNL A   1      41.034  26.696  34.643  1.00  0.00    -0.206 F 
ATOM     85  C   UNL A   1      44.020  24.796  35.133  1.00  0.00     0.006 A 
ENDBRANCH  61  78
ENDBRANCH  35  36
ENDBRANCH  28  30
ENDBRANCH  27  28
ENDBRANCH  26  27
ENDBRANCH   1  26
TORSDOF 15
ENDMDL
MODEL 3
REMARK VINA RESULT:     -11.6      2.071      6.559
REMARK SMILES Cc1ccc([C@@H](C)Nc2ccc(N)cc2C(=O)OCCOC(=O)c2ccc(-c3c4nc(c(-c5c(F)cccc5F)c5ccc([nH]5)c(-c5c(F)cccc5F)c5nc(c(-c6c(F)cccc6F)c6ccc3[nH]6)C=C5)C=C4)cc2)cc1F
REMARK SMILES IDX 19 1 18 2 16 3 17 4 15 5 9 6 10 7 11 8 14 9 12 10 8 11 6 13
REMARK SMILES IDX 7 14 5 15 1 16 2 17 3 18 79 19 4 20 78 21 80 22 13 23 20 26
REMARK SMILES IDX 21 27 22 28 23 29 24 30 25 31 77 32 26 33 76 34 27 35 28 36
REMARK SMILES IDX 29 37 70 38 30 39 75 40 69 41 71 42 31 43 74 44 68 45 67 46
REMARK SMILES IDX 32 48 58 49 41 50 57 51 42 52 45 53 56 54 72 55 43 56 44 57
REMARK SMILES IDX 55 59 73 60 46 61 33 62 34 63 39 64 35 65 36 66 38 67 40 68
REMARK SMILES IDX 37 69 59 70 60 71 65 72 61 73 62 74 64 75 66 76 63 77 47 78
REMARK SMILES IDX 48 79 53 80 49 81 50 82 52 83 54 84 51 85
REMARK H PARENT 8 12 13 24 13 25 71 47 45 58
REMARK Flexibility Score: inf
ROOT
ATOM      1  C   UNL A   1      32.638  29.318  27.241  1.00  0.00     0.275 C 
ENDROOT
BRANCH   1   2
ATOM      2  O   UNL A   1      31.408  28.808  26.675  1.00  0.00    -0.458 OA
BRANCH   2   3
ATOM      3  C   UNL A   1      31.380  27.477  26.376  1.00  0.00     0.340 C 
ATOM      4  O   UNL A   1      31.403  26.569  27.175  1.00  0.00    -0.246 OA
BRANCH   3   5
ATOM      5  C   UNL A   1      31.193  27.257  24.917  1.00  0.00     0.085 A 
ATOM      6  C   UNL A   1      30.811  26.057  24.302  1.00  0.00     0.049 A 
ATOM      7  C   UNL A   1      30.650  26.124  22.894  1.00  0.00     0.029 A 
ATOM      8  C   UNL A   1      30.860  27.282  22.138  1.00  0.00     0.027 A 
ATOM      9  C   UNL A   1      31.394  28.435  24.141  1.00  0.00     0.043 A 
ATOM     10  C   UNL A   1      31.266  28.451  22.754  1.00  0.00     0.032 A 
BRANCH   6  11
ATOM     11  N   UNL A   1      30.474  24.836  24.845  1.00  0.00    -0.378 N 
ATOM     12  H   UNL A   1      29.499  24.752  24.956  1.00  0.00     0.161 HD
BRANCH  11  13
ATOM     13  C   UNL A   1      31.166  23.631  25.300  1.00  0.00     0.106 C 
ATOM     14  C   UNL A   1      30.535  22.954  26.515  1.00  0.00     0.036 C 
BRANCH  13  15
ATOM     15  C   UNL A   1      32.685  23.711  25.164  1.00  0.00    -0.023 A 
ATOM     16  C   UNL A   1      36.992  23.179  24.917  1.00  0.00     0.047 C 
ATOM     17  C   UNL A   1      35.515  23.402  25.023  1.00  0.00    -0.015 A 
ATOM     18  C   UNL A   1      34.894  23.713  26.234  1.00  0.00     0.007 A 
ATOM     19  C   UNL A   1      34.718  23.290  23.888  1.00  0.00     0.126 A 
ATOM     20  C   UNL A   1      33.498  23.855  26.304  1.00  0.00     0.006 A 
ATOM     21  C   UNL A   1      33.334  23.454  23.945  1.00  0.00     0.045 A 
ATOM     22  F   UNL A   1      35.284  22.953  22.722  1.00  0.00    -0.207 F 
ENDBRANCH  13  15
ENDBRANCH  11  13
ENDBRANCH   6  11
BRANCH  10  23
ATOM     23  N   UNL A   1      31.404  29.619  22.024  1.00  0.00    -0.399 N 
ATOM     24  H   UNL A   1      32.029  29.653  21.263  1.00  0.00     0.156 HD
ATOM     25  H   UNL A   1      30.877  30.415  22.265  1.00  0.00     0.156 HD
ENDBRANCH  10  23
ENDBRANCH   3   5
ENDBRANCH   2   3
ENDBRANCH   1   2
BRANCH   1  26
ATOM     26  C   UNL A   1      33.022  30.670  26.660  1.00  0.00     0.275 C 
BRANCH  26  27
ATOM     27  O   UNL A   1      33.452  31.556  27.700  1.00  0.00    -0.458 OA
BRANCH  27  28
ATOM     28  C   UNL A   1      34.791  31.723  27.698  1.00  0.00     0.338 C 
ATOM     29  O   UNL A   1      35.627  30.933  27.279  1.00  0.00    -0.246 OA
BRANCH  28  30
ATOM     30  C   UNL A   1      35.191  32.860  28.553  1.00  0.00     0.060 A 
ATOM     31  C   UNL A   1      36.568  33.093  28.393  1.00  0.00     0.016 A 
ATOM     32  C   UNL A   1      34.650  32.650  29.825  1.00  0.00     0.016 A 
ATOM     33  C   UNL A   1      37.422  32.565  29.343  1.00  0.00     0.010 A 
ATOM     34  C   UNL A   1      35.489  32.114  30.772  1.00  0.00     0.010 A 
ATOM     35  C   UNL A   1      36.856  32.001  30.487  1.00  0.00    -0.014 A 
BRANCH  35  36
ATOM     36  C   UNL A   1      37.664  31.536  31.587  1.00  0.00     0.031 A 
ATOM     37  C   UNL A   1      38.181  32.584  32.473  1.00  0.00     0.074 A 
ATOM     38  C   UNL A   1      37.866  30.229  31.836  1.00  0.00     0.049 A 
ATOM     39  N   UNL A   1      39.248  32.480  33.182  1.00  0.00    -0.248 NA
ATOM     40  C   UNL A   1      37.554  33.904  32.541  1.00  0.00     0.031 C 
ATOM     41  C   UNL A   1      38.317  29.642  33.088  1.00  0.00     0.029 A 
ATOM     42  N   UNL A   1      37.864  29.171  30.942  1.00  0.00    -0.354 N 
ATOM     43  C   UNL A   1      39.229  33.544  34.051  1.00  0.00     0.074 A 
ATOM     44  C   UNL A   1      38.273  34.476  33.505  1.00  0.00     0.031 C 
ATOM     45  C   UNL A   1      38.744  28.391  32.855  1.00  0.00     0.029 A 
ATOM     46  C   UNL A   1      38.761  28.199  31.417  1.00  0.00     0.049 A 
ATOM     47  H   UNL A   1      37.329  29.111  30.118  1.00  0.00     0.167 HD
ATOM     48  C   UNL A   1      39.851  33.419  35.256  1.00  0.00     0.037 A 
ATOM     49  C   UNL A   1      39.880  27.874  30.694  1.00  0.00     0.037 A 
ATOM     50  C   UNL A   1      40.490  32.109  35.384  1.00  0.00     0.049 A 
ATOM     51  C   UNL A   1      41.188  28.251  31.348  1.00  0.00     0.074 A 
ATOM     52  C   UNL A   1      40.123  30.920  35.997  1.00  0.00     0.029 A 
ATOM     53  N   UNL A   1      41.513  31.776  34.516  1.00  0.00    -0.354 N 
ATOM     54  N   UNL A   1      41.286  28.906  32.471  1.00  0.00    -0.248 NA
ATOM     55  C   UNL A   1      42.494  27.991  30.747  1.00  0.00     0.031 C 
ATOM     56  C   UNL A   1      40.980  29.887  35.526  1.00  0.00     0.029 A 
ATOM     57  C   UNL A   1      41.872  30.446  34.632  1.00  0.00     0.049 A 
ATOM     58  H   UNL A   1      41.936  32.408  33.891  1.00  0.00     0.167 HD
ATOM     59  C   UNL A   1      42.597  29.204  32.725  1.00  0.00     0.074 A 
ATOM     60  C   UNL A   1      43.316  28.612  31.611  1.00  0.00     0.031 C 
ATOM     61  C   UNL A   1      42.967  29.949  33.812  1.00  0.00     0.037 A 
BRANCH  48  62
ATOM     62  C   UNL A   1      39.550  34.346  36.406  1.00  0.00     0.057 A 
ATOM     63  C   UNL A   1      40.121  35.629  36.464  1.00  0.00     0.134 A 
ATOM     64  C   UNL A   1      38.757  34.011  37.519  1.00  0.00     0.134 A 
ATOM     65  F   UNL A   1      40.798  36.148  35.433  1.00  0.00    -0.206 F 
ATOM     66  C   UNL A   1      40.027  36.452  37.592  1.00  0.00     0.040 A 
ATOM     67  C   UNL A   1      38.701  34.798  38.679  1.00  0.00     0.040 A 
ATOM     68  F   UNL A   1      37.963  32.931  37.513  1.00  0.00    -0.206 F 
ATOM     69  C   UNL A   1      39.353  36.020  38.723  1.00  0.00     0.006 A 
ENDBRANCH  48  62
BRANCH  49  70
ATOM     70  C   UNL A   1      39.615  27.891  29.231  1.00  0.00     0.057 A 
ATOM     71  C   UNL A   1      40.038  29.041  28.548  1.00  0.00     0.134 A 
ATOM     72  C   UNL A   1      39.547  26.689  28.515  1.00  0.00     0.134 A 
ATOM     73  F   UNL A   1      40.091  30.224  29.180  1.00  0.00    -0.206 F 
ATOM     74  C   UNL A   1      40.606  28.949  27.282  1.00  0.00     0.040 A 
ATOM     75  C   UNL A   1      40.084  26.599  27.230  1.00  0.00     0.040 A 
ATOM     76  F   UNL A   1      39.123  25.564  29.107  1.00  0.00    -0.206 F 
ATOM     77  C   UNL A   1      40.668  27.718  26.639  1.00  0.00     0.006 A 
ENDBRANCH  49  70
BRANCH  61  78
ATOM     78  C   UNL A   1      44.384  30.332  34.174  1.00  0.00     0.057 A 
ATOM     79  C   UNL A   1      45.092  29.773  35.245  1.00  0.00     0.134 A 
ATOM     80  C   UNL A   1      45.071  31.366  33.493  1.00  0.00     0.134 A 
ATOM     81  F   UNL A   1      44.510  28.913  36.092  1.00  0.00    -0.206 F 
ATOM     82  C   UNL A   1      46.422  30.113  35.528  1.00  0.00     0.040 A 
ATOM     83  C   UNL A   1      46.379  31.747  33.793  1.00  0.00     0.040 A 
ATOM     84  F   UNL A   1      44.517  32.068  32.497  1.00  0.00    -0.206 F 
ATOM     85  C   UNL A   1      47.075  31.096  34.794  1.00  0.00     0.006 A 
ENDBRANCH  61  78
ENDBRANCH  35  36
ENDBRANCH  28  30
ENDBRANCH  27  28
ENDBRANCH  26  27
ENDBRANCH   1  26
TORSDOF 15
ENDMDL
