MODEL 1
REMARK VINA RESULT:     -12.5      0.000      0.000
REMARK SMILES CC1=Nc2c(c(C)nn2-c2ccc(F)cc2)[C@H](c2ccc(C(=O)OCCOC(=O)c3ccc(-c4c5nc(c(-c6c(F)cccc6F)c6ccc([nH]6)c(-c6c(F)cccc6F)c6nc(c(-c7c(F)cccc7F)c7ccc4[nH]7)C=C6)C=C5)cc3)cc2)S1
REMARK SMILES IDX 25 1 24 2 22 3 23 4 21 5 18 6 19 7 85 8 20 9 84 10 17 11
REMARK SMILES IDX 1 12 2 13 3 14 86 15 4 16 5 17 9 18 6 19 8 20 7 21 10 22
REMARK SMILES IDX 11 23 16 24 12 25 15 26 13 27 14 28 26 29 27 30 28 31 29 32
REMARK SMILES IDX 30 33 31 34 83 35 32 36 82 37 33 38 34 39 35 40 76 41 36 42
REMARK SMILES IDX 81 43 75 44 77 45 37 46 80 47 74 48 73 49 38 51 64 52 47 53
REMARK SMILES IDX 63 54 48 55 51 56 62 57 78 58 49 59 50 60 61 62 79 63 52 64
REMARK SMILES IDX 39 65 40 66 45 67 41 68 42 69 44 70 46 71 43 72 65 73 66 74
REMARK SMILES IDX 71 75 67 76 68 77 70 78 72 79 69 80 53 81 54 82 59 83 55 84
REMARK SMILES IDX 56 85 58 86 60 87 57 88
REMARK H PARENT 77 50 51 61
REMARK Flexibility Score: inf
ROOT
ATOM      1  C   UNL A   1      40.467  20.301  26.571  1.00  0.00     0.275 C 
ENDROOT
BRANCH   1   2
ATOM      2  O   UNL A   1      39.398  20.658  25.676  1.00  0.00    -0.458 OA
BRANCH   2   3
ATOM      3  C   UNL A   1      38.823  21.863  25.917  1.00  0.00     0.338 C 
ATOM      4  O   UNL A   1      39.390  22.845  26.383  1.00  0.00    -0.246 OA
BRANCH   3   5
ATOM      5  C   UNL A   1      37.409  21.901  25.459  1.00  0.00     0.060 A 
ATOM      6  C   UNL A   1      34.713  22.136  24.608  1.00  0.00    -0.030 A 
ATOM      7  C   UNL A   1      35.580  23.243  24.603  1.00  0.00     0.006 A 
ATOM      8  C   UNL A   1      35.247  20.893  24.999  1.00  0.00     0.006 A 
ATOM      9  C   UNL A   1      36.911  23.126  25.008  1.00  0.00     0.016 A 
ATOM     10  C   UNL A   1      36.577  20.778  25.435  1.00  0.00     0.016 A 
BRANCH   6  11
ATOM     11  C   UNL A   1      33.251  22.354  24.236  1.00  0.00     0.119 C 
ATOM     12  C   UNL A   1      33.219  24.418  20.637  1.00  0.00     0.075 C 
ATOM     13  C   UNL A   1      32.923  24.059  22.069  1.00  0.00     0.074 C 
ATOM     14  N   UNL A   1      32.660  25.031  22.881  1.00  0.00    -0.227 NA
ATOM     15  S   UNL A   1      32.926  22.341  22.438  1.00  0.00    -0.098 SA
ATOM     16  C   UNL A   1      32.475  24.740  24.190  1.00  0.00     0.161 A 
ATOM     17  C   UNL A   1      32.780  23.597  24.890  1.00  0.00     0.038 A 
ATOM     18  N   UNL A   1      31.985  25.649  25.112  1.00  0.00    -0.215 N 
ATOM     19  C   UNL A   1      32.476  23.914  26.243  1.00  0.00     0.067 A 
ATOM     20  N   UNL A   1      32.103  25.194  26.383  1.00  0.00    -0.171 NA
ATOM     21  C   UNL A   1      32.534  23.040  27.442  1.00  0.00     0.069 C 
BRANCH  18  22
ATOM     22  C   UNL A   1      31.393  26.900  24.825  1.00  0.00     0.067 A 
ATOM     23  C   UNL A   1      30.315  26.963  23.928  1.00  0.00     0.031 A 
ATOM     24  C   UNL A   1      31.921  28.063  25.396  1.00  0.00     0.031 A 
ATOM     25  C   UNL A   1      29.779  28.201  23.581  1.00  0.00     0.041 A 
ATOM     26  C   UNL A   1      31.414  29.301  24.998  1.00  0.00     0.041 A 
ATOM     27  C   UNL A   1      30.350  29.359  24.099  1.00  0.00     0.123 A 
ATOM     28  F   UNL A   1      29.871  30.550  23.718  1.00  0.00    -0.207 F 
ENDBRANCH  18  22
ENDBRANCH   6  11
ENDBRANCH   3   5
ENDBRANCH   2   3
ENDBRANCH   1   2
BRANCH   1  29
ATOM     29  C   UNL A   1      41.639  19.687  25.816  1.00  0.00     0.275 C 
BRANCH  29  30
ATOM     30  O   UNL A   1      42.897  20.198  26.258  1.00  0.00    -0.458 OA
BRANCH  30  31
ATOM     31  C   UNL A   1      43.610  20.834  25.300  1.00  0.00     0.338 C 
ATOM     32  O   UNL A   1      44.236  20.329  24.384  1.00  0.00    -0.246 OA
BRANCH  31  33
ATOM     33  C   UNL A   1      43.751  22.249  25.656  1.00  0.00     0.060 A 
ATOM     34  C   UNL A   1      44.567  22.561  26.749  1.00  0.00     0.016 A 
ATOM     35  C   UNL A   1      42.866  23.186  25.104  1.00  0.00     0.016 A 
ATOM     36  C   UNL A   1      44.397  23.778  27.377  1.00  0.00     0.010 A 
ATOM     37  C   UNL A   1      42.683  24.389  25.743  1.00  0.00     0.010 A 
ATOM     38  C   UNL A   1      43.409  24.648  26.905  1.00  0.00    -0.014 A 
BRANCH  38  39
ATOM     39  C   UNL A   1      43.222  25.912  27.589  1.00  0.00     0.031 A 
ATOM     40  C   UNL A   1      44.257  26.921  27.263  1.00  0.00     0.074 A 
ATOM     41  C   UNL A   1      42.106  26.184  28.292  1.00  0.00     0.049 A 
ATOM     42  N   UNL A   1      45.051  27.545  28.068  1.00  0.00    -0.248 NA
ATOM     43  C   UNL A   1      44.520  27.182  25.836  1.00  0.00     0.031 C 
ATOM     44  C   UNL A   1      40.895  25.362  28.390  1.00  0.00     0.029 A 
ATOM     45  N   UNL A   1      41.763  27.320  28.958  1.00  0.00    -0.354 N 
ATOM     46  C   UNL A   1      45.770  28.427  27.267  1.00  0.00     0.074 A 
ATOM     47  C   UNL A   1      45.536  28.038  25.903  1.00  0.00     0.031 C 
ATOM     48  C   UNL A   1      39.886  26.123  28.869  1.00  0.00     0.029 A 
ATOM     49  C   UNL A   1      40.403  27.437  29.212  1.00  0.00     0.049 A 
ATOM     50  H   UNL A   1      42.421  27.998  29.235  1.00  0.00     0.167 HD
ATOM     51  C   UNL A   1      46.272  29.584  27.773  1.00  0.00     0.037 A 
ATOM     52  C   UNL A   1      39.748  28.564  29.582  1.00  0.00     0.037 A 
ATOM     53  C   UNL A   1      46.410  29.520  29.204  1.00  0.00     0.049 A 
ATOM     54  C   UNL A   1      40.760  29.525  30.091  1.00  0.00     0.074 A 
ATOM     55  C   UNL A   1      47.083  28.694  30.082  1.00  0.00     0.029 A 
ATOM     56  N   UNL A   1      45.506  30.218  29.963  1.00  0.00    -0.354 N 
ATOM     57  N   UNL A   1      41.424  29.382  31.203  1.00  0.00    -0.248 NA
ATOM     58  C   UNL A   1      41.324  30.481  29.149  1.00  0.00     0.031 C 
ATOM     59  C   UNL A   1      46.239  28.601  31.227  1.00  0.00     0.029 A 
ATOM     60  C   UNL A   1      45.123  29.406  30.998  1.00  0.00     0.049 A 
ATOM     61  H   UNL A   1      45.188  31.134  29.796  1.00  0.00     0.167 HD
ATOM     62  C   UNL A   1      42.686  29.884  30.927  1.00  0.00     0.074 A 
ATOM     63  C   UNL A   1      42.528  30.655  29.698  1.00  0.00     0.031 C 
ATOM     64  C   UNL A   1      43.791  29.390  31.556  1.00  0.00     0.037 A 
BRANCH  51  65
ATOM     65  C   UNL A   1      46.227  30.891  27.020  1.00  0.00     0.057 A 
ATOM     66  C   UNL A   1      45.035  31.538  26.623  1.00  0.00     0.134 A 
ATOM     67  C   UNL A   1      47.384  31.687  26.965  1.00  0.00     0.134 A 
ATOM     68  F   UNL A   1      43.835  30.954  26.704  1.00  0.00    -0.206 F 
ATOM     69  C   UNL A   1      44.996  32.873  26.217  1.00  0.00     0.040 A 
ATOM     70  C   UNL A   1      47.345  33.042  26.615  1.00  0.00     0.040 A 
ATOM     71  F   UNL A   1      48.573  31.195  27.341  1.00  0.00    -0.206 F 
ATOM     72  C   UNL A   1      46.147  33.641  26.246  1.00  0.00     0.006 A 
ENDBRANCH  51  65
BRANCH  52  73
ATOM     73  C   UNL A   1      38.370  28.994  29.243  1.00  0.00     0.057 A 
ATOM     74  C   UNL A   1      38.044  29.554  27.994  1.00  0.00     0.134 A 
ATOM     75  C   UNL A   1      37.392  29.119  30.242  1.00  0.00     0.134 A 
ATOM     76  F   UNL A   1      38.921  29.561  26.982  1.00  0.00    -0.206 F 
ATOM     77  C   UNL A   1      36.833  30.215  27.760  1.00  0.00     0.040 A 
ATOM     78  C   UNL A   1      36.183  29.793  30.026  1.00  0.00     0.040 A 
ATOM     79  F   UNL A   1      37.618  28.651  31.479  1.00  0.00    -0.206 F 
ATOM     80  C   UNL A   1      35.905  30.354  28.783  1.00  0.00     0.006 A 
ENDBRANCH  52  73
BRANCH  64  81
ATOM     81  C   UNL A   1      43.586  28.539  32.777  1.00  0.00     0.057 A 
ATOM     82  C   UNL A   1      43.638  29.154  34.034  1.00  0.00     0.134 A 
ATOM     83  C   UNL A   1      43.493  27.140  32.758  1.00  0.00     0.134 A 
ATOM     84  F   UNL A   1      43.782  30.486  34.129  1.00  0.00    -0.206 F 
ATOM     85  C   UNL A   1      43.598  28.416  35.218  1.00  0.00     0.040 A 
ATOM     86  C   UNL A   1      43.414  26.392  33.936  1.00  0.00     0.040 A 
ATOM     87  F   UNL A   1      43.533  26.456  31.607  1.00  0.00    -0.206 F 
ATOM     88  C   UNL A   1      43.476  27.030  35.172  1.00  0.00     0.006 A 
ENDBRANCH  64  81
ENDBRANCH  38  39
ENDBRANCH  31  33
ENDBRANCH  30  31
ENDBRANCH  29  30
ENDBRANCH   1  29
TORSDOF 13
ENDMDL
MODEL 2
REMARK VINA RESULT:     -12.4      3.551      8.292
REMARK SMILES CC1=Nc2c(c(C)nn2-c2ccc(F)cc2)[C@H](c2ccc(C(=O)OCCOC(=O)c3ccc(-c4c5nc(c(-c6c(F)cccc6F)c6ccc([nH]6)c(-c6c(F)cccc6F)c6nc(c(-c7c(F)cccc7F)c7ccc4[nH]7)C=C6)C=C5)cc3)cc2)S1
REMARK SMILES IDX 25 1 24 2 22 3 23 4 21 5 18 6 19 7 85 8 20 9 84 10 17 11
REMARK SMILES IDX 1 12 2 13 3 14 86 15 4 16 5 17 9 18 6 19 8 20 7 21 10 22
REMARK SMILES IDX 11 23 16 24 12 25 15 26 13 27 14 28 26 29 27 30 28 31 29 32
REMARK SMILES IDX 30 33 31 34 83 35 32 36 82 37 33 38 34 39 35 40 76 41 36 42
REMARK SMILES IDX 81 43 75 44 77 45 37 46 80 47 74 48 73 49 38 51 64 52 47 53
REMARK SMILES IDX 63 54 48 55 51 56 62 57 78 58 49 59 50 60 61 62 79 63 52 64
REMARK SMILES IDX 39 65 40 66 45 67 41 68 42 69 44 70 46 71 43 72 65 73 66 74
REMARK SMILES IDX 71 75 67 76 68 77 70 78 72 79 69 80 53 81 54 82 59 83 55 84
REMARK SMILES IDX 56 85 58 86 60 87 57 88
REMARK H PARENT 77 50 51 61
REMARK Flexibility Score: inf
ROOT
ATOM      1  C   UNL A   1      33.978  31.882  27.653  1.00  0.00     0.275 C 
ENDROOT
BRANCH   1   2
ATOM      2  O   UNL A   1      33.017  30.812  27.680  1.00  0.00    -0.458 OA
BRANCH   2   3
ATOM      3  C   UNL A   1      31.981  30.947  26.814  1.00  0.00     0.338 C 
ATOM      4  O   UNL A   1      31.375  31.987  26.581  1.00  0.00    -0.246 OA
BRANCH   3   5
ATOM      5  C   UNL A   1      31.704  29.682  26.082  1.00  0.00     0.060 A 
ATOM      6  C   UNL A   1      31.271  27.192  24.795  1.00  0.00    -0.030 A 
ATOM      7  C   UNL A   1      31.700  27.259  26.133  1.00  0.00     0.006 A 
ATOM      8  C   UNL A   1      31.012  28.408  24.134  1.00  0.00     0.006 A 
ATOM      9  C   UNL A   1      31.901  28.483  26.772  1.00  0.00     0.016 A 
ATOM     10  C   UNL A   1      31.240  29.642  24.765  1.00  0.00     0.016 A 
BRANCH   6  11
ATOM     11  C   UNL A   1      31.158  25.823  24.134  1.00  0.00     0.119 C 
ATOM     12  C   UNL A   1      30.653  23.053  27.181  1.00  0.00     0.075 C 
ATOM     13  C   UNL A   1      31.209  23.728  25.956  1.00  0.00     0.074 C 
ATOM     14  N   UNL A   1      32.461  23.537  25.690  1.00  0.00    -0.227 NA
ATOM     15  S   UNL A   1      30.056  24.658  25.010  1.00  0.00    -0.098 SA
ATOM     16  C   UNL A   1      33.004  24.201  24.643  1.00  0.00     0.161 A 
ATOM     17  C   UNL A   1      32.522  25.280  23.939  1.00  0.00     0.038 A 
ATOM     18  N   UNL A   1      34.260  23.926  24.132  1.00  0.00    -0.215 N 
ATOM     19  C   UNL A   1      33.571  25.618  23.041  1.00  0.00     0.067 A 
ATOM     20  N   UNL A   1      34.662  24.866  23.243  1.00  0.00    -0.171 NA
ATOM     21  C   UNL A   1      33.593  26.656  21.980  1.00  0.00     0.069 C 
BRANCH  18  22
ATOM     22  C   UNL A   1      35.062  22.802  24.436  1.00  0.00     0.067 A 
ATOM     23  C   UNL A   1      36.460  22.912  24.361  1.00  0.00     0.031 A 
ATOM     24  C   UNL A   1      34.454  21.585  24.757  1.00  0.00     0.031 A 
ATOM     25  C   UNL A   1      37.252  21.789  24.583  1.00  0.00     0.041 A 
ATOM     26  C   UNL A   1      35.256  20.453  24.922  1.00  0.00     0.041 A 
ATOM     27  C   UNL A   1      36.642  20.565  24.836  1.00  0.00     0.123 A 
ATOM     28  F   UNL A   1      37.404  19.474  24.990  1.00  0.00    -0.207 F 
ENDBRANCH  18  22
ENDBRANCH   6  11
ENDBRANCH   3   5
ENDBRANCH   2   3
ENDBRANCH   1   2
BRANCH   1  29
ATOM     29  C   UNL A   1      35.124  31.620  28.622  1.00  0.00     0.275 C 
BRANCH  29  30
ATOM     30  O   UNL A   1      36.341  31.297  27.948  1.00  0.00    -0.458 OA
BRANCH  30  31
ATOM     31  C   UNL A   1      36.497  29.980  27.676  1.00  0.00     0.338 C 
ATOM     32  O   UNL A   1      35.631  29.179  27.371  1.00  0.00    -0.246 OA
BRANCH  31  33
ATOM     33  C   UNL A   1      37.851  29.564  28.051  1.00  0.00     0.060 A 
ATOM     34  C   UNL A   1      38.865  29.734  27.102  1.00  0.00     0.016 A 
ATOM     35  C   UNL A   1      38.032  28.765  29.189  1.00  0.00     0.016 A 
ATOM     36  C   UNL A   1      40.021  28.990  27.225  1.00  0.00     0.010 A 
ATOM     37  C   UNL A   1      39.175  28.009  29.300  1.00  0.00     0.010 A 
ATOM     38  C   UNL A   1      40.131  28.087  28.287  1.00  0.00    -0.014 A 
BRANCH  38  39
ATOM     39  C   UNL A   1      41.338  27.292  28.391  1.00  0.00     0.031 A 
ATOM     40  C   UNL A   1      42.096  27.527  29.643  1.00  0.00     0.074 A 
ATOM     41  C   UNL A   1      41.619  26.305  27.519  1.00  0.00     0.049 A 
ATOM     42  N   UNL A   1      43.322  27.909  29.778  1.00  0.00    -0.248 NA
ATOM     43  C   UNL A   1      41.351  27.436  30.912  1.00  0.00     0.031 C 
ATOM     44  C   UNL A   1      40.759  25.794  26.447  1.00  0.00     0.029 A 
ATOM     45  N   UNL A   1      42.681  25.454  27.496  1.00  0.00    -0.354 N 
ATOM     46  C   UNL A   1      43.560  27.906  31.150  1.00  0.00     0.074 A 
ATOM     47  C   UNL A   1      42.282  27.786  31.796  1.00  0.00     0.031 C 
ATOM     48  C   UNL A   1      41.226  24.592  26.043  1.00  0.00     0.029 A 
ATOM     49  C   UNL A   1      42.467  24.306  26.744  1.00  0.00     0.049 A 
ATOM     50  H   UNL A   1      43.525  25.635  27.969  1.00  0.00     0.167 HD
ATOM     51  C   UNL A   1      44.811  27.714  31.644  1.00  0.00     0.037 A 
ATOM     52  C   UNL A   1      43.209  23.172  26.779  1.00  0.00     0.037 A 
ATOM     53  C   UNL A   1      45.820  28.021  30.666  1.00  0.00     0.049 A 
ATOM     54  C   UNL A   1      44.513  23.508  27.404  1.00  0.00     0.074 A 
ATOM     55  C   UNL A   1      46.147  29.136  29.919  1.00  0.00     0.029 A 
ATOM     56  N   UNL A   1      46.480  26.971  30.080  1.00  0.00    -0.354 N 
ATOM     57  N   UNL A   1      45.429  24.253  26.854  1.00  0.00    -0.248 NA
ATOM     58  C   UNL A   1      44.646  23.321  28.842  1.00  0.00     0.031 C 
ATOM     59  C   UNL A   1      46.602  28.627  28.668  1.00  0.00     0.029 A 
ATOM     60  C   UNL A   1      46.565  27.234  28.738  1.00  0.00     0.049 A 
ATOM     61  H   UNL A   1      46.829  26.174  30.538  1.00  0.00     0.167 HD
ATOM     62  C   UNL A   1      45.982  24.967  27.905  1.00  0.00     0.074 A 
ATOM     63  C   UNL A   1      45.550  24.265  29.110  1.00  0.00     0.031 C 
ATOM     64  C   UNL A   1      46.490  26.219  27.714  1.00  0.00     0.037 A 
BRANCH  51  65
ATOM     65  C   UNL A   1      45.088  26.852  32.851  1.00  0.00     0.057 A 
ATOM     66  C   UNL A   1      45.519  27.351  34.101  1.00  0.00     0.134 A 
ATOM     67  C   UNL A   1      44.614  25.529  32.869  1.00  0.00     0.134 A 
ATOM     68  F   UNL A   1      45.910  28.617  34.277  1.00  0.00    -0.206 F 
ATOM     69  C   UNL A   1      45.467  26.599  35.276  1.00  0.00     0.040 A 
ATOM     70  C   UNL A   1      44.504  24.788  34.051  1.00  0.00     0.040 A 
ATOM     71  F   UNL A   1      44.153  24.951  31.750  1.00  0.00    -0.206 F 
ATOM     72  C   UNL A   1      44.926  25.325  35.261  1.00  0.00     0.006 A 
ENDBRANCH  51  65
BRANCH  52  73
ATOM     73  C   UNL A   1      42.769  21.766  26.603  1.00  0.00     0.057 A 
ATOM     74  C   UNL A   1      41.871  21.144  27.490  1.00  0.00     0.134 A 
ATOM     75  C   UNL A   1      43.439  20.912  25.714  1.00  0.00     0.134 A 
ATOM     76  F   UNL A   1      41.226  21.843  28.434  1.00  0.00    -0.206 F 
ATOM     77  C   UNL A   1      41.668  19.760  27.507  1.00  0.00     0.040 A 
ATOM     78  C   UNL A   1      43.257  19.523  25.731  1.00  0.00     0.040 A 
ATOM     79  F   UNL A   1      44.343  21.400  24.851  1.00  0.00    -0.206 F 
ATOM     80  C   UNL A   1      42.377  18.941  26.638  1.00  0.00     0.006 A 
ENDBRANCH  52  73
BRANCH  64  81
ATOM     81  C   UNL A   1      46.742  26.669  26.303  1.00  0.00     0.057 A 
ATOM     82  C   UNL A   1      48.013  26.462  25.755  1.00  0.00     0.134 A 
ATOM     83  C   UNL A   1      45.835  27.420  25.541  1.00  0.00     0.134 A 
ATOM     84  F   UNL A   1      48.950  25.799  26.451  1.00  0.00    -0.206 F 
ATOM     85  C   UNL A   1      48.370  26.974  24.506  1.00  0.00     0.040 A 
ATOM     86  C   UNL A   1      46.167  27.908  24.274  1.00  0.00     0.040 A 
ATOM     87  F   UNL A   1      44.630  27.752  26.021  1.00  0.00    -0.206 F 
ATOM     88  C   UNL A   1      47.442  27.692  23.756  1.00  0.00     0.006 A 
ENDBRANCH  64  81
ENDBRANCH  38  39
ENDBRANCH  31  33
ENDBRANCH  30  31
ENDBRANCH  29  30
ENDBRANCH   1  29
TORSDOF 13
ENDMDL
MODEL 3
REMARK VINA RESULT:     -12.4      3.772      8.260
REMARK SMILES CC1=Nc2c(c(C)nn2-c2ccc(F)cc2)[C@H](c2ccc(C(=O)OCCOC(=O)c3ccc(-c4c5nc(c(-c6c(F)cccc6F)c6ccc([nH]6)c(-c6c(F)cccc6F)c6nc(c(-c7c(F)cccc7F)c7ccc4[nH]7)C=C6)C=C5)cc3)cc2)S1
REMARK SMILES IDX 25 1 24 2 22 3 23 4 21 5 18 6 19 7 85 8 20 9 84 10 17 11
REMARK SMILES IDX 1 12 2 13 3 14 86 15 4 16 5 17 9 18 6 19 8 20 7 21 10 22
REMARK SMILES IDX 11 23 16 24 12 25 15 26 13 27 14 28 26 29 27 30 28 31 29 32
REMARK SMILES IDX 30 33 31 34 83 35 32 36 82 37 33 38 34 39 35 40 76 41 36 42
REMARK SMILES IDX 81 43 75 44 77 45 37 46 80 47 74 48 73 49 38 51 64 52 47 53
REMARK SMILES IDX 63 54 48 55 51 56 62 57 78 58 49 59 50 60 61 62 79 63 52 64
REMARK SMILES IDX 39 65 40 66 45 67 41 68 42 69 44 70 46 71 43 72 65 73 66 74
REMARK SMILES IDX 71 75 67 76 68 77 70 78 72 79 69 80 53 81 54 82 59 83 55 84
REMARK SMILES IDX 56 85 58 86 60 87 57 88
REMARK H PARENT 77 50 51 61
REMARK Flexibility Score: inf
ROOT
ATOM      1  C   UNL A   1      31.920  30.340  25.724  1.00  0.00     0.275 C 
ENDROOT
BRANCH   1   2
ATOM      2  O   UNL A   1      32.832  29.811  24.746  1.00  0.00    -0.458 OA
BRANCH   2   3
ATOM      3  C   UNL A   1      32.352  28.777  24.010  1.00  0.00     0.338 C 
ATOM      4  O   UNL A   1      31.711  28.877  22.970  1.00  0.00    -0.246 OA
BRANCH   3   5
ATOM      5  C   UNL A   1      32.775  27.463  24.563  1.00  0.00     0.060 A 
ATOM      6  C   UNL A   1      33.525  25.005  25.764  1.00  0.00    -0.030 A 
ATOM      7  C   UNL A   1      32.553  25.837  26.348  1.00  0.00     0.006 A 
ATOM      8  C   UNL A   1      34.073  25.411  24.532  1.00  0.00     0.006 A 
ATOM      9  C   UNL A   1      32.173  27.041  25.751  1.00  0.00     0.016 A 
ATOM     10  C   UNL A   1      33.714  26.634  23.943  1.00  0.00     0.016 A 
BRANCH   6  11
ATOM     11  C   UNL A   1      33.954  23.749  26.514  1.00  0.00     0.119 C 
ATOM     12  C   UNL A   1      37.452  22.413  24.727  1.00  0.00     0.075 C 
ATOM     13  C   UNL A   1      36.053  22.411  25.285  1.00  0.00     0.074 C 
ATOM     14  N   UNL A   1      35.210  21.578  24.766  1.00  0.00    -0.227 NA
ATOM     15  S   UNL A   1      35.763  23.519  26.617  1.00  0.00    -0.098 SA
ATOM     16  C   UNL A   1      33.925  21.616  25.192  1.00  0.00     0.161 A 
ATOM     17  C   UNL A   1      33.265  22.584  25.913  1.00  0.00     0.038 A 
ATOM     18  N   UNL A   1      32.986  20.651  24.874  1.00  0.00    -0.215 N 
ATOM     19  C   UNL A   1      31.915  22.139  25.955  1.00  0.00     0.067 A 
ATOM     20  N   UNL A   1      31.733  21.028  25.228  1.00  0.00    -0.171 NA
ATOM     21  C   UNL A   1      30.756  22.740  26.661  1.00  0.00     0.069 C 
BRANCH  18  22
ATOM     22  C   UNL A   1      33.242  19.393  24.282  1.00  0.00     0.067 A 
ATOM     23  C   UNL A   1      34.351  18.644  24.708  1.00  0.00     0.031 A 
ATOM     24  C   UNL A   1      32.421  18.935  23.247  1.00  0.00     0.031 A 
ATOM     25  C   UNL A   1      34.654  17.441  24.075  1.00  0.00     0.041 A 
ATOM     26  C   UNL A   1      32.767  17.756  22.583  1.00  0.00     0.041 A 
ATOM     27  C   UNL A   1      33.874  17.022  23.002  1.00  0.00     0.123 A 
ATOM     28  F   UNL A   1      34.202  15.895  22.357  1.00  0.00    -0.207 F 
ENDBRANCH  18  22
ENDBRANCH   6  11
ENDBRANCH   3   5
ENDBRANCH   2   3
ENDBRANCH   1   2
BRANCH   1  29
ATOM     29  C   UNL A   1      32.614  30.570  27.061  1.00  0.00     0.275 C 
BRANCH  29  30
ATOM     30  O   UNL A   1      34.034  30.645  26.929  1.00  0.00    -0.458 OA
BRANCH  30  31
ATOM     31  C   UNL A   1      34.611  31.634  27.650  1.00  0.00     0.338 C 
ATOM     32  O   UNL A   1      34.379  32.829  27.588  1.00  0.00    -0.246 OA
BRANCH  31  33
ATOM     33  C   UNL A   1      35.772  31.099  28.366  1.00  0.00     0.060 A 
ATOM     34  C   UNL A   1      36.722  32.016  28.832  1.00  0.00     0.016 A 
ATOM     35  C   UNL A   1      36.041  29.724  28.306  1.00  0.00     0.016 A 
ATOM     36  C   UNL A   1      37.996  31.566  29.112  1.00  0.00     0.010 A 
ATOM     37  C   UNL A   1      37.316  29.281  28.566  1.00  0.00     0.010 A 
ATOM     38  C   UNL A   1      38.293  30.215  28.910  1.00  0.00    -0.014 A 
BRANCH  38  39
ATOM     39  C   UNL A   1      39.642  29.759  29.183  1.00  0.00     0.031 A 
ATOM     40  C   UNL A   1      39.971  29.712  30.628  1.00  0.00     0.074 A 
ATOM     41  C   UNL A   1      40.431  29.250  28.218  1.00  0.00     0.049 A 
ATOM     42  N   UNL A   1      40.929  30.311  31.251  1.00  0.00    -0.248 NA
ATOM     43  C   UNL A   1      39.034  28.994  31.511  1.00  0.00     0.031 C 
ATOM     44  C   UNL A   1      40.062  28.959  26.829  1.00  0.00     0.029 A 
ATOM     45  N   UNL A   1      41.695  28.753  28.312  1.00  0.00    -0.354 N 
ATOM     46  C   UNL A   1      40.838  29.878  32.571  1.00  0.00     0.074 A 
ATOM     47  C   UNL A   1      39.565  29.225  32.709  1.00  0.00     0.031 C 
ATOM     48  C   UNL A   1      40.988  28.135  26.291  1.00  0.00     0.029 A 
ATOM     49  C   UNL A   1      42.059  27.934  27.252  1.00  0.00     0.049 A 
ATOM     50  H   UNL A   1      42.297  28.956  29.065  1.00  0.00     0.167 HD
ATOM     51  C   UNL A   1      41.933  29.838  33.374  1.00  0.00     0.037 A 
ATOM     52  C   UNL A   1      43.114  27.083  27.219  1.00  0.00     0.037 A 
ATOM     53  C   UNL A   1      42.971  30.713  32.898  1.00  0.00     0.049 A 
ATOM     54  C   UNL A   1      44.049  27.485  28.301  1.00  0.00     0.074 A 
ATOM     55  C   UNL A   1      43.060  32.064  32.627  1.00  0.00     0.029 A 
ATOM     56  N   UNL A   1      44.063  30.138  32.298  1.00  0.00    -0.354 N 
ATOM     57  N   UNL A   1      44.757  28.578  28.300  1.00  0.00    -0.248 NA
ATOM     58  C   UNL A   1      43.908  26.836  29.597  1.00  0.00     0.031 C 
ATOM     59  C   UNL A   1      43.932  32.163  31.504  1.00  0.00     0.029 A 
ATOM     60  C   UNL A   1      44.355  30.874  31.180  1.00  0.00     0.049 A 
ATOM     61  H   UNL A   1      44.549  29.342  32.612  1.00  0.00     0.167 HD
ATOM     62  C   UNL A   1      44.781  28.983  29.625  1.00  0.00     0.074 A 
ATOM     63  C   UNL A   1      44.353  27.815  30.388  1.00  0.00     0.031 C 
ATOM     64  C   UNL A   1      44.864  30.305  29.954  1.00  0.00     0.037 A 
BRANCH  51  65
ATOM     65  C   UNL A   1      42.206  28.699  34.326  1.00  0.00     0.057 A 
ATOM     66  C   UNL A   1      42.026  28.774  35.726  1.00  0.00     0.134 A 
ATOM     67  C   UNL A   1      42.348  27.399  33.812  1.00  0.00     0.134 A 
ATOM     68  F   UNL A   1      41.783  29.925  36.362  1.00  0.00    -0.206 F 
ATOM     69  C   UNL A   1      41.977  27.646  36.545  1.00  0.00     0.040 A 
ATOM     70  C   UNL A   1      42.242  26.259  34.618  1.00  0.00     0.040 A 
ATOM     71  F   UNL A   1      42.499  27.195  32.495  1.00  0.00    -0.206 F 
ATOM     72  C   UNL A   1      42.049  26.381  35.988  1.00  0.00     0.006 A 
ENDBRANCH  51  65
BRANCH  52  73
ATOM     73  C   UNL A   1      43.230  25.770  26.539  1.00  0.00     0.057 A 
ATOM     74  C   UNL A   1      42.623  24.606  27.045  1.00  0.00     0.134 A 
ATOM     75  C   UNL A   1      44.173  25.572  25.519  1.00  0.00     0.134 A 
ATOM     76  F   UNL A   1      41.759  24.657  28.068  1.00  0.00    -0.206 F 
ATOM     77  C   UNL A   1      42.949  23.326  26.583  1.00  0.00     0.040 A 
ATOM     78  C   UNL A   1      44.522  24.295  25.059  1.00  0.00     0.040 A 
ATOM     79  F   UNL A   1      44.836  26.613  24.993  1.00  0.00    -0.206 F 
ATOM     80  C   UNL A   1      43.916  23.165  25.600  1.00  0.00     0.006 A 
ENDBRANCH  52  73
BRANCH  64  81
ATOM     81  C   UNL A   1      45.259  31.276  28.877  1.00  0.00     0.057 A 
ATOM     82  C   UNL A   1      46.552  31.812  28.908  1.00  0.00     0.134 A 
ATOM     83  C   UNL A   1      44.375  31.801  27.925  1.00  0.00     0.134 A 
ATOM     84  F   UNL A   1      47.436  31.395  29.829  1.00  0.00    -0.206 F 
ATOM     85  C   UNL A   1      46.952  32.822  28.031  1.00  0.00     0.040 A 
ATOM     86  C   UNL A   1      44.773  32.787  27.017  1.00  0.00     0.040 A 
ATOM     87  F   UNL A   1      43.092  31.422  27.882  1.00  0.00    -0.206 F 
ATOM     88  C   UNL A   1      46.064  33.306  27.074  1.00  0.00     0.006 A 
ENDBRANCH  64  81
ENDBRANCH  38  39
ENDBRANCH  31  33
ENDBRANCH  30  31
ENDBRANCH  29  30
ENDBRANCH   1  29
TORSDOF 13
ENDMDL
