MODEL 1
REMARK VINA RESULT:     -11.4      0.000      0.000
REMARK SMILES CC(C)c1ccc([C@]2(C(=O)OCCOC(=O)c3ccc(-c4c5nc(c(-c6c(F)cccc6F)c6ccc([nH]6)c(-c6c(F)cccc6F)c6nc(c(-c7c(F)cccc7F)c7ccc4[nH]7)C=C6)C=C5)cc3)CCC[C@@H]2C)cc1
REMARK SMILES IDX 12 1 11 2 9 3 10 4 8 5 71 6 74 7 72 8 73 9 75 10 7 11 4 12
REMARK SMILES IDX 5 13 77 14 6 15 76 16 2 17 1 18 3 19 13 20 14 21 15 22 16 23
REMARK SMILES IDX 17 24 18 25 70 26 19 27 69 28 20 29 21 30 22 31 63 32 23 33
REMARK SMILES IDX 68 34 62 35 64 36 24 37 67 38 61 39 60 40 25 42 51 43 34 44
REMARK SMILES IDX 50 45 35 46 38 47 49 48 65 49 36 50 37 51 48 53 66 54 39 55
REMARK SMILES IDX 26 56 27 57 32 58 28 59 29 60 31 61 33 62 30 63 52 64 53 65
REMARK SMILES IDX 58 66 54 67 55 68 57 69 59 70 56 71 40 72 41 73 46 74 42 75
REMARK SMILES IDX 43 76 45 77 47 78 44 79
REMARK H PARENT 64 41 38 52
REMARK Flexibility Score: inf
ROOT
ATOM      1  C   UNL A   1      36.666  22.794  23.445  1.00  0.00     0.274 C 
ENDROOT
BRANCH   1   2
ATOM      2  O   UNL A   1      35.790  23.739  24.091  1.00  0.00    -0.461 OA
BRANCH   2   3
ATOM      3  C   UNL A   1      34.554  23.921  23.546  1.00  0.00     0.316 C 
ATOM      4  O   UNL A   1      34.366  24.380  22.424  1.00  0.00    -0.251 OA
BRANCH   3   5
ATOM      5  C   UNL A   1      33.404  23.569  24.541  1.00  0.00     0.095 C 
ATOM      6  C   UNL A   1      33.695  24.068  25.981  1.00  0.00     0.024 C 
ATOM      7  C   UNL A   1      32.183  24.471  24.157  1.00  0.00     0.008 C 
ATOM      8  C   UNL A   1      33.327  25.554  26.017  1.00  0.00     0.002 C 
ATOM      9  C   UNL A   1      32.575  25.845  24.721  1.00  0.00     0.005 C 
ATOM     10  C   UNL A   1      30.832  24.044  24.751  1.00  0.00     0.009 C 
BRANCH   5  11
ATOM     11  C   UNL A   1      33.121  22.057  24.458  1.00  0.00    -0.030 A 
ATOM     12  C   UNL A   1      32.679  19.222  24.335  1.00  0.00    -0.045 A 
ATOM     13  C   UNL A   1      33.157  19.837  25.498  1.00  0.00     0.004 A 
ATOM     14  C   UNL A   1      32.400  20.060  23.243  1.00  0.00     0.004 A 
ATOM     15  C   UNL A   1      33.362  21.223  25.561  1.00  0.00     0.005 A 
ATOM     16  C   UNL A   1      32.598  21.450  23.308  1.00  0.00     0.005 A 
BRANCH  12  17
ATOM     17  C   UNL A   1      32.528  17.705  24.208  1.00  0.00     0.013 C 
ATOM     18  C   UNL A   1      33.612  17.017  23.362  1.00  0.00     0.012 C 
ATOM     19  C   UNL A   1      32.476  16.988  25.563  1.00  0.00     0.012 C 
ENDBRANCH  12  17
ENDBRANCH   5  11
ENDBRANCH   3   5
ENDBRANCH   2   3
ENDBRANCH   1   2
BRANCH   1  20
ATOM     20  C   UNL A   1      36.789  21.535  24.293  1.00  0.00     0.275 C 
BRANCH  20  21
ATOM     21  O   UNL A   1      37.223  21.902  25.613  1.00  0.00    -0.458 OA
BRANCH  21  22
ATOM     22  C   UNL A   1      38.497  21.590  25.926  1.00  0.00     0.338 C 
ATOM     23  O   UNL A   1      39.066  20.516  25.789  1.00  0.00    -0.246 OA
BRANCH  22  24
ATOM     24  C   UNL A   1      39.158  22.783  26.469  1.00  0.00     0.060 A 
ATOM     25  C   UNL A   1      38.588  24.034  26.246  1.00  0.00     0.016 A 
ATOM     26  C   UNL A   1      40.401  22.672  27.094  1.00  0.00     0.016 A 
ATOM     27  C   UNL A   1      39.302  25.183  26.574  1.00  0.00     0.010 A 
ATOM     28  C   UNL A   1      41.079  23.830  27.493  1.00  0.00     0.010 A 
ATOM     29  C   UNL A   1      40.558  25.100  27.197  1.00  0.00    -0.014 A 
BRANCH  29  30
ATOM     30  C   UNL A   1      41.350  26.342  27.431  1.00  0.00     0.031 A 
ATOM     31  C   UNL A   1      40.852  27.385  28.402  1.00  0.00     0.074 A 
ATOM     32  C   UNL A   1      42.584  26.482  26.903  1.00  0.00     0.049 A 
ATOM     33  N   UNL A   1      41.365  28.553  28.699  1.00  0.00    -0.248 NA
ATOM     34  C   UNL A   1      39.623  27.067  29.150  1.00  0.00     0.031 C 
ATOM     35  C   UNL A   1      43.250  25.508  26.039  1.00  0.00     0.029 A 
ATOM     36  N   UNL A   1      43.522  27.470  27.074  1.00  0.00    -0.354 N 
ATOM     37  C   UNL A   1      40.497  29.130  29.618  1.00  0.00     0.074 A 
ATOM     38  C   UNL A   1      39.429  28.179  29.844  1.00  0.00     0.031 C 
ATOM     39  C   UNL A   1      44.518  25.898  25.837  1.00  0.00     0.029 A 
ATOM     40  C   UNL A   1      44.729  27.191  26.478  1.00  0.00     0.049 A 
ATOM     41  H   UNL A   1      43.348  28.299  27.576  1.00  0.00     0.167 HD
ATOM     42  C   UNL A   1      40.578  30.341  30.218  1.00  0.00     0.037 A 
ATOM     43  C   UNL A   1      45.873  27.903  26.436  1.00  0.00     0.037 A 
ATOM     44  C   UNL A   1      41.666  31.267  30.049  1.00  0.00     0.049 A 
ATOM     45  C   UNL A   1      45.922  29.263  27.070  1.00  0.00     0.074 A 
ATOM     46  C   UNL A   1      41.800  32.546  30.563  1.00  0.00     0.029 A 
ATOM     47  N   UNL A   1      42.824  30.997  29.340  1.00  0.00    -0.354 N 
ATOM     48  N   UNL A   1      45.023  29.864  27.810  1.00  0.00    -0.248 NA
ATOM     49  C   UNL A   1      47.132  30.062  26.823  1.00  0.00     0.031 C 
ATOM     50  C   UNL A   1      43.037  33.056  30.151  1.00  0.00     0.029 A 
ATOM     51  C   UNL A   1      43.680  32.084  29.403  1.00  0.00     0.049 A 
ATOM     52  H   UNL A   1      43.012  30.156  28.863  1.00  0.00     0.167 HD
ATOM     53  C   UNL A   1      45.547  31.116  28.100  1.00  0.00     0.074 A 
ATOM     54  C   UNL A   1      46.861  31.174  27.494  1.00  0.00     0.031 C 
ATOM     55  C   UNL A   1      44.979  32.135  28.786  1.00  0.00     0.037 A 
BRANCH  42  56
ATOM     56  C   UNL A   1      39.429  30.758  31.083  1.00  0.00     0.057 A 
ATOM     57  C   UNL A   1      39.415  30.529  32.463  1.00  0.00     0.134 A 
ATOM     58  C   UNL A   1      38.337  31.437  30.524  1.00  0.00     0.134 A 
ATOM     59  F   UNL A   1      40.423  29.869  33.053  1.00  0.00    -0.206 F 
ATOM     60  C   UNL A   1      38.348  30.951  33.258  1.00  0.00     0.040 A 
ATOM     61  C   UNL A   1      37.274  31.879  31.312  1.00  0.00     0.040 A 
ATOM     62  F   UNL A   1      38.294  31.689  29.208  1.00  0.00    -0.206 F 
ATOM     63  C   UNL A   1      37.277  31.635  32.683  1.00  0.00     0.006 A 
ENDBRANCH  42  56
BRANCH  43  64
ATOM     64  C   UNL A   1      47.064  27.358  25.736  1.00  0.00     0.057 A 
ATOM     65  C   UNL A   1      48.041  26.642  26.436  1.00  0.00     0.134 A 
ATOM     66  C   UNL A   1      47.260  27.549  24.364  1.00  0.00     0.134 A 
ATOM     67  F   UNL A   1      47.924  26.453  27.759  1.00  0.00    -0.206 F 
ATOM     68  C   UNL A   1      49.173  26.135  25.796  1.00  0.00     0.040 A 
ATOM     69  C   UNL A   1      48.374  27.027  23.706  1.00  0.00     0.040 A 
ATOM     70  F   UNL A   1      46.363  28.235  23.640  1.00  0.00    -0.206 F 
ATOM     71  C   UNL A   1      49.337  26.320  24.424  1.00  0.00     0.006 A 
ENDBRANCH  43  64
BRANCH  55  72
ATOM     72  C   UNL A   1      45.763  33.405  28.897  1.00  0.00     0.057 A 
ATOM     73  C   UNL A   1      45.613  34.434  27.959  1.00  0.00     0.134 A 
ATOM     74  C   UNL A   1      46.645  33.619  29.962  1.00  0.00     0.134 A 
ATOM     75  F   UNL A   1      44.790  34.283  26.911  1.00  0.00    -0.206 F 
ATOM     76  C   UNL A   1      46.327  35.629  28.068  1.00  0.00     0.040 A 
ATOM     77  C   UNL A   1      47.352  34.816  30.090  1.00  0.00     0.040 A 
ATOM     78  F   UNL A   1      46.829  32.674  30.896  1.00  0.00    -0.206 F 
ATOM     79  C   UNL A   1      47.197  35.824  29.139  1.00  0.00     0.006 A 
ENDBRANCH  55  72
ENDBRANCH  29  30
ENDBRANCH  22  24
ENDBRANCH  21  22
ENDBRANCH  20  21
ENDBRANCH   1  20
TORSDOF 13
ENDMDL
MODEL 2
REMARK VINA RESULT:     -11.4      4.241      8.707
REMARK SMILES CC(C)c1ccc([C@]2(C(=O)OCCOC(=O)c3ccc(-c4c5nc(c(-c6c(F)cccc6F)c6ccc([nH]6)c(-c6c(F)cccc6F)c6nc(c(-c7c(F)cccc7F)c7ccc4[nH]7)C=C6)C=C5)cc3)CCC[C@@H]2C)cc1
REMARK SMILES IDX 12 1 11 2 9 3 10 4 8 5 71 6 74 7 72 8 73 9 75 10 7 11 4 12
REMARK SMILES IDX 5 13 77 14 6 15 76 16 2 17 1 18 3 19 13 20 14 21 15 22 16 23
REMARK SMILES IDX 17 24 18 25 70 26 19 27 69 28 20 29 21 30 22 31 63 32 23 33
REMARK SMILES IDX 68 34 62 35 64 36 24 37 67 38 61 39 60 40 25 42 51 43 34 44
REMARK SMILES IDX 50 45 35 46 38 47 49 48 65 49 36 50 37 51 48 53 66 54 39 55
REMARK SMILES IDX 26 56 27 57 32 58 28 59 29 60 31 61 33 62 30 63 52 64 53 65
REMARK SMILES IDX 58 66 54 67 55 68 57 69 59 70 56 71 40 72 41 73 46 74 42 75
REMARK SMILES IDX 43 76 45 77 47 78 44 79
REMARK H PARENT 64 41 38 52
REMARK Flexibility Score: inf
ROOT
ATOM      1  C   UNL A   1      32.548  29.417  24.448  1.00  0.00     0.274 C 
ENDROOT
BRANCH   1   2
ATOM      2  O   UNL A   1      32.846  28.056  24.817  1.00  0.00    -0.461 OA
BRANCH   2   3
ATOM      3  C   UNL A   1      32.724  27.103  23.850  1.00  0.00     0.316 C 
ATOM      4  O   UNL A   1      32.936  27.312  22.659  1.00  0.00    -0.251 OA
BRANCH   3   5
ATOM      5  C   UNL A   1      32.197  25.746  24.411  1.00  0.00     0.095 C 
ATOM      6  C   UNL A   1      31.229  25.938  25.609  1.00  0.00     0.024 C 
ATOM      7  C   UNL A   1      31.222  25.160  23.335  1.00  0.00     0.008 C 
ATOM      8  C   UNL A   1      29.857  26.273  25.018  1.00  0.00     0.002 C 
ATOM      9  C   UNL A   1      29.952  26.005  23.519  1.00  0.00     0.005 C 
ATOM     10  C   UNL A   1      30.872  23.674  23.498  1.00  0.00     0.009 C 
BRANCH   5  11
ATOM     11  C   UNL A   1      33.400  24.840  24.730  1.00  0.00    -0.030 A 
ATOM     12  C   UNL A   1      35.662  23.201  25.401  1.00  0.00    -0.045 A 
ATOM     13  C   UNL A   1      34.658  23.480  26.337  1.00  0.00     0.004 A 
ATOM     14  C   UNL A   1      35.495  23.736  24.114  1.00  0.00     0.004 A 
ATOM     15  C   UNL A   1      33.549  24.272  26.006  1.00  0.00     0.005 A 
ATOM     16  C   UNL A   1      34.379  24.523  23.779  1.00  0.00     0.005 A 
BRANCH  12  17
ATOM     17  C   UNL A   1      36.925  22.415  25.758  1.00  0.00     0.013 C 
ATOM     18  C   UNL A   1      37.402  21.433  24.675  1.00  0.00     0.012 C 
ATOM     19  C   UNL A   1      38.113  23.313  26.122  1.00  0.00     0.012 C 
ENDBRANCH  12  17
ENDBRANCH   5  11
ENDBRANCH   3   5
ENDBRANCH   2   3
ENDBRANCH   1   2
BRANCH   1  20
ATOM     20  C   UNL A   1      31.453  29.972  25.351  1.00  0.00     0.275 C 
BRANCH  20  21
ATOM     21  O   UNL A   1      31.964  30.083  26.689  1.00  0.00    -0.458 OA
BRANCH  21  22
ATOM     22  C   UNL A   1      32.572  31.247  26.996  1.00  0.00     0.338 C 
ATOM     23  O   UNL A   1      32.132  32.382  26.877  1.00  0.00    -0.246 OA
BRANCH  22  24
ATOM     24  C   UNL A   1      33.905  30.957  27.538  1.00  0.00     0.060 A 
ATOM     25  C   UNL A   1      34.337  29.635  27.601  1.00  0.00     0.016 A 
ATOM     26  C   UNL A   1      34.675  31.981  28.092  1.00  0.00     0.016 A 
ATOM     27  C   UNL A   1      35.504  29.326  28.295  1.00  0.00     0.010 A 
ATOM     28  C   UNL A   1      35.887  31.672  28.720  1.00  0.00     0.010 A 
ATOM     29  C   UNL A   1      36.294  30.336  28.869  1.00  0.00    -0.014 A 
BRANCH  29  30
ATOM     30  C   UNL A   1      37.474  29.968  29.703  1.00  0.00     0.031 A 
ATOM     31  C   UNL A   1      38.643  29.242  29.081  1.00  0.00     0.074 A 
ATOM     32  C   UNL A   1      37.582  30.407  30.974  1.00  0.00     0.049 A 
ATOM     33  N   UNL A   1      39.732  28.787  29.649  1.00  0.00    -0.248 NA
ATOM     34  C   UNL A   1      38.588  29.012  27.628  1.00  0.00     0.031 C 
ATOM     35  C   UNL A   1      36.588  31.217  31.677  1.00  0.00     0.029 A 
ATOM     36  N   UNL A   1      38.612  30.290  31.875  1.00  0.00    -0.354 N 
ATOM     37  C   UNL A   1      40.460  28.170  28.640  1.00  0.00     0.074 A 
ATOM     38  C   UNL A   1      39.698  28.319  27.418  1.00  0.00     0.031 C 
ATOM     39  C   UNL A   1      37.095  31.604  32.858  1.00  0.00     0.029 A 
ATOM     40  C   UNL A   1      38.409  30.997  33.037  1.00  0.00     0.049 A 
ATOM     41  H   UNL A   1      39.418  29.751  31.706  1.00  0.00     0.167 HD
ATOM     42  C   UNL A   1      41.652  27.533  28.720  1.00  0.00     0.037 A 
ATOM     43  C   UNL A   1      39.186  31.131  34.129  1.00  0.00     0.037 A 
ATOM     44  C   UNL A   1      42.447  27.432  29.916  1.00  0.00     0.049 A 
ATOM     45  C   UNL A   1      40.482  30.377  34.213  1.00  0.00     0.074 A 
ATOM     46  C   UNL A   1      43.635  26.747  30.108  1.00  0.00     0.029 A 
ATOM     47  N   UNL A   1      42.152  28.066  31.111  1.00  0.00    -0.354 N 
ATOM     48  N   UNL A   1      41.084  29.663  33.295  1.00  0.00    -0.248 NA
ATOM     49  C   UNL A   1      41.184  30.414  35.506  1.00  0.00     0.031 C 
ATOM     50  C   UNL A   1      44.051  26.956  31.428  1.00  0.00     0.029 A 
ATOM     51  C   UNL A   1      43.135  27.791  32.046  1.00  0.00     0.049 A 
ATOM     52  H   UNL A   1      41.361  28.630  31.271  1.00  0.00     0.167 HD
ATOM     53  C   UNL A   1      42.222  29.150  33.902  1.00  0.00     0.074 A 
ATOM     54  C   UNL A   1      42.251  29.669  35.253  1.00  0.00     0.031 C 
ATOM     55  C   UNL A   1      43.147  28.302  33.391  1.00  0.00     0.037 A 
BRANCH  42  56
ATOM     56  C   UNL A   1      42.152  26.849  27.486  1.00  0.00     0.057 A 
ATOM     57  C   UNL A   1      41.842  25.517  27.196  1.00  0.00     0.134 A 
ATOM     58  C   UNL A   1      42.928  27.555  26.555  1.00  0.00     0.134 A 
ATOM     59  F   UNL A   1      41.119  24.784  28.056  1.00  0.00    -0.206 F 
ATOM     60  C   UNL A   1      42.294  24.904  26.025  1.00  0.00     0.040 A 
ATOM     61  C   UNL A   1      43.370  26.959  25.375  1.00  0.00     0.040 A 
ATOM     62  F   UNL A   1      43.257  28.836  26.776  1.00  0.00    -0.206 F 
ATOM     63  C   UNL A   1      43.055  25.629  25.108  1.00  0.00     0.006 A 
ENDBRANCH  42  56
BRANCH  43  64
ATOM     64  C   UNL A   1      38.743  31.989  35.257  1.00  0.00     0.057 A 
ATOM     65  C   UNL A   1      38.930  33.375  35.220  1.00  0.00     0.134 A 
ATOM     66  C   UNL A   1      38.138  31.449  36.398  1.00  0.00     0.134 A 
ATOM     67  F   UNL A   1      39.532  33.948  34.166  1.00  0.00    -0.206 F 
ATOM     68  C   UNL A   1      38.532  34.194  36.277  1.00  0.00     0.040 A 
ATOM     69  C   UNL A   1      37.713  32.257  37.452  1.00  0.00     0.040 A 
ATOM     70  F   UNL A   1      37.940  30.126  36.497  1.00  0.00    -0.206 F 
ATOM     71  C   UNL A   1      37.913  33.636  37.395  1.00  0.00     0.006 A 
ENDBRANCH  43  64
BRANCH  55  72
ATOM     72  C   UNL A   1      44.252  27.867  34.302  1.00  0.00     0.057 A 
ATOM     73  C   UNL A   1      44.145  26.696  35.063  1.00  0.00     0.134 A 
ATOM     74  C   UNL A   1      45.441  28.598  34.396  1.00  0.00     0.134 A 
ATOM     75  F   UNL A   1      43.025  25.960  35.023  1.00  0.00    -0.206 F 
ATOM     76  C   UNL A   1      45.180  26.274  35.899  1.00  0.00     0.040 A 
ATOM     77  C   UNL A   1      46.490  28.178  35.216  1.00  0.00     0.040 A 
ATOM     78  F   UNL A   1      45.607  29.725  33.689  1.00  0.00    -0.206 F 
ATOM     79  C   UNL A   1      46.359  27.014  35.974  1.00  0.00     0.006 A 
ENDBRANCH  55  72
ENDBRANCH  29  30
ENDBRANCH  22  24
ENDBRANCH  21  22
ENDBRANCH  20  21
ENDBRANCH   1  20
TORSDOF 13
ENDMDL
MODEL 3
REMARK VINA RESULT:     -11.3      4.511      9.462
REMARK SMILES CC(C)c1ccc([C@]2(C(=O)OCCOC(=O)c3ccc(-c4c5nc(c(-c6c(F)cccc6F)c6ccc([nH]6)c(-c6c(F)cccc6F)c6nc(c(-c7c(F)cccc7F)c7ccc4[nH]7)C=C6)C=C5)cc3)CCC[C@@H]2C)cc1
REMARK SMILES IDX 12 1 11 2 9 3 10 4 8 5 71 6 74 7 72 8 73 9 75 10 7 11 4 12
REMARK SMILES IDX 5 13 77 14 6 15 76 16 2 17 1 18 3 19 13 20 14 21 15 22 16 23
REMARK SMILES IDX 17 24 18 25 70 26 19 27 69 28 20 29 21 30 22 31 63 32 23 33
REMARK SMILES IDX 68 34 62 35 64 36 24 37 67 38 61 39 60 40 25 42 51 43 34 44
REMARK SMILES IDX 50 45 35 46 38 47 49 48 65 49 36 50 37 51 48 53 66 54 39 55
REMARK SMILES IDX 26 56 27 57 32 58 28 59 29 60 31 61 33 62 30 63 52 64 53 65
REMARK SMILES IDX 58 66 54 67 55 68 57 69 59 70 56 71 40 72 41 73 46 74 42 75
REMARK SMILES IDX 43 76 45 77 47 78 44 79
REMARK H PARENT 64 41 38 52
REMARK Flexibility Score: inf
ROOT
ATOM      1  C   UNL A   1      31.787  28.633  27.524  1.00  0.00     0.274 C 
ENDROOT
BRANCH   1   2
ATOM      2  O   UNL A   1      32.444  27.612  26.748  1.00  0.00    -0.461 OA
BRANCH   2   3
ATOM      3  C   UNL A   1      31.660  26.647  26.188  1.00  0.00     0.316 C 
ATOM      4  O   UNL A   1      30.967  25.872  26.840  1.00  0.00    -0.251 OA
BRANCH   3   5
ATOM      5  C   UNL A   1      31.812  26.579  24.637  1.00  0.00     0.095 C 
ATOM      6  C   UNL A   1      33.266  26.861  24.173  1.00  0.00     0.024 C 
ATOM      7  C   UNL A   1      31.661  25.073  24.234  1.00  0.00     0.008 C 
ATOM      8  C   UNL A   1      34.047  25.555  24.348  1.00  0.00     0.002 C 
ATOM      9  C   UNL A   1      33.015  24.468  24.635  1.00  0.00     0.005 C 
ATOM     10  C   UNL A   1      31.408  24.809  22.742  1.00  0.00     0.009 C 
BRANCH   5  11
ATOM     11  C   UNL A   1      30.769  27.510  23.994  1.00  0.00    -0.030 A 
ATOM     12  C   UNL A   1      28.853  29.318  22.847  1.00  0.00    -0.045 A 
ATOM     13  C   UNL A   1      30.218  29.630  22.891  1.00  0.00     0.004 A 
ATOM     14  C   UNL A   1      28.472  28.069  23.364  1.00  0.00     0.004 A 
ATOM     15  C   UNL A   1      31.154  28.743  23.442  1.00  0.00     0.005 A 
ATOM     16  C   UNL A   1      29.410  27.176  23.908  1.00  0.00     0.005 A 
BRANCH  12  17
ATOM     17  C   UNL A   1      27.800  30.301  22.333  1.00  0.00     0.013 C 
ATOM     18  C   UNL A   1      27.653  31.584  23.169  1.00  0.00     0.012 C 
ATOM     19  C   UNL A   1      28.027  30.723  20.876  1.00  0.00     0.012 C 
ENDBRANCH  12  17
ENDBRANCH   5  11
ENDBRANCH   3   5
ENDBRANCH   2   3
ENDBRANCH   1   2
BRANCH   1  20
ATOM     20  C   UNL A   1      31.699  29.923  26.718  1.00  0.00     0.275 C 
BRANCH  20  21
ATOM     21  O   UNL A   1      33.028  30.362  26.394  1.00  0.00    -0.458 OA
BRANCH  21  22
ATOM     22  C   UNL A   1      33.497  31.406  27.108  1.00  0.00     0.338 C 
ATOM     23  O   UNL A   1      32.982  32.504  27.265  1.00  0.00    -0.246 OA
BRANCH  22  24
ATOM     24  C   UNL A   1      34.774  31.025  27.723  1.00  0.00     0.060 A 
ATOM     25  C   UNL A   1      35.020  29.682  27.997  1.00  0.00     0.016 A 
ATOM     26  C   UNL A   1      35.675  32.008  28.135  1.00  0.00     0.016 A 
ATOM     27  C   UNL A   1      36.129  29.328  28.760  1.00  0.00     0.010 A 
ATOM     28  C   UNL A   1      36.830  31.638  28.835  1.00  0.00     0.010 A 
ATOM     29  C   UNL A   1      37.048  30.298  29.195  1.00  0.00    -0.014 A 
BRANCH  29  30
ATOM     30  C   UNL A   1      38.161  29.906  30.106  1.00  0.00     0.031 A 
ATOM     31  C   UNL A   1      39.339  29.128  29.570  1.00  0.00     0.074 A 
ATOM     32  C   UNL A   1      38.209  30.367  31.373  1.00  0.00     0.049 A 
ATOM     33  N   UNL A   1      40.374  28.646  30.212  1.00  0.00    -0.248 NA
ATOM     34  C   UNL A   1      39.364  28.870  28.121  1.00  0.00     0.031 C 
ATOM     35  C   UNL A   1      37.204  31.226  31.999  1.00  0.00     0.029 A 
ATOM     36  N   UNL A   1      39.177  30.233  32.337  1.00  0.00    -0.354 N 
ATOM     37  C   UNL A   1      41.139  27.984  29.260  1.00  0.00     0.074 A 
ATOM     38  C   UNL A   1      40.458  28.135  27.992  1.00  0.00     0.031 C 
ATOM     39  C   UNL A   1      37.652  31.619  33.201  1.00  0.00     0.029 A 
ATOM     40  C   UNL A   1      38.931  30.971  33.471  1.00  0.00     0.049 A 
ATOM     41  H   UNL A   1      39.972  29.663  32.228  1.00  0.00     0.167 HD
ATOM     42  C   UNL A   1      42.300  27.307  29.425  1.00  0.00     0.037 A 
ATOM     43  C   UNL A   1      39.644  31.100  34.606  1.00  0.00     0.037 A 
ATOM     44  C   UNL A   1      43.018  27.204  30.668  1.00  0.00     0.049 A 
ATOM     45  C   UNL A   1      40.905  30.303  34.783  1.00  0.00     0.074 A 
ATOM     46  C   UNL A   1      44.166  26.482  30.945  1.00  0.00     0.029 A 
ATOM     47  N   UNL A   1      42.675  27.872  31.831  1.00  0.00    -0.354 N 
ATOM     48  N   UNL A   1      41.536  29.550  33.917  1.00  0.00    -0.248 NA
ATOM     49  C   UNL A   1      41.529  30.342  36.115  1.00  0.00     0.031 C 
ATOM     50  C   UNL A   1      44.510  26.703  32.284  1.00  0.00     0.029 A 
ATOM     51  C   UNL A   1      43.589  27.582  32.829  1.00  0.00     0.049 A 
ATOM     52  H   UNL A   1      41.896  28.467  31.932  1.00  0.00     0.167 HD
ATOM     53  C   UNL A   1      42.616  29.010  34.601  1.00  0.00     0.074 A 
ATOM     54  C   UNL A   1      42.582  29.555  35.941  1.00  0.00     0.031 C 
ATOM     55  C   UNL A   1      43.538  28.120  34.162  1.00  0.00     0.037 A 
BRANCH  42  56
ATOM     56  C   UNL A   1      42.849  26.581  28.236  1.00  0.00     0.057 A 
ATOM     57  C   UNL A   1      43.799  27.157  27.386  1.00  0.00     0.134 A 
ATOM     58  C   UNL A   1      42.445  25.267  27.965  1.00  0.00     0.134 A 
ATOM     59  F   UNL A   1      44.212  28.418  27.583  1.00  0.00    -0.206 F 
ATOM     60  C   UNL A   1      44.321  26.454  26.298  1.00  0.00     0.040 A 
ATOM     61  C   UNL A   1      42.972  24.549  26.891  1.00  0.00     0.040 A 
ATOM     62  F   UNL A   1      41.538  24.660  28.744  1.00  0.00    -0.206 F 
ATOM     63  C   UNL A   1      43.912  25.144  26.053  1.00  0.00     0.006 A 
ENDBRANCH  42  56
BRANCH  43  64
ATOM     64  C   UNL A   1      39.166  31.996  35.689  1.00  0.00     0.057 A 
ATOM     65  C   UNL A   1      39.628  33.312  35.787  1.00  0.00     0.134 A 
ATOM     66  C   UNL A   1      38.251  31.558  36.654  1.00  0.00     0.134 A 
ATOM     67  F   UNL A   1      40.530  33.780  34.910  1.00  0.00    -0.206 F 
ATOM     68  C   UNL A   1      39.199  34.163  36.807  1.00  0.00     0.040 A 
ATOM     69  C   UNL A   1      37.794  32.405  37.664  1.00  0.00     0.040 A 
ATOM     70  F   UNL A   1      37.778  30.304  36.619  1.00  0.00    -0.206 F 
ATOM     71  C   UNL A   1      38.272  33.712  37.744  1.00  0.00     0.006 A 
ENDBRANCH  43  64
BRANCH  55  72
ATOM     72  C   UNL A   1      44.571  27.666  35.147  1.00  0.00     0.057 A 
ATOM     73  C   UNL A   1      44.373  26.518  35.925  1.00  0.00     0.134 A 
ATOM     74  C   UNL A   1      45.780  28.353  35.296  1.00  0.00     0.134 A 
ATOM     75  F   UNL A   1      43.230  25.824  35.834  1.00  0.00    -0.206 F 
ATOM     76  C   UNL A   1      45.340  26.077  36.831  1.00  0.00     0.040 A 
ATOM     77  C   UNL A   1      46.761  27.914  36.186  1.00  0.00     0.040 A 
ATOM     78  F   UNL A   1      46.030  29.456  34.576  1.00  0.00    -0.206 F 
ATOM     79  C   UNL A   1      46.540  26.774  36.960  1.00  0.00     0.006 A 
ENDBRANCH  55  72
ENDBRANCH  29  30
ENDBRANCH  22  24
ENDBRANCH  21  22
ENDBRANCH  20  21
ENDBRANCH   1  20
TORSDOF 13
ENDMDL
