MODEL 1
REMARK VINA RESULT:     -10.1      0.000      0.000
REMARK SMILES O=C(OCCOC(=O)[C@H]1CC1(c1ccccc1)c1ccccc1)c1ccc(-c2c3nc(c(-c4c(F)cccc4F)c4ccc([nH]4)c(-c4c(F)cccc4F)c4nc(c(-c5c(F)cccc5F)c5ccc2[nH]5)C=C4)C=C3)cc1
REMARK SMILES IDX 4 1 3 2 2 3 1 4 24 5 25 6 77 7 26 8 76 9 27 10 28 11 29 12
REMARK SMILES IDX 70 13 30 14 75 15 69 16 71 17 31 18 74 19 68 20 67 21 32 23
REMARK SMILES IDX 58 24 41 25 57 26 42 27 45 28 56 29 72 30 43 31 44 32 55 34
REMARK SMILES IDX 73 35 46 36 33 37 34 38 39 39 35 40 36 41 38 42 40 43 37 44
REMARK SMILES IDX 59 45 60 46 65 47 61 48 62 49 64 50 66 51 63 52 47 53 48 54
REMARK SMILES IDX 53 55 49 56 50 57 52 58 54 59 51 60 5 61 6 62 7 63 8 64 9 65
REMARK SMILES IDX 10 66 11 67 12 68 13 69 17 70 14 71 16 72 15 73 18 74 19 75
REMARK SMILES IDX 23 76 20 77 22 78 21 79
REMARK H PARENT 71 22 45 33
REMARK Flexibility Score: inf
ROOT
ATOM      1  C   UNL A   1      34.136  33.528  28.024  1.00  0.00     0.275 C 
ENDROOT
BRANCH   1   2
ATOM      2  O   UNL A   1      33.930  32.178  28.491  1.00  0.00    -0.458 OA
BRANCH   2   3
ATOM      3  C   UNL A   1      34.381  31.004  27.991  1.00  0.00     0.338 C 
ATOM      4  O   UNL A   1      33.616  30.297  27.336  1.00  0.00    -0.246 OA
BRANCH   3   5
ATOM      5  C   UNL A   1      35.734  30.457  28.296  1.00  0.00     0.060 A 
ATOM      6  C   UNL A   1      36.844  30.509  27.449  1.00  0.00     0.016 A 
ATOM      7  C   UNL A   1      35.875  29.813  29.533  1.00  0.00     0.016 A 
ATOM      8  C   UNL A   1      38.101  30.060  27.881  1.00  0.00     0.010 A 
ATOM      9  C   UNL A   1      37.119  29.328  29.945  1.00  0.00     0.010 A 
ATOM     10  C   UNL A   1      38.255  29.482  29.143  1.00  0.00    -0.014 A 
BRANCH  10  11
ATOM     11  C   UNL A   1      39.561  28.919  29.568  1.00  0.00     0.031 A 
ATOM     12  C   UNL A   1      40.293  29.585  30.699  1.00  0.00     0.074 A 
ATOM     13  C   UNL A   1      40.088  27.833  28.969  1.00  0.00     0.049 A 
ATOM     14  N   UNL A   1      41.391  29.216  31.305  1.00  0.00    -0.248 NA
ATOM     15  C   UNL A   1      39.709  30.834  31.216  1.00  0.00     0.031 C 
ATOM     16  C   UNL A   1      39.502  27.109  27.840  1.00  0.00     0.029 A 
ATOM     17  N   UNL A   1      41.251  27.144  29.229  1.00  0.00    -0.354 N 
ATOM     18  C   UNL A   1      41.610  30.171  32.288  1.00  0.00     0.074 A 
ATOM     19  C   UNL A   1      40.582  31.175  32.149  1.00  0.00     0.031 C 
ATOM     20  C   UNL A   1      40.306  26.085  27.502  1.00  0.00     0.029 A 
ATOM     21  C   UNL A   1      41.459  26.066  28.398  1.00  0.00     0.049 A 
ATOM     22  H   UNL A   1      41.877  27.399  29.944  1.00  0.00     0.167 HD
ATOM     23  C   UNL A   1      42.556  30.189  33.255  1.00  0.00     0.037 A 
ATOM     24  C   UNL A   1      42.455  25.157  28.383  1.00  0.00     0.037 A 
ATOM     25  C   UNL A   1      43.581  29.195  33.398  1.00  0.00     0.049 A 
ATOM     26  C   UNL A   1      43.528  25.227  29.442  1.00  0.00     0.074 A 
ATOM     27  C   UNL A   1      44.568  29.105  34.362  1.00  0.00     0.029 A 
ATOM     28  N   UNL A   1      43.755  28.122  32.538  1.00  0.00    -0.354 N 
ATOM     29  N   UNL A   1      43.652  26.069  30.440  1.00  0.00    -0.248 NA
ATOM     30  C   UNL A   1      44.585  24.206  29.388  1.00  0.00     0.031 C 
ATOM     31  C   UNL A   1      45.365  27.995  34.063  1.00  0.00     0.029 A 
ATOM     32  C   UNL A   1      44.850  27.375  32.935  1.00  0.00     0.049 A 
ATOM     33  H   UNL A   1      43.185  27.921  31.762  1.00  0.00     0.167 HD
ATOM     34  C   UNL A   1      44.772  25.654  31.152  1.00  0.00     0.074 A 
ATOM     35  C   UNL A   1      45.286  24.481  30.479  1.00  0.00     0.031 C 
ATOM     36  C   UNL A   1      45.326  26.195  32.264  1.00  0.00     0.037 A 
BRANCH  23  37
ATOM     37  C   UNL A   1      42.500  31.322  34.232  1.00  0.00     0.057 A 
ATOM     38  C   UNL A   1      41.780  31.217  35.430  1.00  0.00     0.134 A 
ATOM     39  C   UNL A   1      43.152  32.532  33.970  1.00  0.00     0.134 A 
ATOM     40  F   UNL A   1      41.116  30.089  35.727  1.00  0.00    -0.206 F 
ATOM     41  C   UNL A   1      41.685  32.286  36.320  1.00  0.00     0.040 A 
ATOM     42  C   UNL A   1      43.083  33.602  34.864  1.00  0.00     0.040 A 
ATOM     43  F   UNL A   1      43.854  32.696  32.839  1.00  0.00    -0.206 F 
ATOM     44  C   UNL A   1      42.341  33.483  36.038  1.00  0.00     0.006 A 
ENDBRANCH  23  37
BRANCH  24  45
ATOM     45  C   UNL A   1      42.489  24.073  27.364  1.00  0.00     0.057 A 
ATOM     46  C   UNL A   1      42.037  22.781  27.660  1.00  0.00     0.134 A 
ATOM     47  C   UNL A   1      43.049  24.280  26.098  1.00  0.00     0.134 A 
ATOM     48  F   UNL A   1      41.511  22.510  28.865  1.00  0.00    -0.206 F 
ATOM     49  C   UNL A   1      42.175  21.727  26.753  1.00  0.00     0.040 A 
ATOM     50  C   UNL A   1      43.172  23.242  25.172  1.00  0.00     0.040 A 
ATOM     51  F   UNL A   1      43.499  25.494  25.748  1.00  0.00    -0.206 F 
ATOM     52  C   UNL A   1      42.746  21.957  25.504  1.00  0.00     0.006 A 
ENDBRANCH  24  45
BRANCH  36  53
ATOM     53  C   UNL A   1      46.524  25.506  32.847  1.00  0.00     0.057 A 
ATOM     54  C   UNL A   1      47.827  25.846  32.467  1.00  0.00     0.134 A 
ATOM     55  C   UNL A   1      46.370  24.541  33.851  1.00  0.00     0.134 A 
ATOM     56  F   UNL A   1      48.038  26.754  31.502  1.00  0.00    -0.206 F 
ATOM     57  C   UNL A   1      48.937  25.241  33.056  1.00  0.00     0.040 A 
ATOM     58  C   UNL A   1      47.472  23.947  34.464  1.00  0.00     0.040 A 
ATOM     59  F   UNL A   1      45.146  24.178  34.266  1.00  0.00    -0.206 F 
ATOM     60  C   UNL A   1      48.761  24.295  34.065  1.00  0.00     0.006 A 
ENDBRANCH  36  53
ENDBRANCH  10  11
ENDBRANCH   3   5
ENDBRANCH   2   3
ENDBRANCH   1   2
BRANCH   1  61
ATOM     61  C   UNL A   1      33.903  34.599  29.086  1.00  0.00     0.274 C 
BRANCH  61  62
ATOM     62  O   UNL A   1      33.578  34.013  30.355  1.00  0.00    -0.462 OA
BRANCH  62  63
ATOM     63  C   UNL A   1      34.082  34.633  31.460  1.00  0.00     0.310 C 
ATOM     64  O   UNL A   1      34.120  35.838  31.636  1.00  0.00    -0.252 OA
BRANCH  63  65
ATOM     65  C   UNL A   1      34.663  33.642  32.405  1.00  0.00     0.115 C 
ATOM     66  C   UNL A   1      35.027  32.283  31.887  1.00  0.00     0.034 C 
ATOM     67  C   UNL A   1      36.131  33.196  32.435  1.00  0.00     0.034 C 
BRANCH  67  68
ATOM     68  C   UNL A   1      37.141  33.715  31.402  1.00  0.00    -0.037 A 
ATOM     69  C   UNL A   1      37.102  33.240  30.079  1.00  0.00     0.004 A 
ATOM     70  C   UNL A   1      38.226  34.534  31.765  1.00  0.00     0.004 A 
ATOM     71  C   UNL A   1      38.123  33.523  29.172  1.00  0.00     0.000 A 
ATOM     72  C   UNL A   1      39.260  34.806  30.865  1.00  0.00     0.000 A 
ATOM     73  C   UNL A   1      39.213  34.291  29.573  1.00  0.00     0.000 A 
ENDBRANCH  67  68
BRANCH  67  74
ATOM     74  C   UNL A   1      36.773  32.861  33.829  1.00  0.00    -0.037 A 
ATOM     75  C   UNL A   1      37.471  31.644  34.036  1.00  0.00     0.004 A 
ATOM     76  C   UNL A   1      36.714  33.715  34.949  1.00  0.00     0.004 A 
ATOM     77  C   UNL A   1      38.058  31.299  35.258  1.00  0.00     0.000 A 
ATOM     78  C   UNL A   1      37.310  33.382  36.176  1.00  0.00     0.000 A 
ATOM     79  C   UNL A   1      37.980  32.173  36.330  1.00  0.00     0.000 A 
ENDBRANCH  67  74
ENDBRANCH  63  65
ENDBRANCH  62  63
ENDBRANCH  61  62
ENDBRANCH   1  61
TORSDOF 13
ENDMDL
MODEL 2
REMARK VINA RESULT:      -9.9      4.414     10.943
REMARK SMILES O=C(OCCOC(=O)[C@H]1CC1(c1ccccc1)c1ccccc1)c1ccc(-c2c3nc(c(-c4c(F)cccc4F)c4ccc([nH]4)c(-c4c(F)cccc4F)c4nc(c(-c5c(F)cccc5F)c5ccc2[nH]5)C=C4)C=C3)cc1
REMARK SMILES IDX 4 1 3 2 2 3 1 4 24 5 25 6 77 7 26 8 76 9 27 10 28 11 29 12
REMARK SMILES IDX 70 13 30 14 75 15 69 16 71 17 31 18 74 19 68 20 67 21 32 23
REMARK SMILES IDX 58 24 41 25 57 26 42 27 45 28 56 29 72 30 43 31 44 32 55 34
REMARK SMILES IDX 73 35 46 36 33 37 34 38 39 39 35 40 36 41 38 42 40 43 37 44
REMARK SMILES IDX 59 45 60 46 65 47 61 48 62 49 64 50 66 51 63 52 47 53 48 54
REMARK SMILES IDX 53 55 49 56 50 57 52 58 54 59 51 60 5 61 6 62 7 63 8 64 9 65
REMARK SMILES IDX 10 66 11 67 12 68 13 69 17 70 14 71 16 72 15 73 18 74 19 75
REMARK SMILES IDX 23 76 20 77 22 78 21 79
REMARK H PARENT 71 22 45 33
REMARK Flexibility Score: inf
ROOT
ATOM      1  C   UNL A   1      40.678  20.679  26.817  1.00  0.00     0.275 C 
ENDROOT
BRANCH   1   2
ATOM      2  O   UNL A   1      40.211  21.787  26.019  1.00  0.00    -0.458 OA
BRANCH   2   3
ATOM      3  C   UNL A   1      39.268  22.720  26.290  1.00  0.00     0.338 C 
ATOM      4  O   UNL A   1      38.110  22.528  25.922  1.00  0.00    -0.246 OA
BRANCH   3   5
ATOM      5  C   UNL A   1      39.586  24.038  26.910  1.00  0.00     0.060 A 
ATOM      6  C   UNL A   1      39.316  24.403  28.232  1.00  0.00     0.016 A 
ATOM      7  C   UNL A   1      40.178  24.990  26.070  1.00  0.00     0.016 A 
ATOM      8  C   UNL A   1      39.757  25.632  28.744  1.00  0.00     0.010 A 
ATOM      9  C   UNL A   1      40.578  26.232  26.571  1.00  0.00     0.010 A 
ATOM     10  C   UNL A   1      40.410  26.552  27.922  1.00  0.00    -0.014 A 
BRANCH  10  11
ATOM     11  C   UNL A   1      40.794  27.892  28.433  1.00  0.00     0.031 A 
ATOM     12  C   UNL A   1      42.253  28.249  28.480  1.00  0.00     0.074 A 
ATOM     13  C   UNL A   1      39.867  28.780  28.844  1.00  0.00     0.049 A 
ATOM     14  N   UNL A   1      42.817  29.387  28.790  1.00  0.00    -0.248 NA
ATOM     15  C   UNL A   1      43.203  27.181  28.130  1.00  0.00     0.031 C 
ATOM     16  C   UNL A   1      38.422  28.553  28.883  1.00  0.00     0.029 A 
ATOM     17  N   UNL A   1      40.007  30.066  29.312  1.00  0.00    -0.354 N 
ATOM     18  C   UNL A   1      44.180  29.177  28.644  1.00  0.00     0.074 A 
ATOM     19  C   UNL A   1      44.367  27.787  28.298  1.00  0.00     0.031 C 
ATOM     20  C   UNL A   1      37.811  29.655  29.354  1.00  0.00     0.029 A 
ATOM     21  C   UNL A   1      38.816  30.676  29.635  1.00  0.00     0.049 A 
ATOM     22  H   UNL A   1      40.881  30.510  29.409  1.00  0.00     0.167 HD
ATOM     23  C   UNL A   1      45.191  30.071  28.745  1.00  0.00     0.037 A 
ATOM     24  C   UNL A   1      38.569  31.924  30.083  1.00  0.00     0.037 A 
ATOM     25  C   UNL A   1      45.013  31.452  29.090  1.00  0.00     0.049 A 
ATOM     26  C   UNL A   1      39.719  32.889  30.235  1.00  0.00     0.074 A 
ATOM     27  C   UNL A   1      45.967  32.448  29.188  1.00  0.00     0.029 A 
ATOM     28  N   UNL A   1      43.792  32.028  29.407  1.00  0.00    -0.354 N 
ATOM     29  N   UNL A   1      40.992  32.708  29.976  1.00  0.00    -0.248 NA
ATOM     30  C   UNL A   1      39.395  34.242  30.716  1.00  0.00     0.031 C 
ATOM     31  C   UNL A   1      45.328  33.621  29.601  1.00  0.00     0.029 A 
ATOM     32  C   UNL A   1      43.971  33.362  29.725  1.00  0.00     0.049 A 
ATOM     33  H   UNL A   1      42.928  31.558  29.407  1.00  0.00     0.167 HD
ATOM     34  C   UNL A   1      41.609  33.929  30.223  1.00  0.00     0.074 A 
ATOM     35  C   UNL A   1      40.572  34.846  30.642  1.00  0.00     0.031 C 
ATOM     36  C   UNL A   1      42.918  34.263  30.113  1.00  0.00     0.037 A 
BRANCH  23  37
ATOM     37  C   UNL A   1      46.570  29.565  28.459  1.00  0.00     0.057 A 
ATOM     38  C   UNL A   1      47.343  28.952  29.455  1.00  0.00     0.134 A 
ATOM     39  C   UNL A   1      47.139  29.705  27.189  1.00  0.00     0.134 A 
ATOM     40  F   UNL A   1      46.859  28.809  30.698  1.00  0.00    -0.206 F 
ATOM     41  C   UNL A   1      48.646  28.522  29.205  1.00  0.00     0.040 A 
ATOM     42  C   UNL A   1      48.435  29.259  26.921  1.00  0.00     0.040 A 
ATOM     43  F   UNL A   1      46.452  30.286  26.194  1.00  0.00    -0.206 F 
ATOM     44  C   UNL A   1      49.194  28.673  27.933  1.00  0.00     0.006 A 
ENDBRANCH  23  37
BRANCH  24  45
ATOM     45  C   UNL A   1      37.183  32.368  30.394  1.00  0.00     0.057 A 
ATOM     46  C   UNL A   1      36.602  32.120  31.644  1.00  0.00     0.134 A 
ATOM     47  C   UNL A   1      36.378  32.976  29.424  1.00  0.00     0.134 A 
ATOM     48  F   UNL A   1      37.313  31.520  32.611  1.00  0.00    -0.206 F 
ATOM     49  C   UNL A   1      35.264  32.424  31.907  1.00  0.00     0.040 A 
ATOM     50  C   UNL A   1      35.045  33.306  29.679  1.00  0.00     0.040 A 
ATOM     51  F   UNL A   1      36.871  33.244  28.205  1.00  0.00    -0.206 F 
ATOM     52  C   UNL A   1      34.481  33.018  30.921  1.00  0.00     0.006 A 
ENDBRANCH  24  45
BRANCH  36  53
ATOM     53  C   UNL A   1      43.299  35.683  30.409  1.00  0.00     0.057 A 
ATOM     54  C   UNL A   1      43.716  36.083  31.684  1.00  0.00     0.134 A 
ATOM     55  C   UNL A   1      43.314  36.642  29.389  1.00  0.00     0.134 A 
ATOM     56  F   UNL A   1      43.712  35.212  32.705  1.00  0.00    -0.206 F 
ATOM     57  C   UNL A   1      44.123  37.392  31.937  1.00  0.00     0.040 A 
ATOM     58  C   UNL A   1      43.744  37.947  29.624  1.00  0.00     0.040 A 
ATOM     59  F   UNL A   1      42.934  36.319  28.143  1.00  0.00    -0.206 F 
ATOM     60  C   UNL A   1      44.148  38.327  30.903  1.00  0.00     0.006 A 
ENDBRANCH  36  53
ENDBRANCH  10  11
ENDBRANCH   3   5
ENDBRANCH   2   3
ENDBRANCH   1   2
BRANCH   1  61
ATOM     61  C   UNL A   1      42.121  20.270  26.535  1.00  0.00     0.274 C 
BRANCH  61  62
ATOM     62  O   UNL A   1      42.620  20.905  25.348  1.00  0.00    -0.462 OA
BRANCH  62  63
ATOM     63  C   UNL A   1      43.967  21.104  25.284  1.00  0.00     0.310 C 
ATOM     64  O   UNL A   1      44.816  20.297  25.624  1.00  0.00    -0.252 OA
BRANCH  63  65
ATOM     65  C   UNL A   1      44.278  22.480  24.815  1.00  0.00     0.115 C 
ATOM     66  C   UNL A   1      43.201  23.522  24.880  1.00  0.00     0.034 C 
ATOM     67  C   UNL A   1      44.472  23.706  25.718  1.00  0.00     0.034 C 
BRANCH  67  68
ATOM     68  C   UNL A   1      44.286  23.609  27.239  1.00  0.00    -0.037 A 
ATOM     69  C   UNL A   1      42.998  23.465  27.784  1.00  0.00     0.004 A 
ATOM     70  C   UNL A   1      45.348  23.828  28.137  1.00  0.00     0.004 A 
ATOM     71  C   UNL A   1      42.768  23.586  29.154  1.00  0.00     0.000 A 
ATOM     72  C   UNL A   1      45.120  23.966  29.508  1.00  0.00     0.000 A 
ATOM     73  C   UNL A   1      43.828  23.856  30.014  1.00  0.00     0.000 A 
ENDBRANCH  67  68
BRANCH  67  74
ATOM     74  C   UNL A   1      45.523  24.788  25.281  1.00  0.00    -0.037 A 
ATOM     75  C   UNL A   1      45.162  26.155  25.181  1.00  0.00     0.004 A 
ATOM     76  C   UNL A   1      46.866  24.499  24.966  1.00  0.00     0.004 A 
ATOM     77  C   UNL A   1      46.059  27.156  24.794  1.00  0.00     0.000 A 
ATOM     78  C   UNL A   1      47.777  25.499  24.588  1.00  0.00     0.000 A 
ATOM     79  C   UNL A   1      47.373  26.826  24.499  1.00  0.00     0.000 A 
ENDBRANCH  67  74
ENDBRANCH  63  65
ENDBRANCH  62  63
ENDBRANCH  61  62
ENDBRANCH   1  61
TORSDOF 13
ENDMDL
MODEL 3
REMARK VINA RESULT:      -9.5      3.307      6.283
REMARK SMILES O=C(OCCOC(=O)[C@H]1CC1(c1ccccc1)c1ccccc1)c1ccc(-c2c3nc(c(-c4c(F)cccc4F)c4ccc([nH]4)c(-c4c(F)cccc4F)c4nc(c(-c5c(F)cccc5F)c5ccc2[nH]5)C=C4)C=C3)cc1
REMARK SMILES IDX 4 1 3 2 2 3 1 4 24 5 25 6 77 7 26 8 76 9 27 10 28 11 29 12
REMARK SMILES IDX 70 13 30 14 75 15 69 16 71 17 31 18 74 19 68 20 67 21 32 23
REMARK SMILES IDX 58 24 41 25 57 26 42 27 45 28 56 29 72 30 43 31 44 32 55 34
REMARK SMILES IDX 73 35 46 36 33 37 34 38 39 39 35 40 36 41 38 42 40 43 37 44
REMARK SMILES IDX 59 45 60 46 65 47 61 48 62 49 64 50 66 51 63 52 47 53 48 54
REMARK SMILES IDX 53 55 49 56 50 57 52 58 54 59 51 60 5 61 6 62 7 63 8 64 9 65
REMARK SMILES IDX 10 66 11 67 12 68 13 69 17 70 14 71 16 72 15 73 18 74 19 75
REMARK SMILES IDX 23 76 20 77 22 78 21 79
REMARK H PARENT 71 22 45 33
REMARK Flexibility Score: inf
ROOT
ATOM      1  C   UNL A   1      31.324  32.363  26.882  1.00  0.00     0.275 C 
ENDROOT
BRANCH   1   2
ATOM      2  O   UNL A   1      32.218  33.492  26.967  1.00  0.00    -0.458 OA
BRANCH   2   3
ATOM      3  C   UNL A   1      32.896  33.989  28.028  1.00  0.00     0.338 C 
ATOM      4  O   UNL A   1      32.499  35.022  28.564  1.00  0.00    -0.246 OA
BRANCH   3   5
ATOM      5  C   UNL A   1      34.184  33.412  28.510  1.00  0.00     0.060 A 
ATOM      6  C   UNL A   1      35.452  33.960  28.300  1.00  0.00     0.016 A 
ATOM      7  C   UNL A   1      34.095  32.200  29.207  1.00  0.00     0.016 A 
ATOM      8  C   UNL A   1      36.589  33.392  28.893  1.00  0.00     0.010 A 
ATOM      9  C   UNL A   1      35.235  31.612  29.762  1.00  0.00     0.010 A 
ATOM     10  C   UNL A   1      36.488  32.221  29.647  1.00  0.00    -0.014 A 
BRANCH  10  11
ATOM     11  C   UNL A   1      37.700  31.563  30.197  1.00  0.00     0.031 A 
ATOM     12  C   UNL A   1      38.123  31.900  31.599  1.00  0.00     0.074 A 
ATOM     13  C   UNL A   1      38.411  30.678  29.471  1.00  0.00     0.049 A 
ATOM     14  N   UNL A   1      39.081  31.381  32.323  1.00  0.00    -0.248 NA
ATOM     15  C   UNL A   1      37.365  32.965  32.278  1.00  0.00     0.031 C 
ATOM     16  C   UNL A   1      38.134  30.285  28.090  1.00  0.00     0.029 A 
ATOM     17  N   UNL A   1      39.527  29.943  29.801  1.00  0.00    -0.354 N 
ATOM     18  C   UNL A   1      39.019  32.036  33.544  1.00  0.00     0.074 A 
ATOM     19  C   UNL A   1      37.988  33.042  33.442  1.00  0.00     0.031 C 
ATOM     20  C   UNL A   1      39.053  29.389  27.688  1.00  0.00     0.029 A 
ATOM     21  C   UNL A   1      39.978  29.128  28.787  1.00  0.00     0.049 A 
ATOM     22  H   UNL A   1      39.964  29.997  30.681  1.00  0.00     0.167 HD
ATOM     23  C   UNL A   1      39.726  31.793  34.672  1.00  0.00     0.037 A 
ATOM     24  C   UNL A   1      41.007  28.255  28.763  1.00  0.00     0.037 A 
ATOM     25  C   UNL A   1      40.753  30.796  34.780  1.00  0.00     0.049 A 
ATOM     26  C   UNL A   1      41.813  28.038  30.019  1.00  0.00     0.074 A 
ATOM     27  C   UNL A   1      41.507  30.449  35.886  1.00  0.00     0.029 A 
ATOM     28  N   UNL A   1      41.176  29.993  33.732  1.00  0.00    -0.354 N 
ATOM     29  N   UNL A   1      41.663  28.580  31.204  1.00  0.00    -0.248 NA
ATOM     30  C   UNL A   1      42.916  27.067  29.943  1.00  0.00     0.031 C 
ATOM     31  C   UNL A   1      42.415  29.459  35.497  1.00  0.00     0.029 A 
ATOM     32  C   UNL A   1      42.200  29.166  34.159  1.00  0.00     0.049 A 
ATOM     33  H   UNL A   1      40.805  30.009  32.821  1.00  0.00     0.167 HD
ATOM     34  C   UNL A   1      42.621  27.988  32.019  1.00  0.00     0.074 A 
ATOM     35  C   UNL A   1      43.341  27.039  31.198  1.00  0.00     0.031 C 
ATOM     36  C   UNL A   1      42.883  28.209  33.329  1.00  0.00     0.037 A 
BRANCH  23  37
ATOM     37  C   UNL A   1      39.387  32.621  35.872  1.00  0.00     0.057 A 
ATOM     38  C   UNL A   1      40.007  33.857  36.104  1.00  0.00     0.134 A 
ATOM     39  C   UNL A   1      38.452  32.176  36.812  1.00  0.00     0.134 A 
ATOM     40  F   UNL A   1      40.928  34.326  35.249  1.00  0.00    -0.206 F 
ATOM     41  C   UNL A   1      39.729  34.608  37.245  1.00  0.00     0.040 A 
ATOM     42  C   UNL A   1      38.149  32.930  37.947  1.00  0.00     0.040 A 
ATOM     43  F   UNL A   1      37.827  31.000  36.649  1.00  0.00    -0.206 F 
ATOM     44  C   UNL A   1      38.795  34.146  38.170  1.00  0.00     0.006 A 
ENDBRANCH  23  37
BRANCH  24  45
ATOM     45  C   UNL A   1      41.330  27.486  27.531  1.00  0.00     0.057 A 
ATOM     46  C   UNL A   1      40.886  26.168  27.358  1.00  0.00     0.134 A 
ATOM     47  C   UNL A   1      42.158  28.017  26.535  1.00  0.00     0.134 A 
ATOM     48  F   UNL A   1      40.109  25.591  28.288  1.00  0.00    -0.206 F 
ATOM     49  C   UNL A   1      41.283  25.395  26.264  1.00  0.00     0.040 A 
ATOM     50  C   UNL A   1      42.544  27.265  25.424  1.00  0.00     0.040 A 
ATOM     51  F   UNL A   1      42.617  29.274  26.636  1.00  0.00    -0.206 F 
ATOM     52  C   UNL A   1      42.116  25.945  25.293  1.00  0.00     0.006 A 
ENDBRANCH  24  45
BRANCH  36  53
ATOM     53  C   UNL A   1      43.962  27.387  33.969  1.00  0.00     0.057 A 
ATOM     54  C   UNL A   1      43.689  26.154  34.573  1.00  0.00     0.134 A 
ATOM     55  C   UNL A   1      45.299  27.804  33.918  1.00  0.00     0.134 A 
ATOM     56  F   UNL A   1      42.428  25.706  34.663  1.00  0.00    -0.206 F 
ATOM     57  C   UNL A   1      44.707  25.370  35.115  1.00  0.00     0.040 A 
ATOM     58  C   UNL A   1      46.327  27.017  34.433  1.00  0.00     0.040 A 
ATOM     59  F   UNL A   1      45.626  28.973  33.344  1.00  0.00    -0.206 F 
ATOM     60  C   UNL A   1      46.032  25.796  35.037  1.00  0.00     0.006 A 
ENDBRANCH  36  53
ENDBRANCH  10  11
ENDBRANCH   3   5
ENDBRANCH   2   3
ENDBRANCH   1   2
BRANCH   1  61
ATOM     61  C   UNL A   1      31.938  31.128  26.229  1.00  0.00     0.274 C 
BRANCH  61  62
ATOM     62  O   UNL A   1      32.157  30.085  27.189  1.00  0.00    -0.462 OA
BRANCH  62  63
ATOM     63  C   UNL A   1      33.287  29.337  27.031  1.00  0.00     0.310 C 
ATOM     64  O   UNL A   1      34.392  29.777  26.763  1.00  0.00    -0.252 OA
BRANCH  63  65
ATOM     65  C   UNL A   1      32.983  27.885  27.149  1.00  0.00     0.115 C 
ATOM     66  C   UNL A   1      31.548  27.454  27.205  1.00  0.00     0.034 C 
ATOM     67  C   UNL A   1      32.420  27.001  26.028  1.00  0.00     0.034 C 
BRANCH  67  68
ATOM     68  C   UNL A   1      32.051  27.590  24.659  1.00  0.00    -0.037 A 
ATOM     69  C   UNL A   1      33.060  28.055  23.798  1.00  0.00     0.004 A 
ATOM     70  C   UNL A   1      30.716  27.843  24.290  1.00  0.00     0.004 A 
ATOM     71  C   UNL A   1      32.759  28.785  22.648  1.00  0.00     0.000 A 
ATOM     72  C   UNL A   1      30.410  28.588  23.148  1.00  0.00     0.000 A 
ATOM     73  C   UNL A   1      31.432  29.067  22.335  1.00  0.00     0.000 A 
ENDBRANCH  67  68
BRANCH  67  74
ATOM     74  C   UNL A   1      32.890  25.503  25.962  1.00  0.00    -0.037 A 
ATOM     75  C   UNL A   1      34.196  25.169  25.525  1.00  0.00     0.004 A 
ATOM     76  C   UNL A   1      32.081  24.407  26.323  1.00  0.00     0.004 A 
ATOM     77  C   UNL A   1      34.662  23.852  25.446  1.00  0.00     0.000 A 
ATOM     78  C   UNL A   1      32.543  23.082  26.258  1.00  0.00     0.000 A 
ATOM     79  C   UNL A   1      33.833  22.806  25.817  1.00  0.00     0.000 A 
ENDBRANCH  67  74
ENDBRANCH  63  65
ENDBRANCH  62  63
ENDBRANCH  61  62
ENDBRANCH   1  61
TORSDOF 13
ENDMDL
