MODEL 1
REMARK VINA RESULT:      -9.4      0.000      0.000
REMARK SMILES CC(C)(Br)[C@H](Br)C(=O)OCCOC(=O)c1ccc(-c2c3nc(c(-c4c(F)cccc4F)c4ccc([nH]4)c(-c4c(F)cccc4F)c4nc(c(-c5c(F)cccc5F)c5ccc2[nH]5)C=C4)C=C3)cc1
REMARK SMILES IDX 11 1 10 2 9 3 7 4 8 5 5 6 6 7 2 8 1 9 3 10 4 11 12 12 13 13
REMARK SMILES IDX 14 14 15 15 16 16 68 17 17 18 67 19 18 20 19 21 20 22 61 23
REMARK SMILES IDX 21 24 66 25 60 26 62 27 22 28 65 29 59 30 58 31 23 33 49 34
REMARK SMILES IDX 32 35 48 36 33 37 36 38 47 39 63 40 34 41 35 42 46 44 64 45
REMARK SMILES IDX 37 46 24 47 25 48 30 49 26 50 27 51 29 52 31 53 28 54 50 55
REMARK SMILES IDX 51 56 56 57 52 58 53 59 55 60 57 61 54 62 38 63 39 64 44 65
REMARK SMILES IDX 40 66 41 67 43 68 45 69 42 70
REMARK H PARENT 62 32 36 43
REMARK Flexibility Score: inf
ROOT
ATOM      1  C   UNL A   1      32.433  32.863  26.937  1.00  0.00     0.275 C 
ENDROOT
BRANCH   1   2
ATOM      2  C   UNL A   1      31.349  31.795  26.750  1.00  0.00     0.274 C 
BRANCH   2   3
ATOM      3  O   UNL A   1      31.885  30.461  26.839  1.00  0.00    -0.461 OA
BRANCH   3   4
ATOM      4  C   UNL A   1      31.959  29.741  25.692  1.00  0.00     0.321 C 
ATOM      5  O   UNL A   1      31.127  29.824  24.791  1.00  0.00    -0.251 OA
BRANCH   4   6
ATOM      6  C   UNL A   1      33.185  28.840  25.574  1.00  0.00     0.183 C 
ATOM      7  Br  UNL A   1      34.387  29.081  27.117  1.00  0.00    -0.075 Br
BRANCH   6   8
ATOM      8  C   UNL A   1      32.876  27.358  25.277  1.00  0.00     0.043 C 
ATOM      9  C   UNL A   1      33.994  26.407  25.738  1.00  0.00     0.025 C 
ATOM     10  C   UNL A   1      32.646  27.100  23.775  1.00  0.00     0.025 C 
ATOM     11  Br  UNL A   1      31.217  26.799  26.205  1.00  0.00    -0.084 Br
ENDBRANCH   6   8
ENDBRANCH   4   6
ENDBRANCH   3   4
ENDBRANCH   2   3
ENDBRANCH   1   2
BRANCH   1  12
ATOM     12  O   UNL A   1      32.167  33.717  28.067  1.00  0.00    -0.458 OA
BRANCH  12  13
ATOM     13  C   UNL A   1      33.157  34.587  28.381  1.00  0.00     0.338 C 
ATOM     14  O   UNL A   1      33.087  35.804  28.412  1.00  0.00    -0.246 OA
BRANCH  13  15
ATOM     15  C   UNL A   1      34.347  33.854  28.849  1.00  0.00     0.060 A 
ATOM     16  C   UNL A   1      34.137  32.765  29.700  1.00  0.00     0.016 A 
ATOM     17  C   UNL A   1      35.643  34.256  28.520  1.00  0.00     0.016 A 
ATOM     18  C   UNL A   1      35.222  32.075  30.231  1.00  0.00     0.010 A 
ATOM     19  C   UNL A   1      36.733  33.560  29.055  1.00  0.00     0.010 A 
ATOM     20  C   UNL A   1      36.528  32.471  29.919  1.00  0.00    -0.014 A 
BRANCH  20  21
ATOM     21  C   UNL A   1      37.666  31.745  30.530  1.00  0.00     0.031 A 
ATOM     22  C   UNL A   1      38.054  32.012  31.955  1.00  0.00     0.074 A 
ATOM     23  C   UNL A   1      38.314  30.806  29.816  1.00  0.00     0.049 A 
ATOM     24  N   UNL A   1      39.025  31.487  32.659  1.00  0.00    -0.248 NA
ATOM     25  C   UNL A   1      37.242  32.997  32.687  1.00  0.00     0.031 C 
ATOM     26  C   UNL A   1      38.003  30.433  28.436  1.00  0.00     0.029 A 
ATOM     27  N   UNL A   1      39.362  29.990  30.158  1.00  0.00    -0.354 N 
ATOM     28  C   UNL A   1      38.946  32.078  33.912  1.00  0.00     0.074 A 
ATOM     29  C   UNL A   1      37.844  33.017  33.868  1.00  0.00     0.031 C 
ATOM     30  C   UNL A   1      38.840  29.457  28.048  1.00  0.00     0.029 A 
ATOM     31  C   UNL A   1      39.765  29.161  29.139  1.00  0.00     0.049 A 
ATOM     32  H   UNL A   1      39.785  29.997  31.046  1.00  0.00     0.167 HD
ATOM     33  C   UNL A   1      39.717  31.852  35.002  1.00  0.00     0.037 A 
ATOM     34  C   UNL A   1      40.779  28.278  29.088  1.00  0.00     0.037 A 
ATOM     35  C   UNL A   1      40.808  30.913  35.048  1.00  0.00     0.049 A 
ATOM     36  C   UNL A   1      41.649  28.082  30.297  1.00  0.00     0.074 A 
ATOM     37  C   UNL A   1      41.650  30.619  36.107  1.00  0.00     0.029 A 
ATOM     38  N   UNL A   1      41.208  30.115  33.987  1.00  0.00    -0.354 N 
ATOM     39  N   UNL A   1      41.567  28.651  31.474  1.00  0.00    -0.248 NA
ATOM     40  C   UNL A   1      42.755  27.123  30.168  1.00  0.00     0.031 C 
ATOM     41  C   UNL A   1      42.578  29.663  35.678  1.00  0.00     0.029 A 
ATOM     42  C   UNL A   1      42.291  29.338  34.362  1.00  0.00     0.049 A 
ATOM     43  H   UNL A   1      40.784  30.103  33.099  1.00  0.00     0.167 HD
ATOM     44  C   UNL A   1      42.601  28.113  32.230  1.00  0.00     0.074 A 
ATOM     45  C   UNL A   1      43.281  27.154  31.384  1.00  0.00     0.031 C 
ATOM     46  C   UNL A   1      42.957  28.391  33.506  1.00  0.00     0.037 A 
BRANCH  33  47
ATOM     47  C   UNL A   1      39.419  32.648  36.237  1.00  0.00     0.057 A 
ATOM     48  C   UNL A   1      40.038  33.879  36.484  1.00  0.00     0.134 A 
ATOM     49  C   UNL A   1      38.471  32.199  37.164  1.00  0.00     0.134 A 
ATOM     50  F   UNL A   1      40.965  34.356  35.641  1.00  0.00    -0.206 F 
ATOM     51  C   UNL A   1      39.730  34.634  37.618  1.00  0.00     0.040 A 
ATOM     52  C   UNL A   1      38.141  32.953  38.291  1.00  0.00     0.040 A 
ATOM     53  F   UNL A   1      37.841  31.029  36.983  1.00  0.00    -0.206 F 
ATOM     54  C   UNL A   1      38.774  34.174  38.522  1.00  0.00     0.006 A 
ENDBRANCH  33  47
BRANCH  34  55
ATOM     55  C   UNL A   1      41.042  27.522  27.838  1.00  0.00     0.057 A 
ATOM     56  C   UNL A   1      41.863  28.044  26.833  1.00  0.00     0.134 A 
ATOM     57  C   UNL A   1      40.460  26.269  27.613  1.00  0.00     0.134 A 
ATOM     58  F   UNL A   1      42.430  29.251  26.982  1.00  0.00    -0.206 F 
ATOM     59  C   UNL A   1      42.082  27.354  25.639  1.00  0.00     0.040 A 
ATOM     60  C   UNL A   1      40.688  25.558  26.435  1.00  0.00     0.040 A 
ATOM     61  F   UNL A   1      39.663  25.717  28.540  1.00  0.00    -0.206 F 
ATOM     62  C   UNL A   1      41.497  26.105  25.441  1.00  0.00     0.006 A 
ENDBRANCH  34  55
BRANCH  46  63
ATOM     63  C   UNL A   1      44.124  27.633  34.064  1.00  0.00     0.057 A 
ATOM     64  C   UNL A   1      45.428  28.140  33.995  1.00  0.00     0.134 A 
ATOM     65  C   UNL A   1      43.941  26.395  34.690  1.00  0.00     0.134 A 
ATOM     66  F   UNL A   1      45.671  29.315  33.395  1.00  0.00    -0.206 F 
ATOM     67  C   UNL A   1      46.513  27.427  34.508  1.00  0.00     0.040 A 
ATOM     68  C   UNL A   1      45.015  25.684  35.226  1.00  0.00     0.040 A 
ATOM     69  F   UNL A   1      42.715  25.859  34.794  1.00  0.00    -0.206 F 
ATOM     70  C   UNL A   1      46.307  26.197  35.130  1.00  0.00     0.006 A 
ENDBRANCH  46  63
ENDBRANCH  20  21
ENDBRANCH  13  15
ENDBRANCH  12  13
ENDBRANCH   1  12
TORSDOF 12
ENDMDL
MODEL 2
REMARK VINA RESULT:      -9.3      5.606     10.165
REMARK SMILES CC(C)(Br)[C@H](Br)C(=O)OCCOC(=O)c1ccc(-c2c3nc(c(-c4c(F)cccc4F)c4ccc([nH]4)c(-c4c(F)cccc4F)c4nc(c(-c5c(F)cccc5F)c5ccc2[nH]5)C=C4)C=C3)cc1
REMARK SMILES IDX 11 1 10 2 9 3 7 4 8 5 5 6 6 7 2 8 1 9 3 10 4 11 12 12 13 13
REMARK SMILES IDX 14 14 15 15 16 16 68 17 17 18 67 19 18 20 19 21 20 22 61 23
REMARK SMILES IDX 21 24 66 25 60 26 62 27 22 28 65 29 59 30 58 31 23 33 49 34
REMARK SMILES IDX 32 35 48 36 33 37 36 38 47 39 63 40 34 41 35 42 46 44 64 45
REMARK SMILES IDX 37 46 24 47 25 48 30 49 26 50 27 51 29 52 31 53 28 54 50 55
REMARK SMILES IDX 51 56 56 57 52 58 53 59 55 60 57 61 54 62 38 63 39 64 44 65
REMARK SMILES IDX 40 66 41 67 43 68 45 69 42 70
REMARK H PARENT 62 32 36 43
REMARK Flexibility Score: inf
ROOT
ATOM      1  C   UNL A   1      40.496  20.373  26.405  1.00  0.00     0.275 C 
ENDROOT
BRANCH   1   2
ATOM      2  C   UNL A   1      42.025  20.273  26.364  1.00  0.00     0.274 C 
BRANCH   2   3
ATOM      3  O   UNL A   1      42.657  21.425  26.956  1.00  0.00    -0.461 OA
BRANCH   3   4
ATOM      4  C   UNL A   1      43.060  22.414  26.119  1.00  0.00     0.321 C 
ATOM      5  O   UNL A   1      42.754  22.453  24.929  1.00  0.00    -0.251 OA
BRANCH   4   6
ATOM      6  C   UNL A   1      43.894  23.511  26.773  1.00  0.00     0.183 C 
ATOM      7  Br  UNL A   1      43.904  23.316  28.734  1.00  0.00    -0.075 Br
BRANCH   6   8
ATOM      8  C   UNL A   1      45.305  23.695  26.178  1.00  0.00     0.043 C 
ATOM      9  C   UNL A   1      45.339  24.695  25.008  1.00  0.00     0.025 C 
ATOM     10  C   UNL A   1      45.900  22.370  25.664  1.00  0.00     0.025 C 
ATOM     11  Br  UNL A   1      46.553  24.375  27.558  1.00  0.00    -0.084 Br
ENDBRANCH   6   8
ENDBRANCH   4   6
ENDBRANCH   3   4
ENDBRANCH   2   3
ENDBRANCH   1   2
BRANCH   1  12
ATOM     12  O   UNL A   1      40.042  21.492  27.193  1.00  0.00    -0.458 OA
BRANCH  12  13
ATOM     13  C   UNL A   1      39.390  22.458  26.503  1.00  0.00     0.338 C 
ATOM     14  O   UNL A   1      38.434  22.316  25.760  1.00  0.00    -0.246 OA
BRANCH  13  15
ATOM     15  C   UNL A   1      39.896  23.787  26.890  1.00  0.00     0.060 A 
ATOM     16  C   UNL A   1      40.190  23.995  28.241  1.00  0.00     0.016 A 
ATOM     17  C   UNL A   1      40.019  24.830  25.970  1.00  0.00     0.016 A 
ATOM     18  C   UNL A   1      40.606  25.247  28.680  1.00  0.00     0.010 A 
ATOM     19  C   UNL A   1      40.438  26.090  26.414  1.00  0.00     0.010 A 
ATOM     20  C   UNL A   1      40.726  26.307  27.772  1.00  0.00    -0.014 A 
BRANCH  20  21
ATOM     21  C   UNL A   1      41.130  27.641  28.273  1.00  0.00     0.031 A 
ATOM     22  C   UNL A   1      42.577  28.038  28.278  1.00  0.00     0.074 A 
ATOM     23  C   UNL A   1      40.187  28.514  28.672  1.00  0.00     0.049 A 
ATOM     24  N   UNL A   1      43.126  29.154  28.687  1.00  0.00    -0.248 NA
ATOM     25  C   UNL A   1      43.534  27.053  27.750  1.00  0.00     0.031 C 
ATOM     26  C   UNL A   1      38.747  28.254  28.677  1.00  0.00     0.029 A 
ATOM     27  N   UNL A   1      40.299  29.797  29.142  1.00  0.00    -0.354 N 
ATOM     28  C   UNL A   1      44.489  29.006  28.472  1.00  0.00     0.074 A 
ATOM     29  C   UNL A   1      44.689  27.685  27.915  1.00  0.00     0.031 C 
ATOM     30  C   UNL A   1      38.108  29.348  29.125  1.00  0.00     0.029 A 
ATOM     31  C   UNL A   1      39.094  30.369  29.467  1.00  0.00     0.049 A 
ATOM     32  H   UNL A   1      41.160  30.264  29.236  1.00  0.00     0.167 HD
ATOM     33  C   UNL A   1      45.482  29.895  28.711  1.00  0.00     0.037 A 
ATOM     34  C   UNL A   1      38.819  31.574  30.001  1.00  0.00     0.037 A 
ATOM     35  C   UNL A   1      45.284  31.212  29.259  1.00  0.00     0.049 A 
ATOM     36  C   UNL A   1      39.946  32.522  30.301  1.00  0.00     0.074 A 
ATOM     37  C   UNL A   1      46.230  32.182  29.541  1.00  0.00     0.029 A 
ATOM     38  N   UNL A   1      44.052  31.744  29.608  1.00  0.00    -0.354 N 
ATOM     39  N   UNL A   1      41.231  32.367  30.099  1.00  0.00    -0.248 NA
ATOM     40  C   UNL A   1      39.582  33.810  30.907  1.00  0.00     0.031 C 
ATOM     41  C   UNL A   1      45.574  33.291  30.087  1.00  0.00     0.029 A 
ATOM     42  C   UNL A   1      44.215  33.023  30.113  1.00  0.00     0.049 A 
ATOM     43  H   UNL A   1      43.189  31.281  29.510  1.00  0.00     0.167 HD
ATOM     44  C   UNL A   1      41.829  33.540  30.540  1.00  0.00     0.074 A 
ATOM     45  C   UNL A   1      40.763  34.406  31.000  1.00  0.00     0.031 C 
ATOM     46  C   UNL A   1      43.143  33.869  30.568  1.00  0.00     0.037 A 
BRANCH  33  47
ATOM     47  C   UNL A   1      46.884  29.467  28.397  1.00  0.00     0.057 A 
ATOM     48  C   UNL A   1      47.676  28.796  29.336  1.00  0.00     0.134 A 
ATOM     49  C   UNL A   1      47.430  29.687  27.126  1.00  0.00     0.134 A 
ATOM     50  F   UNL A   1      47.215  28.567  30.574  1.00  0.00    -0.206 F 
ATOM     51  C   UNL A   1      48.968  28.366  29.026  1.00  0.00     0.040 A 
ATOM     52  C   UNL A   1      48.713  29.248  26.798  1.00  0.00     0.040 A 
ATOM     53  F   UNL A   1      46.721  30.323  26.181  1.00  0.00    -0.206 F 
ATOM     54  C   UNL A   1      49.487  28.587  27.751  1.00  0.00     0.006 A 
ENDBRANCH  33  47
BRANCH  34  55
ATOM     55  C   UNL A   1      37.416  31.948  30.307  1.00  0.00     0.057 A 
ATOM     56  C   UNL A   1      36.647  32.686  29.402  1.00  0.00     0.134 A 
ATOM     57  C   UNL A   1      36.822  31.593  31.524  1.00  0.00     0.134 A 
ATOM     58  F   UNL A   1      37.171  33.075  28.229  1.00  0.00    -0.206 F 
ATOM     59  C   UNL A   1      35.340  33.074  29.702  1.00  0.00     0.040 A 
ATOM     60  C   UNL A   1      35.509  31.954  31.828  1.00  0.00     0.040 A 
ATOM     61  F   UNL A   1      37.509  30.886  32.432  1.00  0.00    -0.206 F 
ATOM     62  C   UNL A   1      34.766  32.703  30.917  1.00  0.00     0.006 A 
ENDBRANCH  34  55
BRANCH  46  63
ATOM     63  C   UNL A   1      43.490  35.228  31.097  1.00  0.00     0.057 A 
ATOM     64  C   UNL A   1      43.639  36.330  30.246  1.00  0.00     0.134 A 
ATOM     65  C   UNL A   1      43.661  35.439  32.470  1.00  0.00     0.134 A 
ATOM     66  F   UNL A   1      43.502  36.189  28.919  1.00  0.00    -0.206 F 
ATOM     67  C   UNL A   1      43.971  37.592  30.741  1.00  0.00     0.040 A 
ATOM     68  C   UNL A   1      43.971  36.701  32.979  1.00  0.00     0.040 A 
ATOM     69  F   UNL A   1      43.525  34.426  33.338  1.00  0.00    -0.206 F 
ATOM     70  C   UNL A   1      44.133  37.781  32.113  1.00  0.00     0.006 A 
ENDBRANCH  46  63
ENDBRANCH  20  21
ENDBRANCH  13  15
ENDBRANCH  12  13
ENDBRANCH   1  12
TORSDOF 12
ENDMDL
MODEL 3
REMARK VINA RESULT:      -9.3      2.839      4.812
REMARK SMILES CC(C)(Br)[C@H](Br)C(=O)OCCOC(=O)c1ccc(-c2c3nc(c(-c4c(F)cccc4F)c4ccc([nH]4)c(-c4c(F)cccc4F)c4nc(c(-c5c(F)cccc5F)c5ccc2[nH]5)C=C4)C=C3)cc1
REMARK SMILES IDX 11 1 10 2 9 3 7 4 8 5 5 6 6 7 2 8 1 9 3 10 4 11 12 12 13 13
REMARK SMILES IDX 14 14 15 15 16 16 68 17 17 18 67 19 18 20 19 21 20 22 61 23
REMARK SMILES IDX 21 24 66 25 60 26 62 27 22 28 65 29 59 30 58 31 23 33 49 34
REMARK SMILES IDX 32 35 48 36 33 37 36 38 47 39 63 40 34 41 35 42 46 44 64 45
REMARK SMILES IDX 37 46 24 47 25 48 30 49 26 50 27 51 29 52 31 53 28 54 50 55
REMARK SMILES IDX 51 56 56 57 52 58 53 59 55 60 57 61 54 62 38 63 39 64 44 65
REMARK SMILES IDX 40 66 41 67 43 68 45 69 42 70
REMARK H PARENT 62 32 36 43
REMARK Flexibility Score: inf
ROOT
ATOM      1  C   UNL A   1      33.410  33.173  27.998  1.00  0.00     0.275 C 
ENDROOT
BRANCH   1   2
ATOM      2  C   UNL A   1      33.653  34.210  29.102  1.00  0.00     0.274 C 
BRANCH   2   3
ATOM      3  O   UNL A   1      34.964  34.081  29.684  1.00  0.00    -0.461 OA
BRANCH   3   4
ATOM      4  C   UNL A   1      35.096  33.244  30.743  1.00  0.00     0.321 C 
ATOM      5  O   UNL A   1      34.140  32.703  31.296  1.00  0.00    -0.251 OA
BRANCH   4   6
ATOM      6  C   UNL A   1      36.533  32.980  31.182  1.00  0.00     0.183 C 
ATOM      7  Br  UNL A   1      37.809  33.543  29.790  1.00  0.00    -0.075 Br
BRANCH   6   8
ATOM      8  C   UNL A   1      36.893  33.517  32.583  1.00  0.00     0.043 C 
ATOM      9  C   UNL A   1      38.311  34.111  32.653  1.00  0.00     0.025 C 
ATOM     10  C   UNL A   1      36.799  32.427  33.667  1.00  0.00     0.025 C 
ATOM     11  Br  UNL A   1      35.636  34.953  33.116  1.00  0.00    -0.084 Br
ENDBRANCH   6   8
ENDBRANCH   4   6
ENDBRANCH   3   4
ENDBRANCH   2   3
ENDBRANCH   1   2
BRANCH   1  12
ATOM     12  O   UNL A   1      34.605  32.436  27.670  1.00  0.00    -0.458 OA
BRANCH  12  13
ATOM     13  C   UNL A   1      34.484  31.088  27.713  1.00  0.00     0.338 C 
ATOM     14  O   UNL A   1      33.527  30.422  27.356  1.00  0.00    -0.246 OA
BRANCH  13  15
ATOM     15  C   UNL A   1      35.761  30.476  28.120  1.00  0.00     0.060 A 
ATOM     16  C   UNL A   1      35.799  29.832  29.360  1.00  0.00     0.016 A 
ATOM     17  C   UNL A   1      36.916  30.583  27.341  1.00  0.00     0.016 A 
ATOM     18  C   UNL A   1      36.993  29.295  29.830  1.00  0.00     0.010 A 
ATOM     19  C   UNL A   1      38.115  30.041  27.817  1.00  0.00     0.010 A 
ATOM     20  C   UNL A   1      38.162  29.402  29.067  1.00  0.00    -0.014 A 
BRANCH  20  21
ATOM     21  C   UNL A   1      39.428  28.857  29.609  1.00  0.00     0.031 A 
ATOM     22  C   UNL A   1      40.044  29.460  30.838  1.00  0.00     0.074 A 
ATOM     23  C   UNL A   1      39.993  27.784  29.025  1.00  0.00     0.049 A 
ATOM     24  N   UNL A   1      41.151  29.131  31.453  1.00  0.00    -0.248 NA
ATOM     25  C   UNL A   1      39.318  30.579  31.459  1.00  0.00     0.031 C 
ATOM     26  C   UNL A   1      39.467  27.090  27.849  1.00  0.00     0.029 A 
ATOM     27  N   UNL A   1      41.129  27.088  29.347  1.00  0.00    -0.354 N 
ATOM     28  C   UNL A   1      41.260  30.001  32.529  1.00  0.00     0.074 A 
ATOM     29  C   UNL A   1      40.117  30.888  32.472  1.00  0.00     0.031 C 
ATOM     30  C   UNL A   1      40.277  26.062  27.550  1.00  0.00     0.029 A 
ATOM     31  C   UNL A   1      41.394  26.046  28.491  1.00  0.00     0.049 A 
ATOM     32  H   UNL A   1      41.700  27.311  30.117  1.00  0.00     0.167 HD
ATOM     33  C   UNL A   1      42.222  30.050  33.480  1.00  0.00     0.037 A 
ATOM     34  C   UNL A   1      42.432  25.190  28.460  1.00  0.00     0.037 A 
ATOM     35  C   UNL A   1      43.356  29.165  33.540  1.00  0.00     0.049 A 
ATOM     36  C   UNL A   1      43.511  25.299  29.500  1.00  0.00     0.074 A 
ATOM     37  C   UNL A   1      44.386  29.141  34.466  1.00  0.00     0.029 A 
ATOM     38  N   UNL A   1      43.608  28.143  32.637  1.00  0.00    -0.354 N 
ATOM     39  N   UNL A   1      43.604  26.130  30.509  1.00  0.00    -0.248 NA
ATOM     40  C   UNL A   1      44.629  24.352  29.395  1.00  0.00     0.031 C 
ATOM     41  C   UNL A   1      45.277  28.124  34.106  1.00  0.00     0.029 A 
ATOM     42  C   UNL A   1      44.783  27.492  32.976  1.00  0.00     0.049 A 
ATOM     43  H   UNL A   1      43.036  27.915  31.870  1.00  0.00     0.167 HD
ATOM     44  C   UNL A   1      44.782  25.801  31.165  1.00  0.00     0.074 A 
ATOM     45  C   UNL A   1      45.358  24.678  30.454  1.00  0.00     0.031 C 
ATOM     46  C   UNL A   1      45.341  26.379  32.255  1.00  0.00     0.037 A 
BRANCH  33  47
ATOM     47  C   UNL A   1      42.101  31.113  34.531  1.00  0.00     0.057 A 
ATOM     48  C   UNL A   1      42.711  32.364  34.385  1.00  0.00     0.134 A 
ATOM     49  C   UNL A   1      41.328  30.897  35.679  1.00  0.00     0.134 A 
ATOM     50  F   UNL A   1      43.474  32.627  33.314  1.00  0.00    -0.206 F 
ATOM     51  C   UNL A   1      42.564  33.363  35.350  1.00  0.00     0.040 A 
ATOM     52  C   UNL A   1      41.159  31.893  36.642  1.00  0.00     0.040 A 
ATOM     53  F   UNL A   1      40.716  29.720  35.877  1.00  0.00    -0.206 F 
ATOM     54  C   UNL A   1      41.781  33.130  36.479  1.00  0.00     0.006 A 
ENDBRANCH  33  47
BRANCH  34  55
ATOM     55  C   UNL A   1      42.515  24.163  27.391  1.00  0.00     0.057 A 
ATOM     56  C   UNL A   1      42.033  22.866  27.592  1.00  0.00     0.134 A 
ATOM     57  C   UNL A   1      43.099  24.452  26.153  1.00  0.00     0.134 A 
ATOM     58  F   UNL A   1      41.484  22.523  28.767  1.00  0.00    -0.206 F 
ATOM     59  C   UNL A   1      42.144  21.885  26.605  1.00  0.00     0.040 A 
ATOM     60  C   UNL A   1      43.197  23.489  25.148  1.00  0.00     0.040 A 
ATOM     61  F   UNL A   1      43.580  25.679  25.901  1.00  0.00    -0.206 F 
ATOM     62  C   UNL A   1      42.724  22.199  25.376  1.00  0.00     0.006 A 
ENDBRANCH  34  55
BRANCH  46  63
ATOM     63  C   UNL A   1      46.629  25.791  32.749  1.00  0.00     0.057 A 
ATOM     64  C   UNL A   1      47.867  26.212  32.247  1.00  0.00     0.134 A 
ATOM     65  C   UNL A   1      46.632  24.807  33.745  1.00  0.00     0.134 A 
ATOM     66  F   UNL A   1      47.929  27.141  31.281  1.00  0.00    -0.206 F 
ATOM     67  C   UNL A   1      49.063  25.656  32.703  1.00  0.00     0.040 A 
ATOM     68  C   UNL A   1      47.822  24.261  34.224  1.00  0.00     0.040 A 
ATOM     69  F   UNL A   1      45.479  24.367  34.271  1.00  0.00    -0.206 F 
ATOM     70  C   UNL A   1      49.043  24.681  33.698  1.00  0.00     0.006 A 
ENDBRANCH  46  63
ENDBRANCH  20  21
ENDBRANCH  13  15
ENDBRANCH  12  13
ENDBRANCH   1  12
TORSDOF 12
ENDMDL
