MODEL 1
REMARK VINA RESULT:     -11.6      0.000      0.000
REMARK SMILES C[C@H](NC(=O)N1CC[C@@H](C(=O)OCCOC(=O)c2ccc(-c3c4nc(c(-c5c(F)cccc5F)c5ccc([nH]5)c(-c5c(F)cccc5F)c5nc(c(-c6c(F)cccc6F)c6ccc3[nH]6)C=C5)C=C4)cc2)[C@H]1C)c1ccc(Cl)cc1
REMARK SMILES IDX 13 1 12 2 10 3 11 4 9 5 6 6 7 7 72 8 8 9 73 10 4 11 3 12
REMARK SMILES IDX 5 14 2 15 1 16 74 17 75 18 80 19 76 20 79 21 77 22 78 23
REMARK SMILES IDX 14 24 15 25 16 26 17 27 18 28 19 29 71 30 20 31 70 32 21 33
REMARK SMILES IDX 22 34 23 35 64 36 24 37 69 38 63 39 65 40 25 41 68 42 62 43
REMARK SMILES IDX 61 44 26 46 52 47 35 48 51 49 36 50 39 51 50 52 66 53 37 54
REMARK SMILES IDX 38 55 49 57 67 58 40 59 27 60 28 61 33 62 29 63 30 64 32 65
REMARK SMILES IDX 34 66 31 67 53 68 54 69 59 70 55 71 56 72 58 73 60 74 57 75
REMARK SMILES IDX 41 76 42 77 47 78 43 79 44 80 46 81 48 82 45 83
REMARK H PARENT 3 13 65 45 39 56
REMARK Flexibility Score: inf
ROOT
ATOM      1  C   UNL A   1      32.571  30.044  27.064  1.00  0.00     0.274 C 
ENDROOT
BRANCH   1   2
ATOM      2  O   UNL A   1      32.835  28.648  27.326  1.00  0.00    -0.462 OA
BRANCH   2   3
ATOM      3  C   UNL A   1      31.976  27.769  26.751  1.00  0.00     0.311 C 
ATOM      4  O   UNL A   1      31.151  27.099  27.362  1.00  0.00    -0.252 OA
BRANCH   3   5
ATOM      5  C   UNL A   1      32.146  27.651  25.256  1.00  0.00     0.123 C 
ATOM      6  N   UNL A   1      32.618  26.029  23.573  1.00  0.00    -0.321 N 
ATOM      7  C   UNL A   1      31.354  26.663  23.261  1.00  0.00     0.122 C 
ATOM      8  C   UNL A   1      33.278  26.784  24.648  1.00  0.00     0.098 C 
ATOM      9  C   UNL A   1      30.860  27.151  24.602  1.00  0.00     0.039 C 
ATOM     10  C   UNL A   1      34.094  25.900  25.582  1.00  0.00     0.032 C 
BRANCH   6  11
ATOM     11  C   UNL A   1      33.315  25.529  22.508  1.00  0.00     0.318 C 
ATOM     12  N   UNL A   1      33.362  24.179  22.377  1.00  0.00    -0.331 N 
ATOM     13  H   UNL A   1      33.567  23.868  21.467  1.00  0.00     0.165 HD
ATOM     14  O   UNL A   1      33.776  26.246  21.625  1.00  0.00    -0.249 OA
BRANCH  12  15
ATOM     15  C   UNL A   1      33.162  23.109  23.346  1.00  0.00     0.111 C 
ATOM     16  C   UNL A   1      32.402  21.858  22.883  1.00  0.00     0.036 C 
BRANCH  15  17
ATOM     17  C   UNL A   1      34.513  22.639  23.879  1.00  0.00    -0.026 A 
ATOM     18  C   UNL A   1      35.701  22.941  23.199  1.00  0.00     0.007 A 
ATOM     19  C   UNL A   1      34.589  21.989  25.126  1.00  0.00     0.007 A 
ATOM     20  C   UNL A   1      36.938  22.660  23.787  1.00  0.00     0.021 A 
ATOM     21  C   UNL A   1      35.823  21.724  25.717  1.00  0.00     0.021 A 
ATOM     22  C   UNL A   1      36.994  22.076  25.052  1.00  0.00     0.041 A 
ATOM     23  Cl  UNL A   1      38.515  21.814  25.810  1.00  0.00    -0.084 Cl
ENDBRANCH  15  17
ENDBRANCH  12  15
ENDBRANCH   6  11
ENDBRANCH   3   5
ENDBRANCH   2   3
ENDBRANCH   1   2
BRANCH   1  24
ATOM     24  C   UNL A   1      33.847  30.859  27.285  1.00  0.00     0.275 C 
BRANCH  24  25
ATOM     25  O   UNL A   1      34.797  30.037  27.985  1.00  0.00    -0.458 OA
BRANCH  25  26
ATOM     26  C   UNL A   1      35.524  30.650  28.944  1.00  0.00     0.338 C 
ATOM     27  O   UNL A   1      35.151  31.512  29.717  1.00  0.00    -0.246 OA
BRANCH  26  28
ATOM     28  C   UNL A   1      36.894  30.103  28.907  1.00  0.00     0.060 A 
ATOM     29  C   UNL A   1      37.533  29.689  30.081  1.00  0.00     0.016 A 
ATOM     30  C   UNL A   1      37.560  30.039  27.684  1.00  0.00     0.016 A 
ATOM     31  C   UNL A   1      38.842  29.210  30.039  1.00  0.00     0.010 A 
ATOM     32  C   UNL A   1      38.855  29.521  27.637  1.00  0.00     0.010 A 
ATOM     33  C   UNL A   1      39.509  29.113  28.813  1.00  0.00    -0.014 A 
BRANCH  33  34
ATOM     34  C   UNL A   1      40.908  28.628  28.741  1.00  0.00     0.031 A 
ATOM     35  C   UNL A   1      42.035  29.602  28.925  1.00  0.00     0.074 A 
ATOM     36  C   UNL A   1      41.167  27.336  28.469  1.00  0.00     0.049 A 
ATOM     37  N   UNL A   1      43.315  29.440  28.706  1.00  0.00    -0.248 NA
ATOM     38  C   UNL A   1      41.669  30.942  29.408  1.00  0.00     0.031 C 
ATOM     39  C   UNL A   1      40.161  26.285  28.310  1.00  0.00     0.029 A 
ATOM     40  N   UNL A   1      42.360  26.693  28.258  1.00  0.00    -0.354 N 
ATOM     41  C   UNL A   1      43.902  30.667  28.989  1.00  0.00     0.074 A 
ATOM     42  C   UNL A   1      42.839  31.564  29.388  1.00  0.00     0.031 C 
ATOM     43  C   UNL A   1      40.780  25.129  28.017  1.00  0.00     0.029 A 
ATOM     44  C   UNL A   1      42.216  25.370  27.914  1.00  0.00     0.049 A 
ATOM     45  H   UNL A   1      43.235  27.135  28.342  1.00  0.00     0.167 HD
ATOM     46  C   UNL A   1      45.209  31.011  28.919  1.00  0.00     0.037 A 
ATOM     47  C   UNL A   1      43.134  24.467  27.522  1.00  0.00     0.037 A 
ATOM     48  C   UNL A   1      46.265  30.107  28.545  1.00  0.00     0.049 A 
ATOM     49  C   UNL A   1      44.575  24.883  27.412  1.00  0.00     0.074 A 
ATOM     50  C   UNL A   1      47.623  30.354  28.456  1.00  0.00     0.029 A 
ATOM     51  N   UNL A   1      46.077  28.776  28.204  1.00  0.00    -0.354 N 
ATOM     52  N   UNL A   1      45.118  26.050  27.656  1.00  0.00    -0.248 NA
ATOM     53  C   UNL A   1      45.527  23.859  26.961  1.00  0.00     0.031 C 
ATOM     54  C   UNL A   1      48.254  29.179  28.031  1.00  0.00     0.029 A 
ATOM     55  C   UNL A   1      47.292  28.191  27.891  1.00  0.00     0.049 A 
ATOM     56  H   UNL A   1      45.206  28.314  28.188  1.00  0.00     0.167 HD
ATOM     57  C   UNL A   1      46.476  25.898  27.406  1.00  0.00     0.074 A 
ATOM     58  C   UNL A   1      46.675  24.521  27.003  1.00  0.00     0.031 C 
ATOM     59  C   UNL A   1      47.468  26.817  27.498  1.00  0.00     0.037 A 
BRANCH  46  60
ATOM     60  C   UNL A   1      45.564  32.435  29.227  1.00  0.00     0.057 A 
ATOM     61  C   UNL A   1      45.576  33.425  28.237  1.00  0.00     0.134 A 
ATOM     62  C   UNL A   1      45.878  32.822  30.535  1.00  0.00     0.134 A 
ATOM     63  F   UNL A   1      45.301  33.116  26.961  1.00  0.00    -0.206 F 
ATOM     64  C   UNL A   1      45.911  34.748  28.535  1.00  0.00     0.040 A 
ATOM     65  C   UNL A   1      46.192  34.145  30.849  1.00  0.00     0.040 A 
ATOM     66  F   UNL A   1      45.883  31.922  31.530  1.00  0.00    -0.206 F 
ATOM     67  C   UNL A   1      46.214  35.111  29.846  1.00  0.00     0.006 A 
ENDBRANCH  46  60
BRANCH  47  68
ATOM     68  C   UNL A   1      42.715  23.086  27.178  1.00  0.00     0.057 A 
ATOM     69  C   UNL A   1      42.606  22.675  25.845  1.00  0.00     0.134 A 
ATOM     70  C   UNL A   1      42.414  22.146  28.171  1.00  0.00     0.134 A 
ATOM     71  F   UNL A   1      42.858  23.539  24.850  1.00  0.00    -0.206 F 
ATOM     72  C   UNL A   1      42.204  21.382  25.510  1.00  0.00     0.040 A 
ATOM     73  C   UNL A   1      42.032  20.842  27.851  1.00  0.00     0.040 A 
ATOM     74  F   UNL A   1      42.498  22.478  29.467  1.00  0.00    -0.206 F 
ATOM     75  C   UNL A   1      41.922  20.459  26.516  1.00  0.00     0.006 A 
ENDBRANCH  47  68
BRANCH  59  76
ATOM     76  C   UNL A   1      48.858  26.351  27.189  1.00  0.00     0.057 A 
ATOM     77  C   UNL A   1      49.668  25.753  28.162  1.00  0.00     0.134 A 
ATOM     78  C   UNL A   1      49.378  26.472  25.894  1.00  0.00     0.134 A 
ATOM     79  F   UNL A   1      49.231  25.622  29.423  1.00  0.00    -0.206 F 
ATOM     80  C   UNL A   1      50.954  25.305  27.861  1.00  0.00     0.040 A 
ATOM     81  C   UNL A   1      50.655  26.009  25.577  1.00  0.00     0.040 A 
ATOM     82  F   UNL A   1      48.649  27.031  24.916  1.00  0.00    -0.206 F 
ATOM     83  C   UNL A   1      51.449  25.429  26.564  1.00  0.00     0.006 A 
ENDBRANCH  59  76
ENDBRANCH  33  34
ENDBRANCH  26  28
ENDBRANCH  25  26
ENDBRANCH  24  25
ENDBRANCH   1  24
TORSDOF 14
ENDMDL
MODEL 2
REMARK VINA RESULT:     -11.4      5.152      9.795
REMARK SMILES C[C@H](NC(=O)N1CC[C@@H](C(=O)OCCOC(=O)c2ccc(-c3c4nc(c(-c5c(F)cccc5F)c5ccc([nH]5)c(-c5c(F)cccc5F)c5nc(c(-c6c(F)cccc6F)c6ccc3[nH]6)C=C5)C=C4)cc2)[C@H]1C)c1ccc(Cl)cc1
REMARK SMILES IDX 13 1 12 2 10 3 11 4 9 5 6 6 7 7 72 8 8 9 73 10 4 11 3 12
REMARK SMILES IDX 5 14 2 15 1 16 74 17 75 18 80 19 76 20 79 21 77 22 78 23
REMARK SMILES IDX 14 24 15 25 16 26 17 27 18 28 19 29 71 30 20 31 70 32 21 33
REMARK SMILES IDX 22 34 23 35 64 36 24 37 69 38 63 39 65 40 25 41 68 42 62 43
REMARK SMILES IDX 61 44 26 46 52 47 35 48 51 49 36 50 39 51 50 52 66 53 37 54
REMARK SMILES IDX 38 55 49 57 67 58 40 59 27 60 28 61 33 62 29 63 30 64 32 65
REMARK SMILES IDX 34 66 31 67 53 68 54 69 59 70 55 71 56 72 58 73 60 74 57 75
REMARK SMILES IDX 41 76 42 77 47 78 43 79 44 80 46 81 48 82 45 83
REMARK H PARENT 3 13 65 45 39 56
REMARK Flexibility Score: inf
ROOT
ATOM      1  C   UNL A   1      37.267  21.990  25.432  1.00  0.00     0.274 C 
ENDROOT
BRANCH   1   2
ATOM      2  O   UNL A   1      36.947  23.181  24.681  1.00  0.00    -0.462 OA
BRANCH   2   3
ATOM      3  C   UNL A   1      35.762  23.158  24.019  1.00  0.00     0.311 C 
ATOM      4  O   UNL A   1      35.624  23.410  22.827  1.00  0.00    -0.252 OA
BRANCH   3   5
ATOM      5  C   UNL A   1      34.585  22.823  24.902  1.00  0.00     0.123 C 
ATOM      6  N   UNL A   1      32.471  23.698  25.575  1.00  0.00    -0.321 N 
ATOM      7  C   UNL A   1      32.266  22.384  25.001  1.00  0.00     0.122 C 
ATOM      8  C   UNL A   1      33.911  23.909  25.780  1.00  0.00     0.098 C 
ATOM      9  C   UNL A   1      33.452  22.205  24.086  1.00  0.00     0.039 C 
ATOM     10  C   UNL A   1      34.335  25.359  25.589  1.00  0.00     0.032 C 
BRANCH   6  11
ATOM     11  C   UNL A   1      31.543  24.101  26.494  1.00  0.00     0.318 C 
ATOM     12  N   UNL A   1      30.671  25.067  26.112  1.00  0.00    -0.331 N 
ATOM     13  H   UNL A   1      29.842  25.097  26.642  1.00  0.00     0.165 HD
ATOM     14  O   UNL A   1      31.400  23.541  27.578  1.00  0.00    -0.249 OA
BRANCH  12  15
ATOM     15  C   UNL A   1      30.744  26.069  25.056  1.00  0.00     0.111 C 
ATOM     16  C   UNL A   1      29.480  26.324  24.223  1.00  0.00     0.036 C 
BRANCH  15  17
ATOM     17  C   UNL A   1      31.167  27.411  25.648  1.00  0.00    -0.026 A 
ATOM     18  C   UNL A   1      31.428  27.544  27.019  1.00  0.00     0.007 A 
ATOM     19  C   UNL A   1      31.408  28.509  24.800  1.00  0.00     0.007 A 
ATOM     20  C   UNL A   1      31.983  28.727  27.517  1.00  0.00     0.021 A 
ATOM     21  C   UNL A   1      31.976  29.681  25.295  1.00  0.00     0.021 A 
ATOM     22  C   UNL A   1      32.277  29.779  26.651  1.00  0.00     0.041 A 
ATOM     23  Cl  UNL A   1      33.041  31.198  27.252  1.00  0.00    -0.084 Cl
ENDBRANCH  15  17
ENDBRANCH  12  15
ENDBRANCH   6  11
ENDBRANCH   3   5
ENDBRANCH   2   3
ENDBRANCH   1   2
BRANCH   1  24
ATOM     24  C   UNL A   1      38.634  22.155  26.100  1.00  0.00     0.275 C 
BRANCH  24  25
ATOM     25  O   UNL A   1      38.868  23.557  26.316  1.00  0.00    -0.458 OA
BRANCH  25  26
ATOM     26  C   UNL A   1      40.155  23.925  26.505  1.00  0.00     0.338 C 
ATOM     27  O   UNL A   1      41.150  23.391  26.055  1.00  0.00    -0.246 OA
BRANCH  26  28
ATOM     28  C   UNL A   1      40.172  25.113  27.381  1.00  0.00     0.060 A 
ATOM     29  C   UNL A   1      41.085  26.151  27.163  1.00  0.00     0.016 A 
ATOM     30  C   UNL A   1      39.286  25.170  28.455  1.00  0.00     0.016 A 
ATOM     31  C   UNL A   1      41.118  27.251  28.019  1.00  0.00     0.010 A 
ATOM     32  C   UNL A   1      39.292  26.290  29.289  1.00  0.00     0.010 A 
ATOM     33  C   UNL A   1      40.214  27.332  29.085  1.00  0.00    -0.014 A 
BRANCH  33  34
ATOM     34  C   UNL A   1      40.241  28.479  30.024  1.00  0.00     0.031 A 
ATOM     35  C   UNL A   1      41.229  28.482  31.153  1.00  0.00     0.074 A 
ATOM     36  C   UNL A   1      39.359  29.486  29.893  1.00  0.00     0.049 A 
ATOM     37  N   UNL A   1      41.296  29.270  32.196  1.00  0.00    -0.248 NA
ATOM     38  C   UNL A   1      42.276  27.449  31.108  1.00  0.00     0.031 C 
ATOM     39  C   UNL A   1      38.377  29.619  28.817  1.00  0.00     0.029 A 
ATOM     40  N   UNL A   1      39.134  30.581  30.689  1.00  0.00    -0.354 N 
ATOM     41  C   UNL A   1      42.366  28.807  32.949  1.00  0.00     0.074 A 
ATOM     42  C   UNL A   1      42.915  27.665  32.249  1.00  0.00     0.031 C 
ATOM     43  C   UNL A   1      37.648  30.728  29.024  1.00  0.00     0.029 A 
ATOM     44  C   UNL A   1      38.075  31.352  30.273  1.00  0.00     0.049 A 
ATOM     45  H   UNL A   1      39.677  30.794  31.481  1.00  0.00     0.167 HD
ATOM     46  C   UNL A   1      42.844  29.290  34.119  1.00  0.00     0.037 A 
ATOM     47  C   UNL A   1      37.490  32.415  30.856  1.00  0.00     0.037 A 
ATOM     48  C   UNL A   1      42.308  30.441  34.798  1.00  0.00     0.049 A 
ATOM     49  C   UNL A   1      38.012  32.910  32.176  1.00  0.00     0.074 A 
ATOM     50  C   UNL A   1      42.729  31.019  35.983  1.00  0.00     0.029 A 
ATOM     51  N   UNL A   1      41.235  31.193  34.344  1.00  0.00    -0.354 N 
ATOM     52  N   UNL A   1      39.007  32.451  32.895  1.00  0.00    -0.248 NA
ATOM     53  C   UNL A   1      37.321  34.062  32.772  1.00  0.00     0.031 C 
ATOM     54  C   UNL A   1      41.889  32.104  36.262  1.00  0.00     0.029 A 
ATOM     55  C   UNL A   1      40.970  32.222  35.231  1.00  0.00     0.049 A 
ATOM     56  H   UNL A   1      40.735  31.020  33.513  1.00  0.00     0.167 HD
ATOM     57  C   UNL A   1      39.075  33.267  34.017  1.00  0.00     0.074 A 
ATOM     58  C   UNL A   1      38.026  34.257  33.877  1.00  0.00     0.031 C 
ATOM     59  C   UNL A   1      39.925  33.200  35.069  1.00  0.00     0.037 A 
BRANCH  46  60
ATOM     60  C   UNL A   1      43.987  28.555  34.753  1.00  0.00     0.057 A 
ATOM     61  C   UNL A   1      45.320  28.896  34.497  1.00  0.00     0.134 A 
ATOM     62  C   UNL A   1      43.747  27.504  35.646  1.00  0.00     0.134 A 
ATOM     63  F   UNL A   1      45.617  29.883  33.638  1.00  0.00    -0.206 F 
ATOM     64  C   UNL A   1      46.376  28.202  35.091  1.00  0.00     0.040 A 
ATOM     65  C   UNL A   1      44.793  26.817  36.264  1.00  0.00     0.040 A 
ATOM     66  F   UNL A   1      42.491  27.128  35.936  1.00  0.00    -0.206 F 
ATOM     67  C   UNL A   1      46.113  27.163  35.982  1.00  0.00     0.006 A 
ENDBRANCH  46  60
BRANCH  47  68
ATOM     68  C   UNL A   1      36.327  33.068  30.207  1.00  0.00     0.057 A 
ATOM     69  C   UNL A   1      35.021  32.819  30.645  1.00  0.00     0.134 A 
ATOM     70  C   UNL A   1      36.490  33.956  29.137  1.00  0.00     0.134 A 
ATOM     71  F   UNL A   1      34.800  31.959  31.650  1.00  0.00    -0.206 F 
ATOM     72  C   UNL A   1      33.919  33.421  30.036  1.00  0.00     0.040 A 
ATOM     73  C   UNL A   1      35.399  34.583  28.533  1.00  0.00     0.040 A 
ATOM     74  F   UNL A   1      37.716  34.237  28.670  1.00  0.00    -0.206 F 
ATOM     75  C   UNL A   1      34.108  34.311  28.981  1.00  0.00     0.006 A 
ENDBRANCH  47  68
BRANCH  59  76
ATOM     76  C   UNL A   1      39.776  34.245  36.134  1.00  0.00     0.057 A 
ATOM     77  C   UNL A   1      39.022  34.015  37.291  1.00  0.00     0.134 A 
ATOM     78  C   UNL A   1      40.422  35.482  36.013  1.00  0.00     0.134 A 
ATOM     79  F   UNL A   1      38.369  32.855  37.457  1.00  0.00    -0.206 F 
ATOM     80  C   UNL A   1      38.904  34.986  38.285  1.00  0.00     0.040 A 
ATOM     81  C   UNL A   1      40.326  36.452  37.010  1.00  0.00     0.040 A 
ATOM     82  F   UNL A   1      41.163  35.761  34.930  1.00  0.00    -0.206 F 
ATOM     83  C   UNL A   1      39.561  36.207  38.148  1.00  0.00     0.006 A 
ENDBRANCH  59  76
ENDBRANCH  33  34
ENDBRANCH  26  28
ENDBRANCH  25  26
ENDBRANCH  24  25
ENDBRANCH   1  24
TORSDOF 14
ENDMDL
MODEL 3
REMARK VINA RESULT:     -11.4      4.024      7.526
REMARK SMILES C[C@H](NC(=O)N1CC[C@@H](C(=O)OCCOC(=O)c2ccc(-c3c4nc(c(-c5c(F)cccc5F)c5ccc([nH]5)c(-c5c(F)cccc5F)c5nc(c(-c6c(F)cccc6F)c6ccc3[nH]6)C=C5)C=C4)cc2)[C@H]1C)c1ccc(Cl)cc1
REMARK SMILES IDX 13 1 12 2 10 3 11 4 9 5 6 6 7 7 72 8 8 9 73 10 4 11 3 12
REMARK SMILES IDX 5 14 2 15 1 16 74 17 75 18 80 19 76 20 79 21 77 22 78 23
REMARK SMILES IDX 14 24 15 25 16 26 17 27 18 28 19 29 71 30 20 31 70 32 21 33
REMARK SMILES IDX 22 34 23 35 64 36 24 37 69 38 63 39 65 40 25 41 68 42 62 43
REMARK SMILES IDX 61 44 26 46 52 47 35 48 51 49 36 50 39 51 50 52 66 53 37 54
REMARK SMILES IDX 38 55 49 57 67 58 40 59 27 60 28 61 33 62 29 63 30 64 32 65
REMARK SMILES IDX 34 66 31 67 53 68 54 69 59 70 55 71 56 72 58 73 60 74 57 75
REMARK SMILES IDX 41 76 42 77 47 78 43 79 44 80 46 81 48 82 45 83
REMARK H PARENT 3 13 65 45 39 56
REMARK Flexibility Score: inf
ROOT
ATOM      1  C   UNL A   1      31.122  29.341  24.489  1.00  0.00     0.274 C 
ENDROOT
BRANCH   1   2
ATOM      2  O   UNL A   1      30.719  27.996  24.150  1.00  0.00    -0.462 OA
BRANCH   2   3
ATOM      3  C   UNL A   1      30.600  27.735  22.824  1.00  0.00     0.311 C 
ATOM      4  O   UNL A   1      30.245  28.552  21.980  1.00  0.00    -0.252 OA
BRANCH   3   5
ATOM      5  C   UNL A   1      30.916  26.304  22.461  1.00  0.00     0.123 C 
ATOM      6  N   UNL A   1      32.575  24.629  22.820  1.00  0.00    -0.321 N 
ATOM      7  C   UNL A   1      31.295  24.113  23.259  1.00  0.00     0.122 C 
ATOM      8  C   UNL A   1      32.355  25.877  22.075  1.00  0.00     0.098 C 
ATOM      9  C   UNL A   1      30.501  25.356  23.583  1.00  0.00     0.039 C 
ATOM     10  C   UNL A   1      33.482  26.886  22.257  1.00  0.00     0.032 C 
BRANCH   6  11
ATOM     11  C   UNL A   1      33.489  23.697  22.415  1.00  0.00     0.318 C 
ATOM     12  N   UNL A   1      34.322  23.195  23.360  1.00  0.00    -0.331 N 
ATOM     13  H   UNL A   1      34.719  22.325  23.129  1.00  0.00     0.165 HD
ATOM     14  O   UNL A   1      33.491  23.223  21.282  1.00  0.00    -0.249 OA
BRANCH  12  15
ATOM     15  C   UNL A   1      34.733  23.715  24.658  1.00  0.00     0.111 C 
ATOM     16  C   UNL A   1      33.846  23.397  25.870  1.00  0.00     0.036 C 
BRANCH  15  17
ATOM     17  C   UNL A   1      36.138  23.218  24.990  1.00  0.00    -0.026 A 
ATOM     18  C   UNL A   1      37.005  23.981  25.782  1.00  0.00     0.007 A 
ATOM     19  C   UNL A   1      36.538  21.927  24.593  1.00  0.00     0.007 A 
ATOM     20  C   UNL A   1      38.216  23.438  26.223  1.00  0.00     0.021 A 
ATOM     21  C   UNL A   1      37.737  21.382  25.046  1.00  0.00     0.021 A 
ATOM     22  C   UNL A   1      38.565  22.134  25.874  1.00  0.00     0.041 A 
ATOM     23  Cl  UNL A   1      40.011  21.439  26.492  1.00  0.00    -0.084 Cl
ENDBRANCH  15  17
ENDBRANCH  12  15
ENDBRANCH   6  11
ENDBRANCH   3   5
ENDBRANCH   2   3
ENDBRANCH   1   2
BRANCH   1  24
ATOM     24  C   UNL A   1      31.731  29.356  25.893  1.00  0.00     0.275 C 
BRANCH  24  25
ATOM     25  O   UNL A   1      32.928  30.151  25.862  1.00  0.00    -0.458 OA
BRANCH  25  26
ATOM     26  C   UNL A   1      33.002  31.156  26.762  1.00  0.00     0.338 C 
ATOM     27  O   UNL A   1      32.208  32.062  26.924  1.00  0.00    -0.246 OA
BRANCH  26  28
ATOM     28  C   UNL A   1      34.243  30.987  27.543  1.00  0.00     0.060 A 
ATOM     29  C   UNL A   1      35.081  32.078  27.802  1.00  0.00     0.016 A 
ATOM     30  C   UNL A   1      34.588  29.714  27.992  1.00  0.00     0.016 A 
ATOM     31  C   UNL A   1      36.270  31.900  28.508  1.00  0.00     0.010 A 
ATOM     32  C   UNL A   1      35.758  29.543  28.734  1.00  0.00     0.010 A 
ATOM     33  C   UNL A   1      36.612  30.631  28.988  1.00  0.00    -0.014 A 
BRANCH  33  34
ATOM     34  C   UNL A   1      37.880  30.408  29.723  1.00  0.00     0.031 A 
ATOM     35  C   UNL A   1      38.941  29.539  29.113  1.00  0.00     0.074 A 
ATOM     36  C   UNL A   1      38.061  30.943  30.944  1.00  0.00     0.049 A 
ATOM     37  N   UNL A   1      40.027  29.051  29.657  1.00  0.00    -0.248 NA
ATOM     38  C   UNL A   1      38.745  29.158  27.706  1.00  0.00     0.031 C 
ATOM     39  C   UNL A   1      37.125  31.836  31.626  1.00  0.00     0.029 A 
ATOM     40  N   UNL A   1      39.092  30.793  31.837  1.00  0.00    -0.354 N 
ATOM     41  C   UNL A   1      40.624  28.277  28.671  1.00  0.00     0.074 A 
ATOM     42  C   UNL A   1      39.777  28.353  27.499  1.00  0.00     0.031 C 
ATOM     43  C   UNL A   1      37.620  32.148  32.835  1.00  0.00     0.029 A 
ATOM     44  C   UNL A   1      38.878  31.434  33.033  1.00  0.00     0.049 A 
ATOM     45  H   UNL A   1      39.906  30.275  31.642  1.00  0.00     0.167 HD
ATOM     46  C   UNL A   1      41.774  27.565  28.740  1.00  0.00     0.037 A 
ATOM     47  C   UNL A   1      39.595  31.415  34.172  1.00  0.00     0.037 A 
ATOM     48  C   UNL A   1      42.624  27.512  29.900  1.00  0.00     0.049 A 
ATOM     49  C   UNL A   1      40.847  30.585  34.240  1.00  0.00     0.074 A 
ATOM     50  C   UNL A   1      43.817  26.831  30.068  1.00  0.00     0.029 A 
ATOM     51  N   UNL A   1      42.371  28.176  31.091  1.00  0.00    -0.354 N 
ATOM     52  N   UNL A   1      41.391  29.835  33.313  1.00  0.00    -0.248 NA
ATOM     53  C   UNL A   1      41.577  30.589  35.515  1.00  0.00     0.031 C 
ATOM     54  C   UNL A   1      44.270  27.058  31.373  1.00  0.00     0.029 A 
ATOM     55  C   UNL A   1      43.378  27.910  32.004  1.00  0.00     0.049 A 
ATOM     56  H   UNL A   1      41.590  28.752  31.263  1.00  0.00     0.167 HD
ATOM     57  C   UNL A   1      42.535  29.293  33.885  1.00  0.00     0.074 A 
ATOM     58  C   UNL A   1      42.612  29.810  35.236  1.00  0.00     0.031 C 
ATOM     59  C   UNL A   1      43.437  28.441  33.342  1.00  0.00     0.037 A 
BRANCH  46  60
ATOM     60  C   UNL A   1      42.161  26.763  27.534  1.00  0.00     0.057 A 
ATOM     61  C   UNL A   1      42.972  27.290  26.522  1.00  0.00     0.134 A 
ATOM     62  C   UNL A   1      41.730  25.438  27.394  1.00  0.00     0.134 A 
ATOM     63  F   UNL A   1      43.404  28.558  26.588  1.00  0.00    -0.206 F 
ATOM     64  C   UNL A   1      43.324  26.534  25.402  1.00  0.00     0.040 A 
ATOM     65  C   UNL A   1      42.093  24.664  26.291  1.00  0.00     0.040 A 
ATOM     66  F   UNL A   1      40.951  24.872  28.329  1.00  0.00    -0.206 F 
ATOM     67  C   UNL A   1      42.888  25.215  25.288  1.00  0.00     0.006 A 
ENDBRANCH  46  60
BRANCH  47  68
ATOM     68  C   UNL A   1      39.132  32.187  35.352  1.00  0.00     0.057 A 
ATOM     69  C   UNL A   1      39.471  33.535  35.512  1.00  0.00     0.134 A 
ATOM     70  C   UNL A   1      38.342  31.598  36.346  1.00  0.00     0.134 A 
ATOM     71  F   UNL A   1      40.246  34.147  34.604  1.00  0.00    -0.206 F 
ATOM     72  C   UNL A   1      39.049  34.268  36.622  1.00  0.00     0.040 A 
ATOM     73  C   UNL A   1      37.893  32.324  37.450  1.00  0.00     0.040 A 
ATOM     74  F   UNL A   1      37.983  30.308  36.251  1.00  0.00    -0.206 F 
ATOM     75  C   UNL A   1      38.252  33.663  37.591  1.00  0.00     0.006 A 
ENDBRANCH  47  68
BRANCH  59  76
ATOM     76  C   UNL A   1      44.601  28.043  34.199  1.00  0.00     0.057 A 
ATOM     77  C   UNL A   1      44.565  26.896  35.001  1.00  0.00     0.134 A 
ATOM     78  C   UNL A   1      45.780  28.797  34.194  1.00  0.00     0.134 A 
ATOM     79  F   UNL A   1      43.458  26.140  35.059  1.00  0.00    -0.206 F 
ATOM     80  C   UNL A   1      45.659  26.522  35.783  1.00  0.00     0.040 A 
ATOM     81  C   UNL A   1      46.887  28.421  34.956  1.00  0.00     0.040 A 
ATOM     82  F   UNL A   1      45.879  29.903  33.442  1.00  0.00    -0.206 F 
ATOM     83  C   UNL A   1      46.825  27.283  35.758  1.00  0.00     0.006 A 
ENDBRANCH  59  76
ENDBRANCH  33  34
ENDBRANCH  26  28
ENDBRANCH  25  26
ENDBRANCH  24  25
ENDBRANCH   1  24
TORSDOF 14
ENDMDL
