MODEL 1
REMARK VINA RESULT:     -10.7      0.000      0.000
REMARK SMILES O=C(OCCOC(=O)[C@H]1CC=CC[C@@H]1c1nc2cc(Cl)ccc2o1)c1ccc(-c2c3nc(c(-c4c(F)cccc4F)c4ccc([nH]4)c(-c4c(F)cccc4F)c4nc(c(-c5c(F)cccc5F)c5ccc2[nH]5)C=C4)C=C3)cc1
REMARK SMILES IDX 4 1 3 2 2 3 1 4 25 5 26 6 78 7 27 8 77 9 28 10 29 11 30 12
REMARK SMILES IDX 71 13 31 14 76 15 70 16 72 17 32 18 75 19 69 20 68 21 33 23
REMARK SMILES IDX 59 24 42 25 58 26 43 27 46 28 57 29 73 30 44 31 45 32 56 34
REMARK SMILES IDX 74 35 47 36 34 37 35 38 40 39 36 40 37 41 39 42 41 43 38 44
REMARK SMILES IDX 60 45 61 46 66 47 62 48 63 49 65 50 67 51 64 52 48 53 49 54
REMARK SMILES IDX 54 55 50 56 51 57 53 58 55 59 52 60 5 61 6 62 7 63 8 64 9 65
REMARK SMILES IDX 10 66 14 67 11 68 13 69 12 70 15 71 16 72 24 73 17 74 23 75
REMARK SMILES IDX 18 76 22 77 19 78 21 79 20 80
REMARK H PARENT 72 22 46 33
REMARK Flexibility Score: inf
ROOT
ATOM      1  C   UNL A   1      45.289  19.199  24.882  1.00  0.00     0.275 C 
ENDROOT
BRANCH   1   2
ATOM      2  O   UNL A   1      43.881  19.469  24.680  1.00  0.00    -0.458 OA
BRANCH   2   3
ATOM      3  C   UNL A   1      42.882  19.295  25.592  1.00  0.00     0.338 C 
ATOM      4  O   UNL A   1      42.317  18.231  25.752  1.00  0.00    -0.246 OA
BRANCH   3   5
ATOM      5  C   UNL A   1      42.371  20.508  26.251  1.00  0.00     0.060 A 
ATOM      6  C   UNL A   1      42.622  21.716  25.606  1.00  0.00     0.016 A 
ATOM      7  C   UNL A   1      41.824  20.480  27.535  1.00  0.00     0.016 A 
ATOM      8  C   UNL A   1      42.572  22.882  26.350  1.00  0.00     0.010 A 
ATOM      9  C   UNL A   1      41.787  21.655  28.281  1.00  0.00     0.010 A 
ATOM     10  C   UNL A   1      42.268  22.842  27.722  1.00  0.00    -0.014 A 
BRANCH  10  11
ATOM     11  C   UNL A   1      42.402  24.097  28.485  1.00  0.00     0.031 A 
ATOM     12  C   UNL A   1      41.351  25.116  28.203  1.00  0.00     0.074 A 
ATOM     13  C   UNL A   1      43.326  24.337  29.442  1.00  0.00     0.049 A 
ATOM     14  N   UNL A   1      41.497  26.367  27.898  1.00  0.00    -0.248 NA
ATOM     15  C   UNL A   1      39.959  24.635  28.167  1.00  0.00     0.031 C 
ATOM     16  C   UNL A   1      44.313  23.398  29.979  1.00  0.00     0.029 A 
ATOM     17  N   UNL A   1      43.504  25.451  30.228  1.00  0.00    -0.354 N 
ATOM     18  C   UNL A   1      40.204  26.871  27.815  1.00  0.00     0.074 A 
ATOM     19  C   UNL A   1      39.303  25.747  27.845  1.00  0.00     0.031 C 
ATOM     20  C   UNL A   1      44.809  23.887  31.135  1.00  0.00     0.029 A 
ATOM     21  C   UNL A   1      44.247  25.205  31.377  1.00  0.00     0.049 A 
ATOM     22  H   UNL A   1      43.141  26.337  29.998  1.00  0.00     0.167 HD
ATOM     23  C   UNL A   1      39.913  28.183  27.996  1.00  0.00     0.037 A 
ATOM     24  C   UNL A   1      44.340  25.971  32.492  1.00  0.00     0.037 A 
ATOM     25  C   UNL A   1      41.018  29.064  27.769  1.00  0.00     0.049 A 
ATOM     26  C   UNL A   1      43.900  27.345  32.167  1.00  0.00     0.074 A 
ATOM     27  C   UNL A   1      41.822  29.387  26.696  1.00  0.00     0.029 A 
ATOM     28  N   UNL A   1      41.593  29.648  28.865  1.00  0.00    -0.354 N 
ATOM     29  N   UNL A   1      44.606  28.223  31.518  1.00  0.00    -0.248 NA
ATOM     30  C   UNL A   1      42.502  27.700  32.376  1.00  0.00     0.031 C 
ATOM     31  C   UNL A   1      43.051  29.844  27.252  1.00  0.00     0.029 A 
ATOM     32  C   UNL A   1      42.940  29.751  28.638  1.00  0.00     0.049 A 
ATOM     33  H   UNL A   1      41.121  29.943  29.677  1.00  0.00     0.167 HD
ATOM     34  C   UNL A   1      43.670  29.022  30.886  1.00  0.00     0.074 A 
ATOM     35  C   UNL A   1      42.419  28.766  31.580  1.00  0.00     0.031 C 
ATOM     36  C   UNL A   1      43.936  29.579  29.670  1.00  0.00     0.037 A 
BRANCH  23  37
ATOM     37  C   UNL A   1      38.692  28.595  28.769  1.00  0.00     0.057 A 
ATOM     38  C   UNL A   1      38.548  28.326  30.149  1.00  0.00     0.134 A 
ATOM     39  C   UNL A   1      37.768  29.493  28.224  1.00  0.00     0.134 A 
ATOM     40  F   UNL A   1      39.454  27.607  30.826  1.00  0.00    -0.206 F 
ATOM     41  C   UNL A   1      37.517  28.862  30.919  1.00  0.00     0.040 A 
ATOM     42  C   UNL A   1      36.762  30.082  29.000  1.00  0.00     0.040 A 
ATOM     43  F   UNL A   1      37.858  29.874  26.941  1.00  0.00    -0.206 F 
ATOM     44  C   UNL A   1      36.629  29.759  30.349  1.00  0.00     0.006 A 
ENDBRANCH  23  37
BRANCH  24  45
ATOM     45  C   UNL A   1      44.633  25.571  33.891  1.00  0.00     0.057 A 
ATOM     46  C   UNL A   1      45.807  25.967  34.555  1.00  0.00     0.134 A 
ATOM     47  C   UNL A   1      43.873  24.583  34.539  1.00  0.00     0.134 A 
ATOM     48  F   UNL A   1      46.664  26.834  33.997  1.00  0.00    -0.206 F 
ATOM     49  C   UNL A   1      46.199  25.426  35.784  1.00  0.00     0.040 A 
ATOM     50  C   UNL A   1      44.265  24.016  35.759  1.00  0.00     0.040 A 
ATOM     51  F   UNL A   1      42.760  24.094  33.975  1.00  0.00    -0.206 F 
ATOM     52  C   UNL A   1      45.434  24.435  36.384  1.00  0.00     0.006 A 
ENDBRANCH  24  45
BRANCH  36  53
ATOM     53  C   UNL A   1      45.375  29.732  29.282  1.00  0.00     0.057 A 
ATOM     54  C   UNL A   1      46.007  30.956  29.534  1.00  0.00     0.134 A 
ATOM     55  C   UNL A   1      46.116  28.753  28.606  1.00  0.00     0.134 A 
ATOM     56  F   UNL A   1      45.336  31.956  30.127  1.00  0.00    -0.206 F 
ATOM     57  C   UNL A   1      47.329  31.191  29.156  1.00  0.00     0.040 A 
ATOM     58  C   UNL A   1      47.452  28.965  28.255  1.00  0.00     0.040 A 
ATOM     59  F   UNL A   1      45.557  27.591  28.237  1.00  0.00    -0.206 F 
ATOM     60  C   UNL A   1      48.062  30.186  28.529  1.00  0.00     0.006 A 
ENDBRANCH  36  53
ENDBRANCH  10  11
ENDBRANCH   3   5
ENDBRANCH   2   3
ENDBRANCH   1   2
BRANCH   1  61
ATOM     61  C   UNL A   1      46.268  20.346  24.591  1.00  0.00     0.274 C 
BRANCH  61  62
ATOM     62  O   UNL A   1      46.019  21.513  25.381  1.00  0.00    -0.462 OA
BRANCH  62  63
ATOM     63  C   UNL A   1      46.079  22.701  24.713  1.00  0.00     0.310 C 
ATOM     64  O   UNL A   1      45.466  22.937  23.683  1.00  0.00    -0.252 OA
BRANCH  63  65
ATOM     65  C   UNL A   1      47.007  23.672  25.432  1.00  0.00     0.115 C 
ATOM     66  C   UNL A   1      47.391  24.825  24.489  1.00  0.00     0.043 C 
ATOM     67  C   UNL A   1      46.358  24.140  26.746  1.00  0.00     0.094 C 
ATOM     68  C   UNL A   1      46.514  26.035  24.561  1.00  0.00    -0.030 C 
ATOM     69  C   UNL A   1      45.209  25.148  26.498  1.00  0.00     0.041 C 
ATOM     70  C   UNL A   1      45.522  26.175  25.449  1.00  0.00    -0.030 C 
BRANCH  67  71
ATOM     71  C   UNL A   1      47.329  24.750  27.723  1.00  0.00     0.199 A 
ATOM     72  N   UNL A   1      48.644  24.781  27.603  1.00  0.00    -0.213 NA
ATOM     73  O   UNL A   1      46.853  25.276  28.900  1.00  0.00    -0.440 OA
ATOM     74  C   UNL A   1      49.075  25.265  28.807  1.00  0.00     0.111 A 
ATOM     75  C   UNL A   1      47.985  25.585  29.601  1.00  0.00     0.154 A 
ATOM     76  C   UNL A   1      50.369  25.439  29.307  1.00  0.00     0.053 A 
ATOM     77  C   UNL A   1      48.076  26.099  30.889  1.00  0.00     0.051 A 
ATOM     78  C   UNL A   1      50.498  25.928  30.611  1.00  0.00     0.043 A 
ATOM     79  C   UNL A   1      49.379  26.258  31.386  1.00  0.00     0.024 A 
ATOM     80  Cl  UNL A   1      52.075  26.111  31.283  1.00  0.00    -0.084 Cl
ENDBRANCH  67  71
ENDBRANCH  63  65
ENDBRANCH  62  63
ENDBRANCH  61  62
ENDBRANCH   1  61
TORSDOF 12
ENDMDL
MODEL 2
REMARK VINA RESULT:      -9.9      5.875     11.005
REMARK SMILES O=C(OCCOC(=O)[C@H]1CC=CC[C@@H]1c1nc2cc(Cl)ccc2o1)c1ccc(-c2c3nc(c(-c4c(F)cccc4F)c4ccc([nH]4)c(-c4c(F)cccc4F)c4nc(c(-c5c(F)cccc5F)c5ccc2[nH]5)C=C4)C=C3)cc1
REMARK SMILES IDX 4 1 3 2 2 3 1 4 25 5 26 6 78 7 27 8 77 9 28 10 29 11 30 12
REMARK SMILES IDX 71 13 31 14 76 15 70 16 72 17 32 18 75 19 69 20 68 21 33 23
REMARK SMILES IDX 59 24 42 25 58 26 43 27 46 28 57 29 73 30 44 31 45 32 56 34
REMARK SMILES IDX 74 35 47 36 34 37 35 38 40 39 36 40 37 41 39 42 41 43 38 44
REMARK SMILES IDX 60 45 61 46 66 47 62 48 63 49 65 50 67 51 64 52 48 53 49 54
REMARK SMILES IDX 54 55 50 56 51 57 53 58 55 59 52 60 5 61 6 62 7 63 8 64 9 65
REMARK SMILES IDX 10 66 14 67 11 68 13 69 12 70 15 71 16 72 24 73 17 74 23 75
REMARK SMILES IDX 18 76 22 77 19 78 21 79 20 80
REMARK H PARENT 72 22 46 33
REMARK Flexibility Score: inf
ROOT
ATOM      1  C   UNL A   1      37.270  23.488  25.364  1.00  0.00     0.275 C 
ENDROOT
BRANCH   1   2
ATOM      2  O   UNL A   1      37.849  24.298  26.415  1.00  0.00    -0.458 OA
BRANCH   2   3
ATOM      3  C   UNL A   1      39.119  24.207  26.903  1.00  0.00     0.338 C 
ATOM      4  O   UNL A   1      39.721  23.154  26.980  1.00  0.00    -0.246 OA
BRANCH   3   5
ATOM      5  C   UNL A   1      39.675  25.421  27.526  1.00  0.00     0.060 A 
ATOM      6  C   UNL A   1      39.541  25.525  28.908  1.00  0.00     0.016 A 
ATOM      7  C   UNL A   1      40.150  26.492  26.767  1.00  0.00     0.016 A 
ATOM      8  C   UNL A   1      39.630  26.781  29.484  1.00  0.00     0.010 A 
ATOM      9  C   UNL A   1      40.226  27.753  27.351  1.00  0.00     0.010 A 
ATOM     10  C   UNL A   1      39.857  27.917  28.690  1.00  0.00    -0.014 A 
BRANCH  10  11
ATOM     11  C   UNL A   1      39.768  29.235  29.346  1.00  0.00     0.031 A 
ATOM     12  C   UNL A   1      41.060  29.968  29.455  1.00  0.00     0.074 A 
ATOM     13  C   UNL A   1      38.626  29.828  29.760  1.00  0.00     0.049 A 
ATOM     14  N   UNL A   1      41.598  30.513  30.502  1.00  0.00    -0.248 NA
ATOM     15  C   UNL A   1      41.901  30.008  28.245  1.00  0.00     0.031 C 
ATOM     16  C   UNL A   1      37.256  29.347  29.572  1.00  0.00     0.029 A 
ATOM     17  N   UNL A   1      38.440  31.060  30.343  1.00  0.00    -0.354 N 
ATOM     18  C   UNL A   1      42.756  31.124  30.036  1.00  0.00     0.074 A 
ATOM     19  C   UNL A   1      42.969  30.666  28.686  1.00  0.00     0.031 C 
ATOM     20  C   UNL A   1      36.393  30.358  29.805  1.00  0.00     0.029 A 
ATOM     21  C   UNL A   1      37.135  31.528  30.243  1.00  0.00     0.049 A 
ATOM     22  H   UNL A   1      39.162  31.561  30.787  1.00  0.00     0.167 HD
ATOM     23  C   UNL A   1      43.339  32.174  30.667  1.00  0.00     0.037 A 
ATOM     24  C   UNL A   1      36.686  32.796  30.418  1.00  0.00     0.037 A 
ATOM     25  C   UNL A   1      43.007  32.279  32.055  1.00  0.00     0.049 A 
ATOM     26  C   UNL A   1      37.698  33.562  31.176  1.00  0.00     0.074 A 
ATOM     27  C   UNL A   1      43.190  31.499  33.178  1.00  0.00     0.029 A 
ATOM     28  N   UNL A   1      42.158  33.287  32.425  1.00  0.00    -0.354 N 
ATOM     29  N   UNL A   1      37.903  33.469  32.457  1.00  0.00    -0.248 NA
ATOM     30  C   UNL A   1      38.703  34.315  30.436  1.00  0.00     0.031 C 
ATOM     31  C   UNL A   1      42.148  31.862  34.079  1.00  0.00     0.029 A 
ATOM     32  C   UNL A   1      41.369  32.828  33.445  1.00  0.00     0.049 A 
ATOM     33  H   UNL A   1      42.121  34.186  32.027  1.00  0.00     0.167 HD
ATOM     34  C   UNL A   1      39.242  33.779  32.617  1.00  0.00     0.074 A 
ATOM     35  C   UNL A   1      39.629  34.449  31.387  1.00  0.00     0.031 C 
ATOM     36  C   UNL A   1      39.979  33.191  33.602  1.00  0.00     0.037 A 
BRANCH  23  37
ATOM     37  C   UNL A   1      43.902  33.322  29.877  1.00  0.00     0.057 A 
ATOM     38  C   UNL A   1      45.287  33.459  29.631  1.00  0.00     0.134 A 
ATOM     39  C   UNL A   1      43.065  34.155  29.127  1.00  0.00     0.134 A 
ATOM     40  F   UNL A   1      46.185  32.620  30.167  1.00  0.00    -0.206 F 
ATOM     41  C   UNL A   1      45.807  34.404  28.749  1.00  0.00     0.040 A 
ATOM     42  C   UNL A   1      43.573  35.069  28.196  1.00  0.00     0.040 A 
ATOM     43  F   UNL A   1      41.732  34.056  29.229  1.00  0.00    -0.206 F 
ATOM     44  C   UNL A   1      44.947  35.203  28.013  1.00  0.00     0.006 A 
ENDBRANCH  23  37
BRANCH  24  45
ATOM     45  C   UNL A   1      35.497  33.466  29.834  1.00  0.00     0.057 A 
ATOM     46  C   UNL A   1      35.352  33.665  28.450  1.00  0.00     0.134 A 
ATOM     47  C   UNL A   1      34.574  34.146  30.645  1.00  0.00     0.134 A 
ATOM     48  F   UNL A   1      36.226  33.147  27.575  1.00  0.00    -0.206 F 
ATOM     49  C   UNL A   1      34.354  34.480  27.905  1.00  0.00     0.040 A 
ATOM     50  C   UNL A   1      33.582  34.981  30.115  1.00  0.00     0.040 A 
ATOM     51  F   UNL A   1      34.647  34.067  31.981  1.00  0.00    -0.206 F 
ATOM     52  C   UNL A   1      33.472  35.154  28.739  1.00  0.00     0.006 A 
ENDBRANCH  24  45
BRANCH  36  53
ATOM     53  C   UNL A   1      39.238  32.624  34.773  1.00  0.00     0.057 A 
ATOM     54  C   UNL A   1      38.999  33.454  35.876  1.00  0.00     0.134 A 
ATOM     55  C   UNL A   1      38.833  31.286  34.877  1.00  0.00     0.134 A 
ATOM     56  F   UNL A   1      39.412  34.731  35.866  1.00  0.00    -0.206 F 
ATOM     57  C   UNL A   1      38.360  32.983  37.024  1.00  0.00     0.040 A 
ATOM     58  C   UNL A   1      38.161  30.814  36.006  1.00  0.00     0.040 A 
ATOM     59  F   UNL A   1      39.113  30.401  33.908  1.00  0.00    -0.206 F 
ATOM     60  C   UNL A   1      37.923  31.663  37.084  1.00  0.00     0.006 A 
ENDBRANCH  36  53
ENDBRANCH  10  11
ENDBRANCH   3   5
ENDBRANCH   2   3
ENDBRANCH   1   2
BRANCH   1  61
ATOM     61  C   UNL A   1      36.371  22.320  25.796  1.00  0.00     0.274 C 
BRANCH  61  62
ATOM     62  O   UNL A   1      34.981  22.659  25.818  1.00  0.00    -0.462 OA
BRANCH  62  63
ATOM     63  C   UNL A   1      34.459  23.086  24.633  1.00  0.00     0.310 C 
ATOM     64  O   UNL A   1      34.259  22.357  23.672  1.00  0.00    -0.252 OA
BRANCH  63  65
ATOM     65  C   UNL A   1      34.166  24.580  24.684  1.00  0.00     0.115 C 
ATOM     66  C   UNL A   1      33.853  25.101  23.271  1.00  0.00     0.043 C 
ATOM     67  C   UNL A   1      33.051  24.859  25.707  1.00  0.00     0.094 C 
ATOM     68  C   UNL A   1      32.404  25.107  22.894  1.00  0.00    -0.030 C 
ATOM     69  C   UNL A   1      31.661  24.427  25.180  1.00  0.00     0.041 C 
ATOM     70  C   UNL A   1      31.420  24.787  23.743  1.00  0.00    -0.030 C 
BRANCH  67  71
ATOM     71  C   UNL A   1      32.972  26.298  26.146  1.00  0.00     0.199 A 
ATOM     72  N   UNL A   1      31.876  27.030  26.234  1.00  0.00    -0.213 NA
ATOM     73  O   UNL A   1      34.133  26.978  26.425  1.00  0.00    -0.440 OA
ATOM     74  C   UNL A   1      32.339  28.290  26.493  1.00  0.00     0.111 A 
ATOM     75  C   UNL A   1      33.719  28.265  26.625  1.00  0.00     0.154 A 
ATOM     76  C   UNL A   1      31.657  29.506  26.603  1.00  0.00     0.053 A 
ATOM     77  C   UNL A   1      34.503  29.382  26.887  1.00  0.00     0.051 A 
ATOM     78  C   UNL A   1      32.418  30.656  26.838  1.00  0.00     0.043 A 
ATOM     79  C   UNL A   1      33.810  30.598  26.984  1.00  0.00     0.024 A 
ATOM     80  Cl  UNL A   1      31.620  32.180  26.933  1.00  0.00    -0.084 Cl
ENDBRANCH  67  71
ENDBRANCH  63  65
ENDBRANCH  62  63
ENDBRANCH  61  62
ENDBRANCH   1  61
TORSDOF 12
ENDMDL
MODEL 3
REMARK VINA RESULT:      -9.8      5.103     10.192
REMARK SMILES O=C(OCCOC(=O)[C@H]1CC=CC[C@@H]1c1nc2cc(Cl)ccc2o1)c1ccc(-c2c3nc(c(-c4c(F)cccc4F)c4ccc([nH]4)c(-c4c(F)cccc4F)c4nc(c(-c5c(F)cccc5F)c5ccc2[nH]5)C=C4)C=C3)cc1
REMARK SMILES IDX 4 1 3 2 2 3 1 4 25 5 26 6 78 7 27 8 77 9 28 10 29 11 30 12
REMARK SMILES IDX 71 13 31 14 76 15 70 16 72 17 32 18 75 19 69 20 68 21 33 23
REMARK SMILES IDX 59 24 42 25 58 26 43 27 46 28 57 29 73 30 44 31 45 32 56 34
REMARK SMILES IDX 74 35 47 36 34 37 35 38 40 39 36 40 37 41 39 42 41 43 38 44
REMARK SMILES IDX 60 45 61 46 66 47 62 48 63 49 65 50 67 51 64 52 48 53 49 54
REMARK SMILES IDX 54 55 50 56 51 57 53 58 55 59 52 60 5 61 6 62 7 63 8 64 9 65
REMARK SMILES IDX 10 66 14 67 11 68 13 69 12 70 15 71 16 72 24 73 17 74 23 75
REMARK SMILES IDX 18 76 22 77 19 78 21 79 20 80
REMARK H PARENT 72 22 46 33
REMARK Flexibility Score: inf
ROOT
ATOM      1  C   UNL A   1      34.653  30.106  27.630  1.00  0.00     0.275 C 
ENDROOT
BRANCH   1   2
ATOM      2  O   UNL A   1      35.173  31.059  28.587  1.00  0.00    -0.458 OA
BRANCH   2   3
ATOM      3  C   UNL A   1      36.410  31.040  29.161  1.00  0.00     0.338 C 
ATOM      4  O   UNL A   1      36.825  31.944  29.861  1.00  0.00    -0.246 OA
BRANCH   3   5
ATOM      5  C   UNL A   1      37.318  29.958  28.741  1.00  0.00     0.060 A 
ATOM      6  C   UNL A   1      37.440  28.880  29.613  1.00  0.00     0.016 A 
ATOM      7  C   UNL A   1      38.148  30.078  27.625  1.00  0.00     0.016 A 
ATOM      8  C   UNL A   1      38.562  28.075  29.509  1.00  0.00     0.010 A 
ATOM      9  C   UNL A   1      39.279  29.272  27.534  1.00  0.00     0.010 A 
ATOM     10  C   UNL A   1      39.546  28.341  28.541  1.00  0.00    -0.014 A 
BRANCH  10  11
ATOM     11  C   UNL A   1      40.790  27.551  28.601  1.00  0.00     0.031 A 
ATOM     12  C   UNL A   1      41.650  27.828  29.785  1.00  0.00     0.074 A 
ATOM     13  C   UNL A   1      41.140  26.576  27.733  1.00  0.00     0.049 A 
ATOM     14  N   UNL A   1      42.916  28.107  29.820  1.00  0.00    -0.248 NA
ATOM     15  C   UNL A   1      40.973  27.894  31.092  1.00  0.00     0.031 C 
ATOM     16  C   UNL A   1      40.344  26.043  26.626  1.00  0.00     0.029 A 
ATOM     17  N   UNL A   1      42.252  25.766  27.728  1.00  0.00    -0.354 N 
ATOM     18  C   UNL A   1      43.228  28.198  31.171  1.00  0.00     0.074 A 
ATOM     19  C   UNL A   1      41.984  28.204  31.899  1.00  0.00     0.031 C 
ATOM     20  C   UNL A   1      40.874  24.870  26.220  1.00  0.00     0.029 A 
ATOM     21  C   UNL A   1      42.091  24.611  26.970  1.00  0.00     0.049 A 
ATOM     22  H   UNL A   1      43.080  25.983  28.214  1.00  0.00     0.167 HD
ATOM     23  C   UNL A   1      44.480  27.996  31.653  1.00  0.00     0.037 A 
ATOM     24  C   UNL A   1      42.839  23.480  27.003  1.00  0.00     0.037 A 
ATOM     25  C   UNL A   1      45.517  28.189  30.685  1.00  0.00     0.049 A 
ATOM     26  C   UNL A   1      44.141  23.784  27.635  1.00  0.00     0.074 A 
ATOM     27  C   UNL A   1      45.976  29.244  29.925  1.00  0.00     0.029 A 
ATOM     28  N   UNL A   1      46.154  27.074  30.214  1.00  0.00    -0.354 N 
ATOM     29  N   UNL A   1      45.126  24.406  27.057  1.00  0.00    -0.248 NA
ATOM     30  C   UNL A   1      44.284  23.588  29.072  1.00  0.00     0.031 C 
ATOM     31  C   UNL A   1      46.595  28.661  28.782  1.00  0.00     0.029 A 
ATOM     32  C   UNL A   1      46.457  27.278  28.894  1.00  0.00     0.049 A 
ATOM     33  H   UNL A   1      46.360  26.263  30.734  1.00  0.00     0.167 HD
ATOM     34  C   UNL A   1      45.794  25.036  28.092  1.00  0.00     0.074 A 
ATOM     35  C   UNL A   1      45.343  24.365  29.300  1.00  0.00     0.031 C 
ATOM     36  C   UNL A   1      46.409  26.236  27.896  1.00  0.00     0.037 A 
BRANCH  23  37
ATOM     37  C   UNL A   1      44.693  27.233  32.930  1.00  0.00     0.057 A 
ATOM     38  C   UNL A   1      44.986  27.877  34.153  1.00  0.00     0.134 A 
ATOM     39  C   UNL A   1      44.349  25.879  33.021  1.00  0.00     0.134 A 
ATOM     40  F   UNL A   1      45.179  29.202  34.223  1.00  0.00    -0.206 F 
ATOM     41  C   UNL A   1      44.999  27.207  35.374  1.00  0.00     0.040 A 
ATOM     42  C   UNL A   1      44.305  25.209  34.250  1.00  0.00     0.040 A 
ATOM     43  F   UNL A   1      43.983  25.191  31.930  1.00  0.00    -0.206 F 
ATOM     44  C   UNL A   1      44.640  25.870  35.429  1.00  0.00     0.006 A 
ENDBRANCH  23  37
BRANCH  24  45
ATOM     45  C   UNL A   1      42.455  22.085  26.671  1.00  0.00     0.057 A 
ATOM     46  C   UNL A   1      41.492  21.375  27.409  1.00  0.00     0.134 A 
ATOM     47  C   UNL A   1      43.204  21.322  25.759  1.00  0.00     0.134 A 
ATOM     48  F   UNL A   1      40.778  21.970  28.376  1.00  0.00    -0.206 F 
ATOM     49  C   UNL A   1      41.278  20.002  27.249  1.00  0.00     0.040 A 
ATOM     50  C   UNL A   1      43.016  19.943  25.603  1.00  0.00     0.040 A 
ATOM     51  F   UNL A   1      44.183  21.884  25.036  1.00  0.00    -0.206 F 
ATOM     52  C   UNL A   1      42.052  19.277  26.353  1.00  0.00     0.006 A 
ENDBRANCH  24  45
BRANCH  36  53
ATOM     53  C   UNL A   1      46.778  26.600  26.490  1.00  0.00     0.057 A 
ATOM     54  C   UNL A   1      48.038  26.219  26.011  1.00  0.00     0.134 A 
ATOM     55  C   UNL A   1      45.975  27.371  25.640  1.00  0.00     0.134 A 
ATOM     56  F   UNL A   1      48.880  25.527  26.795  1.00  0.00    -0.206 F 
ATOM     57  C   UNL A   1      48.472  26.564  24.731  1.00  0.00     0.040 A 
ATOM     58  C   UNL A   1      46.385  27.693  24.343  1.00  0.00     0.040 A 
ATOM     59  F   UNL A   1      44.797  27.863  26.055  1.00  0.00    -0.206 F 
ATOM     60  C   UNL A   1      47.637  27.289  23.886  1.00  0.00     0.006 A 
ENDBRANCH  36  53
ENDBRANCH  10  11
ENDBRANCH   3   5
ENDBRANCH   2   3
ENDBRANCH   1   2
BRANCH   1  61
ATOM     61  C   UNL A   1      33.381  30.506  26.868  1.00  0.00     0.274 C 
BRANCH  61  62
ATOM     62  O   UNL A   1      32.306  29.577  27.042  1.00  0.00    -0.462 OA
BRANCH  62  63
ATOM     63  C   UNL A   1      31.958  28.864  25.933  1.00  0.00     0.310 C 
ATOM     64  O   UNL A   1      31.321  29.323  24.997  1.00  0.00    -0.252 OA
BRANCH  63  65
ATOM     65  C   UNL A   1      32.474  27.434  26.033  1.00  0.00     0.115 C 
ATOM     66  C   UNL A   1      31.385  26.525  26.628  1.00  0.00     0.043 C 
ATOM     67  C   UNL A   1      32.988  26.966  24.661  1.00  0.00     0.094 C 
ATOM     68  C   UNL A   1      30.499  25.845  25.631  1.00  0.00    -0.030 C 
ATOM     69  C   UNL A   1      31.828  26.664  23.680  1.00  0.00     0.041 C 
ATOM     70  C   UNL A   1      30.684  25.922  24.307  1.00  0.00    -0.030 C 
BRANCH  67  71
ATOM     71  C   UNL A   1      33.888  25.760  24.725  1.00  0.00     0.199 A 
ATOM     72  N   UNL A   1      34.638  25.398  25.750  1.00  0.00    -0.213 NA
ATOM     73  O   UNL A   1      34.028  24.969  23.610  1.00  0.00    -0.440 OA
ATOM     74  C   UNL A   1      35.392  24.366  25.260  1.00  0.00     0.111 A 
ATOM     75  C   UNL A   1      35.014  24.088  23.956  1.00  0.00     0.154 A 
ATOM     76  C   UNL A   1      36.428  23.636  25.851  1.00  0.00     0.053 A 
ATOM     77  C   UNL A   1      35.587  23.097  23.168  1.00  0.00     0.051 A 
ATOM     78  C   UNL A   1      37.047  22.650  25.077  1.00  0.00     0.043 A 
ATOM     79  C   UNL A   1      36.634  22.379  23.765  1.00  0.00     0.024 A 
ATOM     80  Cl  UNL A   1      38.360  21.760  25.751  1.00  0.00    -0.084 Cl
ENDBRANCH  67  71
ENDBRANCH  63  65
ENDBRANCH  62  63
ENDBRANCH  61  62
ENDBRANCH   1  61
TORSDOF 12
ENDMDL
