MODEL 1
REMARK VINA RESULT:     -10.4      0.000      0.000
REMARK SMILES C=CCCC[C@@]1(C(=O)OCCOC(=O)c2ccc(-c3c4nc(c(-c5c(F)cccc5F)c5ccc([nH]5)c(-c5c(F)cccc5F)c5nc(c(-c6c(F)cccc6F)c6ccc3[nH]6)C=C5)C=C4)cc2)CCCN(C(=O)OC(C)(C)C)C1
REMARK SMILES IDX 10 1 9 2 7 3 8 4 6 5 69 6 80 7 70 8 72 9 71 10 5 11 4 12
REMARK SMILES IDX 3 13 2 14 1 15 73 16 74 17 75 18 76 19 77 20 78 21 79 22
REMARK SMILES IDX 11 23 12 24 13 25 14 26 15 27 16 28 68 29 17 30 67 31 18 32
REMARK SMILES IDX 19 33 20 34 61 35 21 36 66 37 60 38 62 39 22 40 65 41 59 42
REMARK SMILES IDX 58 43 23 45 49 46 32 47 48 48 33 49 36 50 47 51 63 52 34 53
REMARK SMILES IDX 35 54 46 56 64 57 37 58 24 59 25 60 30 61 26 62 27 63 29 64
REMARK SMILES IDX 31 65 28 66 50 67 51 68 56 69 52 70 53 71 55 72 57 73 54 74
REMARK SMILES IDX 38 75 39 76 44 77 40 78 41 79 43 80 45 81 42 82
REMARK H PARENT 62 44 36 55
REMARK Flexibility Score: inf
ROOT
ATOM      1  C   UNL A   1      32.766  29.331  24.759  1.00  0.00     0.274 C 
ENDROOT
BRANCH   1   2
ATOM      2  O   UNL A   1      32.576  27.916  24.998  1.00  0.00    -0.462 OA
BRANCH   2   3
ATOM      3  C   UNL A   1      32.485  27.145  23.885  1.00  0.00     0.314 C 
ATOM      4  O   UNL A   1      33.417  27.050  23.088  1.00  0.00    -0.252 OA
BRANCH   3   5
ATOM      5  C   UNL A   1      31.105  26.451  23.660  1.00  0.00     0.086 C 
ATOM      6  C   UNL A   1      30.431  26.149  25.015  1.00  0.00     0.022 C 
ATOM      7  C   UNL A   1      31.211  25.153  22.831  1.00  0.00     0.141 C 
ATOM      8  C   UNL A   1      30.981  24.901  25.726  1.00  0.00     0.023 C 
ATOM      9  N   UNL A   1      31.720  23.992  23.545  1.00  0.00    -0.307 N 
ATOM     10  C   UNL A   1      31.080  23.683  24.815  1.00  0.00     0.123 C 
BRANCH   5  11
ATOM     11  C   UNL A   1      30.299  27.539  22.840  1.00  0.00     0.021 C 
BRANCH  11  12
ATOM     12  C   UNL A   1      28.893  28.004  23.250  1.00  0.00     0.005 C 
BRANCH  12  13
ATOM     13  C   UNL A   1      28.213  29.057  22.378  1.00  0.00     0.027 C 
BRANCH  13  14
ATOM     14  C   UNL A   1      27.876  30.319  23.120  1.00  0.00    -0.035 C 
ATOM     15  C   UNL A   1      28.782  31.233  23.492  1.00  0.00     0.004 C 
ENDBRANCH  13  14
ENDBRANCH  12  13
ENDBRANCH  11  12
ENDBRANCH   5  11
BRANCH   9  16
ATOM     16  C   UNL A   1      32.560  23.099  22.875  1.00  0.00     0.410 C 
ATOM     17  O   UNL A   1      32.157  22.061  22.359  1.00  0.00    -0.224 OA
BRANCH  16  18
ATOM     18  O   UNL A   1      33.858  23.502  22.855  1.00  0.00    -0.444 OA
BRANCH  18  19
ATOM     19  C   UNL A   1      34.766  23.222  23.960  1.00  0.00     0.106 C 
ATOM     20  C   UNL A   1      34.897  24.377  24.959  1.00  0.00     0.056 C 
ATOM     21  C   UNL A   1      34.379  21.930  24.686  1.00  0.00     0.056 C 
ATOM     22  C   UNL A   1      36.128  22.989  23.291  1.00  0.00     0.056 C 
ENDBRANCH  18  19
ENDBRANCH  16  18
ENDBRANCH   9  16
ENDBRANCH   3   5
ENDBRANCH   2   3
ENDBRANCH   1   2
BRANCH   1  23
ATOM     23  C   UNL A   1      31.777  30.229  25.511  1.00  0.00     0.275 C 
BRANCH  23  24
ATOM     24  O   UNL A   1      32.110  30.369  26.907  1.00  0.00    -0.458 OA
BRANCH  24  25
ATOM     25  C   UNL A   1      32.812  31.498  27.147  1.00  0.00     0.338 C 
ATOM     26  O   UNL A   1      32.373  32.627  27.034  1.00  0.00    -0.246 OA
BRANCH  25  27
ATOM     27  C   UNL A   1      34.174  31.245  27.637  1.00  0.00     0.060 A 
ATOM     28  C   UNL A   1      34.525  29.942  27.984  1.00  0.00     0.016 A 
ATOM     29  C   UNL A   1      34.999  32.310  27.997  1.00  0.00     0.016 A 
ATOM     30  C   UNL A   1      35.644  29.706  28.773  1.00  0.00     0.010 A 
ATOM     31  C   UNL A   1      36.189  32.059  28.691  1.00  0.00     0.010 A 
ATOM     32  C   UNL A   1      36.513  30.754  29.101  1.00  0.00    -0.014 A 
BRANCH  32  33
ATOM     33  C   UNL A   1      37.789  30.459  29.802  1.00  0.00     0.031 A 
ATOM     34  C   UNL A   1      38.841  29.589  29.180  1.00  0.00     0.074 A 
ATOM     35  C   UNL A   1      37.985  30.979  31.030  1.00  0.00     0.049 A 
ATOM     36  N   UNL A   1      39.914  29.075  29.728  1.00  0.00    -0.248 NA
ATOM     37  C   UNL A   1      38.668  29.245  27.760  1.00  0.00     0.031 C 
ATOM     38  C   UNL A   1      37.060  31.880  31.725  1.00  0.00     0.029 A 
ATOM     39  N   UNL A   1      39.020  30.823  31.916  1.00  0.00    -0.354 N 
ATOM     40  C   UNL A   1      40.521  28.313  28.740  1.00  0.00     0.074 A 
ATOM     41  C   UNL A   1      39.700  28.436  27.551  1.00  0.00     0.031 C 
ATOM     42  C   UNL A   1      37.574  32.209  32.916  1.00  0.00     0.029 A 
ATOM     43  C   UNL A   1      38.814  31.469  33.111  1.00  0.00     0.049 A 
ATOM     44  H   UNL A   1      39.830  30.300  31.717  1.00  0.00     0.167 HD
ATOM     45  C   UNL A   1      41.655  27.575  28.826  1.00  0.00     0.037 A 
ATOM     46  C   UNL A   1      39.505  31.428  34.263  1.00  0.00     0.037 A 
ATOM     47  C   UNL A   1      42.483  27.491  30.006  1.00  0.00     0.049 A 
ATOM     48  C   UNL A   1      40.722  30.560  34.351  1.00  0.00     0.074 A 
ATOM     49  C   UNL A   1      43.662  26.787  30.185  1.00  0.00     0.029 A 
ATOM     50  N   UNL A   1      42.219  28.137  31.205  1.00  0.00    -0.354 N 
ATOM     51  N   UNL A   1      41.262  29.806  33.425  1.00  0.00    -0.248 NA
ATOM     52  C   UNL A   1      41.412  30.520  35.645  1.00  0.00     0.031 C 
ATOM     53  C   UNL A   1      44.090  26.977  31.504  1.00  0.00     0.029 A 
ATOM     54  C   UNL A   1      43.201  27.832  32.134  1.00  0.00     0.049 A 
ATOM     55  H   UNL A   1      41.447  28.725  31.371  1.00  0.00     0.167 HD
ATOM     56  C   UNL A   1      42.363  29.208  34.019  1.00  0.00     0.074 A 
ATOM     57  C   UNL A   1      42.422  29.701  35.381  1.00  0.00     0.031 C 
ATOM     58  C   UNL A   1      43.243  28.327  33.486  1.00  0.00     0.037 A 
BRANCH  45  59
ATOM     59  C   UNL A   1      42.056  26.764  27.628  1.00  0.00     0.057 A 
ATOM     60  C   UNL A   1      41.640  25.441  27.449  1.00  0.00     0.134 A 
ATOM     61  C   UNL A   1      42.822  27.344  26.607  1.00  0.00     0.134 A 
ATOM     62  F   UNL A   1      40.908  24.824  28.388  1.00  0.00    -0.206 F 
ATOM     63  C   UNL A   1      41.987  24.715  26.306  1.00  0.00     0.040 A 
ATOM     64  C   UNL A   1      43.157  26.638  25.451  1.00  0.00     0.040 A 
ATOM     65  F   UNL A   1      43.244  28.614  26.709  1.00  0.00    -0.206 F 
ATOM     66  C   UNL A   1      42.742  25.316  25.299  1.00  0.00     0.006 A 
ENDBRANCH  45  59
BRANCH  46  67
ATOM     67  C   UNL A   1      39.015  32.193  35.436  1.00  0.00     0.057 A 
ATOM     68  C   UNL A   1      38.206  31.593  36.404  1.00  0.00     0.134 A 
ATOM     69  C   UNL A   1      39.380  33.531  35.633  1.00  0.00     0.134 A 
ATOM     70  F   UNL A   1      37.810  30.320  36.259  1.00  0.00    -0.206 F 
ATOM     71  C   UNL A   1      37.774  32.297  37.529  1.00  0.00     0.040 A 
ATOM     72  C   UNL A   1      38.978  34.238  36.765  1.00  0.00     0.040 A 
ATOM     73  F   UNL A   1      40.161  34.159  34.742  1.00  0.00    -0.206 F 
ATOM     74  C   UNL A   1      38.169  33.621  37.716  1.00  0.00     0.006 A 
ENDBRANCH  46  67
BRANCH  58  75
ATOM     75  C   UNL A   1      44.356  27.865  34.375  1.00  0.00     0.057 A 
ATOM     76  C   UNL A   1      44.245  26.704  35.150  1.00  0.00     0.134 A 
ATOM     77  C   UNL A   1      45.557  28.581  34.443  1.00  0.00     0.134 A 
ATOM     78  F   UNL A   1      43.112  25.988  35.142  1.00  0.00    -0.206 F 
ATOM     79  C   UNL A   1      45.286  26.282  35.978  1.00  0.00     0.040 A 
ATOM     80  C   UNL A   1      46.612  28.157  35.252  1.00  0.00     0.040 A 
ATOM     81  F   UNL A   1      45.726  29.700  33.723  1.00  0.00    -0.206 F 
ATOM     82  C   UNL A   1      46.475  27.006  36.027  1.00  0.00     0.006 A 
ENDBRANCH  58  75
ENDBRANCH  32  33
ENDBRANCH  25  27
ENDBRANCH  24  25
ENDBRANCH  23  24
ENDBRANCH   1  23
TORSDOF 18
ENDMDL
MODEL 2
REMARK VINA RESULT:     -10.2      3.975      9.020
REMARK SMILES C=CCCC[C@@]1(C(=O)OCCOC(=O)c2ccc(-c3c4nc(c(-c5c(F)cccc5F)c5ccc([nH]5)c(-c5c(F)cccc5F)c5nc(c(-c6c(F)cccc6F)c6ccc3[nH]6)C=C5)C=C4)cc2)CCCN(C(=O)OC(C)(C)C)C1
REMARK SMILES IDX 10 1 9 2 7 3 8 4 6 5 69 6 80 7 70 8 72 9 71 10 5 11 4 12
REMARK SMILES IDX 3 13 2 14 1 15 73 16 74 17 75 18 76 19 77 20 78 21 79 22
REMARK SMILES IDX 11 23 12 24 13 25 14 26 15 27 16 28 68 29 17 30 67 31 18 32
REMARK SMILES IDX 19 33 20 34 61 35 21 36 66 37 60 38 62 39 22 40 65 41 59 42
REMARK SMILES IDX 58 43 23 45 49 46 32 47 48 48 33 49 36 50 47 51 63 52 34 53
REMARK SMILES IDX 35 54 46 56 64 57 37 58 24 59 25 60 30 61 26 62 27 63 29 64
REMARK SMILES IDX 31 65 28 66 50 67 51 68 56 69 52 70 53 71 55 72 57 73 54 74
REMARK SMILES IDX 38 75 39 76 44 77 40 78 41 79 43 80 45 81 42 82
REMARK H PARENT 62 44 36 55
REMARK Flexibility Score: inf
ROOT
ATOM      1  C   UNL A   1      35.765  21.652  25.782  1.00  0.00     0.274 C 
ENDROOT
BRANCH   1   2
ATOM      2  O   UNL A   1      34.729  22.062  24.858  1.00  0.00    -0.462 OA
BRANCH   2   3
ATOM      3  C   UNL A   1      33.625  22.610  25.428  1.00  0.00     0.314 C 
ATOM      4  O   UNL A   1      33.701  23.316  26.432  1.00  0.00    -0.252 OA
BRANCH   3   5
ATOM      5  C   UNL A   1      32.266  22.225  24.764  1.00  0.00     0.086 C 
ATOM      6  C   UNL A   1      32.281  22.591  23.264  1.00  0.00     0.022 C 
ATOM      7  C   UNL A   1      31.052  22.888  25.449  1.00  0.00     0.141 C 
ATOM      8  C   UNL A   1      32.038  24.082  22.980  1.00  0.00     0.023 C 
ATOM      9  N   UNL A   1      30.847  24.295  25.140  1.00  0.00    -0.307 N 
ATOM     10  C   UNL A   1      30.838  24.651  23.729  1.00  0.00     0.123 C 
BRANCH   5  11
ATOM     11  C   UNL A   1      32.205  20.658  24.979  1.00  0.00     0.021 C 
BRANCH  11  12
ATOM     12  C   UNL A   1      32.391  19.661  23.825  1.00  0.00     0.005 C 
BRANCH  12  13
ATOM     13  C   UNL A   1      33.196  18.393  24.107  1.00  0.00     0.027 C 
BRANCH  13  14
ATOM     14  C   UNL A   1      32.505  17.445  25.046  1.00  0.00    -0.035 C 
ATOM     15  C   UNL A   1      33.120  16.436  25.676  1.00  0.00     0.004 C 
ENDBRANCH  13  14
ENDBRANCH  12  13
ENDBRANCH  11  12
ENDBRANCH   5  11
BRANCH   9  16
ATOM     16  C   UNL A   1      30.399  25.152  26.147  1.00  0.00     0.410 C 
ATOM     17  O   UNL A   1      29.210  25.310  26.410  1.00  0.00    -0.224 OA
BRANCH  16  18
ATOM     18  O   UNL A   1      31.410  25.782  26.800  1.00  0.00    -0.444 OA
BRANCH  18  19
ATOM     19  C   UNL A   1      31.868  27.109  26.409  1.00  0.00     0.106 C 
ATOM     20  C   UNL A   1      31.113  27.693  25.209  1.00  0.00     0.056 C 
ATOM     21  C   UNL A   1      31.826  28.083  27.590  1.00  0.00     0.056 C 
ATOM     22  C   UNL A   1      33.339  26.912  26.021  1.00  0.00     0.056 C 
ENDBRANCH  18  19
ENDBRANCH  16  18
ENDBRANCH   9  16
ENDBRANCH   3   5
ENDBRANCH   2   3
ENDBRANCH   1   2
BRANCH   1  23
ATOM     23  C   UNL A   1      36.816  20.721  25.167  1.00  0.00     0.275 C 
BRANCH  23  24
ATOM     24  O   UNL A   1      38.062  21.394  24.899  1.00  0.00    -0.458 OA
BRANCH  24  25
ATOM     25  C   UNL A   1      38.994  21.123  25.839  1.00  0.00     0.338 C 
ATOM     26  O   UNL A   1      39.417  20.012  26.099  1.00  0.00    -0.246 OA
BRANCH  25  27
ATOM     27  C   UNL A   1      39.523  22.325  26.499  1.00  0.00     0.060 A 
ATOM     28  C   UNL A   1      39.090  23.572  26.058  1.00  0.00     0.016 A 
ATOM     29  C   UNL A   1      40.621  22.229  27.353  1.00  0.00     0.016 A 
ATOM     30  C   UNL A   1      39.805  24.718  26.384  1.00  0.00     0.010 A 
ATOM     31  C   UNL A   1      41.270  23.395  27.778  1.00  0.00     0.010 A 
ATOM     32  C   UNL A   1      40.878  24.650  27.282  1.00  0.00    -0.014 A 
BRANCH  32  33
ATOM     33  C   UNL A   1      41.525  25.902  27.749  1.00  0.00     0.031 A 
ATOM     34  C   UNL A   1      40.771  26.919  28.554  1.00  0.00     0.074 A 
ATOM     35  C   UNL A   1      42.815  26.123  27.422  1.00  0.00     0.049 A 
ATOM     36  N   UNL A   1      41.122  28.141  28.871  1.00  0.00    -0.248 NA
ATOM     37  C   UNL A   1      39.453  26.519  29.069  1.00  0.00     0.031 C 
ATOM     38  C   UNL A   1      43.671  25.189  26.684  1.00  0.00     0.029 A 
ATOM     39  N   UNL A   1      43.629  27.200  27.659  1.00  0.00    -0.354 N 
ATOM     40  C   UNL A   1      40.054  28.673  29.581  1.00  0.00     0.074 A 
ATOM     41  C   UNL A   1      39.043  27.637  29.657  1.00  0.00     0.031 C 
ATOM     42  C   UNL A   1      44.890  25.724  26.544  1.00  0.00     0.029 A 
ATOM     43  C   UNL A   1      44.875  27.073  27.095  1.00  0.00     0.049 A 
ATOM     44  H   UNL A   1      43.350  27.986  28.182  1.00  0.00     0.167 HD
ATOM     45  C   UNL A   1      39.934  29.915  30.112  1.00  0.00     0.037 A 
ATOM     46  C   UNL A   1      45.879  27.959  26.971  1.00  0.00     0.037 A 
ATOM     47  C   UNL A   1      40.964  30.924  30.061  1.00  0.00     0.049 A 
ATOM     48  C   UNL A   1      45.699  29.342  27.515  1.00  0.00     0.074 A 
ATOM     49  C   UNL A   1      40.945  32.205  30.587  1.00  0.00     0.029 A 
ATOM     50  N   UNL A   1      42.199  30.764  29.450  1.00  0.00    -0.354 N 
ATOM     51  N   UNL A   1      44.667  29.850  28.144  1.00  0.00    -0.248 NA
ATOM     52  C   UNL A   1      46.809  30.280  27.315  1.00  0.00     0.031 C 
ATOM     53  C   UNL A   1      42.153  32.832  30.262  1.00  0.00     0.029 A 
ATOM     54  C   UNL A   1      42.941  31.928  29.569  1.00  0.00     0.049 A 
ATOM     55  H   UNL A   1      42.503  29.943  28.999  1.00  0.00     0.167 HD
ATOM     56  C   UNL A   1      45.006  31.165  28.425  1.00  0.00     0.074 A 
ATOM     57  C   UNL A   1      46.347  31.370  27.912  1.00  0.00     0.031 C 
ATOM     58  C   UNL A   1      44.272  32.117  29.049  1.00  0.00     0.037 A 
BRANCH  45  59
ATOM     59  C   UNL A   1      38.630  30.274  30.763  1.00  0.00     0.057 A 
ATOM     60  C   UNL A   1      38.386  30.049  32.122  1.00  0.00     0.134 A 
ATOM     61  C   UNL A   1      37.624  30.912  30.024  1.00  0.00     0.134 A 
ATOM     62  F   UNL A   1      39.304  29.439  32.886  1.00  0.00    -0.206 F 
ATOM     63  C   UNL A   1      37.182  30.429  32.720  1.00  0.00     0.040 A 
ATOM     64  C   UNL A   1      36.426  31.316  30.614  1.00  0.00     0.040 A 
ATOM     65  F   UNL A   1      37.796  31.169  28.718  1.00  0.00    -0.206 F 
ATOM     66  C   UNL A   1      36.199  31.071  31.967  1.00  0.00     0.006 A 
ENDBRANCH  45  59
BRANCH  46  67
ATOM     67  C   UNL A   1      47.114  27.566  26.250  1.00  0.00     0.057 A 
ATOM     68  C   UNL A   1      47.201  27.666  24.860  1.00  0.00     0.134 A 
ATOM     69  C   UNL A   1      48.248  27.121  26.942  1.00  0.00     0.134 A 
ATOM     70  F   UNL A   1      46.142  28.069  24.143  1.00  0.00    -0.206 F 
ATOM     71  C   UNL A   1      48.374  27.335  24.178  1.00  0.00     0.040 A 
ATOM     72  C   UNL A   1      49.434  26.813  26.277  1.00  0.00     0.040 A 
ATOM     73  F   UNL A   1      48.227  27.012  28.278  1.00  0.00    -0.206 F 
ATOM     74  C   UNL A   1      49.498  26.916  24.890  1.00  0.00     0.006 A 
ENDBRANCH  46  67
BRANCH  58  75
ATOM     75  C   UNL A   1      44.919  33.455  29.230  1.00  0.00     0.057 A 
ATOM     76  C   UNL A   1      45.720  33.742  30.342  1.00  0.00     0.134 A 
ATOM     77  C   UNL A   1      44.751  34.464  28.273  1.00  0.00     0.134 A 
ATOM     78  F   UNL A   1      45.903  32.823  31.302  1.00  0.00    -0.206 F 
ATOM     79  C   UNL A   1      46.317  34.992  30.505  1.00  0.00     0.040 A 
ATOM     80  C   UNL A   1      45.359  35.711  28.414  1.00  0.00     0.040 A 
ATOM     81  F   UNL A   1      43.996  34.251  27.185  1.00  0.00    -0.206 F 
ATOM     82  C   UNL A   1      46.142  35.979  29.537  1.00  0.00     0.006 A 
ENDBRANCH  58  75
ENDBRANCH  32  33
ENDBRANCH  25  27
ENDBRANCH  24  25
ENDBRANCH  23  24
ENDBRANCH   1  23
TORSDOF 18
ENDMDL
MODEL 3
REMARK VINA RESULT:     -10.2      3.239      6.936
REMARK SMILES C=CCCC[C@@]1(C(=O)OCCOC(=O)c2ccc(-c3c4nc(c(-c5c(F)cccc5F)c5ccc([nH]5)c(-c5c(F)cccc5F)c5nc(c(-c6c(F)cccc6F)c6ccc3[nH]6)C=C5)C=C4)cc2)CCCN(C(=O)OC(C)(C)C)C1
REMARK SMILES IDX 10 1 9 2 7 3 8 4 6 5 69 6 80 7 70 8 72 9 71 10 5 11 4 12
REMARK SMILES IDX 3 13 2 14 1 15 73 16 74 17 75 18 76 19 77 20 78 21 79 22
REMARK SMILES IDX 11 23 12 24 13 25 14 26 15 27 16 28 68 29 17 30 67 31 18 32
REMARK SMILES IDX 19 33 20 34 61 35 21 36 66 37 60 38 62 39 22 40 65 41 59 42
REMARK SMILES IDX 58 43 23 45 49 46 32 47 48 48 33 49 36 50 47 51 63 52 34 53
REMARK SMILES IDX 35 54 46 56 64 57 37 58 24 59 25 60 30 61 26 62 27 63 29 64
REMARK SMILES IDX 31 65 28 66 50 67 51 68 56 69 52 70 53 71 55 72 57 73 54 74
REMARK SMILES IDX 38 75 39 76 44 77 40 78 41 79 43 80 45 81 42 82
REMARK H PARENT 62 44 36 55
REMARK Flexibility Score: inf
ROOT
ATOM      1  C   UNL A   1      32.068  30.342  25.786  1.00  0.00     0.274 C 
ENDROOT
BRANCH   1   2
ATOM      2  O   UNL A   1      31.376  29.160  25.320  1.00  0.00    -0.462 OA
BRANCH   2   3
ATOM      3  C   UNL A   1      31.966  28.509  24.286  1.00  0.00     0.314 C 
ATOM      4  O   UNL A   1      33.189  28.475  24.159  1.00  0.00    -0.252 OA
BRANCH   3   5
ATOM      5  C   UNL A   1      30.990  27.874  23.247  1.00  0.00     0.086 C 
ATOM      6  C   UNL A   1      29.815  27.181  23.969  1.00  0.00     0.022 C 
ATOM      7  C   UNL A   1      31.685  26.870  22.302  1.00  0.00     0.141 C 
ATOM      8  C   UNL A   1      30.160  25.797  24.543  1.00  0.00     0.023 C 
ATOM      9  N   UNL A   1      31.978  25.566  22.878  1.00  0.00    -0.307 N 
ATOM     10  C   UNL A   1      30.874  24.892  23.545  1.00  0.00     0.123 C 
BRANCH   5  11
ATOM     11  C   UNL A   1      30.501  29.131  22.416  1.00  0.00     0.021 C 
BRANCH  11  12
ATOM     12  C   UNL A   1      29.048  29.626  22.451  1.00  0.00     0.005 C 
BRANCH  12  13
ATOM     13  C   UNL A   1      28.680  30.673  23.501  1.00  0.00     0.027 C 
BRANCH  13  14
ATOM     14  C   UNL A   1      27.947  31.854  22.933  1.00  0.00    -0.035 C 
ATOM     15  C   UNL A   1      28.323  32.506  21.825  1.00  0.00     0.004 C 
ENDBRANCH  13  14
ENDBRANCH  12  13
ENDBRANCH  11  12
ENDBRANCH   5  11
BRANCH   9  16
ATOM     16  C   UNL A   1      33.167  24.923  22.528  1.00  0.00     0.410 C 
ATOM     17  O   UNL A   1      33.337  24.377  21.442  1.00  0.00    -0.224 OA
BRANCH  16  18
ATOM     18  O   UNL A   1      34.106  24.968  23.509  1.00  0.00    -0.444 OA
BRANCH  18  19
ATOM     19  C   UNL A   1      34.613  23.758  24.143  1.00  0.00     0.106 C 
ATOM     20  C   UNL A   1      33.556  22.662  24.317  1.00  0.00     0.056 C 
ATOM     21  C   UNL A   1      35.833  23.209  23.398  1.00  0.00     0.056 C 
ATOM     22  C   UNL A   1      35.084  24.217  25.530  1.00  0.00     0.056 C 
ENDBRANCH  18  19
ENDBRANCH  16  18
ENDBRANCH   9  16
ENDBRANCH   3   5
ENDBRANCH   2   3
ENDBRANCH   1   2
BRANCH   1  23
ATOM     23  C   UNL A   1      32.616  30.223  27.213  1.00  0.00     0.275 C 
BRANCH  23  24
ATOM     24  O   UNL A   1      33.959  29.699  27.247  1.00  0.00    -0.458 OA
BRANCH  24  25
ATOM     25  C   UNL A   1      34.775  30.455  28.012  1.00  0.00     0.338 C 
ATOM     26  O   UNL A   1      34.457  31.502  28.545  1.00  0.00    -0.246 OA
BRANCH  25  27
ATOM     27  C   UNL A   1      36.104  29.861  28.211  1.00  0.00     0.060 A 
ATOM     28  C   UNL A   1      36.422  29.348  29.466  1.00  0.00     0.016 A 
ATOM     29  C   UNL A   1      37.106  30.049  27.259  1.00  0.00     0.016 A 
ATOM     30  C   UNL A   1      37.747  29.111  29.810  1.00  0.00     0.010 A 
ATOM     31  C   UNL A   1      38.427  29.698  27.567  1.00  0.00     0.010 A 
ATOM     32  C   UNL A   1      38.762  29.243  28.853  1.00  0.00    -0.014 A 
BRANCH  32  33
ATOM     33  C   UNL A   1      40.147  28.828  29.189  1.00  0.00     0.031 A 
ATOM     34  C   UNL A   1      41.093  29.755  29.893  1.00  0.00     0.074 A 
ATOM     35  C   UNL A   1      40.555  27.593  28.833  1.00  0.00     0.049 A 
ATOM     36  N   UNL A   1      42.383  29.625  30.085  1.00  0.00    -0.248 NA
ATOM     37  C   UNL A   1      40.523  30.990  30.455  1.00  0.00     0.031 C 
ATOM     38  C   UNL A   1      39.716  26.579  28.187  1.00  0.00     0.029 A 
ATOM     39  N   UNL A   1      41.775  26.979  28.957  1.00  0.00    -0.354 N 
ATOM     40  C   UNL A   1      42.789  30.777  30.745  1.00  0.00     0.074 A 
ATOM     41  C   UNL A   1      41.606  31.594  30.931  1.00  0.00     0.031 C 
ATOM     42  C   UNL A   1      40.437  25.470  27.987  1.00  0.00     0.029 A 
ATOM     43  C   UNL A   1      41.811  25.725  28.400  1.00  0.00     0.049 A 
ATOM     44  H   UNL A   1      42.548  27.397  29.400  1.00  0.00     0.167 HD
ATOM     45  C   UNL A   1      44.037  31.117  31.151  1.00  0.00     0.037 A 
ATOM     46  C   UNL A   1      42.841  24.888  28.183  1.00  0.00     0.037 A 
ATOM     47  C   UNL A   1      45.200  30.277  30.992  1.00  0.00     0.049 A 
ATOM     48  C   UNL A   1      44.219  25.311  28.587  1.00  0.00     0.074 A 
ATOM     49  C   UNL A   1      46.504  30.523  31.388  1.00  0.00     0.029 A 
ATOM     50  N   UNL A   1      45.196  29.025  30.393  1.00  0.00    -0.354 N 
ATOM     51  N   UNL A   1      44.600  26.422  29.169  1.00  0.00    -0.248 NA
ATOM     52  C   UNL A   1      45.311  24.378  28.287  1.00  0.00     0.031 C 
ATOM     53  C   UNL A   1      47.295  29.438  30.995  1.00  0.00     0.029 A 
ATOM     54  C   UNL A   1      46.478  28.497  30.390  1.00  0.00     0.049 A 
ATOM     55  H   UNL A   1      44.401  28.579  30.024  1.00  0.00     0.167 HD
ATOM     56  C   UNL A   1      45.975  26.319  29.315  1.00  0.00     0.074 A 
ATOM     57  C   UNL A   1      46.358  25.029  28.776  1.00  0.00     0.031 C 
ATOM     58  C   UNL A   1      46.843  27.214  29.846  1.00  0.00     0.037 A 
BRANCH  45  59
ATOM     59  C   UNL A   1      44.227  32.470  31.771  1.00  0.00     0.057 A 
ATOM     60  C   UNL A   1      44.177  32.672  33.154  1.00  0.00     0.134 A 
ATOM     61  C   UNL A   1      44.526  33.580  30.967  1.00  0.00     0.134 A 
ATOM     62  F   UNL A   1      43.892  31.655  33.981  1.00  0.00    -0.206 F 
ATOM     63  C   UNL A   1      44.399  33.932  33.716  1.00  0.00     0.040 A 
ATOM     64  C   UNL A   1      44.771  34.838  31.518  1.00  0.00     0.040 A 
ATOM     65  F   UNL A   1      44.602  33.454  29.633  1.00  0.00    -0.206 F 
ATOM     66  C   UNL A   1      44.704  35.019  32.898  1.00  0.00     0.006 A 
ENDBRANCH  45  59
BRANCH  46  67
ATOM     67  C   UNL A   1      42.599  23.596  27.496  1.00  0.00     0.057 A 
ATOM     68  C   UNL A   1      42.713  23.482  26.109  1.00  0.00     0.134 A 
ATOM     69  C   UNL A   1      42.289  22.437  28.219  1.00  0.00     0.134 A 
ATOM     70  F   UNL A   1      42.990  24.562  25.363  1.00  0.00    -0.206 F 
ATOM     71  C   UNL A   1      42.525  22.260  25.460  1.00  0.00     0.040 A 
ATOM     72  C   UNL A   1      42.124  21.204  27.588  1.00  0.00     0.040 A 
ATOM     73  F   UNL A   1      42.173  22.482  29.555  1.00  0.00    -0.206 F 
ATOM     74  C   UNL A   1      42.239  21.115  26.203  1.00  0.00     0.006 A 
ENDBRANCH  46  67
BRANCH  58  75
ATOM     75  C   UNL A   1      48.284  26.811  29.888  1.00  0.00     0.057 A 
ATOM     76  C   UNL A   1      48.797  26.021  30.924  1.00  0.00     0.134 A 
ATOM     77  C   UNL A   1      49.164  27.205  28.873  1.00  0.00     0.134 A 
ATOM     78  F   UNL A   1      48.008  25.629  31.935  1.00  0.00    -0.206 F 
ATOM     79  C   UNL A   1      50.143  25.652  30.958  1.00  0.00     0.040 A 
ATOM     80  C   UNL A   1      50.507  26.825  28.886  1.00  0.00     0.040 A 
ATOM     81  F   UNL A   1      48.734  27.961  27.853  1.00  0.00    -0.206 F 
ATOM     82  C   UNL A   1      51.000  26.049  29.934  1.00  0.00     0.006 A 
ENDBRANCH  58  75
ENDBRANCH  32  33
ENDBRANCH  25  27
ENDBRANCH  24  25
ENDBRANCH  23  24
ENDBRANCH   1  23
TORSDOF 18
ENDMDL
