MODEL 1
REMARK VINA RESULT:     -11.9      0.000      0.000
REMARK SMILES Cc1ccc(OCC(=O)NC(=S)Nc2ccc(C(=O)OCCOC(=O)c3ccc(-c4c5nc(c(-c6c(F)cccc6F)c6ccc([nH]6)c(-c6c(F)cccc6F)c6nc(c(-c7c(F)cccc7F)c7ccc4[nH]7)C=C6)C=C5)cc3)cc2)cc1
REMARK SMILES IDX 18 1 19 2 17 3 14 4 15 5 81 6 16 7 80 8 13 9 11 11 12 12
REMARK SMILES IDX 10 13 8 14 9 15 7 17 6 18 5 19 1 20 2 21 3 22 83 23 4 24
REMARK SMILES IDX 82 25 20 26 21 27 22 28 23 29 24 30 25 31 26 32 27 33 79 34
REMARK SMILES IDX 28 35 78 36 29 37 30 38 31 39 72 40 32 41 77 42 71 43 73 44
REMARK SMILES IDX 33 45 76 46 70 47 69 48 34 50 60 51 43 52 59 53 44 54 47 55
REMARK SMILES IDX 58 56 74 57 45 58 46 59 57 61 75 62 48 63 35 64 36 65 41 66
REMARK SMILES IDX 37 67 38 68 40 69 42 70 39 71 61 72 62 73 67 74 63 75 64 76
REMARK SMILES IDX 66 77 68 78 65 79 49 80 50 81 55 82 51 83 52 84 54 85 56 86
REMARK SMILES IDX 53 87
REMARK H PARENT 13 10 10 16 73 49 47 60
REMARK Flexibility Score: inf
ROOT
ATOM      1  C   UNL A   1      32.477  27.080  25.676  1.00  0.00     0.338 C 
ATOM      2  O   UNL A   1      31.304  27.275  25.978  1.00  0.00    -0.246 OA
ENDROOT
BRANCH   1   3
ATOM      3  C   UNL A   1      33.188  25.798  25.809  1.00  0.00     0.060 A 
ATOM      4  C   UNL A   1      34.665  23.443  26.218  1.00  0.00     0.040 A 
ATOM      5  C   UNL A   1      35.149  24.455  25.411  1.00  0.00     0.027 A 
ATOM      6  C   UNL A   1      33.359  23.558  26.708  1.00  0.00     0.027 A 
ATOM      7  C   UNL A   1      34.455  25.656  25.247  1.00  0.00     0.018 A 
ATOM      8  C   UNL A   1      32.610  24.723  26.486  1.00  0.00     0.018 A 
BRANCH   4   9
ATOM      9  N   UNL A   1      35.356  22.245  26.425  1.00  0.00    -0.332 N 
ATOM     10  H   UNL A   1      35.836  22.243  27.284  1.00  0.00     0.169 HD
BRANCH   9  11
ATOM     11  C   UNL A   1      35.532  21.096  25.751  1.00  0.00     0.177 C 
ATOM     12  S   UNL A   1      37.013  20.912  24.970  1.00  0.00    -0.040 S 
BRANCH  11  13
ATOM     13  N   UNL A   1      34.571  20.177  25.408  1.00  0.00    -0.300 N 
ATOM     14  C   UNL A   1      33.585  19.807  24.489  1.00  0.00     0.264 C 
ATOM     15  O   UNL A   1      33.559  18.632  24.108  1.00  0.00    -0.271 OA
ATOM     16  H   UNL A   1      34.580  19.483  26.107  1.00  0.00     0.172 HD
BRANCH  14  17
ATOM     17  C   UNL A   1      32.494  20.773  24.091  1.00  0.00     0.329 C 
BRANCH  17  18
ATOM     18  O   UNL A   1      33.140  21.700  23.215  1.00  0.00    -0.484 OA
BRANCH  18  19
ATOM     19  C   UNL A   1      32.529  22.901  23.017  1.00  0.00     0.120 A 
ATOM     20  C   UNL A   1      31.027  26.870  22.319  1.00  0.00     0.044 C 
ATOM     21  C   UNL A   1      31.530  25.477  22.549  1.00  0.00    -0.051 A 
ATOM     22  C   UNL A   1      32.777  25.106  22.041  1.00  0.00     0.007 A 
ATOM     23  C   UNL A   1      30.779  24.538  23.272  1.00  0.00     0.007 A 
ATOM     24  C   UNL A   1      33.285  23.838  22.305  1.00  0.00     0.047 A 
ATOM     25  C   UNL A   1      31.274  23.248  23.502  1.00  0.00     0.047 A 
ENDBRANCH  18  19
ENDBRANCH  17  18
ENDBRANCH  14  17
ENDBRANCH  11  13
ENDBRANCH   9  11
ENDBRANCH   4   9
ENDBRANCH   1   3
BRANCH   1  26
ATOM     26  O   UNL A   1      33.360  27.980  25.212  1.00  0.00    -0.458 OA
BRANCH  26  27
ATOM     27  C   UNL A   1      33.501  29.250  25.860  1.00  0.00     0.275 C 
BRANCH  27  28
ATOM     28  C   UNL A   1      34.404  29.406  27.103  1.00  0.00     0.275 C 
BRANCH  28  29
ATOM     29  O   UNL A   1      34.951  30.676  27.568  1.00  0.00    -0.458 OA
BRANCH  29  30
ATOM     30  C   UNL A   1      35.890  30.984  28.483  1.00  0.00     0.338 C 
ATOM     31  O   UNL A   1      35.828  31.970  29.206  1.00  0.00    -0.246 OA
BRANCH  30  32
ATOM     32  C   UNL A   1      37.020  30.071  28.600  1.00  0.00     0.060 A 
ATOM     33  C   UNL A   1      37.054  29.160  29.668  1.00  0.00     0.016 A 
ATOM     34  C   UNL A   1      38.008  30.098  27.623  1.00  0.00     0.016 A 
ATOM     35  C   UNL A   1      38.048  28.199  29.719  1.00  0.00     0.010 A 
ATOM     36  C   UNL A   1      38.924  29.082  27.602  1.00  0.00     0.010 A 
ATOM     37  C   UNL A   1      38.978  28.186  28.684  1.00  0.00    -0.014 A 
BRANCH  37  38
ATOM     38  C   UNL A   1      40.296  27.616  28.845  1.00  0.00     0.031 A 
ATOM     39  C   UNL A   1      40.678  26.331  28.265  1.00  0.00     0.074 A 
ATOM     40  C   UNL A   1      41.147  28.516  29.384  1.00  0.00     0.049 A 
ATOM     41  N   UNL A   1      41.647  25.618  28.718  1.00  0.00    -0.248 NA
ATOM     42  C   UNL A   1      39.982  25.714  27.139  1.00  0.00     0.031 C 
ATOM     43  C   UNL A   1      42.591  28.594  29.343  1.00  0.00     0.029 A 
ATOM     44  N   UNL A   1      40.771  29.598  30.184  1.00  0.00    -0.354 N 
ATOM     45  C   UNL A   1      41.930  24.672  27.758  1.00  0.00     0.074 A 
ATOM     46  C   UNL A   1      40.785  24.673  26.875  1.00  0.00     0.031 C 
ATOM     47  C   UNL A   1      42.996  29.492  30.264  1.00  0.00     0.029 A 
ATOM     48  C   UNL A   1      41.824  29.894  31.039  1.00  0.00     0.049 A 
ATOM     49  H   UNL A   1      39.907  30.071  30.148  1.00  0.00     0.167 HD
ATOM     50  C   UNL A   1      43.195  24.166  27.689  1.00  0.00     0.037 A 
ATOM     51  C   UNL A   1      41.637  29.669  32.374  1.00  0.00     0.037 A 
ATOM     52  C   UNL A   1      44.047  24.828  28.676  1.00  0.00     0.049 A 
ATOM     53  C   UNL A   1      42.505  28.528  32.844  1.00  0.00     0.074 A 
ATOM     54  C   UNL A   1      44.868  25.938  28.554  1.00  0.00     0.029 A 
ATOM     55  N   UNL A   1      43.830  24.644  30.037  1.00  0.00    -0.354 N 
ATOM     56  N   UNL A   1      42.865  27.523  32.090  1.00  0.00    -0.248 NA
ATOM     57  C   UNL A   1      43.089  28.478  34.177  1.00  0.00     0.031 C 
ATOM     58  C   UNL A   1      45.104  26.455  29.848  1.00  0.00     0.029 A 
ATOM     59  C   UNL A   1      44.432  25.658  30.759  1.00  0.00     0.049 A 
ATOM     60  H   UNL A   1      43.320  23.898  30.430  1.00  0.00     0.167 HD
ATOM     61  C   UNL A   1      43.762  26.749  32.777  1.00  0.00     0.074 A 
ATOM     62  C   UNL A   1      43.854  27.377  34.083  1.00  0.00     0.031 C 
ATOM     63  C   UNL A   1      44.393  25.677  32.211  1.00  0.00     0.037 A 
BRANCH  50  64
ATOM     64  C   UNL A   1      43.741  23.387  26.515  1.00  0.00     0.057 A 
ATOM     65  C   UNL A   1      43.513  22.000  26.394  1.00  0.00     0.134 A 
ATOM     66  C   UNL A   1      44.503  23.944  25.474  1.00  0.00     0.134 A 
ATOM     67  F   UNL A   1      42.739  21.330  27.256  1.00  0.00    -0.206 F 
ATOM     68  C   UNL A   1      44.072  21.216  25.377  1.00  0.00     0.040 A 
ATOM     69  C   UNL A   1      45.094  23.165  24.465  1.00  0.00     0.040 A 
ATOM     70  F   UNL A   1      44.681  25.268  25.373  1.00  0.00    -0.206 F 
ATOM     71  C   UNL A   1      44.888  21.793  24.419  1.00  0.00     0.006 A 
ENDBRANCH  50  64
BRANCH  51  72
ATOM     72  C   UNL A   1      40.238  29.938  32.842  1.00  0.00     0.057 A 
ATOM     73  C   UNL A   1      39.791  31.274  32.909  1.00  0.00     0.134 A 
ATOM     74  C   UNL A   1      39.251  28.949  32.914  1.00  0.00     0.134 A 
ATOM     75  F   UNL A   1      40.675  32.283  32.843  1.00  0.00    -0.206 F 
ATOM     76  C   UNL A   1      38.433  31.612  32.939  1.00  0.00     0.040 A 
ATOM     77  C   UNL A   1      37.885  29.276  32.964  1.00  0.00     0.040 A 
ATOM     78  F   UNL A   1      39.574  27.651  32.851  1.00  0.00    -0.206 F 
ATOM     79  C   UNL A   1      37.473  30.608  32.943  1.00  0.00     0.006 A 
ENDBRANCH  51  72
BRANCH  63  80
ATOM     80  C   UNL A   1      45.157  24.613  32.957  1.00  0.00     0.057 A 
ATOM     81  C   UNL A   1      46.406  24.825  33.556  1.00  0.00     0.134 A 
ATOM     82  C   UNL A   1      44.562  23.360  33.238  1.00  0.00     0.134 A 
ATOM     83  F   UNL A   1      47.033  26.005  33.480  1.00  0.00    -0.206 F 
ATOM     84  C   UNL A   1      47.047  23.842  34.318  1.00  0.00     0.040 A 
ATOM     85  C   UNL A   1      45.161  22.401  34.055  1.00  0.00     0.040 A 
ATOM     86  F   UNL A   1      43.356  23.020  32.760  1.00  0.00    -0.206 F 
ATOM     87  C   UNL A   1      46.418  22.632  34.584  1.00  0.00     0.006 A 
ENDBRANCH  63  80
ENDBRANCH  37  38
ENDBRANCH  30  32
ENDBRANCH  29  30
ENDBRANCH  28  29
ENDBRANCH  27  28
ENDBRANCH  26  27
ENDBRANCH   1  26
TORSDOF 17
ENDMDL
MODEL 2
REMARK VINA RESULT:     -11.5      4.147      9.075
REMARK SMILES Cc1ccc(OCC(=O)NC(=S)Nc2ccc(C(=O)OCCOC(=O)c3ccc(-c4c5nc(c(-c6c(F)cccc6F)c6ccc([nH]6)c(-c6c(F)cccc6F)c6nc(c(-c7c(F)cccc7F)c7ccc4[nH]7)C=C6)C=C5)cc3)cc2)cc1
REMARK SMILES IDX 18 1 19 2 17 3 14 4 15 5 81 6 16 7 80 8 13 9 11 11 12 12
REMARK SMILES IDX 10 13 8 14 9 15 7 17 6 18 5 19 1 20 2 21 3 22 83 23 4 24
REMARK SMILES IDX 82 25 20 26 21 27 22 28 23 29 24 30 25 31 26 32 27 33 79 34
REMARK SMILES IDX 28 35 78 36 29 37 30 38 31 39 72 40 32 41 77 42 71 43 73 44
REMARK SMILES IDX 33 45 76 46 70 47 69 48 34 50 60 51 43 52 59 53 44 54 47 55
REMARK SMILES IDX 58 56 74 57 45 58 46 59 57 61 75 62 48 63 35 64 36 65 41 66
REMARK SMILES IDX 37 67 38 68 40 69 42 70 39 71 61 72 62 73 67 74 63 75 64 76
REMARK SMILES IDX 66 77 68 78 65 79 49 80 50 81 55 82 51 83 52 84 54 85 56 86
REMARK SMILES IDX 53 87
REMARK H PARENT 13 10 10 16 73 49 47 60
REMARK Flexibility Score: inf
ROOT
ATOM      1  C   UNL A   1      40.670  21.428  26.898  1.00  0.00     0.338 C 
ATOM      2  O   UNL A   1      41.028  21.497  28.070  1.00  0.00    -0.246 OA
ENDROOT
BRANCH   1   3
ATOM      3  C   UNL A   1      39.419  21.983  26.357  1.00  0.00     0.060 A 
ATOM      4  C   UNL A   1      37.150  23.147  25.177  1.00  0.00     0.040 A 
ATOM      5  C   UNL A   1      37.898  23.836  26.113  1.00  0.00     0.027 A 
ATOM      6  C   UNL A   1      37.466  21.804  24.941  1.00  0.00     0.027 A 
ATOM      7  C   UNL A   1      39.063  23.295  26.662  1.00  0.00     0.018 A 
ATOM      8  C   UNL A   1      38.584  21.213  25.546  1.00  0.00     0.018 A 
BRANCH   4   9
ATOM      9  N   UNL A   1      35.999  23.681  24.588  1.00  0.00    -0.332 N 
ATOM     10  H   UNL A   1      36.208  24.444  24.003  1.00  0.00     0.169 HD
BRANCH   9  11
ATOM     11  C   UNL A   1      34.682  23.416  24.616  1.00  0.00     0.177 C 
ATOM     12  S   UNL A   1      33.911  23.639  26.097  1.00  0.00    -0.040 S 
BRANCH  11  13
ATOM     13  N   UNL A   1      33.947  22.749  23.667  1.00  0.00    -0.300 N 
ATOM     14  C   UNL A   1      32.787  22.020  23.389  1.00  0.00     0.264 C 
ATOM     15  O   UNL A   1      32.146  22.317  22.374  1.00  0.00    -0.271 OA
ATOM     16  H   UNL A   1      34.452  22.809  22.824  1.00  0.00     0.172 HD
BRANCH  14  17
ATOM     17  C   UNL A   1      32.413  20.813  24.214  1.00  0.00     0.329 C 
BRANCH  17  18
ATOM     18  O   UNL A   1      33.600  20.018  24.243  1.00  0.00    -0.484 OA
BRANCH  18  19
ATOM     19  C   UNL A   1      33.448  18.674  24.407  1.00  0.00     0.120 A 
ATOM     20  C   UNL A   1      32.894  14.521  25.376  1.00  0.00     0.044 C 
ATOM     21  C   UNL A   1      33.074  15.965  25.016  1.00  0.00    -0.051 A 
ATOM     22  C   UNL A   1      32.530  16.950  25.843  1.00  0.00     0.007 A 
ATOM     23  C   UNL A   1      33.786  16.350  23.870  1.00  0.00     0.007 A 
ATOM     24  C   UNL A   1      32.747  18.294  25.556  1.00  0.00     0.047 A 
ATOM     25  C   UNL A   1      33.970  17.703  23.561  1.00  0.00     0.047 A 
ENDBRANCH  18  19
ENDBRANCH  17  18
ENDBRANCH  14  17
ENDBRANCH  11  13
ENDBRANCH   9  11
ENDBRANCH   4   9
ENDBRANCH   1   3
BRANCH   1  26
ATOM     26  O   UNL A   1      41.302  20.808  25.888  1.00  0.00    -0.458 OA
BRANCH  26  27
ATOM     27  C   UNL A   1      42.012  19.586  26.124  1.00  0.00     0.275 C 
BRANCH  27  28
ATOM     28  C   UNL A   1      43.349  19.299  25.407  1.00  0.00     0.275 C 
BRANCH  28  29
ATOM     29  O   UNL A   1      44.404  20.286  25.209  1.00  0.00    -0.458 OA
BRANCH  29  30
ATOM     30  C   UNL A   1      44.450  21.448  24.529  1.00  0.00     0.338 C 
ATOM     31  O   UNL A   1      44.529  21.512  23.309  1.00  0.00    -0.246 OA
BRANCH  30  32
ATOM     32  C   UNL A   1      44.391  22.674  25.316  1.00  0.00     0.060 A 
ATOM     33  C   UNL A   1      44.321  22.584  26.716  1.00  0.00     0.016 A 
ATOM     34  C   UNL A   1      44.452  23.896  24.659  1.00  0.00     0.016 A 
ATOM     35  C   UNL A   1      44.400  23.733  27.483  1.00  0.00     0.010 A 
ATOM     36  C   UNL A   1      44.647  25.024  25.408  1.00  0.00     0.010 A 
ATOM     37  C   UNL A   1      44.550  24.941  26.808  1.00  0.00    -0.014 A 
BRANCH  37  38
ATOM     38  C   UNL A   1      44.153  26.201  27.395  1.00  0.00     0.031 A 
ATOM     39  C   UNL A   1      42.771  26.672  27.396  1.00  0.00     0.074 A 
ATOM     40  C   UNL A   1      45.163  26.736  28.114  1.00  0.00     0.049 A 
ATOM     41  N   UNL A   1      42.453  27.912  27.512  1.00  0.00    -0.248 NA
ATOM     42  C   UNL A   1      41.617  25.792  27.232  1.00  0.00     0.031 C 
ATOM     43  C   UNL A   1      45.148  27.698  29.194  1.00  0.00     0.029 A 
ATOM     44  N   UNL A   1      46.521  26.479  27.906  1.00  0.00    -0.354 N 
ATOM     45  C   UNL A   1      41.107  27.954  27.803  1.00  0.00     0.074 A 
ATOM     46  C   UNL A   1      40.606  26.640  27.471  1.00  0.00     0.031 C 
ATOM     47  C   UNL A   1      46.408  28.139  29.389  1.00  0.00     0.029 A 
ATOM     48  C   UNL A   1      47.242  27.590  28.323  1.00  0.00     0.049 A 
ATOM     49  H   UNL A   1      46.902  25.653  27.529  1.00  0.00     0.167 HD
ATOM     50  C   UNL A   1      40.621  29.018  28.506  1.00  0.00     0.037 A 
ATOM     51  C   UNL A   1      47.892  28.318  27.366  1.00  0.00     0.037 A 
ATOM     52  C   UNL A   1      41.720  29.910  28.876  1.00  0.00     0.049 A 
ATOM     53  C   UNL A   1      47.252  29.674  27.208  1.00  0.00     0.074 A 
ATOM     54  C   UNL A   1      42.490  29.957  30.026  1.00  0.00     0.029 A 
ATOM     55  N   UNL A   1      42.419  30.614  27.902  1.00  0.00    -0.354 N 
ATOM     56  N   UNL A   1      45.984  29.914  27.415  1.00  0.00    -0.248 NA
ATOM     57  C   UNL A   1      48.011  30.872  26.878  1.00  0.00     0.031 C 
ATOM     58  C   UNL A   1      43.685  30.651  29.728  1.00  0.00     0.029 A 
ATOM     59  C   UNL A   1      43.641  31.031  28.397  1.00  0.00     0.049 A 
ATOM     60  H   UNL A   1      42.091  30.791  26.989  1.00  0.00     0.167 HD
ATOM     61  C   UNL A   1      45.765  31.263  27.327  1.00  0.00     0.074 A 
ATOM     62  C   UNL A   1      47.059  31.815  26.970  1.00  0.00     0.031 C 
ATOM     63  C   UNL A   1      44.550  31.829  27.593  1.00  0.00     0.037 A 
BRANCH  50  64
ATOM     64  C   UNL A   1      39.266  29.054  29.174  1.00  0.00     0.057 A 
ATOM     65  C   UNL A   1      38.127  29.515  28.482  1.00  0.00     0.134 A 
ATOM     66  C   UNL A   1      39.020  28.653  30.497  1.00  0.00     0.134 A 
ATOM     67  F   UNL A   1      38.173  29.858  27.189  1.00  0.00    -0.206 F 
ATOM     68  C   UNL A   1      36.869  29.655  29.082  1.00  0.00     0.040 A 
ATOM     69  C   UNL A   1      37.771  28.814  31.120  1.00  0.00     0.040 A 
ATOM     70  F   UNL A   1      39.969  28.058  31.234  1.00  0.00    -0.206 F 
ATOM     71  C   UNL A   1      36.691  29.328  30.415  1.00  0.00     0.006 A 
ENDBRANCH  50  64
BRANCH  51  72
ATOM     72  C   UNL A   1      48.442  27.487  26.245  1.00  0.00     0.057 A 
ATOM     73  C   UNL A   1      47.722  27.423  25.033  1.00  0.00     0.134 A 
ATOM     74  C   UNL A   1      49.763  27.031  26.206  1.00  0.00     0.134 A 
ATOM     75  F   UNL A   1      46.447  27.844  24.986  1.00  0.00    -0.206 F 
ATOM     76  C   UNL A   1      48.312  27.028  23.828  1.00  0.00     0.040 A 
ATOM     77  C   UNL A   1      50.362  26.614  25.005  1.00  0.00     0.040 A 
ATOM     78  F   UNL A   1      50.532  27.059  27.303  1.00  0.00    -0.206 F 
ATOM     79  C   UNL A   1      49.647  26.643  23.808  1.00  0.00     0.006 A 
ENDBRANCH  51  72
BRANCH  63  80
ATOM     80  C   UNL A   1      44.143  33.239  27.247  1.00  0.00     0.057 A 
ATOM     81  C   UNL A   1      43.794  33.656  25.956  1.00  0.00     0.134 A 
ATOM     82  C   UNL A   1      43.930  34.199  28.266  1.00  0.00     0.134 A 
ATOM     83  F   UNL A   1      43.826  32.818  24.912  1.00  0.00    -0.206 F 
ATOM     84  C   UNL A   1      43.333  34.949  25.686  1.00  0.00     0.040 A 
ATOM     85  C   UNL A   1      43.405  35.467  28.016  1.00  0.00     0.040 A 
ATOM     86  F   UNL A   1      44.191  33.940  29.555  1.00  0.00    -0.206 F 
ATOM     87  C   UNL A   1      43.122  35.854  26.718  1.00  0.00     0.006 A 
ENDBRANCH  63  80
ENDBRANCH  37  38
ENDBRANCH  30  32
ENDBRANCH  29  30
ENDBRANCH  28  29
ENDBRANCH  27  28
ENDBRANCH  26  27
ENDBRANCH   1  26
TORSDOF 17
ENDMDL
MODEL 3
REMARK VINA RESULT:     -11.2      2.918      5.161
REMARK SMILES Cc1ccc(OCC(=O)NC(=S)Nc2ccc(C(=O)OCCOC(=O)c3ccc(-c4c5nc(c(-c6c(F)cccc6F)c6ccc([nH]6)c(-c6c(F)cccc6F)c6nc(c(-c7c(F)cccc7F)c7ccc4[nH]7)C=C6)C=C5)cc3)cc2)cc1
REMARK SMILES IDX 18 1 19 2 17 3 14 4 15 5 81 6 16 7 80 8 13 9 11 11 12 12
REMARK SMILES IDX 10 13 8 14 9 15 7 17 6 18 5 19 1 20 2 21 3 22 83 23 4 24
REMARK SMILES IDX 82 25 20 26 21 27 22 28 23 29 24 30 25 31 26 32 27 33 79 34
REMARK SMILES IDX 28 35 78 36 29 37 30 38 31 39 72 40 32 41 77 42 71 43 73 44
REMARK SMILES IDX 33 45 76 46 70 47 69 48 34 50 60 51 43 52 59 53 44 54 47 55
REMARK SMILES IDX 58 56 74 57 45 58 46 59 57 61 75 62 48 63 35 64 36 65 41 66
REMARK SMILES IDX 37 67 38 68 40 69 42 70 39 71 61 72 62 73 67 74 63 75 64 76
REMARK SMILES IDX 66 77 68 78 65 79 49 80 50 81 55 82 51 83 52 84 54 85 56 86
REMARK SMILES IDX 53 87
REMARK H PARENT 13 10 10 16 73 49 47 60
REMARK Flexibility Score: inf
ROOT
ATOM      1  C   UNL A   1      34.663  32.210  27.957  1.00  0.00     0.338 C 
ATOM      2  O   UNL A   1      35.803  32.607  27.740  1.00  0.00    -0.246 OA
ENDROOT
BRANCH   1   3
ATOM      3  C   UNL A   1      34.116  30.915  27.521  1.00  0.00     0.060 A 
ATOM      4  C   UNL A   1      33.102  28.508  26.485  1.00  0.00     0.040 A 
ATOM      5  C   UNL A   1      32.301  29.628  26.593  1.00  0.00     0.027 A 
ATOM      6  C   UNL A   1      34.387  28.559  27.039  1.00  0.00     0.027 A 
ATOM      7  C   UNL A   1      32.807  30.848  27.049  1.00  0.00     0.018 A 
ATOM      8  C   UNL A   1      34.887  29.754  27.578  1.00  0.00     0.018 A 
BRANCH   4   9
ATOM      9  N   UNL A   1      32.629  27.284  26.001  1.00  0.00    -0.332 N 
ATOM     10  H   UNL A   1      31.645  27.259  25.968  1.00  0.00     0.169 HD
BRANCH   9  11
ATOM     11  C   UNL A   1      33.173  26.133  25.570  1.00  0.00     0.177 C 
ATOM     12  S   UNL A   1      33.316  25.960  23.900  1.00  0.00    -0.040 S 
BRANCH  11  13
ATOM     13  N   UNL A   1      33.386  24.989  26.298  1.00  0.00    -0.300 N 
ATOM     14  C   UNL A   1      33.585  23.606  26.268  1.00  0.00     0.264 C 
ATOM     15  O   UNL A   1      34.496  23.136  26.958  1.00  0.00    -0.271 OA
ATOM     16  H   UNL A   1      33.409  25.257  27.246  1.00  0.00     0.172 HD
BRANCH  14  17
ATOM     17  C   UNL A   1      32.624  22.700  25.536  1.00  0.00     0.329 C 
BRANCH  17  18
ATOM     18  O   UNL A   1      33.384  22.181  24.442  1.00  0.00    -0.484 OA
BRANCH  18  19
ATOM     19  C   UNL A   1      33.367  20.832  24.253  1.00  0.00     0.120 A 
ATOM     20  C   UNL A   1      33.774  16.585  23.717  1.00  0.00     0.044 C 
ATOM     21  C   UNL A   1      33.610  18.062  23.918  1.00  0.00    -0.051 A 
ATOM     22  C   UNL A   1      34.585  18.770  24.623  1.00  0.00     0.007 A 
ATOM     23  C   UNL A   1      32.502  18.751  23.402  1.00  0.00     0.007 A 
ATOM     24  C   UNL A   1      34.478  20.150  24.758  1.00  0.00     0.047 A 
ATOM     25  C   UNL A   1      32.375  20.135  23.573  1.00  0.00     0.047 A 
ENDBRANCH  18  19
ENDBRANCH  17  18
ENDBRANCH  14  17
ENDBRANCH  11  13
ENDBRANCH   9  11
ENDBRANCH   4   9
ENDBRANCH   1   3
BRANCH   1  26
ATOM     26  O   UNL A   1      33.675  32.870  28.583  1.00  0.00    -0.458 OA
BRANCH  26  27
ATOM     27  C   UNL A   1      33.557  34.291  28.442  1.00  0.00     0.275 C 
BRANCH  27  28
ATOM     28  C   UNL A   1      33.099  35.167  29.629  1.00  0.00     0.275 C 
BRANCH  28  29
ATOM     29  O   UNL A   1      33.787  35.237  30.913  1.00  0.00    -0.458 OA
BRANCH  29  30
ATOM     30  C   UNL A   1      34.030  34.319  31.869  1.00  0.00     0.338 C 
ATOM     31  O   UNL A   1      33.218  34.017  32.735  1.00  0.00    -0.246 OA
BRANCH  30  32
ATOM     32  C   UNL A   1      35.332  33.663  31.837  1.00  0.00     0.060 A 
ATOM     33  C   UNL A   1      36.327  34.164  30.981  1.00  0.00     0.016 A 
ATOM     34  C   UNL A   1      35.564  32.592  32.690  1.00  0.00     0.016 A 
ATOM     35  C   UNL A   1      37.606  33.639  31.036  1.00  0.00     0.010 A 
ATOM     36  C   UNL A   1      36.850  32.147  32.834  1.00  0.00     0.010 A 
ATOM     37  C   UNL A   1      37.841  32.625  31.960  1.00  0.00    -0.014 A 
BRANCH  37  38
ATOM     38  C   UNL A   1      38.918  31.675  31.797  1.00  0.00     0.031 A 
ATOM     39  C   UNL A   1      38.812  30.500  30.936  1.00  0.00     0.074 A 
ATOM     40  C   UNL A   1      40.059  32.141  32.348  1.00  0.00     0.049 A 
ATOM     41  N   UNL A   1      39.542  29.452  31.085  1.00  0.00    -0.248 NA
ATOM     42  C   UNL A   1      37.850  30.384  29.842  1.00  0.00     0.031 C 
ATOM     43  C   UNL A   1      41.441  31.802  32.089  1.00  0.00     0.029 A 
ATOM     44  N   UNL A   1      40.127  33.075  33.385  1.00  0.00    -0.354 N 
ATOM     45  C   UNL A   1      39.414  28.708  29.934  1.00  0.00     0.074 A 
ATOM     46  C   UNL A   1      38.250  29.243  29.263  1.00  0.00     0.031 C 
ATOM     47  C   UNL A   1      42.199  32.311  33.083  1.00  0.00     0.029 A 
ATOM     48  C   UNL A   1      41.297  32.850  34.098  1.00  0.00     0.049 A 
ATOM     49  H   UNL A   1      39.460  33.774  33.578  1.00  0.00     0.167 HD
ATOM     50  C   UNL A   1      40.438  27.885  29.568  1.00  0.00     0.037 A 
ATOM     51  C   UNL A   1      41.178  32.393  35.381  1.00  0.00     0.037 A 
ATOM     52  C   UNL A   1      41.548  28.029  30.509  1.00  0.00     0.049 A 
ATOM     53  C   UNL A   1      41.677  30.974  35.484  1.00  0.00     0.074 A 
ATOM     54  C   UNL A   1      42.665  28.849  30.463  1.00  0.00     0.029 A 
ATOM     55  N   UNL A   1      41.416  27.613  31.829  1.00  0.00    -0.354 N 
ATOM     56  N   UNL A   1      41.624  30.106  34.509  1.00  0.00    -0.248 NA
ATOM     57  C   UNL A   1      42.341  30.455  36.673  1.00  0.00     0.031 C 
ATOM     58  C   UNL A   1      43.177  28.968  31.776  1.00  0.00     0.029 A 
ATOM     59  C   UNL A   1      42.377  28.217  32.620  1.00  0.00     0.049 A 
ATOM     60  H   UNL A   1      40.736  26.978  32.155  1.00  0.00     0.167 HD
ATOM     61  C   UNL A   1      42.289  28.969  34.886  1.00  0.00     0.074 A 
ATOM     62  C   UNL A   1      42.702  29.231  36.253  1.00  0.00     0.031 C 
ATOM     63  C   UNL A   1      42.487  27.917  34.037  1.00  0.00     0.037 A 
BRANCH  50  64
ATOM     64  C   UNL A   1      40.591  27.268  28.197  1.00  0.00     0.057 A 
ATOM     65  C   UNL A   1      40.040  26.002  27.905  1.00  0.00     0.134 A 
ATOM     66  C   UNL A   1      41.275  27.866  27.126  1.00  0.00     0.134 A 
ATOM     67  F   UNL A   1      39.290  25.334  28.789  1.00  0.00    -0.206 F 
ATOM     68  C   UNL A   1      40.231  25.346  26.682  1.00  0.00     0.040 A 
ATOM     69  C   UNL A   1      41.499  27.207  25.905  1.00  0.00     0.040 A 
ATOM     70  F   UNL A   1      41.727  29.125  27.204  1.00  0.00    -0.206 F 
ATOM     71  C   UNL A   1      40.985  25.937  25.682  1.00  0.00     0.006 A 
ENDBRANCH  50  64
BRANCH  51  72
ATOM     72  C   UNL A   1      39.990  32.945  36.111  1.00  0.00     0.057 A 
ATOM     73  C   UNL A   1      38.829  32.150  36.215  1.00  0.00     0.134 A 
ATOM     74  C   UNL A   1      40.060  34.054  36.960  1.00  0.00     0.134 A 
ATOM     75  F   UNL A   1      38.685  31.065  35.435  1.00  0.00    -0.206 F 
ATOM     76  C   UNL A   1      37.842  32.382  37.179  1.00  0.00     0.040 A 
ATOM     77  C   UNL A   1      39.067  34.308  37.921  1.00  0.00     0.040 A 
ATOM     78  F   UNL A   1      41.126  34.865  36.943  1.00  0.00    -0.206 F 
ATOM     79  C   UNL A   1      37.973  33.454  38.054  1.00  0.00     0.006 A 
ENDBRANCH  51  72
BRANCH  63  80
ATOM     80  C   UNL A   1      42.941  26.537  34.439  1.00  0.00     0.057 A 
ATOM     81  C   UNL A   1      44.266  26.093  34.347  1.00  0.00     0.134 A 
ATOM     82  C   UNL A   1      42.056  25.651  35.100  1.00  0.00     0.134 A 
ATOM     83  F   UNL A   1      45.238  26.874  33.858  1.00  0.00    -0.206 F 
ATOM     84  C   UNL A   1      44.670  24.838  34.814  1.00  0.00     0.040 A 
ATOM     85  C   UNL A   1      42.464  24.427  35.632  1.00  0.00     0.040 A 
ATOM     86  F   UNL A   1      40.762  25.946  35.291  1.00  0.00    -0.206 F 
ATOM     87  C   UNL A   1      43.772  24.006  35.473  1.00  0.00     0.006 A 
ENDBRANCH  63  80
ENDBRANCH  37  38
ENDBRANCH  30  32
ENDBRANCH  29  30
ENDBRANCH  28  29
ENDBRANCH  27  28
ENDBRANCH  26  27
ENDBRANCH   1  26
TORSDOF 17
ENDMDL
