MODEL 1
REMARK VINA RESULT:     -11.1      0.000      0.000
REMARK SMILES C[C@@H](C(=O)OCCOC(=O)c1ccc(-c2c3nc(c(-c4c(F)cccc4F)c4ccc([nH]4)c(-c4c(F)cccc4F)c4nc(c(-c5c(F)cccc5F)c5ccc2[nH]5)C=C4)C=C3)cc1)c1ccc(C[C@H]2CCC[C@H]2O)cc1
REMARK SMILES IDX 6 1 5 2 3 3 4 4 2 5 1 6 65 7 66 8 77 9 67 10 76 11 68 12
REMARK SMILES IDX 69 13 70 14 71 15 74 16 72 17 73 18 75 19 7 21 8 22 9 23
REMARK SMILES IDX 10 24 11 25 12 26 64 27 13 28 63 29 14 30 15 31 16 32 57 33
REMARK SMILES IDX 17 34 62 35 56 36 58 37 18 38 61 39 55 40 54 41 19 43 45 44
REMARK SMILES IDX 28 45 44 46 29 47 32 48 43 49 59 50 30 51 31 52 42 54 60 55
REMARK SMILES IDX 33 56 20 57 21 58 26 59 22 60 23 61 25 62 27 63 24 64 46 65
REMARK SMILES IDX 47 66 52 67 48 68 49 69 51 70 53 71 50 72 34 73 35 74 40 75
REMARK SMILES IDX 36 76 37 77 39 78 41 79 38 80
REMARK H PARENT 75 20 58 42 32 53
REMARK Flexibility Score: inf
ROOT
ATOM      1  C   UNL A   1      44.063  21.581  25.400  1.00  0.00     0.274 C 
ENDROOT
BRANCH   1   2
ATOM      2  O   UNL A   1      42.816  20.900  25.152  1.00  0.00    -0.462 OA
BRANCH   2   3
ATOM      3  C   UNL A   1      41.977  20.699  26.210  1.00  0.00     0.313 C 
ATOM      4  O   UNL A   1      41.625  19.583  26.574  1.00  0.00    -0.252 OA
BRANCH   3   5
ATOM      5  C   UNL A   1      41.461  22.031  26.814  1.00  0.00     0.126 C 
ATOM      6  C   UNL A   1      41.751  22.069  28.333  1.00  0.00     0.025 C 
BRANCH   5   7
ATOM      7  C   UNL A   1      39.987  22.358  26.507  1.00  0.00    -0.034 A 
ATOM      8  C   UNL A   1      39.170  21.451  25.811  1.00  0.00     0.005 A 
ATOM      9  C   UNL A   1      39.368  23.544  26.926  1.00  0.00     0.005 A 
ATOM     10  C   UNL A   1      37.893  21.803  25.367  1.00  0.00     0.004 A 
ATOM     11  C   UNL A   1      38.102  23.914  26.449  1.00  0.00     0.004 A 
ATOM     12  C   UNL A   1      37.399  23.087  25.571  1.00  0.00    -0.048 A 
BRANCH  12  13
ATOM     13  C   UNL A   1      36.178  23.586  24.837  1.00  0.00     0.041 C 
BRANCH  13  14
ATOM     14  C   UNL A   1      34.928  23.940  25.683  1.00  0.00     0.022 C 
ATOM     15  C   UNL A   1      34.231  25.287  25.429  1.00  0.00     0.007 C 
ATOM     16  C   UNL A   1      33.775  22.927  25.683  1.00  0.00     0.117 C 
ATOM     17  C   UNL A   1      32.759  25.104  25.800  1.00  0.00     0.003 C 
ATOM     18  C   UNL A   1      32.657  23.698  26.378  1.00  0.00     0.032 C 
BRANCH  16  19
ATOM     19  O   UNL A   1      33.354  22.551  24.381  1.00  0.00    -0.393 OA
ATOM     20  H   UNL A   1      33.638  23.224  23.743  1.00  0.00     0.210 HD
ENDBRANCH  16  19
ENDBRANCH  13  14
ENDBRANCH  12  13
ENDBRANCH   5   7
ENDBRANCH   3   5
ENDBRANCH   2   3
ENDBRANCH   1   2
BRANCH   1  21
ATOM     21  C   UNL A   1      44.311  22.621  24.313  1.00  0.00     0.275 C 
BRANCH  21  22
ATOM     22  O   UNL A   1      43.623  23.835  24.663  1.00  0.00    -0.458 OA
BRANCH  22  23
ATOM     23  C   UNL A   1      44.395  24.878  25.025  1.00  0.00     0.338 C 
ATOM     24  O   UNL A   1      45.516  25.163  24.627  1.00  0.00    -0.246 OA
BRANCH  23  25
ATOM     25  C   UNL A   1      43.641  25.709  25.970  1.00  0.00     0.060 A 
ATOM     26  C   UNL A   1      44.174  26.941  26.322  1.00  0.00     0.016 A 
ATOM     27  C   UNL A   1      42.480  25.240  26.590  1.00  0.00     0.016 A 
ATOM     28  C   UNL A   1      43.574  27.683  27.335  1.00  0.00     0.010 A 
ATOM     29  C   UNL A   1      41.864  26.010  27.591  1.00  0.00     0.010 A 
ATOM     30  C   UNL A   1      42.434  27.221  28.013  1.00  0.00    -0.014 A 
BRANCH  30  31
ATOM     31  C   UNL A   1      41.967  27.976  29.219  1.00  0.00     0.031 A 
ATOM     32  C   UNL A   1      40.747  28.871  29.145  1.00  0.00     0.074 A 
ATOM     33  C   UNL A   1      42.504  27.723  30.430  1.00  0.00     0.049 A 
ATOM     34  N   UNL A   1      40.106  29.475  30.118  1.00  0.00    -0.248 NA
ATOM     35  C   UNL A   1      40.139  29.074  27.821  1.00  0.00     0.031 C 
ATOM     36  C   UNL A   1      43.611  26.801  30.689  1.00  0.00     0.029 A 
ATOM     37  N   UNL A   1      42.163  28.190  31.679  1.00  0.00    -0.354 N 
ATOM     38  C   UNL A   1      39.004  30.087  29.532  1.00  0.00     0.074 A 
ATOM     39  C   UNL A   1      39.082  29.821  28.112  1.00  0.00     0.031 C 
ATOM     40  C   UNL A   1      43.828  26.736  32.012  1.00  0.00     0.029 A 
ATOM     41  C   UNL A   1      42.931  27.665  32.692  1.00  0.00     0.049 A 
ATOM     42  H   UNL A   1      41.438  28.837  31.833  1.00  0.00     0.167 HD
ATOM     43  C   UNL A   1      38.002  30.788  30.114  1.00  0.00     0.037 A 
ATOM     44  C   UNL A   1      42.941  27.926  34.014  1.00  0.00     0.037 A 
ATOM     45  C   UNL A   1      37.921  31.108  31.513  1.00  0.00     0.049 A 
ATOM     46  C   UNL A   1      41.988  28.938  34.583  1.00  0.00     0.074 A 
ATOM     47  C   UNL A   1      36.945  31.832  32.177  1.00  0.00     0.029 A 
ATOM     48  N   UNL A   1      38.867  30.752  32.457  1.00  0.00    -0.354 N 
ATOM     49  N   UNL A   1      40.956  29.510  34.015  1.00  0.00    -0.248 NA
ATOM     50  C   UNL A   1      42.227  29.369  35.970  1.00  0.00     0.031 C 
ATOM     51  C   UNL A   1      37.334  31.967  33.515  1.00  0.00     0.029 A 
ATOM     52  C   UNL A   1      38.534  31.298  33.686  1.00  0.00     0.049 A 
ATOM     53  H   UNL A   1      39.658  30.194  32.282  1.00  0.00     0.167 HD
ATOM     54  C   UNL A   1      40.418  30.359  34.974  1.00  0.00     0.074 A 
ATOM     55  C   UNL A   1      41.226  30.218  36.166  1.00  0.00     0.031 C 
ATOM     56  C   UNL A   1      39.347  31.183  34.867  1.00  0.00     0.037 A 
BRANCH  43  57
ATOM     57  C   UNL A   1      36.902  31.282  29.226  1.00  0.00     0.057 A 
ATOM     58  C   UNL A   1      35.840  30.450  28.854  1.00  0.00     0.134 A 
ATOM     59  C   UNL A   1      36.873  32.609  28.787  1.00  0.00     0.134 A 
ATOM     60  F   UNL A   1      35.799  29.176  29.266  1.00  0.00    -0.206 F 
ATOM     61  C   UNL A   1      34.796  30.913  28.054  1.00  0.00     0.040 A 
ATOM     62  C   UNL A   1      35.825  33.090  27.999  1.00  0.00     0.040 A 
ATOM     63  F   UNL A   1      37.855  33.458  29.123  1.00  0.00    -0.206 F 
ATOM     64  C   UNL A   1      34.786  32.239  27.626  1.00  0.00     0.006 A 
ENDBRANCH  43  57
BRANCH  44  65
ATOM     65  C   UNL A   1      43.946  27.276  34.894  1.00  0.00     0.057 A 
ATOM     66  C   UNL A   1      43.705  26.031  35.484  1.00  0.00     0.134 A 
ATOM     67  C   UNL A   1      45.160  27.909  35.196  1.00  0.00     0.134 A 
ATOM     68  F   UNL A   1      42.548  25.391  35.263  1.00  0.00    -0.206 F 
ATOM     69  C   UNL A   1      44.634  25.438  36.341  1.00  0.00     0.040 A 
ATOM     70  C   UNL A   1      46.108  27.317  36.030  1.00  0.00     0.040 A 
ATOM     71  F   UNL A   1      45.443  29.113  34.678  1.00  0.00    -0.206 F 
ATOM     72  C   UNL A   1      45.843  26.079  36.610  1.00  0.00     0.006 A 
ENDBRANCH  44  65
BRANCH  56  73
ATOM     73  C   UNL A   1      38.993  32.015  36.062  1.00  0.00     0.057 A 
ATOM     74  C   UNL A   1      39.457  33.330  36.196  1.00  0.00     0.134 A 
ATOM     75  C   UNL A   1      38.156  31.518  37.068  1.00  0.00     0.134 A 
ATOM     76  F   UNL A   1      40.275  33.859  35.274  1.00  0.00    -0.206 F 
ATOM     77  C   UNL A   1      39.112  34.117  37.297  1.00  0.00     0.040 A 
ATOM     78  C   UNL A   1      37.786  32.303  38.162  1.00  0.00     0.040 A 
ATOM     79  F   UNL A   1      37.672  30.269  36.997  1.00  0.00    -0.206 F 
ATOM     80  C   UNL A   1      38.268  33.605  38.280  1.00  0.00     0.006 A 
ENDBRANCH  56  73
ENDBRANCH  30  31
ENDBRANCH  23  25
ENDBRANCH  22  23
ENDBRANCH  21  22
ENDBRANCH   1  21
TORSDOF 15
ENDMDL
MODEL 2
REMARK VINA RESULT:     -10.8      4.949     10.646
REMARK SMILES C[C@@H](C(=O)OCCOC(=O)c1ccc(-c2c3nc(c(-c4c(F)cccc4F)c4ccc([nH]4)c(-c4c(F)cccc4F)c4nc(c(-c5c(F)cccc5F)c5ccc2[nH]5)C=C4)C=C3)cc1)c1ccc(C[C@H]2CCC[C@H]2O)cc1
REMARK SMILES IDX 6 1 5 2 3 3 4 4 2 5 1 6 65 7 66 8 77 9 67 10 76 11 68 12
REMARK SMILES IDX 69 13 70 14 71 15 74 16 72 17 73 18 75 19 7 21 8 22 9 23
REMARK SMILES IDX 10 24 11 25 12 26 64 27 13 28 63 29 14 30 15 31 16 32 57 33
REMARK SMILES IDX 17 34 62 35 56 36 58 37 18 38 61 39 55 40 54 41 19 43 45 44
REMARK SMILES IDX 28 45 44 46 29 47 32 48 43 49 59 50 30 51 31 52 42 54 60 55
REMARK SMILES IDX 33 56 20 57 21 58 26 59 22 60 23 61 25 62 27 63 24 64 46 65
REMARK SMILES IDX 47 66 52 67 48 68 49 69 51 70 53 71 50 72 34 73 35 74 40 75
REMARK SMILES IDX 36 76 37 77 39 78 41 79 38 80
REMARK H PARENT 75 20 58 42 32 53
REMARK Flexibility Score: inf
ROOT
ATOM      1  C   UNL A   1      34.433  34.389  31.484  1.00  0.00     0.274 C 
ENDROOT
BRANCH   1   2
ATOM      2  O   UNL A   1      33.645  33.784  30.439  1.00  0.00    -0.462 OA
BRANCH   2   3
ATOM      3  C   UNL A   1      34.095  33.893  29.155  1.00  0.00     0.313 C 
ATOM      4  O   UNL A   1      33.640  34.707  28.360  1.00  0.00    -0.252 OA
BRANCH   3   5
ATOM      5  C   UNL A   1      35.159  32.817  28.810  1.00  0.00     0.126 C 
ATOM      6  C   UNL A   1      36.339  33.467  28.051  1.00  0.00     0.025 C 
BRANCH   5   7
ATOM      7  C   UNL A   1      34.616  31.579  28.071  1.00  0.00    -0.034 A 
ATOM      8  C   UNL A   1      33.284  31.520  27.630  1.00  0.00     0.005 A 
ATOM      9  C   UNL A   1      35.414  30.467  27.764  1.00  0.00     0.005 A 
ATOM     10  C   UNL A   1      32.729  30.341  27.123  1.00  0.00     0.004 A 
ATOM     11  C   UNL A   1      34.850  29.273  27.292  1.00  0.00     0.004 A 
ATOM     12  C   UNL A   1      33.475  29.170  27.072  1.00  0.00    -0.048 A 
BRANCH  12  13
ATOM     13  C   UNL A   1      32.821  27.830  26.835  1.00  0.00     0.041 C 
BRANCH  13  14
ATOM     14  C   UNL A   1      33.434  26.915  25.744  1.00  0.00     0.022 C 
ATOM     15  C   UNL A   1      33.128  25.409  25.795  1.00  0.00     0.007 C 
ATOM     16  C   UNL A   1      33.161  27.294  24.282  1.00  0.00     0.117 C 
ATOM     17  C   UNL A   1      33.204  24.890  24.359  1.00  0.00     0.003 C 
ATOM     18  C   UNL A   1      33.675  26.074  23.524  1.00  0.00     0.032 C 
BRANCH  16  19
ATOM     19  O   UNL A   1      31.785  27.487  23.997  1.00  0.00    -0.393 OA
ATOM     20  H   UNL A   1      31.301  26.663  24.168  1.00  0.00     0.210 HD
ENDBRANCH  16  19
ENDBRANCH  13  14
ENDBRANCH  12  13
ENDBRANCH   5   7
ENDBRANCH   3   5
ENDBRANCH   2   3
ENDBRANCH   1   2
BRANCH   1  21
ATOM     21  C   UNL A   1      34.478  33.469  32.699  1.00  0.00     0.275 C 
BRANCH  21  22
ATOM     22  O   UNL A   1      35.263  32.307  32.375  1.00  0.00    -0.458 OA
BRANCH  22  23
ATOM     23  C   UNL A   1      36.348  32.085  33.143  1.00  0.00     0.338 C 
ATOM     24  O   UNL A   1      36.511  32.367  34.322  1.00  0.00    -0.246 OA
BRANCH  23  25
ATOM     25  C   UNL A   1      37.343  31.361  32.343  1.00  0.00     0.060 A 
ATOM     26  C   UNL A   1      38.472  30.878  32.991  1.00  0.00     0.016 A 
ATOM     27  C   UNL A   1      37.226  31.250  30.956  1.00  0.00     0.016 A 
ATOM     28  C   UNL A   1      39.510  30.332  32.243  1.00  0.00     0.010 A 
ATOM     29  C   UNL A   1      38.267  30.669  30.211  1.00  0.00     0.010 A 
ATOM     30  C   UNL A   1      39.447  30.249  30.843  1.00  0.00    -0.014 A 
BRANCH  30  31
ATOM     31  C   UNL A   1      40.678  29.835  30.097  1.00  0.00     0.031 A 
ATOM     32  C   UNL A   1      40.817  28.428  29.555  1.00  0.00     0.074 A 
ATOM     33  C   UNL A   1      41.593  30.757  29.731  1.00  0.00     0.049 A 
ATOM     34  N   UNL A   1      41.734  27.938  28.754  1.00  0.00    -0.248 NA
ATOM     35  C   UNL A   1      39.768  27.460  29.913  1.00  0.00     0.031 C 
ATOM     36  C   UNL A   1      41.547  32.178  30.077  1.00  0.00     0.029 A 
ATOM     37  N   UNL A   1      42.720  30.642  28.951  1.00  0.00    -0.354 N 
ATOM     38  C   UNL A   1      41.350  26.630  28.481  1.00  0.00     0.074 A 
ATOM     39  C   UNL A   1      40.140  26.383  29.234  1.00  0.00     0.031 C 
ATOM     40  C   UNL A   1      42.569  32.810  29.477  1.00  0.00     0.029 A 
ATOM     41  C   UNL A   1      43.388  31.831  28.767  1.00  0.00     0.049 A 
ATOM     42  H   UNL A   1      43.020  29.791  28.560  1.00  0.00     0.167 HD
ATOM     43  C   UNL A   1      41.930  25.719  27.664  1.00  0.00     0.037 A 
ATOM     44  C   UNL A   1      44.545  32.102  28.133  1.00  0.00     0.037 A 
ATOM     45  C   UNL A   1      43.155  25.919  26.941  1.00  0.00     0.049 A 
ATOM     46  C   UNL A   1      45.313  30.992  27.474  1.00  0.00     0.074 A 
ATOM     47  C   UNL A   1      43.819  25.034  26.106  1.00  0.00     0.029 A 
ATOM     48  N   UNL A   1      43.920  27.070  26.991  1.00  0.00    -0.354 N 
ATOM     49  N   UNL A   1      44.938  29.761  27.229  1.00  0.00    -0.248 NA
ATOM     50  C   UNL A   1      46.684  31.301  27.036  1.00  0.00     0.031 C 
ATOM     51  C   UNL A   1      45.018  25.631  25.700  1.00  0.00     0.029 A 
ATOM     52  C   UNL A   1      45.081  26.897  26.256  1.00  0.00     0.049 A 
ATOM     53  H   UNL A   1      43.674  27.891  27.475  1.00  0.00     0.167 HD
ATOM     54  C   UNL A   1      46.019  29.153  26.602  1.00  0.00     0.074 A 
ATOM     55  C   UNL A   1      47.059  30.153  26.489  1.00  0.00     0.031 C 
ATOM     56  C   UNL A   1      46.131  27.876  26.163  1.00  0.00     0.037 A 
BRANCH  43  57
ATOM     57  C   UNL A   1      41.248  24.394  27.518  1.00  0.00     0.057 A 
ATOM     58  C   UNL A   1      40.151  24.232  26.664  1.00  0.00     0.134 A 
ATOM     59  C   UNL A   1      41.723  23.263  28.189  1.00  0.00     0.134 A 
ATOM     60  F   UNL A   1      39.668  25.274  25.975  1.00  0.00    -0.206 F 
ATOM     61  C   UNL A   1      39.532  22.993  26.500  1.00  0.00     0.040 A 
ATOM     62  C   UNL A   1      41.121  22.014  28.021  1.00  0.00     0.040 A 
ATOM     63  F   UNL A   1      42.779  23.352  29.009  1.00  0.00    -0.206 F 
ATOM     64  C   UNL A   1      40.019  21.878  27.177  1.00  0.00     0.006 A 
ENDBRANCH  43  57
BRANCH  44  65
ATOM     65  C   UNL A   1      45.103  33.478  28.156  1.00  0.00     0.057 A 
ATOM     66  C   UNL A   1      44.832  34.394  27.134  1.00  0.00     0.134 A 
ATOM     67  C   UNL A   1      45.954  33.897  29.188  1.00  0.00     0.134 A 
ATOM     68  F   UNL A   1      44.053  34.042  26.100  1.00  0.00    -0.206 F 
ATOM     69  C   UNL A   1      45.386  35.675  27.136  1.00  0.00     0.040 A 
ATOM     70  C   UNL A   1      46.495  35.182  29.216  1.00  0.00     0.040 A 
ATOM     71  F   UNL A   1      46.269  33.060  30.187  1.00  0.00    -0.206 F 
ATOM     72  C   UNL A   1      46.215  36.074  28.184  1.00  0.00     0.006 A 
ENDBRANCH  44  65
BRANCH  56  73
ATOM     73  C   UNL A   1      47.431  27.473  25.536  1.00  0.00     0.057 A 
ATOM     74  C   UNL A   1      48.462  26.909  26.298  1.00  0.00     0.134 A 
ATOM     75  C   UNL A   1      47.645  27.613  24.159  1.00  0.00     0.134 A 
ATOM     76  F   UNL A   1      48.324  26.763  27.624  1.00  0.00    -0.206 F 
ATOM     77  C   UNL A   1      49.666  26.511  25.714  1.00  0.00     0.040 A 
ATOM     78  C   UNL A   1      48.837  27.198  23.561  1.00  0.00     0.040 A 
ATOM     79  F   UNL A   1      46.695  28.140  23.372  1.00  0.00    -0.206 F 
ATOM     80  C   UNL A   1      49.853  26.649  24.341  1.00  0.00     0.006 A 
ENDBRANCH  56  73
ENDBRANCH  30  31
ENDBRANCH  23  25
ENDBRANCH  22  23
ENDBRANCH  21  22
ENDBRANCH   1  21
TORSDOF 15
ENDMDL
MODEL 3
REMARK VINA RESULT:     -10.7      3.981      8.215
REMARK SMILES C[C@@H](C(=O)OCCOC(=O)c1ccc(-c2c3nc(c(-c4c(F)cccc4F)c4ccc([nH]4)c(-c4c(F)cccc4F)c4nc(c(-c5c(F)cccc5F)c5ccc2[nH]5)C=C4)C=C3)cc1)c1ccc(C[C@H]2CCC[C@H]2O)cc1
REMARK SMILES IDX 6 1 5 2 3 3 4 4 2 5 1 6 65 7 66 8 77 9 67 10 76 11 68 12
REMARK SMILES IDX 69 13 70 14 71 15 74 16 72 17 73 18 75 19 7 21 8 22 9 23
REMARK SMILES IDX 10 24 11 25 12 26 64 27 13 28 63 29 14 30 15 31 16 32 57 33
REMARK SMILES IDX 17 34 62 35 56 36 58 37 18 38 61 39 55 40 54 41 19 43 45 44
REMARK SMILES IDX 28 45 44 46 29 47 32 48 43 49 59 50 30 51 31 52 42 54 60 55
REMARK SMILES IDX 33 56 20 57 21 58 26 59 22 60 23 61 25 62 27 63 24 64 46 65
REMARK SMILES IDX 47 66 52 67 48 68 49 69 51 70 53 71 50 72 34 73 35 74 40 75
REMARK SMILES IDX 36 76 37 77 39 78 41 79 38 80
REMARK H PARENT 75 20 58 42 32 53
REMARK Flexibility Score: inf
ROOT
ATOM      1  C   UNL A   1      36.347  19.899  24.926  1.00  0.00     0.274 C 
ENDROOT
BRANCH   1   2
ATOM      2  O   UNL A   1      36.054  21.289  25.179  1.00  0.00    -0.462 OA
BRANCH   2   3
ATOM      3  C   UNL A   1      34.903  21.804  24.659  1.00  0.00     0.313 C 
ATOM      4  O   UNL A   1      33.792  21.392  24.971  1.00  0.00    -0.252 OA
BRANCH   3   5
ATOM      5  C   UNL A   1      35.176  22.881  23.576  1.00  0.00     0.126 C 
ATOM      6  C   UNL A   1      36.698  23.130  23.453  1.00  0.00     0.025 C 
BRANCH   5   7
ATOM      7  C   UNL A   1      34.395  24.197  23.754  1.00  0.00    -0.034 A 
ATOM      8  C   UNL A   1      33.514  24.660  22.763  1.00  0.00     0.005 A 
ATOM      9  C   UNL A   1      34.484  24.983  24.912  1.00  0.00     0.005 A 
ATOM     10  C   UNL A   1      32.940  25.933  22.826  1.00  0.00     0.004 A 
ATOM     11  C   UNL A   1      33.940  26.275  24.959  1.00  0.00     0.004 A 
ATOM     12  C   UNL A   1      33.254  26.802  23.864  1.00  0.00    -0.048 A 
BRANCH  12  13
ATOM     13  C   UNL A   1      32.908  28.270  23.792  1.00  0.00     0.041 C 
BRANCH  13  14
ATOM     14  C   UNL A   1      31.407  28.656  23.813  1.00  0.00     0.022 C 
ATOM     15  C   UNL A   1      30.976  29.874  24.645  1.00  0.00     0.007 C 
ATOM     16  C   UNL A   1      30.726  28.882  22.456  1.00  0.00     0.117 C 
ATOM     17  C   UNL A   1      29.723  30.447  23.982  1.00  0.00     0.003 C 
ATOM     18  C   UNL A   1      29.380  29.479  22.857  1.00  0.00     0.032 C 
BRANCH  16  19
ATOM     19  O   UNL A   1      31.421  29.794  21.620  1.00  0.00    -0.393 OA
ATOM     20  H   UNL A   1      31.339  29.512  20.696  1.00  0.00     0.210 HD
ENDBRANCH  16  19
ENDBRANCH  13  14
ENDBRANCH  12  13
ENDBRANCH   5   7
ENDBRANCH   3   5
ENDBRANCH   2   3
ENDBRANCH   1   2
BRANCH   1  21
ATOM     21  C   UNL A   1      37.855  19.693  24.839  1.00  0.00     0.275 C 
BRANCH  21  22
ATOM     22  O   UNL A   1      38.515  20.837  25.410  1.00  0.00    -0.458 OA
BRANCH  22  23
ATOM     23  C   UNL A   1      39.633  20.590  26.120  1.00  0.00     0.338 C 
ATOM     24  O   UNL A   1      40.273  19.549  26.186  1.00  0.00    -0.246 OA
BRANCH  23  25
ATOM     25  C   UNL A   1      40.039  21.828  26.795  1.00  0.00     0.060 A 
ATOM     26  C   UNL A   1      39.470  23.019  26.366  1.00  0.00     0.016 A 
ATOM     27  C   UNL A   1      41.045  21.837  27.764  1.00  0.00     0.016 A 
ATOM     28  C   UNL A   1      39.947  24.226  26.868  1.00  0.00     0.010 A 
ATOM     29  C   UNL A   1      41.500  23.059  28.288  1.00  0.00     0.010 A 
ATOM     30  C   UNL A   1      40.990  24.275  27.807  1.00  0.00    -0.014 A 
BRANCH  30  31
ATOM     31  C   UNL A   1      41.581  25.608  28.148  1.00  0.00     0.031 A 
ATOM     32  C   UNL A   1      42.980  25.971  27.696  1.00  0.00     0.074 A 
ATOM     33  C   UNL A   1      40.812  26.573  28.692  1.00  0.00     0.049 A 
ATOM     34  N   UNL A   1      43.595  27.129  27.761  1.00  0.00    -0.248 NA
ATOM     35  C   UNL A   1      43.772  24.918  27.041  1.00  0.00     0.031 C 
ATOM     36  C   UNL A   1      39.410  26.418  29.082  1.00  0.00     0.029 A 
ATOM     37  N   UNL A   1      41.090  27.891  28.975  1.00  0.00    -0.354 N 
ATOM     38  C   UNL A   1      44.817  26.954  27.122  1.00  0.00     0.074 A 
ATOM     39  C   UNL A   1      44.881  25.569  26.712  1.00  0.00     0.031 C 
ATOM     40  C   UNL A   1      38.939  27.601  29.510  1.00  0.00     0.029 A 
ATOM     41  C   UNL A   1      40.022  28.581  29.498  1.00  0.00     0.049 A 
ATOM     42  H   UNL A   1      41.970  28.301  28.817  1.00  0.00     0.167 HD
ATOM     43  C   UNL A   1      45.792  27.861  26.874  1.00  0.00     0.037 A 
ATOM     44  C   UNL A   1      39.928  29.846  29.953  1.00  0.00     0.037 A 
ATOM     45  C   UNL A   1      45.777  29.230  27.308  1.00  0.00     0.049 A 
ATOM     46  C   UNL A   1      41.133  30.742  29.921  1.00  0.00     0.074 A 
ATOM     47  C   UNL A   1      46.739  30.208  27.113  1.00  0.00     0.029 A 
ATOM     48  N   UNL A   1      44.766  29.809  28.054  1.00  0.00    -0.354 N 
ATOM     49  N   UNL A   1      42.281  30.560  29.317  1.00  0.00    -0.248 NA
ATOM     50  C   UNL A   1      41.040  32.007  30.667  1.00  0.00     0.031 C 
ATOM     51  C   UNL A   1      46.336  31.362  27.795  1.00  0.00     0.029 A 
ATOM     52  C   UNL A   1      45.110  31.110  28.384  1.00  0.00     0.049 A 
ATOM     53  H   UNL A   1      43.927  29.363  28.310  1.00  0.00     0.167 HD
ATOM     54  C   UNL A   1      43.042  31.687  29.603  1.00  0.00     0.074 A 
ATOM     55  C   UNL A   1      42.222  32.555  30.420  1.00  0.00     0.031 C 
ATOM     56  C   UNL A   1      44.311  31.968  29.219  1.00  0.00     0.037 A 
BRANCH  43  57
ATOM     57  C   UNL A   1      46.986  27.392  26.101  1.00  0.00     0.057 A 
ATOM     58  C   UNL A   1      48.082  26.805  26.743  1.00  0.00     0.134 A 
ATOM     59  C   UNL A   1      47.016  27.475  24.706  1.00  0.00     0.134 A 
ATOM     60  F   UNL A   1      48.097  26.674  28.076  1.00  0.00    -0.206 F 
ATOM     61  C   UNL A   1      49.182  26.336  26.025  1.00  0.00     0.040 A 
ATOM     62  C   UNL A   1      48.106  26.995  23.974  1.00  0.00     0.040 A 
ATOM     63  F   UNL A   1      45.989  28.014  24.033  1.00  0.00    -0.206 F 
ATOM     64  C   UNL A   1      49.194  26.429  24.636  1.00  0.00     0.006 A 
ENDBRANCH  43  57
BRANCH  44  65
ATOM     65  C   UNL A   1      38.661  30.328  30.559  1.00  0.00     0.057 A 
ATOM     66  C   UNL A   1      37.717  31.039  29.811  1.00  0.00     0.134 A 
ATOM     67  C   UNL A   1      38.383  30.118  31.918  1.00  0.00     0.134 A 
ATOM     68  F   UNL A   1      37.940  31.303  28.516  1.00  0.00    -0.206 F 
ATOM     69  C   UNL A   1      36.543  31.525  30.391  1.00  0.00     0.040 A 
ATOM     70  C   UNL A   1      37.204  30.575  32.504  1.00  0.00     0.040 A 
ATOM     71  F   UNL A   1      39.257  29.460  32.693  1.00  0.00    -0.206 F 
ATOM     72  C   UNL A   1      36.281  31.286  31.740  1.00  0.00     0.006 A 
ENDBRANCH  44  65
BRANCH  56  73
ATOM     73  C   UNL A   1      44.906  33.260  29.690  1.00  0.00     0.057 A 
ATOM     74  C   UNL A   1      45.654  33.326  30.873  1.00  0.00     0.134 A 
ATOM     75  C   UNL A   1      44.764  34.438  28.947  1.00  0.00     0.134 A 
ATOM     76  F   UNL A   1      45.813  32.237  31.638  1.00  0.00    -0.206 F 
ATOM     77  C   UNL A   1      46.229  34.523  31.305  1.00  0.00     0.040 A 
ATOM     78  C   UNL A   1      45.352  35.635  29.357  1.00  0.00     0.040 A 
ATOM     79  F   UNL A   1      44.065  34.440  27.801  1.00  0.00    -0.206 F 
ATOM     80  C   UNL A   1      46.084  35.681  30.543  1.00  0.00     0.006 A 
ENDBRANCH  56  73
ENDBRANCH  30  31
ENDBRANCH  23  25
ENDBRANCH  22  23
ENDBRANCH  21  22
ENDBRANCH   1  21
TORSDOF 15
ENDMDL
