MODEL 1
REMARK VINA RESULT:     -11.7      0.000      0.000
REMARK SMILES Cc1cccc(-c2cc(C(=O)OCCOC(=O)c3ccc(-c4c5nc(c(-c6c(F)cccc6F)c6ccc([nH]6)c(-c6c(F)cccc6F)c6nc(c(-c7c(F)cccc7F)c7ccc4[nH]7)C=C6)C=C5)cc3)ccn2)c1
REMARK SMILES IDX 14 1 13 2 12 3 10 4 11 5 9 6 7 7 8 8 74 9 73 10 72 11 6 12
REMARK SMILES IDX 1 13 2 14 3 15 75 16 4 17 5 18 15 19 16 20 17 21 18 22 19 23
REMARK SMILES IDX 71 24 20 25 70 26 21 27 22 28 23 29 64 30 24 31 69 32 63 33
REMARK SMILES IDX 65 34 25 35 68 36 62 37 61 38 26 40 52 41 35 42 51 43 36 44
REMARK SMILES IDX 39 45 50 46 66 47 37 48 38 49 49 51 67 52 40 53 27 54 28 55
REMARK SMILES IDX 33 56 29 57 30 58 32 59 34 60 31 61 53 62 54 63 59 64 55 65
REMARK SMILES IDX 56 66 58 67 60 68 57 69 41 70 42 71 47 72 43 73 44 74 46 75
REMARK SMILES IDX 48 76 45 77
REMARK H PARENT 65 39 39 50
REMARK Flexibility Score: inf
ROOT
ATOM      1  C   UNL A   1      33.245  36.035  31.305  1.00  0.00     0.275 C 
ENDROOT
BRANCH   1   2
ATOM      2  C   UNL A   1      33.055  35.619  29.826  1.00  0.00     0.275 C 
BRANCH   2   3
ATOM      3  O   UNL A   1      33.700  34.452  29.299  1.00  0.00    -0.458 OA
BRANCH   3   4
ATOM      4  C   UNL A   1      33.168  33.833  28.236  1.00  0.00     0.338 C 
ATOM      5  O   UNL A   1      32.129  34.129  27.651  1.00  0.00    -0.246 OA
BRANCH   4   6
ATOM      6  C   UNL A   1      33.996  32.671  27.895  1.00  0.00     0.063 A 
ATOM      7  C   UNL A   1      34.175  30.401  27.213  1.00  0.00     0.071 A 
ATOM      8  C   UNL A   1      33.400  31.545  27.339  1.00  0.00     0.044 A 
ATOM      9  N   UNL A   1      35.503  30.381  27.488  1.00  0.00    -0.256 NA
ATOM     10  C   UNL A   1      36.064  31.512  27.966  1.00  0.00     0.112 A 
ATOM     11  C   UNL A   1      35.346  32.658  28.237  1.00  0.00     0.036 A 
BRANCH   7  12
ATOM     12  C   UNL A   1      33.514  29.101  27.077  1.00  0.00     0.000 A 
ATOM     13  C   UNL A   1      33.963  25.733  25.342  1.00  0.00     0.044 C 
ATOM     14  C   UNL A   1      33.357  26.870  26.108  1.00  0.00    -0.050 A 
ATOM     15  C   UNL A   1      32.011  26.807  26.492  1.00  0.00     0.003 A 
ATOM     16  C   UNL A   1      34.105  28.020  26.406  1.00  0.00     0.013 A 
ATOM     17  C   UNL A   1      31.424  27.857  27.191  1.00  0.00     0.001 A 
ATOM     18  C   UNL A   1      32.174  28.991  27.489  1.00  0.00     0.010 A 
ENDBRANCH   7  12
ENDBRANCH   4   6
ENDBRANCH   3   4
ENDBRANCH   2   3
ENDBRANCH   1   2
BRANCH   1  19
ATOM     19  O   UNL A   1      34.078  35.365  32.305  1.00  0.00    -0.458 OA
BRANCH  19  20
ATOM     20  C   UNL A   1      34.149  34.068  32.669  1.00  0.00     0.338 C 
ATOM     21  O   UNL A   1      33.248  33.462  33.230  1.00  0.00    -0.246 OA
BRANCH  20  22
ATOM     22  C   UNL A   1      35.443  33.433  32.444  1.00  0.00     0.060 A 
ATOM     23  C   UNL A   1      36.359  34.014  31.554  1.00  0.00     0.016 A 
ATOM     24  C   UNL A   1      35.753  32.312  33.202  1.00  0.00     0.016 A 
ATOM     25  C   UNL A   1      37.655  33.531  31.501  1.00  0.00     0.010 A 
ATOM     26  C   UNL A   1      37.059  31.931  33.271  1.00  0.00     0.010 A 
ATOM     27  C   UNL A   1      37.976  32.494  32.369  1.00  0.00    -0.014 A 
BRANCH  27  28
ATOM     28  C   UNL A   1      39.103  31.617  32.156  1.00  0.00     0.031 A 
ATOM     29  C   UNL A   1      38.975  30.430  31.313  1.00  0.00     0.074 A 
ATOM     30  C   UNL A   1      40.230  32.207  32.614  1.00  0.00     0.049 A 
ATOM     31  N   UNL A   1      39.766  29.424  31.375  1.00  0.00    -0.248 NA
ATOM     32  C   UNL A   1      37.895  30.247  30.343  1.00  0.00     0.031 C 
ATOM     33  C   UNL A   1      41.630  32.006  32.316  1.00  0.00     0.029 A 
ATOM     34  N   UNL A   1      40.245  33.193  33.616  1.00  0.00    -0.354 N 
ATOM     35  C   UNL A   1      39.556  28.678  30.234  1.00  0.00     0.074 A 
ATOM     36  C   UNL A   1      38.286  29.126  29.718  1.00  0.00     0.031 C 
ATOM     37  C   UNL A   1      42.359  32.582  33.296  1.00  0.00     0.029 A 
ATOM     38  C   UNL A   1      41.434  33.057  34.323  1.00  0.00     0.049 A 
ATOM     39  H   UNL A   1      39.541  33.860  33.787  1.00  0.00     0.167 HD
ATOM     40  C   UNL A   1      40.599  27.939  29.751  1.00  0.00     0.037 A 
ATOM     41  C   UNL A   1      41.326  32.579  35.600  1.00  0.00     0.037 A 
ATOM     42  C   UNL A   1      41.770  28.158  30.602  1.00  0.00     0.049 A 
ATOM     43  C   UNL A   1      41.854  31.165  35.657  1.00  0.00     0.074 A 
ATOM     44  C   UNL A   1      42.803  29.078  30.499  1.00  0.00     0.029 A 
ATOM     45  N   UNL A   1      41.757  27.725  31.923  1.00  0.00    -0.354 N 
ATOM     46  N   UNL A   1      41.820  30.325  34.655  1.00  0.00    -0.248 NA
ATOM     47  C   UNL A   1      42.552  30.633  36.821  1.00  0.00     0.031 C 
ATOM     48  C   UNL A   1      43.348  29.266  31.796  1.00  0.00     0.029 A 
ATOM     49  C   UNL A   1      42.647  28.465  32.682  1.00  0.00     0.049 A 
ATOM     50  H   UNL A   1      41.194  26.995  32.270  1.00  0.00     0.167 HD
ATOM     51  C   UNL A   1      42.548  29.214  34.977  1.00  0.00     0.074 A 
ATOM     52  C   UNL A   1      42.963  29.442  36.352  1.00  0.00     0.031 C 
ATOM     53  C   UNL A   1      42.802  28.196  34.102  1.00  0.00     0.037 A 
BRANCH  40  54
ATOM     54  C   UNL A   1      40.685  27.332  28.367  1.00  0.00     0.057 A 
ATOM     55  C   UNL A   1      40.067  26.093  28.090  1.00  0.00     0.134 A 
ATOM     56  C   UNL A   1      41.352  27.902  27.269  1.00  0.00     0.134 A 
ATOM     57  F   UNL A   1      39.331  25.449  29.005  1.00  0.00    -0.206 F 
ATOM     58  C   UNL A   1      40.166  25.442  26.853  1.00  0.00     0.040 A 
ATOM     59  C   UNL A   1      41.484  27.246  26.032  1.00  0.00     0.040 A 
ATOM     60  F   UNL A   1      41.864  29.138  27.324  1.00  0.00    -0.206 F 
ATOM     61  C   UNL A   1      40.896  26.008  25.822  1.00  0.00     0.006 A 
ENDBRANCH  40  54
BRANCH  41  62
ATOM     62  C   UNL A   1      40.125  33.112  36.335  1.00  0.00     0.057 A 
ATOM     63  C   UNL A   1      39.021  32.250  36.535  1.00  0.00     0.134 A 
ATOM     64  C   UNL A   1      40.131  34.284  37.099  1.00  0.00     0.134 A 
ATOM     65  F   UNL A   1      38.927  31.106  35.837  1.00  0.00    -0.206 F 
ATOM     66  C   UNL A   1      38.049  32.478  37.516  1.00  0.00     0.040 A 
ATOM     67  C   UNL A   1      39.144  34.537  38.069  1.00  0.00     0.040 A 
ATOM     68  F   UNL A   1      41.131  35.168  36.987  1.00  0.00    -0.206 F 
ATOM     69  C   UNL A   1      38.122  33.617  38.307  1.00  0.00     0.006 A 
ENDBRANCH  41  62
BRANCH  53  70
ATOM     70  C   UNL A   1      43.313  26.845  34.506  1.00  0.00     0.057 A 
ATOM     71  C   UNL A   1      42.490  25.839  35.028  1.00  0.00     0.134 A 
ATOM     72  C   UNL A   1      44.634  26.452  34.192  1.00  0.00     0.134 A 
ATOM     73  F   UNL A   1      41.185  26.049  35.257  1.00  0.00    -0.206 F 
ATOM     74  C   UNL A   1      42.961  24.549  35.280  1.00  0.00     0.040 A 
ATOM     75  C   UNL A   1      45.092  25.148  34.372  1.00  0.00     0.040 A 
ATOM     76  F   UNL A   1      45.522  27.306  33.662  1.00  0.00    -0.206 F 
ATOM     77  C   UNL A   1      44.259  24.195  34.937  1.00  0.00     0.006 A 
ENDBRANCH  53  70
ENDBRANCH  27  28
ENDBRANCH  20  22
ENDBRANCH  19  20
ENDBRANCH   1  19
TORSDOF 12
ENDMDL
MODEL 2
REMARK VINA RESULT:     -11.3      3.456      5.212
REMARK SMILES Cc1cccc(-c2cc(C(=O)OCCOC(=O)c3ccc(-c4c5nc(c(-c6c(F)cccc6F)c6ccc([nH]6)c(-c6c(F)cccc6F)c6nc(c(-c7c(F)cccc7F)c7ccc4[nH]7)C=C6)C=C5)cc3)ccn2)c1
REMARK SMILES IDX 14 1 13 2 12 3 10 4 11 5 9 6 7 7 8 8 74 9 73 10 72 11 6 12
REMARK SMILES IDX 1 13 2 14 3 15 75 16 4 17 5 18 15 19 16 20 17 21 18 22 19 23
REMARK SMILES IDX 71 24 20 25 70 26 21 27 22 28 23 29 64 30 24 31 69 32 63 33
REMARK SMILES IDX 65 34 25 35 68 36 62 37 61 38 26 40 52 41 35 42 51 43 36 44
REMARK SMILES IDX 39 45 50 46 66 47 37 48 38 49 49 51 67 52 40 53 27 54 28 55
REMARK SMILES IDX 33 56 29 57 30 58 32 59 34 60 31 61 53 62 54 63 59 64 55 65
REMARK SMILES IDX 56 66 58 67 60 68 57 69 41 70 42 71 47 72 43 73 44 74 46 75
REMARK SMILES IDX 48 76 45 77
REMARK H PARENT 65 39 39 50
REMARK Flexibility Score: inf
ROOT
ATOM      1  C   UNL A   1      33.302  29.971  27.241  1.00  0.00     0.275 C 
ENDROOT
BRANCH   1   2
ATOM      2  C   UNL A   1      33.641  28.464  27.146  1.00  0.00     0.275 C 
BRANCH   2   3
ATOM      3  O   UNL A   1      33.132  27.658  26.075  1.00  0.00    -0.458 OA
BRANCH   3   4
ATOM      4  C   UNL A   1      31.814  27.423  26.001  1.00  0.00     0.338 C 
ATOM      5  O   UNL A   1      31.079  27.045  26.908  1.00  0.00    -0.246 OA
BRANCH   4   6
ATOM      6  C   UNL A   1      31.369  27.629  24.617  1.00  0.00     0.063 A 
ATOM      7  C   UNL A   1      30.333  28.995  22.972  1.00  0.00     0.071 A 
ATOM      8  C   UNL A   1      30.928  28.885  24.221  1.00  0.00     0.044 A 
ATOM      9  N   UNL A   1      30.286  27.966  22.089  1.00  0.00    -0.256 NA
ATOM     10  C   UNL A   1      30.784  26.775  22.485  1.00  0.00     0.112 A 
ATOM     11  C   UNL A   1      31.282  26.544  23.750  1.00  0.00     0.036 A 
BRANCH   7  12
ATOM     12  C   UNL A   1      29.462  30.138  22.692  1.00  0.00     0.000 A 
ATOM     13  C   UNL A   1      27.968  32.056  19.752  1.00  0.00     0.044 C 
ATOM     14  C   UNL A   1      28.383  31.679  21.142  1.00  0.00    -0.050 A 
ATOM     15  C   UNL A   1      28.165  32.575  22.197  1.00  0.00     0.003 A 
ATOM     16  C   UNL A   1      29.030  30.460  21.397  1.00  0.00     0.013 A 
ATOM     17  C   UNL A   1      28.554  32.251  23.493  1.00  0.00     0.001 A 
ATOM     18  C   UNL A   1      29.190  31.037  23.738  1.00  0.00     0.010 A 
ENDBRANCH   7  12
ENDBRANCH   4   6
ENDBRANCH   3   4
ENDBRANCH   2   3
ENDBRANCH   1   2
BRANCH   1  19
ATOM     19  O   UNL A   1      34.241  31.069  27.480  1.00  0.00    -0.458 OA
BRANCH  19  20
ATOM     20  C   UNL A   1      34.937  31.410  28.585  1.00  0.00     0.338 C 
ATOM     21  O   UNL A   1      34.629  32.326  29.335  1.00  0.00    -0.246 OA
BRANCH  20  22
ATOM     22  C   UNL A   1      36.177  30.671  28.786  1.00  0.00     0.060 A 
ATOM     23  C   UNL A   1      36.304  29.805  29.883  1.00  0.00     0.016 A 
ATOM     24  C   UNL A   1      37.163  30.787  27.815  1.00  0.00     0.016 A 
ATOM     25  C   UNL A   1      37.391  28.953  29.956  1.00  0.00     0.010 A 
ATOM     26  C   UNL A   1      38.152  29.850  27.796  1.00  0.00     0.010 A 
ATOM     27  C   UNL A   1      38.295  28.996  28.901  1.00  0.00    -0.014 A 
BRANCH  27  28
ATOM     28  C   UNL A   1      39.651  28.512  29.013  1.00  0.00     0.031 A 
ATOM     29  C   UNL A   1      39.991  27.148  28.616  1.00  0.00     0.074 A 
ATOM     30  C   UNL A   1      40.483  29.549  29.265  1.00  0.00     0.049 A 
ATOM     31  N   UNL A   1      41.035  26.526  29.026  1.00  0.00    -0.248 NA
ATOM     32  C   UNL A   1      39.145  26.330  27.747  1.00  0.00     0.031 C 
ATOM     33  C   UNL A   1      41.905  29.730  29.074  1.00  0.00     0.029 A 
ATOM     34  N   UNL A   1      40.077  30.747  29.877  1.00  0.00    -0.354 N 
ATOM     35  C   UNL A   1      41.201  25.436  28.198  1.00  0.00     0.074 A 
ATOM     36  C   UNL A   1      39.929  25.261  27.541  1.00  0.00     0.031 C 
ATOM     37  C   UNL A   1      42.300  30.788  29.815  1.00  0.00     0.029 A 
ATOM     38  C   UNL A   1      41.155  31.233  30.608  1.00  0.00     0.049 A 
ATOM     39  H   UNL A   1      39.190  31.167  29.802  1.00  0.00     0.167 HD
ATOM     40  C   UNL A   1      42.469  24.963  28.009  1.00  0.00     0.037 A 
ATOM     41  C   UNL A   1      41.039  31.171  31.969  1.00  0.00     0.037 A 
ATOM     42  C   UNL A   1      43.406  25.805  28.756  1.00  0.00     0.049 A 
ATOM     43  C   UNL A   1      41.957  30.098  32.506  1.00  0.00     0.074 A 
ATOM     44  C   UNL A   1      44.119  26.929  28.366  1.00  0.00     0.029 A 
ATOM     45  N   UNL A   1      43.360  25.827  30.145  1.00  0.00    -0.354 N 
ATOM     46  N   UNL A   1      42.300  29.024  31.845  1.00  0.00    -0.248 NA
ATOM     47  C   UNL A   1      42.632  30.214  33.793  1.00  0.00     0.031 C 
ATOM     48  C   UNL A   1      44.417  27.680  29.534  1.00  0.00     0.029 A 
ATOM     49  C   UNL A   1      43.886  27.015  30.626  1.00  0.00     0.049 A 
ATOM     50  H   UNL A   1      43.004  25.102  30.708  1.00  0.00     0.167 HD
ATOM     51  C   UNL A   1      43.283  28.369  32.534  1.00  0.00     0.074 A 
ATOM     52  C   UNL A   1      43.437  29.138  33.759  1.00  0.00     0.031 C 
ATOM     53  C   UNL A   1      43.937  27.269  32.056  1.00  0.00     0.037 A 
BRANCH  40  54
ATOM     54  C   UNL A   1      42.904  24.016  26.912  1.00  0.00     0.057 A 
ATOM     55  C   UNL A   1      43.020  22.631  27.166  1.00  0.00     0.134 A 
ATOM     56  C   UNL A   1      43.223  24.389  25.594  1.00  0.00     0.134 A 
ATOM     57  F   UNL A   1      42.686  22.099  28.348  1.00  0.00    -0.206 F 
ATOM     58  C   UNL A   1      43.484  21.710  26.217  1.00  0.00     0.040 A 
ATOM     59  C   UNL A   1      43.717  23.480  24.642  1.00  0.00     0.040 A 
ATOM     60  F   UNL A   1      43.026  25.637  25.152  1.00  0.00    -0.206 F 
ATOM     61  C   UNL A   1      43.856  22.135  24.954  1.00  0.00     0.006 A 
ENDBRANCH  40  54
BRANCH  41  62
ATOM     62  C   UNL A   1      39.652  31.486  32.463  1.00  0.00     0.057 A 
ATOM     63  C   UNL A   1      39.119  32.769  32.199  1.00  0.00     0.134 A 
ATOM     64  C   UNL A   1      38.736  30.520  32.892  1.00  0.00     0.134 A 
ATOM     65  F   UNL A   1      39.927  33.762  31.792  1.00  0.00    -0.206 F 
ATOM     66  C   UNL A   1      37.746  33.043  32.241  1.00  0.00     0.040 A 
ATOM     67  C   UNL A   1      37.357  30.792  32.965  1.00  0.00     0.040 A 
ATOM     68  F   UNL A   1      39.136  29.272  33.169  1.00  0.00    -0.206 F 
ATOM     69  C   UNL A   1      36.855  32.042  32.603  1.00  0.00     0.006 A 
ENDBRANCH  41  62
BRANCH  53  70
ATOM     70  C   UNL A   1      44.777  26.356  32.899  1.00  0.00     0.057 A 
ATOM     71  C   UNL A   1      44.238  25.480  33.850  1.00  0.00     0.134 A 
ATOM     72  C   UNL A   1      46.155  26.193  32.631  1.00  0.00     0.134 A 
ATOM     73  F   UNL A   1      42.922  25.450  34.110  1.00  0.00    -0.206 F 
ATOM     74  C   UNL A   1      45.023  24.550  34.534  1.00  0.00     0.040 A 
ATOM     75  C   UNL A   1      46.932  25.219  33.256  1.00  0.00     0.040 A 
ATOM     76  F   UNL A   1      46.795  26.947  31.724  1.00  0.00    -0.206 F 
ATOM     77  C   UNL A   1      46.370  24.406  34.227  1.00  0.00     0.006 A 
ENDBRANCH  53  70
ENDBRANCH  27  28
ENDBRANCH  20  22
ENDBRANCH  19  20
ENDBRANCH   1  19
TORSDOF 12
ENDMDL
MODEL 3
REMARK VINA RESULT:     -11.3      2.773      4.763
REMARK SMILES Cc1cccc(-c2cc(C(=O)OCCOC(=O)c3ccc(-c4c5nc(c(-c6c(F)cccc6F)c6ccc([nH]6)c(-c6c(F)cccc6F)c6nc(c(-c7c(F)cccc7F)c7ccc4[nH]7)C=C6)C=C5)cc3)ccn2)c1
REMARK SMILES IDX 14 1 13 2 12 3 10 4 11 5 9 6 7 7 8 8 74 9 73 10 72 11 6 12
REMARK SMILES IDX 1 13 2 14 3 15 75 16 4 17 5 18 15 19 16 20 17 21 18 22 19 23
REMARK SMILES IDX 71 24 20 25 70 26 21 27 22 28 23 29 64 30 24 31 69 32 63 33
REMARK SMILES IDX 65 34 25 35 68 36 62 37 61 38 26 40 52 41 35 42 51 43 36 44
REMARK SMILES IDX 39 45 50 46 66 47 37 48 38 49 49 51 67 52 40 53 27 54 28 55
REMARK SMILES IDX 33 56 29 57 30 58 32 59 34 60 31 61 53 62 54 63 59 64 55 65
REMARK SMILES IDX 56 66 58 67 60 68 57 69 41 70 42 71 47 72 43 73 44 74 46 75
REMARK SMILES IDX 48 76 45 77
REMARK H PARENT 65 39 39 50
REMARK Flexibility Score: inf
ROOT
ATOM      1  C   UNL A   1      33.346  30.070  27.259  1.00  0.00     0.275 C 
ENDROOT
BRANCH   1   2
ATOM      2  C   UNL A   1      32.071  30.467  26.476  1.00  0.00     0.275 C 
BRANCH   2   3
ATOM      3  O   UNL A   1      31.634  29.705  25.343  1.00  0.00    -0.458 OA
BRANCH   3   4
ATOM      4  C   UNL A   1      32.515  28.933  24.692  1.00  0.00     0.338 C 
ATOM      5  O   UNL A   1      33.244  29.266  23.761  1.00  0.00    -0.246 OA
BRANCH   4   6
ATOM      6  C   UNL A   1      32.439  27.567  25.225  1.00  0.00     0.063 A 
ATOM      7  C   UNL A   1      33.385  25.401  25.473  1.00  0.00     0.071 A 
ATOM      8  C   UNL A   1      33.552  26.738  25.141  1.00  0.00     0.044 A 
ATOM      9  N   UNL A   1      32.231  24.912  25.989  1.00  0.00    -0.256 NA
ATOM     10  C   UNL A   1      31.189  25.762  26.117  1.00  0.00     0.112 A 
ATOM     11  C   UNL A   1      31.227  27.076  25.700  1.00  0.00     0.036 A 
BRANCH   7  12
ATOM     12  C   UNL A   1      34.352  24.417  24.982  1.00  0.00     0.000 A 
ATOM     13  C   UNL A   1      37.806  23.017  25.799  1.00  0.00     0.044 C 
ATOM     14  C   UNL A   1      36.526  23.319  25.080  1.00  0.00    -0.050 A 
ATOM     15  C   UNL A   1      36.343  22.857  23.769  1.00  0.00     0.003 A 
ATOM     16  C   UNL A   1      35.524  24.096  25.682  1.00  0.00     0.013 A 
ATOM     17  C   UNL A   1      35.168  23.137  23.077  1.00  0.00     0.001 A 
ATOM     18  C   UNL A   1      34.177  23.903  23.685  1.00  0.00     0.010 A 
ENDBRANCH   7  12
ENDBRANCH   4   6
ENDBRANCH   3   4
ENDBRANCH   2   3
ENDBRANCH   1   2
BRANCH   1  19
ATOM     19  O   UNL A   1      34.499  30.924  27.551  1.00  0.00    -0.458 OA
BRANCH  19  20
ATOM     20  C   UNL A   1      35.139  31.177  28.713  1.00  0.00     0.338 C 
ATOM     21  O   UNL A   1      34.769  32.003  29.534  1.00  0.00    -0.246 OA
BRANCH  20  22
ATOM     22  C   UNL A   1      36.396  30.461  28.893  1.00  0.00     0.060 A 
ATOM     23  C   UNL A   1      36.607  29.704  30.057  1.00  0.00     0.016 A 
ATOM     24  C   UNL A   1      37.309  30.484  27.848  1.00  0.00     0.016 A 
ATOM     25  C   UNL A   1      37.703  28.864  30.132  1.00  0.00     0.010 A 
ATOM     26  C   UNL A   1      38.301  29.551  27.847  1.00  0.00     0.010 A 
ATOM     27  C   UNL A   1      38.529  28.807  29.015  1.00  0.00    -0.014 A 
BRANCH  27  28
ATOM     28  C   UNL A   1      39.894  28.337  29.076  1.00  0.00     0.031 A 
ATOM     29  C   UNL A   1      40.232  26.976  28.667  1.00  0.00     0.074 A 
ATOM     30  C   UNL A   1      40.724  29.382  29.294  1.00  0.00     0.049 A 
ATOM     31  N   UNL A   1      41.297  26.365  29.036  1.00  0.00    -0.248 NA
ATOM     32  C   UNL A   1      39.362  26.148  27.831  1.00  0.00     0.031 C 
ATOM     33  C   UNL A   1      42.136  29.577  29.049  1.00  0.00     0.029 A 
ATOM     34  N   UNL A   1      40.330  30.577  29.921  1.00  0.00    -0.354 N 
ATOM     35  C   UNL A   1      41.443  25.275  28.204  1.00  0.00     0.074 A 
ATOM     36  C   UNL A   1      40.148  25.087  27.596  1.00  0.00     0.031 C 
ATOM     37  C   UNL A   1      42.548  30.640  29.774  1.00  0.00     0.029 A 
ATOM     38  C   UNL A   1      41.430  31.074  30.610  1.00  0.00     0.049 A 
ATOM     39  H   UNL A   1      39.435  30.987  29.880  1.00  0.00     0.167 HD
ATOM     40  C   UNL A   1      42.707  24.815  27.966  1.00  0.00     0.037 A 
ATOM     41  C   UNL A   1      41.367  31.012  31.974  1.00  0.00     0.037 A 
ATOM     42  C   UNL A   1      43.663  25.668  28.675  1.00  0.00     0.049 A 
ATOM     43  C   UNL A   1      42.316  29.949  32.477  1.00  0.00     0.074 A 
ATOM     44  C   UNL A   1      44.349  26.799  28.258  1.00  0.00     0.029 A 
ATOM     45  N   UNL A   1      43.671  25.691  30.065  1.00  0.00    -0.354 N 
ATOM     46  N   UNL A   1      42.644  28.878  31.803  1.00  0.00    -0.248 NA
ATOM     47  C   UNL A   1      43.039  30.073  33.736  1.00  0.00     0.031 C 
ATOM     48  C   UNL A   1      44.685  27.553  29.413  1.00  0.00     0.029 A 
ATOM     49  C   UNL A   1      44.202  26.884  30.525  1.00  0.00     0.049 A 
ATOM     50  H   UNL A   1      43.344  24.963  30.642  1.00  0.00     0.167 HD
ATOM     51  C   UNL A   1      43.659  28.234  32.454  1.00  0.00     0.074 A 
ATOM     52  C   UNL A   1      43.852  29.005  33.671  1.00  0.00     0.031 C 
ATOM     53  C   UNL A   1      44.306  27.141  31.951  1.00  0.00     0.037 A 
BRANCH  40  54
ATOM     54  C   UNL A   1      43.109  23.872  26.853  1.00  0.00     0.057 A 
ATOM     55  C   UNL A   1      43.021  22.474  27.033  1.00  0.00     0.134 A 
ATOM     56  C   UNL A   1      43.588  24.261  25.590  1.00  0.00     0.134 A 
ATOM     57  F   UNL A   1      42.518  21.936  28.152  1.00  0.00    -0.206 F 
ATOM     58  C   UNL A   1      43.441  21.545  26.072  1.00  0.00     0.040 A 
ATOM     59  C   UNL A   1      44.041  23.340  24.629  1.00  0.00     0.040 A 
ATOM     60  F   UNL A   1      43.595  25.544  25.207  1.00  0.00    -0.206 F 
ATOM     61  C   UNL A   1      43.975  21.976  24.870  1.00  0.00     0.006 A 
ENDBRANCH  40  54
BRANCH  41  62
ATOM     62  C   UNL A   1      39.996  31.314  32.521  1.00  0.00     0.057 A 
ATOM     63  C   UNL A   1      39.241  30.251  33.067  1.00  0.00     0.134 A 
ATOM     64  C   UNL A   1      39.536  32.603  32.809  1.00  0.00     0.134 A 
ATOM     65  F   UNL A   1      39.603  28.979  32.834  1.00  0.00    -0.206 F 
ATOM     66  C   UNL A   1      38.167  30.455  33.943  1.00  0.00     0.040 A 
ATOM     67  C   UNL A   1      38.441  32.820  33.666  1.00  0.00     0.040 A 
ATOM     68  F   UNL A   1      40.179  33.681  32.342  1.00  0.00    -0.206 F 
ATOM     69  C   UNL A   1      37.778  31.749  34.265  1.00  0.00     0.006 A 
ENDBRANCH  41  62
BRANCH  53  70
ATOM     70  C   UNL A   1      45.187  26.236  32.762  1.00  0.00     0.057 A 
ATOM     71  C   UNL A   1      44.691  25.198  33.560  1.00  0.00     0.134 A 
ATOM     72  C   UNL A   1      46.591  26.268  32.603  1.00  0.00     0.134 A 
ATOM     73  F   UNL A   1      43.374  24.985  33.696  1.00  0.00    -0.206 F 
ATOM     74  C   UNL A   1      45.532  24.290  34.207  1.00  0.00     0.040 A 
ATOM     75  C   UNL A   1      47.434  25.323  33.185  1.00  0.00     0.040 A 
ATOM     76  F   UNL A   1      47.199  27.193  31.845  1.00  0.00    -0.206 F 
ATOM     77  C   UNL A   1      46.906  24.340  34.008  1.00  0.00     0.006 A 
ENDBRANCH  53  70
ENDBRANCH  27  28
ENDBRANCH  20  22
ENDBRANCH  19  20
ENDBRANCH   1  19
TORSDOF 12
ENDMDL
