MODEL 1
REMARK VINA RESULT:     -10.5      0.000      0.000
REMARK SMILES CCCc1cc(-n2ccc(C(=O)OCCOC(=O)c3ccc(-c4c5nc(c(-c6c(F)cccc6F)c6ccc([nH]6)c(-c6c(F)cccc6F)c6nc(c(-c7c(F)cccc7F)c7ccc4[nH]7)C=C6)C=C5)cc3)n2)nc(-c2ccc(C(F)(F)F)cc2)n1
REMARK SMILES IDX 14 1 13 2 11 3 12 4 10 5 7 6 8 7 73 8 9 9 6 10 4 11 5 12
REMARK SMILES IDX 86 13 75 14 74 15 3 16 2 17 1 18 76 19 77 20 85 21 78 22
REMARK SMILES IDX 84 23 79 24 80 25 81 26 82 27 83 28 15 29 16 30 17 31 18 32
REMARK SMILES IDX 19 33 20 34 72 35 21 36 71 37 22 38 23 39 24 40 65 41 25 42
REMARK SMILES IDX 70 43 64 44 66 45 26 46 69 47 63 48 62 49 27 51 53 52 36 53
REMARK SMILES IDX 52 54 37 55 40 56 51 57 67 58 38 59 39 60 50 62 68 63 41 64
REMARK SMILES IDX 28 65 29 66 34 67 30 68 31 69 33 70 35 71 32 72 54 73 55 74
REMARK SMILES IDX 60 75 56 76 57 77 59 78 61 79 58 80 42 81 43 82 48 83 44 84
REMARK SMILES IDX 45 85 47 86 49 87 46 88
REMARK H PARENT 66 50 40 61
REMARK Flexibility Score: inf
ROOT
ATOM      1  C   UNL A   1      33.378  35.071  28.765  1.00  0.00     0.275 C 
ENDROOT
BRANCH   1   2
ATOM      2  O   UNL A   1      32.653  34.916  29.995  1.00  0.00    -0.457 OA
BRANCH   2   3
ATOM      3  C   UNL A   1      33.029  35.734  31.026  1.00  0.00     0.358 C 
ATOM      4  O   UNL A   1      32.530  36.838  31.250  1.00  0.00    -0.244 OA
BRANCH   3   5
ATOM      5  C   UNL A   1      33.975  35.093  31.946  1.00  0.00     0.170 A 
ATOM      6  N   UNL A   1      35.764  34.169  32.678  1.00  0.00    -0.222 N 
ATOM      7  C   UNL A   1      34.785  33.841  33.590  1.00  0.00     0.118 A 
ATOM      8  N   UNL A   1      35.292  34.991  31.706  1.00  0.00    -0.159 NA
ATOM      9  C   UNL A   1      33.636  34.465  33.173  1.00  0.00     0.058 A 
BRANCH   6  10
ATOM     10  C   UNL A   1      37.119  33.733  32.671  1.00  0.00     0.157 A 
ATOM     11  C   UNL A   1      38.896  32.524  33.622  1.00  0.00     0.047 A 
ATOM     12  C   UNL A   1      37.613  33.023  33.750  1.00  0.00     0.073 A 
ATOM     13  N   UNL A   1      39.676  32.833  32.562  1.00  0.00    -0.233 NA
ATOM     14  C   UNL A   1      39.134  33.603  31.601  1.00  0.00     0.161 A 
ATOM     15  N   UNL A   1      37.866  34.029  31.589  1.00  0.00    -0.209 NA
BRANCH  11  16
ATOM     16  C   UNL A   1      39.528  31.636  34.667  1.00  0.00     0.056 C 
BRANCH  16  17
ATOM     17  C   UNL A   1      39.116  31.877  36.126  1.00  0.00     0.003 C 
ATOM     18  C   UNL A   1      40.262  32.333  37.019  1.00  0.00     0.004 C 
ENDBRANCH  16  17
ENDBRANCH  11  16
BRANCH  14  19
ATOM     19  C   UNL A   1      40.024  34.162  30.583  1.00  0.00     0.019 A 
ATOM     20  C   UNL A   1      39.536  34.878  29.481  1.00  0.00     0.012 A 
ATOM     21  C   UNL A   1      41.415  33.975  30.687  1.00  0.00     0.012 A 
ATOM     22  C   UNL A   1      40.412  35.397  28.519  1.00  0.00     0.014 A 
ATOM     23  C   UNL A   1      42.290  34.475  29.721  1.00  0.00     0.014 A 
ATOM     24  C   UNL A   1      41.796  35.194  28.626  1.00  0.00     0.056 A 
BRANCH  24  25
ATOM     25  C   UNL A   1      42.729  35.747  27.578  1.00  0.00     0.416 C 
ATOM     26  F   UNL A   1      42.397  37.015  27.202  1.00  0.00    -0.166 F 
ATOM     27  F   UNL A   1      44.019  35.811  28.007  1.00  0.00    -0.166 F 
ATOM     28  F   UNL A   1      42.754  35.016  26.427  1.00  0.00    -0.166 F 
ENDBRANCH  24  25
ENDBRANCH  14  19
ENDBRANCH   6  10
ENDBRANCH   3   5
ENDBRANCH   2   3
ENDBRANCH   1   2
BRANCH   1  29
ATOM     29  C   UNL A   1      33.488  33.753  28.007  1.00  0.00     0.275 C 
BRANCH  29  30
ATOM     30  O   UNL A   1      34.701  33.061  28.310  1.00  0.00    -0.458 OA
BRANCH  30  31
ATOM     31  C   UNL A   1      34.750  31.772  27.908  1.00  0.00     0.338 C 
ATOM     32  O   UNL A   1      33.917  31.172  27.251  1.00  0.00    -0.246 OA
BRANCH  31  33
ATOM     33  C   UNL A   1      35.879  31.104  28.570  1.00  0.00     0.060 A 
ATOM     34  C   UNL A   1      36.956  31.901  28.969  1.00  0.00     0.016 A 
ATOM     35  C   UNL A   1      35.966  29.703  28.561  1.00  0.00     0.016 A 
ATOM     36  C   UNL A   1      38.171  31.296  29.223  1.00  0.00     0.010 A 
ATOM     37  C   UNL A   1      37.180  29.103  28.808  1.00  0.00     0.010 A 
ATOM     38  C   UNL A   1      38.285  29.909  29.070  1.00  0.00    -0.014 A 
BRANCH  38  39
ATOM     39  C   UNL A   1      39.587  29.308  29.278  1.00  0.00     0.031 A 
ATOM     40  C   UNL A   1      39.918  29.055  30.702  1.00  0.00     0.074 A 
ATOM     41  C   UNL A   1      40.361  28.881  28.262  1.00  0.00     0.049 A 
ATOM     42  N   UNL A   1      40.906  29.527  31.388  1.00  0.00    -0.248 NA
ATOM     43  C   UNL A   1      38.960  28.262  31.491  1.00  0.00     0.031 C 
ATOM     44  C   UNL A   1      40.028  28.787  26.839  1.00  0.00     0.029 A 
ATOM     45  N   UNL A   1      41.598  28.326  28.323  1.00  0.00    -0.354 N 
ATOM     46  C   UNL A   1      40.797  28.951  32.651  1.00  0.00     0.074 A 
ATOM     47  C   UNL A   1      39.513  28.304  32.702  1.00  0.00     0.031 C 
ATOM     48  C   UNL A   1      40.939  27.999  26.223  1.00  0.00     0.029 A 
ATOM     49  C   UNL A   1      41.976  27.642  27.178  1.00  0.00     0.049 A 
ATOM     50  H   UNL A   1      42.180  28.402  29.114  1.00  0.00     0.167 HD
ATOM     51  C   UNL A   1      41.867  28.863  33.486  1.00  0.00     0.037 A 
ATOM     52  C   UNL A   1      43.018  26.780  27.072  1.00  0.00     0.037 A 
ATOM     53  C   UNL A   1      42.899  29.801  33.128  1.00  0.00     0.049 A 
ATOM     54  C   UNL A   1      43.932  27.043  28.215  1.00  0.00     0.074 A 
ATOM     55  C   UNL A   1      42.951  31.176  32.997  1.00  0.00     0.029 A 
ATOM     56  N   UNL A   1      44.018  29.330  32.487  1.00  0.00    -0.354 N 
ATOM     57  N   UNL A   1      44.654  28.121  28.339  1.00  0.00    -0.248 NA
ATOM     58  C   UNL A   1      43.702  26.301  29.447  1.00  0.00     0.031 C 
ATOM     59  C   UNL A   1      43.790  31.405  31.867  1.00  0.00     0.029 A 
ATOM     60  C   UNL A   1      44.235  30.162  31.419  1.00  0.00     0.049 A 
ATOM     61  H   UNL A   1      44.558  28.547  32.744  1.00  0.00     0.167 HD
ATOM     62  C   UNL A   1      44.608  28.424  29.693  1.00  0.00     0.074 A 
ATOM     63  C   UNL A   1      44.082  27.222  30.336  1.00  0.00     0.031 C 
ATOM     64  C   UNL A   1      44.725  29.709  30.139  1.00  0.00     0.037 A 
BRANCH  51  65
ATOM     65  C   UNL A   1      42.119  27.686  34.391  1.00  0.00     0.057 A 
ATOM     66  C   UNL A   1      41.854  27.806  35.767  1.00  0.00     0.134 A 
ATOM     67  C   UNL A   1      42.882  26.559  34.022  1.00  0.00     0.134 A 
ATOM     68  F   UNL A   1      41.154  28.845  36.245  1.00  0.00    -0.206 F 
ATOM     69  C   UNL A   1      42.375  26.912  36.709  1.00  0.00     0.040 A 
ATOM     70  C   UNL A   1      43.361  25.631  34.949  1.00  0.00     0.040 A 
ATOM     71  F   UNL A   1      43.292  26.349  32.764  1.00  0.00    -0.206 F 
ATOM     72  C   UNL A   1      43.138  25.825  36.302  1.00  0.00     0.006 A 
ENDBRANCH  51  65
BRANCH  52  73
ATOM     73  C   UNL A   1      43.118  25.551  26.251  1.00  0.00     0.057 A 
ATOM     74  C   UNL A   1      44.165  25.382  25.332  1.00  0.00     0.134 A 
ATOM     75  C   UNL A   1      42.359  24.401  26.532  1.00  0.00     0.134 A 
ATOM     76  F   UNL A   1      44.973  26.407  25.024  1.00  0.00    -0.206 F 
ATOM     77  C   UNL A   1      44.458  24.140  24.752  1.00  0.00     0.040 A 
ATOM     78  C   UNL A   1      42.633  23.158  25.953  1.00  0.00     0.040 A 
ATOM     79  F   UNL A   1      41.381  24.420  27.449  1.00  0.00    -0.206 F 
ATOM     80  C   UNL A   1      43.696  23.020  25.071  1.00  0.00     0.006 A 
ENDBRANCH  52  73
BRANCH  64  81
ATOM     81  C   UNL A   1      45.129  30.770  29.156  1.00  0.00     0.057 A 
ATOM     82  C   UNL A   1      44.222  31.477  28.352  1.00  0.00     0.134 A 
ATOM     83  C   UNL A   1      46.458  31.208  29.141  1.00  0.00     0.134 A 
ATOM     84  F   UNL A   1      42.912  31.207  28.379  1.00  0.00    -0.206 F 
ATOM     85  C   UNL A   1      44.629  32.538  27.536  1.00  0.00     0.040 A 
ATOM     86  C   UNL A   1      46.872  32.287  28.358  1.00  0.00     0.040 A 
ATOM     87  F   UNL A   1      47.372  30.621  29.931  1.00  0.00    -0.206 F 
ATOM     88  C   UNL A   1      45.958  32.951  27.543  1.00  0.00     0.006 A 
ENDBRANCH  64  81
ENDBRANCH  38  39
ENDBRANCH  31  33
ENDBRANCH  30  31
ENDBRANCH  29  30
ENDBRANCH   1  29
TORSDOF 16
ENDMDL
MODEL 2
REMARK VINA RESULT:     -10.5      5.569     11.367
REMARK SMILES CCCc1cc(-n2ccc(C(=O)OCCOC(=O)c3ccc(-c4c5nc(c(-c6c(F)cccc6F)c6ccc([nH]6)c(-c6c(F)cccc6F)c6nc(c(-c7c(F)cccc7F)c7ccc4[nH]7)C=C6)C=C5)cc3)n2)nc(-c2ccc(C(F)(F)F)cc2)n1
REMARK SMILES IDX 14 1 13 2 11 3 12 4 10 5 7 6 8 7 73 8 9 9 6 10 4 11 5 12
REMARK SMILES IDX 86 13 75 14 74 15 3 16 2 17 1 18 76 19 77 20 85 21 78 22
REMARK SMILES IDX 84 23 79 24 80 25 81 26 82 27 83 28 15 29 16 30 17 31 18 32
REMARK SMILES IDX 19 33 20 34 72 35 21 36 71 37 22 38 23 39 24 40 65 41 25 42
REMARK SMILES IDX 70 43 64 44 66 45 26 46 69 47 63 48 62 49 27 51 53 52 36 53
REMARK SMILES IDX 52 54 37 55 40 56 51 57 67 58 38 59 39 60 50 62 68 63 41 64
REMARK SMILES IDX 28 65 29 66 34 67 30 68 31 69 33 70 35 71 32 72 54 73 55 74
REMARK SMILES IDX 60 75 56 76 57 77 59 78 61 79 58 80 42 81 43 82 48 83 44 84
REMARK SMILES IDX 45 85 47 86 49 87 46 88
REMARK H PARENT 66 50 40 61
REMARK Flexibility Score: inf
ROOT
ATOM      1  C   UNL A   1      42.800  18.380  25.795  1.00  0.00     0.275 C 
ENDROOT
BRANCH   1   2
ATOM      2  O   UNL A   1      41.834  19.429  25.631  1.00  0.00    -0.457 OA
BRANCH   2   3
ATOM      3  C   UNL A   1      41.263  19.911  26.777  1.00  0.00     0.358 C 
ATOM      4  O   UNL A   1      41.677  19.668  27.911  1.00  0.00    -0.244 OA
BRANCH   3   5
ATOM      5  C   UNL A   1      40.201  20.890  26.517  1.00  0.00     0.170 A 
ATOM      6  N   UNL A   1      38.323  21.707  25.890  1.00  0.00    -0.222 N 
ATOM      7  C   UNL A   1      39.175  22.785  25.988  1.00  0.00     0.118 A 
ATOM      8  N   UNL A   1      38.923  20.553  26.277  1.00  0.00    -0.159 NA
ATOM      9  C   UNL A   1      40.375  22.296  26.441  1.00  0.00     0.058 A 
BRANCH   6  10
ATOM     10  C   UNL A   1      36.974  21.712  25.435  1.00  0.00     0.157 A 
ATOM     11  C   UNL A   1      35.003  20.584  24.829  1.00  0.00     0.047 A 
ATOM     12  C   UNL A   1      36.348  20.514  25.144  1.00  0.00     0.073 A 
ATOM     13  N   UNL A   1      34.370  21.768  24.674  1.00  0.00    -0.233 NA
ATOM     14  C   UNL A   1      35.088  22.884  24.896  1.00  0.00     0.161 A 
ATOM     15  N   UNL A   1      36.357  22.905  25.318  1.00  0.00    -0.209 NA
BRANCH  11  16
ATOM     16  C   UNL A   1      34.160  19.352  24.599  1.00  0.00     0.056 C 
BRANCH  16  17
ATOM     17  C   UNL A   1      34.907  18.041  24.317  1.00  0.00     0.003 C 
ATOM     18  C   UNL A   1      34.115  17.054  23.470  1.00  0.00     0.004 C 
ENDBRANCH  16  17
ENDBRANCH  11  16
BRANCH  14  19
ATOM     19  C   UNL A   1      34.511  24.166  24.489  1.00  0.00     0.019 A 
ATOM     20  C   UNL A   1      34.133  24.424  23.165  1.00  0.00     0.012 A 
ATOM     21  C   UNL A   1      34.335  25.189  25.440  1.00  0.00     0.012 A 
ATOM     22  C   UNL A   1      33.588  25.663  22.805  1.00  0.00     0.014 A 
ATOM     23  C   UNL A   1      33.809  26.432  25.081  1.00  0.00     0.014 A 
ATOM     24  C   UNL A   1      33.427  26.681  23.758  1.00  0.00     0.056 A 
BRANCH  24  25
ATOM     25  C   UNL A   1      32.850  28.015  23.355  1.00  0.00     0.416 C 
ATOM     26  F   UNL A   1      31.976  27.912  22.315  1.00  0.00    -0.166 F 
ATOM     27  F   UNL A   1      32.160  28.612  24.366  1.00  0.00    -0.166 F 
ATOM     28  F   UNL A   1      33.789  28.920  22.960  1.00  0.00    -0.166 F 
ENDBRANCH  24  25
ENDBRANCH  14  19
ENDBRANCH   6  10
ENDBRANCH   3   5
ENDBRANCH   2   3
ENDBRANCH   1   2
BRANCH   1  29
ATOM     29  C   UNL A   1      44.140  18.744  25.166  1.00  0.00     0.275 C 
BRANCH  29  30
ATOM     30  O   UNL A   1      44.521  20.089  25.461  1.00  0.00    -0.458 OA
BRANCH  30  31
ATOM     31  C   UNL A   1      44.674  20.898  24.390  1.00  0.00     0.338 C 
ATOM     32  O   UNL A   1      44.917  20.564  23.242  1.00  0.00    -0.246 OA
BRANCH  31  33
ATOM     33  C   UNL A   1      44.721  22.294  24.843  1.00  0.00     0.060 A 
ATOM     34  C   UNL A   1      45.501  22.581  25.968  1.00  0.00     0.016 A 
ATOM     35  C   UNL A   1      43.821  23.233  24.316  1.00  0.00     0.016 A 
ATOM     36  C   UNL A   1      45.271  23.758  26.652  1.00  0.00     0.010 A 
ATOM     37  C   UNL A   1      43.589  24.403  25.004  1.00  0.00     0.010 A 
ATOM     38  C   UNL A   1      44.267  24.623  26.199  1.00  0.00    -0.014 A 
BRANCH  38  39
ATOM     39  C   UNL A   1      44.002  25.819  26.972  1.00  0.00     0.031 A 
ATOM     40  C   UNL A   1      44.953  26.930  26.719  1.00  0.00     0.074 A 
ATOM     41  C   UNL A   1      42.904  25.960  27.739  1.00  0.00     0.049 A 
ATOM     42  N   UNL A   1      45.738  27.516  27.560  1.00  0.00    -0.248 NA
ATOM     43  C   UNL A   1      45.132  27.364  25.323  1.00  0.00     0.031 C 
ATOM     44  C   UNL A   1      41.740  25.076  27.837  1.00  0.00     0.029 A 
ATOM     45  N   UNL A   1      42.554  27.013  28.522  1.00  0.00    -0.354 N 
ATOM     46  C   UNL A   1      46.385  28.516  26.840  1.00  0.00     0.074 A 
ATOM     47  C   UNL A   1      46.086  28.284  25.451  1.00  0.00     0.031 C 
ATOM     48  C   UNL A   1      40.729  25.743  28.441  1.00  0.00     0.029 A 
ATOM     49  C   UNL A   1      41.214  27.042  28.877  1.00  0.00     0.049 A 
ATOM     50  H   UNL A   1      43.197  27.699  28.813  1.00  0.00     0.167 HD
ATOM     51  C   UNL A   1      46.939  29.593  27.459  1.00  0.00     0.037 A 
ATOM     52  C   UNL A   1      40.554  28.101  29.408  1.00  0.00     0.037 A 
ATOM     53  C   UNL A   1      47.186  29.336  28.853  1.00  0.00     0.049 A 
ATOM     54  C   UNL A   1      41.573  29.032  29.960  1.00  0.00     0.074 A 
ATOM     55  C   UNL A   1      47.924  28.394  29.546  1.00  0.00     0.029 A 
ATOM     56  N   UNL A   1      46.340  29.891  29.781  1.00  0.00    -0.354 N 
ATOM     57  N   UNL A   1      42.301  28.779  31.012  1.00  0.00    -0.248 NA
ATOM     58  C   UNL A   1      42.099  30.060  29.071  1.00  0.00     0.031 C 
ATOM     59  C   UNL A   1      47.136  28.081  30.692  1.00  0.00     0.029 A 
ATOM     60  C   UNL A   1      46.000  28.887  30.650  1.00  0.00     0.049 A 
ATOM     61  H   UNL A   1      46.036  30.828  29.815  1.00  0.00     0.167 HD
ATOM     62  C   UNL A   1      43.555  29.288  30.706  1.00  0.00     0.074 A 
ATOM     63  C   UNL A   1      43.348  30.140  29.537  1.00  0.00     0.031 C 
ATOM     64  C   UNL A   1      44.691  28.751  31.243  1.00  0.00     0.037 A 
BRANCH  51  65
ATOM     65  C   UNL A   1      46.918  30.984  26.881  1.00  0.00     0.057 A 
ATOM     66  C   UNL A   1      48.094  31.754  26.895  1.00  0.00     0.134 A 
ATOM     67  C   UNL A   1      45.736  31.697  26.592  1.00  0.00     0.134 A 
ATOM     68  F   UNL A   1      49.280  31.193  27.176  1.00  0.00    -0.206 F 
ATOM     69  C   UNL A   1      48.082  33.141  26.711  1.00  0.00     0.040 A 
ATOM     70  C   UNL A   1      45.720  33.073  26.353  1.00  0.00     0.040 A 
ATOM     71  F   UNL A   1      44.525  31.126  26.627  1.00  0.00    -0.206 F 
ATOM     72  C   UNL A   1      46.891  33.806  26.446  1.00  0.00     0.006 A 
ENDBRANCH  51  65
BRANCH  52  73
ATOM     73  C   UNL A   1      39.147  28.513  29.191  1.00  0.00     0.057 A 
ATOM     74  C   UNL A   1      38.234  28.547  30.256  1.00  0.00     0.134 A 
ATOM     75  C   UNL A   1      38.728  29.142  28.005  1.00  0.00     0.134 A 
ATOM     76  F   UNL A   1      38.552  28.009  31.442  1.00  0.00    -0.206 F 
ATOM     77  C   UNL A   1      36.994  29.192  30.157  1.00  0.00     0.040 A 
ATOM     78  C   UNL A   1      37.489  29.780  27.889  1.00  0.00     0.040 A 
ATOM     79  F   UNL A   1      39.542  29.241  26.944  1.00  0.00    -0.206 F 
ATOM     80  C   UNL A   1      36.623  29.821  28.973  1.00  0.00     0.006 A 
ENDBRANCH  52  73
BRANCH  64  81
ATOM     81  C   UNL A   1      44.549  27.742  32.346  1.00  0.00     0.057 A 
ATOM     82  C   UNL A   1      44.391  28.080  33.699  1.00  0.00     0.134 A 
ATOM     83  C   UNL A   1      44.398  26.392  32.012  1.00  0.00     0.134 A 
ATOM     84  F   UNL A   1      44.408  29.355  34.104  1.00  0.00    -0.206 F 
ATOM     85  C   UNL A   1      44.145  27.112  34.678  1.00  0.00     0.040 A 
ATOM     86  C   UNL A   1      44.117  25.420  32.974  1.00  0.00     0.040 A 
ATOM     87  F   UNL A   1      44.474  26.000  30.730  1.00  0.00    -0.206 F 
ATOM     88  C   UNL A   1      44.000  25.777  34.315  1.00  0.00     0.006 A 
ENDBRANCH  64  81
ENDBRANCH  38  39
ENDBRANCH  31  33
ENDBRANCH  30  31
ENDBRANCH  29  30
ENDBRANCH   1  29
TORSDOF 16
ENDMDL
MODEL 3
REMARK VINA RESULT:     -10.4      4.540      8.504
REMARK SMILES CCCc1cc(-n2ccc(C(=O)OCCOC(=O)c3ccc(-c4c5nc(c(-c6c(F)cccc6F)c6ccc([nH]6)c(-c6c(F)cccc6F)c6nc(c(-c7c(F)cccc7F)c7ccc4[nH]7)C=C6)C=C5)cc3)n2)nc(-c2ccc(C(F)(F)F)cc2)n1
REMARK SMILES IDX 14 1 13 2 11 3 12 4 10 5 7 6 8 7 73 8 9 9 6 10 4 11 5 12
REMARK SMILES IDX 86 13 75 14 74 15 3 16 2 17 1 18 76 19 77 20 85 21 78 22
REMARK SMILES IDX 84 23 79 24 80 25 81 26 82 27 83 28 15 29 16 30 17 31 18 32
REMARK SMILES IDX 19 33 20 34 72 35 21 36 71 37 22 38 23 39 24 40 65 41 25 42
REMARK SMILES IDX 70 43 64 44 66 45 26 46 69 47 63 48 62 49 27 51 53 52 36 53
REMARK SMILES IDX 52 54 37 55 40 56 51 57 67 58 38 59 39 60 50 62 68 63 41 64
REMARK SMILES IDX 28 65 29 66 34 67 30 68 31 69 33 70 35 71 32 72 54 73 55 74
REMARK SMILES IDX 60 75 56 76 57 77 59 78 61 79 58 80 42 81 43 82 48 83 44 84
REMARK SMILES IDX 45 85 47 86 49 87 46 88
REMARK H PARENT 66 50 40 61
REMARK Flexibility Score: inf
ROOT
ATOM      1  C   UNL A   1      32.377  30.418  26.181  1.00  0.00     0.275 C 
ENDROOT
BRANCH   1   2
ATOM      2  O   UNL A   1      32.847  29.191  25.602  1.00  0.00    -0.457 OA
BRANCH   2   3
ATOM      3  C   UNL A   1      31.886  28.283  25.245  1.00  0.00     0.358 C 
ATOM      4  O   UNL A   1      30.909  28.550  24.545  1.00  0.00    -0.244 OA
BRANCH   3   5
ATOM      5  C   UNL A   1      32.223  26.911  25.641  1.00  0.00     0.170 A 
ATOM      6  N   UNL A   1      33.313  25.075  25.820  1.00  0.00    -0.222 N 
ATOM      7  C   UNL A   1      32.016  24.764  26.162  1.00  0.00     0.118 A 
ATOM      8  N   UNL A   1      33.464  26.400  25.565  1.00  0.00    -0.159 NA
ATOM      9  C   UNL A   1      31.304  25.936  26.107  1.00  0.00     0.058 A 
BRANCH   6  10
ATOM     10  C   UNL A   1      34.416  24.181  25.707  1.00  0.00     0.157 A 
ATOM     11  C   UNL A   1      36.725  23.749  25.732  1.00  0.00     0.047 A 
ATOM     12  C   UNL A   1      35.704  24.681  25.718  1.00  0.00     0.073 A 
ATOM     13  N   UNL A   1      36.482  22.426  25.599  1.00  0.00    -0.233 NA
ATOM     14  C   UNL A   1      35.195  22.043  25.509  1.00  0.00     0.161 A 
ATOM     15  N   UNL A   1      34.145  22.864  25.606  1.00  0.00    -0.209 NA
BRANCH  11  16
ATOM     16  C   UNL A   1      38.178  24.141  25.858  1.00  0.00     0.056 C 
BRANCH  16  17
ATOM     17  C   UNL A   1      38.889  23.766  27.165  1.00  0.00     0.003 C 
ATOM     18  C   UNL A   1      39.278  24.966  28.019  1.00  0.00     0.004 C 
ENDBRANCH  16  17
ENDBRANCH  11  16
BRANCH  14  19
ATOM     19  C   UNL A   1      34.914  20.663  25.108  1.00  0.00     0.019 A 
ATOM     20  C   UNL A   1      33.611  20.212  24.857  1.00  0.00     0.012 A 
ATOM     21  C   UNL A   1      35.970  19.742  24.978  1.00  0.00     0.012 A 
ATOM     22  C   UNL A   1      33.373  18.885  24.480  1.00  0.00     0.014 A 
ATOM     23  C   UNL A   1      35.735  18.413  24.619  1.00  0.00     0.014 A 
ATOM     24  C   UNL A   1      34.432  17.971  24.364  1.00  0.00     0.056 A 
BRANCH  24  25
ATOM     25  C   UNL A   1      34.161  16.541  23.968  1.00  0.00     0.416 C 
ATOM     26  F   UNL A   1      34.957  15.657  24.634  1.00  0.00    -0.166 F 
ATOM     27  F   UNL A   1      32.880  16.160  24.228  1.00  0.00    -0.166 F 
ATOM     28  F   UNL A   1      34.362  16.293  22.643  1.00  0.00    -0.166 F 
ENDBRANCH  24  25
ENDBRANCH  14  19
ENDBRANCH   6  10
ENDBRANCH   3   5
ENDBRANCH   2   3
ENDBRANCH   1   2
BRANCH   1  29
ATOM     29  C   UNL A   1      33.192  30.810  27.408  1.00  0.00     0.275 C 
BRANCH  29  30
ATOM     30  O   UNL A   1      34.593  30.605  27.208  1.00  0.00    -0.458 OA
BRANCH  30  31
ATOM     31  C   UNL A   1      35.402  31.518  27.787  1.00  0.00     0.338 C 
ATOM     32  O   UNL A   1      35.375  32.728  27.638  1.00  0.00    -0.246 OA
BRANCH  31  33
ATOM     33  C   UNL A   1      36.495  30.823  28.480  1.00  0.00     0.060 A 
ATOM     34  C   UNL A   1      37.537  31.606  28.986  1.00  0.00     0.016 A 
ATOM     35  C   UNL A   1      36.597  29.426  28.404  1.00  0.00     0.016 A 
ATOM     36  C   UNL A   1      38.741  30.998  29.281  1.00  0.00     0.010 A 
ATOM     37  C   UNL A   1      37.801  28.823  28.692  1.00  0.00     0.010 A 
ATOM     38  C   UNL A   1      38.879  29.622  29.063  1.00  0.00    -0.014 A 
BRANCH  38  39
ATOM     39  C   UNL A   1      40.172  29.019  29.319  1.00  0.00     0.031 A 
ATOM     40  C   UNL A   1      40.513  28.901  30.758  1.00  0.00     0.074 A 
ATOM     41  C   UNL A   1      40.928  28.482  28.343  1.00  0.00     0.049 A 
ATOM     42  N   UNL A   1      41.515  29.420  31.386  1.00  0.00    -0.248 NA
ATOM     43  C   UNL A   1      39.549  28.208  31.629  1.00  0.00     0.031 C 
ATOM     44  C   UNL A   1      40.579  28.255  26.939  1.00  0.00     0.029 A 
ATOM     45  N   UNL A   1      42.156  27.912  28.448  1.00  0.00    -0.354 N 
ATOM     46  C   UNL A   1      41.410  28.973  32.700  1.00  0.00     0.074 A 
ATOM     47  C   UNL A   1      40.115  28.358  32.825  1.00  0.00     0.031 C 
ATOM     48  C   UNL A   1      41.471  27.393  26.396  1.00  0.00     0.029 A 
ATOM     49  C   UNL A   1      42.510  27.112  27.372  1.00  0.00     0.049 A 
ATOM     50  H   UNL A   1      42.747  28.055  29.223  1.00  0.00     0.167 HD
ATOM     51  C   UNL A   1      42.486  28.947  33.531  1.00  0.00     0.037 A 
ATOM     52  C   UNL A   1      43.536  26.225  27.344  1.00  0.00     0.037 A 
ATOM     53  C   UNL A   1      43.531  29.826  33.075  1.00  0.00     0.049 A 
ATOM     54  C   UNL A   1      44.466  26.582  28.447  1.00  0.00     0.074 A 
ATOM     55  C   UNL A   1      43.606  31.181  32.808  1.00  0.00     0.029 A 
ATOM     56  N   UNL A   1      44.635  29.274  32.474  1.00  0.00    -0.354 N 
ATOM     57  N   UNL A   1      45.208  27.653  28.459  1.00  0.00    -0.248 NA
ATOM     58  C   UNL A   1      44.236  25.968  29.748  1.00  0.00     0.031 C 
ATOM     59  C   UNL A   1      44.437  31.282  31.655  1.00  0.00     0.029 A 
ATOM     60  C   UNL A   1      44.856  29.993  31.327  1.00  0.00     0.049 A 
ATOM     61  H   UNL A   1      45.163  28.510  32.801  1.00  0.00     0.167 HD
ATOM     62  C   UNL A   1      45.181  28.088  29.777  1.00  0.00     0.074 A 
ATOM     63  C   UNL A   1      44.640  26.965  30.539  1.00  0.00     0.031 C 
ATOM     64  C   UNL A   1      45.325  29.409  30.094  1.00  0.00     0.037 A 
BRANCH  51  65
ATOM     65  C   UNL A   1      42.726  27.860  34.545  1.00  0.00     0.057 A 
ATOM     66  C   UNL A   1      43.078  26.573  34.105  1.00  0.00     0.134 A 
ATOM     67  C   UNL A   1      42.336  27.947  35.898  1.00  0.00     0.134 A 
ATOM     68  F   UNL A   1      43.449  26.357  32.834  1.00  0.00    -0.206 F 
ATOM     69  C   UNL A   1      42.976  25.446  34.929  1.00  0.00     0.040 A 
ATOM     70  C   UNL A   1      42.282  26.837  36.744  1.00  0.00     0.040 A 
ATOM     71  F   UNL A   1      41.888  29.084  36.445  1.00  0.00    -0.206 F 
ATOM     72  C   UNL A   1      42.569  25.575  36.251  1.00  0.00     0.006 A 
ENDBRANCH  51  65
BRANCH  52  73
ATOM     73  C   UNL A   1      43.606  24.920  26.646  1.00  0.00     0.057 A 
ATOM     74  C   UNL A   1      42.853  23.823  27.091  1.00  0.00     0.134 A 
ATOM     75  C   UNL A   1      44.193  24.784  25.375  1.00  0.00     0.134 A 
ATOM     76  F   UNL A   1      42.220  23.866  28.273  1.00  0.00    -0.206 F 
ATOM     77  C   UNL A   1      42.670  22.674  26.309  1.00  0.00     0.040 A 
ATOM     78  C   UNL A   1      44.027  23.639  24.589  1.00  0.00     0.040 A 
ATOM     79  F   UNL A   1      44.872  25.792  24.810  1.00  0.00    -0.206 F 
ATOM     80  C   UNL A   1      43.250  22.585  25.048  1.00  0.00     0.006 A 
ENDBRANCH  52  73
BRANCH  64  81
ATOM     81  C   UNL A   1      45.738  30.361  29.007  1.00  0.00     0.057 A 
ATOM     82  C   UNL A   1      44.838  30.982  28.129  1.00  0.00     0.134 A 
ATOM     83  C   UNL A   1      47.068  30.791  28.956  1.00  0.00     0.134 A 
ATOM     84  F   UNL A   1      43.527  30.719  28.176  1.00  0.00    -0.206 F 
ATOM     85  C   UNL A   1      45.252  31.951  27.210  1.00  0.00     0.040 A 
ATOM     86  C   UNL A   1      47.489  31.782  28.067  1.00  0.00     0.040 A 
ATOM     87  F   UNL A   1      47.975  30.287  29.808  1.00  0.00    -0.206 F 
ATOM     88  C   UNL A   1      46.582  32.359  27.182  1.00  0.00     0.006 A 
ENDBRANCH  64  81
ENDBRANCH  38  39
ENDBRANCH  31  33
ENDBRANCH  30  31
ENDBRANCH  29  30
ENDBRANCH   1  29
TORSDOF 16
ENDMDL
