MODEL 1
REMARK VINA RESULT:     -11.6      0.000      0.000
REMARK SMILES C[C@@H]1[C@@H](C(=O)OCCOC(=O)c2ccc(-c3c4nc(c(-c5c(F)cccc5F)c5ccc([nH]5)c(-c5c(F)cccc5F)c5nc(c(-c6c(F)cccc6F)c6ccc3[nH]6)C=C5)C=C4)cc2)CC[N@H+]1[C@H]1CC[C@@H](C(F)(F)F)CC1
REMARK SMILES IDX 7 1 6 2 4 3 5 4 3 5 1 6 2 7 68 8 66 9 67 10 69 12 70 13
REMARK SMILES IDX 78 14 71 15 77 16 72 17 73 18 74 19 75 20 76 21 8 22 9 23
REMARK SMILES IDX 10 24 11 25 12 26 13 27 65 28 14 29 64 30 15 31 16 32 17 33
REMARK SMILES IDX 58 34 18 35 63 36 57 37 59 38 19 39 62 40 56 41 55 42 20 44
REMARK SMILES IDX 46 45 29 46 45 47 30 48 33 49 44 50 60 51 31 52 32 53 43 55
REMARK SMILES IDX 61 56 34 57 21 58 22 59 27 60 23 61 24 62 26 63 28 64 25 65
REMARK SMILES IDX 47 66 48 67 53 68 49 69 50 70 52 71 54 72 51 73 35 74 36 75
REMARK SMILES IDX 41 76 37 77 38 78 40 79 42 80 39 81
REMARK H PARENT 68 11 59 43 33 54
REMARK Flexibility Score: inf
ROOT
ATOM      1  C   UNL A   1      31.058  29.510  24.110  1.00  0.00     0.274 C 
ENDROOT
BRANCH   1   2
ATOM      2  O   UNL A   1      31.885  28.514  23.477  1.00  0.00    -0.462 OA
BRANCH   2   3
ATOM      3  C   UNL A   1      31.250  27.430  22.947  1.00  0.00     0.315 C 
ATOM      4  O   UNL A   1      30.640  27.421  21.887  1.00  0.00    -0.252 OA
BRANCH   3   5
ATOM      5  C   UNL A   1      31.415  26.240  23.873  1.00  0.00     0.162 C 
ATOM      6  C   UNL A   1      32.681  26.155  26.042  1.00  0.00     0.076 C 
ATOM      7  C   UNL A   1      32.818  26.172  24.516  1.00  0.00     0.195 C 
ATOM      8  N   UNL A   1      33.364  24.905  24.045  1.00  0.00    -0.330 N 
ATOM      9  C   UNL A   1      31.272  24.934  23.102  1.00  0.00     0.083 C 
ATOM     10  C   UNL A   1      32.705  24.526  22.808  1.00  0.00     0.263 C 
ATOM     11  H   UNL A   1      33.125  24.262  24.799  1.00  0.00     0.348 HD
BRANCH   8  12
ATOM     12  C   UNL A   1      34.773  24.553  24.188  1.00  0.00     0.184 C 
ATOM     13  C   UNL A   1      35.280  24.139  25.587  1.00  0.00     0.066 C 
ATOM     14  C   UNL A   1      35.001  23.450  23.140  1.00  0.00     0.066 C 
ATOM     15  C   UNL A   1      36.695  23.543  25.556  1.00  0.00     0.019 C 
ATOM     16  C   UNL A   1      36.420  22.899  23.147  1.00  0.00     0.019 C 
ATOM     17  C   UNL A   1      36.872  22.417  24.527  1.00  0.00     0.095 C 
BRANCH  17  18
ATOM     18  C   UNL A   1      36.196  21.113  24.948  1.00  0.00     0.391 C 
ATOM     19  F   UNL A   1      36.981  20.050  24.658  1.00  0.00    -0.171 F 
ATOM     20  F   UNL A   1      35.981  21.099  26.283  1.00  0.00    -0.171 F 
ATOM     21  F   UNL A   1      35.008  20.915  24.346  1.00  0.00    -0.171 F 
ENDBRANCH  17  18
ENDBRANCH   8  12
ENDBRANCH   3   5
ENDBRANCH   2   3
ENDBRANCH   1   2
BRANCH   1  22
ATOM     22  C   UNL A   1      31.409  29.620  25.593  1.00  0.00     0.275 C 
BRANCH  22  23
ATOM     23  O   UNL A   1      32.749  30.128  25.746  1.00  0.00    -0.458 OA
BRANCH  23  24
ATOM     24  C   UNL A   1      32.932  31.024  26.738  1.00  0.00     0.338 C 
ATOM     25  O   UNL A   1      32.136  31.845  27.167  1.00  0.00    -0.246 OA
BRANCH  24  26
ATOM     26  C   UNL A   1      34.259  30.817  27.333  1.00  0.00     0.060 A 
ATOM     27  C   UNL A   1      34.638  29.514  27.648  1.00  0.00     0.016 A 
ATOM     28  C   UNL A   1      35.071  31.890  27.690  1.00  0.00     0.016 A 
ATOM     29  C   UNL A   1      35.803  29.269  28.370  1.00  0.00     0.010 A 
ATOM     30  C   UNL A   1      36.274  31.641  28.364  1.00  0.00     0.010 A 
ATOM     31  C   UNL A   1      36.640  30.331  28.734  1.00  0.00    -0.014 A 
BRANCH  31  32
ATOM     32  C   UNL A   1      37.860  30.083  29.549  1.00  0.00     0.031 A 
ATOM     33  C   UNL A   1      38.981  29.251  28.987  1.00  0.00     0.074 A 
ATOM     34  C   UNL A   1      37.988  30.613  30.781  1.00  0.00     0.049 A 
ATOM     35  N   UNL A   1      40.034  28.759  29.591  1.00  0.00    -0.248 NA
ATOM     36  C   UNL A   1      38.904  28.927  27.554  1.00  0.00     0.031 C 
ATOM     37  C   UNL A   1      37.023  31.499  31.431  1.00  0.00     0.029 A 
ATOM     38  N   UNL A   1      38.994  30.481  31.708  1.00  0.00    -0.354 N 
ATOM     39  C   UNL A   1      40.719  28.031  28.626  1.00  0.00     0.074 A 
ATOM     40  C   UNL A   1      39.963  28.144  27.396  1.00  0.00     0.031 C 
ATOM     41  C   UNL A   1      37.492  31.849  32.640  1.00  0.00     0.029 A 
ATOM     42  C   UNL A   1      38.752  31.153  32.882  1.00  0.00     0.049 A 
ATOM     43  H   UNL A   1      39.811  29.955  31.546  1.00  0.00     0.167 HD
ATOM     44  C   UNL A   1      41.871  27.331  28.753  1.00  0.00     0.037 A 
ATOM     45  C   UNL A   1      39.444  31.173  34.038  1.00  0.00     0.037 A 
ATOM     46  C   UNL A   1      42.653  27.256  29.960  1.00  0.00     0.049 A 
ATOM     47  C   UNL A   1      40.689  30.343  34.174  1.00  0.00     0.074 A 
ATOM     48  C   UNL A   1      43.826  26.558  30.188  1.00  0.00     0.029 A 
ATOM     49  N   UNL A   1      42.350  27.921  31.137  1.00  0.00    -0.354 N 
ATOM     50  N   UNL A   1      41.282  29.588  33.281  1.00  0.00    -0.248 NA
ATOM     51  C   UNL A   1      41.348  30.348  35.488  1.00  0.00     0.031 C 
ATOM     52  C   UNL A   1      44.222  26.782  31.511  1.00  0.00     0.029 A 
ATOM     53  C   UNL A   1      43.311  27.646  32.096  1.00  0.00     0.049 A 
ATOM     54  H   UNL A   1      41.567  28.504  31.273  1.00  0.00     0.167 HD
ATOM     55  C   UNL A   1      42.388  29.042  33.920  1.00  0.00     0.074 A 
ATOM     56  C   UNL A   1      42.393  29.563  35.271  1.00  0.00     0.031 C 
ATOM     57  C   UNL A   1      43.311  28.180  33.432  1.00  0.00     0.037 A 
BRANCH  44  58
ATOM     58  C   UNL A   1      42.345  26.559  27.559  1.00  0.00     0.057 A 
ATOM     59  C   UNL A   1      43.193  27.123  26.599  1.00  0.00     0.134 A 
ATOM     60  C   UNL A   1      41.970  25.220  27.388  1.00  0.00     0.134 A 
ATOM     61  F   UNL A   1      43.574  28.405  26.698  1.00  0.00    -0.206 F 
ATOM     62  C   UNL A   1      43.639  26.386  25.500  1.00  0.00     0.040 A 
ATOM     63  C   UNL A   1      42.427  24.468  26.305  1.00  0.00     0.040 A 
ATOM     64  F   UNL A   1      41.163  24.620  28.275  1.00  0.00    -0.206 F 
ATOM     65  C   UNL A   1      43.260  25.053  25.354  1.00  0.00     0.006 A 
ENDBRANCH  44  58
BRANCH  45  66
ATOM     66  C   UNL A   1      38.949  31.974  35.186  1.00  0.00     0.057 A 
ATOM     67  C   UNL A   1      39.232  33.340  35.289  1.00  0.00     0.134 A 
ATOM     68  C   UNL A   1      38.205  31.388  36.218  1.00  0.00     0.134 A 
ATOM     69  F   UNL A   1      39.965  33.951  34.346  1.00  0.00    -0.206 F 
ATOM     70  C   UNL A   1      38.804  34.095  36.382  1.00  0.00     0.040 A 
ATOM     71  C   UNL A   1      37.750  32.135  37.304  1.00  0.00     0.040 A 
ATOM     72  F   UNL A   1      37.905  30.081  36.180  1.00  0.00    -0.206 F 
ATOM     73  C   UNL A   1      38.054  33.492  37.391  1.00  0.00     0.006 A 
ENDBRANCH  45  66
BRANCH  57  74
ATOM     74  C   UNL A   1      44.422  27.774  34.353  1.00  0.00     0.057 A 
ATOM     75  C   UNL A   1      45.603  28.518  34.455  1.00  0.00     0.134 A 
ATOM     76  C   UNL A   1      44.294  26.642  35.169  1.00  0.00     0.134 A 
ATOM     77  F   UNL A   1      45.791  29.603  33.690  1.00  0.00    -0.206 F 
ATOM     78  C   UNL A   1      46.627  28.142  35.326  1.00  0.00     0.040 A 
ATOM     79  C   UNL A   1      45.302  26.267  36.056  1.00  0.00     0.040 A 
ATOM     80  F   UNL A   1      43.185  25.891  35.120  1.00  0.00    -0.206 F 
ATOM     81  C   UNL A   1      46.475  27.016  36.133  1.00  0.00     0.006 A 
ENDBRANCH  57  74
ENDBRANCH  31  32
ENDBRANCH  24  26
ENDBRANCH  23  24
ENDBRANCH  22  23
ENDBRANCH   1  22
TORSDOF 13
ENDMDL
MODEL 2
REMARK VINA RESULT:     -11.5      2.914      4.570
REMARK SMILES C[C@@H]1[C@@H](C(=O)OCCOC(=O)c2ccc(-c3c4nc(c(-c5c(F)cccc5F)c5ccc([nH]5)c(-c5c(F)cccc5F)c5nc(c(-c6c(F)cccc6F)c6ccc3[nH]6)C=C5)C=C4)cc2)CC[N@H+]1[C@H]1CC[C@@H](C(F)(F)F)CC1
REMARK SMILES IDX 7 1 6 2 4 3 5 4 3 5 1 6 2 7 68 8 66 9 67 10 69 12 70 13
REMARK SMILES IDX 78 14 71 15 77 16 72 17 73 18 74 19 75 20 76 21 8 22 9 23
REMARK SMILES IDX 10 24 11 25 12 26 13 27 65 28 14 29 64 30 15 31 16 32 17 33
REMARK SMILES IDX 58 34 18 35 63 36 57 37 59 38 19 39 62 40 56 41 55 42 20 44
REMARK SMILES IDX 46 45 29 46 45 47 30 48 33 49 44 50 60 51 31 52 32 53 43 55
REMARK SMILES IDX 61 56 34 57 21 58 22 59 27 60 23 61 24 62 26 63 28 64 25 65
REMARK SMILES IDX 47 66 48 67 53 68 49 69 50 70 52 71 54 72 51 73 35 74 36 75
REMARK SMILES IDX 41 76 37 77 38 78 40 79 42 80 39 81
REMARK H PARENT 68 11 59 43 33 54
REMARK Flexibility Score: inf
ROOT
ATOM      1  C   UNL A   1      31.797  30.330  26.681  1.00  0.00     0.274 C 
ENDROOT
BRANCH   1   2
ATOM      2  O   UNL A   1      32.907  30.037  25.810  1.00  0.00    -0.462 OA
BRANCH   2   3
ATOM      3  C   UNL A   1      33.573  28.868  26.031  1.00  0.00     0.315 C 
ATOM      4  O   UNL A   1      34.264  28.626  27.010  1.00  0.00    -0.252 OA
BRANCH   3   5
ATOM      5  C   UNL A   1      33.328  27.917  24.875  1.00  0.00     0.162 C 
ATOM      6  C   UNL A   1      33.368  28.451  22.419  1.00  0.00     0.076 C 
ATOM      7  C   UNL A   1      32.554  28.575  23.711  1.00  0.00     0.195 C 
ATOM      8  N   UNL A   1      31.328  27.793  23.611  1.00  0.00    -0.330 N 
ATOM      9  C   UNL A   1      32.454  26.749  25.316  1.00  0.00     0.083 C 
ATOM     10  C   UNL A   1      31.055  27.158  24.887  1.00  0.00     0.263 C 
ATOM     11  H   UNL A   1      31.559  27.101  22.899  1.00  0.00     0.348 HD
BRANCH   8  12
ATOM     12  C   UNL A   1      30.180  28.227  22.821  1.00  0.00     0.184 C 
ATOM     13  C   UNL A   1      28.786  28.196  23.487  1.00  0.00     0.066 C 
ATOM     14  C   UNL A   1      30.558  29.636  22.335  1.00  0.00     0.066 C 
ATOM     15  C   UNL A   1      27.713  28.917  22.658  1.00  0.00     0.019 C 
ATOM     16  C   UNL A   1      29.464  30.303  21.514  1.00  0.00     0.019 C 
ATOM     17  C   UNL A   1      28.111  30.337  22.228  1.00  0.00     0.095 C 
BRANCH  17  18
ATOM     18  C   UNL A   1      28.075  31.340  23.380  1.00  0.00     0.391 C 
ATOM     19  F   UNL A   1      27.984  32.606  22.910  1.00  0.00    -0.171 F 
ATOM     20  F   UNL A   1      26.995  31.125  24.164  1.00  0.00    -0.171 F 
ATOM     21  F   UNL A   1      29.165  31.279  24.167  1.00  0.00    -0.171 F 
ENDBRANCH  17  18
ENDBRANCH   8  12
ENDBRANCH   3   5
ENDBRANCH   2   3
ENDBRANCH   1   2
BRANCH   1  22
ATOM     22  C   UNL A   1      31.547  31.837  26.725  1.00  0.00     0.275 C 
BRANCH  22  23
ATOM     23  O   UNL A   1      32.789  32.548  26.565  1.00  0.00    -0.458 OA
BRANCH  23  24
ATOM     24  C   UNL A   1      33.197  33.272  27.629  1.00  0.00     0.338 C 
ATOM     25  O   UNL A   1      32.617  34.197  28.176  1.00  0.00    -0.246 OA
BRANCH  24  26
ATOM     26  C   UNL A   1      34.461  32.717  28.131  1.00  0.00     0.060 A 
ATOM     27  C   UNL A   1      34.427  31.467  28.745  1.00  0.00     0.016 A 
ATOM     28  C   UNL A   1      35.639  33.459  28.113  1.00  0.00     0.016 A 
ATOM     29  C   UNL A   1      35.552  30.966  29.394  1.00  0.00     0.010 A 
ATOM     30  C   UNL A   1      36.788  32.929  28.713  1.00  0.00     0.010 A 
ATOM     31  C   UNL A   1      36.751  31.689  29.382  1.00  0.00    -0.014 A 
BRANCH  31  32
ATOM     32  C   UNL A   1      37.943  31.184  30.117  1.00  0.00     0.031 A 
ATOM     33  C   UNL A   1      38.897  30.239  29.438  1.00  0.00     0.074 A 
ATOM     34  C   UNL A   1      38.195  31.579  31.381  1.00  0.00     0.049 A 
ATOM     35  N   UNL A   1      39.878  29.539  29.950  1.00  0.00    -0.248 NA
ATOM     36  C   UNL A   1      38.722  30.056  27.989  1.00  0.00     0.031 C 
ATOM     37  C   UNL A   1      37.406  32.545  32.144  1.00  0.00     0.029 A 
ATOM     38  N   UNL A   1      39.198  31.212  32.245  1.00  0.00    -0.354 N 
ATOM     39  C   UNL A   1      40.405  28.799  28.900  1.00  0.00     0.074 A 
ATOM     40  C   UNL A   1      39.636  29.134  27.720  1.00  0.00     0.031 C 
ATOM     41  C   UNL A   1      37.965  32.711  33.353  1.00  0.00     0.029 A 
ATOM     42  C   UNL A   1      39.106  31.809  33.480  1.00  0.00     0.049 A 
ATOM     43  H   UNL A   1      39.914  30.581  32.004  1.00  0.00     0.167 HD
ATOM     44  C   UNL A   1      41.435  27.920  28.916  1.00  0.00     0.037 A 
ATOM     45  C   UNL A   1      39.830  31.622  34.600  1.00  0.00     0.037 A 
ATOM     46  C   UNL A   1      42.235  27.620  30.074  1.00  0.00     0.049 A 
ATOM     47  C   UNL A   1      40.931  30.598  34.610  1.00  0.00     0.074 A 
ATOM     48  C   UNL A   1      43.289  26.730  30.191  1.00  0.00     0.029 A 
ATOM     49  N   UNL A   1      42.082  28.220  31.314  1.00  0.00    -0.354 N 
ATOM     50  N   UNL A   1      41.366  29.840  33.633  1.00  0.00    -0.248 NA
ATOM     51  C   UNL A   1      41.626  30.387  35.888  1.00  0.00     0.031 C 
ATOM     52  C   UNL A   1      43.760  26.774  31.508  1.00  0.00     0.029 A 
ATOM     53  C   UNL A   1      43.019  27.716  32.202  1.00  0.00     0.049 A 
ATOM     54  H   UNL A   1      41.407  28.903  31.533  1.00  0.00     0.167 HD
ATOM     55  C   UNL A   1      42.392  29.075  34.173  1.00  0.00     0.074 A 
ATOM     56  C   UNL A   1      42.525  29.471  35.560  1.00  0.00     0.031 C 
ATOM     57  C   UNL A   1      43.149  28.126  33.575  1.00  0.00     0.037 A 
BRANCH  44  58
ATOM     58  C   UNL A   1      41.739  27.190  27.642  1.00  0.00     0.057 A 
ATOM     59  C   UNL A   1      42.635  27.694  26.693  1.00  0.00     0.134 A 
ATOM     60  C   UNL A   1      41.148  25.946  27.381  1.00  0.00     0.134 A 
ATOM     61  F   UNL A   1      43.221  28.886  26.878  1.00  0.00    -0.206 F 
ATOM     62  C   UNL A   1      42.921  26.994  25.519  1.00  0.00     0.040 A 
ATOM     63  C   UNL A   1      41.443  25.228  26.222  1.00  0.00     0.040 A 
ATOM     64  F   UNL A   1      40.284  25.406  28.253  1.00  0.00    -0.206 F 
ATOM     65  C   UNL A   1      42.328  25.755  25.284  1.00  0.00     0.006 A 
ENDBRANCH  44  58
BRANCH  45  66
ATOM     66  C   UNL A   1      39.508  32.387  35.830  1.00  0.00     0.057 A 
ATOM     67  C   UNL A   1      38.544  31.928  36.734  1.00  0.00     0.134 A 
ATOM     68  C   UNL A   1      40.138  33.604  36.118  1.00  0.00     0.134 A 
ATOM     69  F   UNL A   1      37.887  30.784  36.498  1.00  0.00    -0.206 F 
ATOM     70  C   UNL A   1      38.207  32.658  37.875  1.00  0.00     0.040 A 
ATOM     71  C   UNL A   1      39.829  34.332  37.267  1.00  0.00     0.040 A 
ATOM     72  F   UNL A   1      41.068  34.099  35.288  1.00  0.00    -0.206 F 
ATOM     73  C   UNL A   1      38.856  33.862  38.147  1.00  0.00     0.006 A 
ENDBRANCH  45  66
BRANCH  57  74
ATOM     74  C   UNL A   1      44.211  27.473  34.407  1.00  0.00     0.057 A 
ATOM     75  C   UNL A   1      43.973  26.279  35.099  1.00  0.00     0.134 A 
ATOM     76  C   UNL A   1      45.494  28.029  34.490  1.00  0.00     0.134 A 
ATOM     77  F   UNL A   1      42.762  25.707  35.070  1.00  0.00    -0.206 F 
ATOM     78  C   UNL A   1      44.972  25.669  35.860  1.00  0.00     0.040 A 
ATOM     79  C   UNL A   1      46.505  27.418  35.232  1.00  0.00     0.040 A 
ATOM     80  F   UNL A   1      45.785  29.168  33.846  1.00  0.00    -0.206 F 
ATOM     81  C   UNL A   1      46.244  26.236  35.923  1.00  0.00     0.006 A 
ENDBRANCH  57  74
ENDBRANCH  31  32
ENDBRANCH  24  26
ENDBRANCH  23  24
ENDBRANCH  22  23
ENDBRANCH   1  22
TORSDOF 13
ENDMDL
MODEL 3
REMARK VINA RESULT:     -11.5      4.474      8.885
REMARK SMILES C[C@@H]1[C@@H](C(=O)OCCOC(=O)c2ccc(-c3c4nc(c(-c5c(F)cccc5F)c5ccc([nH]5)c(-c5c(F)cccc5F)c5nc(c(-c6c(F)cccc6F)c6ccc3[nH]6)C=C5)C=C4)cc2)CC[N@H+]1[C@H]1CC[C@@H](C(F)(F)F)CC1
REMARK SMILES IDX 7 1 6 2 4 3 5 4 3 5 1 6 2 7 68 8 66 9 67 10 69 12 70 13
REMARK SMILES IDX 78 14 71 15 77 16 72 17 73 18 74 19 75 20 76 21 8 22 9 23
REMARK SMILES IDX 10 24 11 25 12 26 13 27 65 28 14 29 64 30 15 31 16 32 17 33
REMARK SMILES IDX 58 34 18 35 63 36 57 37 59 38 19 39 62 40 56 41 55 42 20 44
REMARK SMILES IDX 46 45 29 46 45 47 30 48 33 49 44 50 60 51 31 52 32 53 43 55
REMARK SMILES IDX 61 56 34 57 21 58 22 59 27 60 23 61 24 62 26 63 28 64 25 65
REMARK SMILES IDX 47 66 48 67 53 68 49 69 50 70 52 71 54 72 51 73 35 74 36 75
REMARK SMILES IDX 41 76 37 77 38 78 40 79 42 80 39 81
REMARK H PARENT 68 11 59 43 33 54
REMARK Flexibility Score: inf
ROOT
ATOM      1  C   UNL A   1      34.755  20.665  25.448  1.00  0.00     0.274 C 
ENDROOT
BRANCH   1   2
ATOM      2  O   UNL A   1      34.712  21.497  26.624  1.00  0.00    -0.462 OA
BRANCH   2   3
ATOM      3  C   UNL A   1      33.637  22.324  26.757  1.00  0.00     0.315 C 
ATOM      4  O   UNL A   1      33.070  22.578  27.810  1.00  0.00    -0.252 OA
BRANCH   3   5
ATOM      5  C   UNL A   1      33.251  22.879  25.399  1.00  0.00     0.162 C 
ATOM      6  C   UNL A   1      34.788  23.741  23.606  1.00  0.00     0.076 C 
ATOM      7  C   UNL A   1      34.144  24.061  24.959  1.00  0.00     0.195 C 
ATOM      8  N   UNL A   1      33.217  25.177  24.824  1.00  0.00    -0.330 N 
ATOM      9  C   UNL A   1      31.837  23.446  25.431  1.00  0.00     0.083 C 
ATOM     10  C   UNL A   1      32.047  24.935  25.649  1.00  0.00     0.263 C 
ATOM     11  H   UNL A   1      32.978  25.153  23.833  1.00  0.00     0.348 HD
BRANCH   8  12
ATOM     12  C   UNL A   1      33.664  26.560  24.686  1.00  0.00     0.184 C 
ATOM     13  C   UNL A   1      32.908  27.472  23.695  1.00  0.00     0.066 C 
ATOM     14  C   UNL A   1      33.637  27.117  26.119  1.00  0.00     0.066 C 
ATOM     15  C   UNL A   1      33.293  28.951  23.833  1.00  0.00     0.019 C 
ATOM     16  C   UNL A   1      34.034  28.583  26.202  1.00  0.00     0.019 C 
ATOM     17  C   UNL A   1      33.214  29.482  25.273  1.00  0.00     0.095 C 
BRANCH  17  18
ATOM     18  C   UNL A   1      31.778  29.680  25.756  1.00  0.00     0.391 C 
ATOM     19  F   UNL A   1      31.403  28.667  26.571  1.00  0.00    -0.171 F 
ATOM     20  F   UNL A   1      31.670  30.826  26.466  1.00  0.00    -0.171 F 
ATOM     21  F   UNL A   1      30.886  29.741  24.750  1.00  0.00    -0.171 F 
ENDBRANCH  17  18
ENDBRANCH   8  12
ENDBRANCH   3   5
ENDBRANCH   2   3
ENDBRANCH   1   2
BRANCH   1  22
ATOM     22  C   UNL A   1      36.201  20.460  25.001  1.00  0.00     0.275 C 
BRANCH  22  23
ATOM     23  O   UNL A   1      37.035  21.505  25.536  1.00  0.00    -0.458 OA
BRANCH  23  24
ATOM     24  C   UNL A   1      38.328  21.179  25.751  1.00  0.00     0.338 C 
ATOM     25  O   UNL A   1      38.903  20.146  25.447  1.00  0.00    -0.246 OA
BRANCH  24  26
ATOM     26  C   UNL A   1      39.019  22.327  26.352  1.00  0.00     0.060 A 
ATOM     27  C   UNL A   1      38.507  23.599  26.108  1.00  0.00     0.016 A 
ATOM     28  C   UNL A   1      40.218  22.173  27.043  1.00  0.00     0.016 A 
ATOM     29  C   UNL A   1      39.211  24.734  26.501  1.00  0.00     0.010 A 
ATOM     30  C   UNL A   1      40.898  23.312  27.493  1.00  0.00     0.010 A 
ATOM     31  C   UNL A   1      40.416  24.605  27.205  1.00  0.00    -0.014 A 
BRANCH  31  32
ATOM     32  C   UNL A   1      41.199  25.813  27.583  1.00  0.00     0.031 A 
ATOM     33  C   UNL A   1      40.570  26.877  28.441  1.00  0.00     0.074 A 
ATOM     34  C   UNL A   1      42.479  25.959  27.187  1.00  0.00     0.049 A 
ATOM     35  N   UNL A   1      41.003  28.080  28.724  1.00  0.00    -0.248 NA
ATOM     36  C   UNL A   1      39.278  26.543  29.060  1.00  0.00     0.031 C 
ATOM     37  C   UNL A   1      43.249  24.982  26.418  1.00  0.00     0.029 A 
ATOM     38  N   UNL A   1      43.360  26.994  27.385  1.00  0.00    -0.354 N 
ATOM     39  C   UNL A   1      40.019  28.662  29.513  1.00  0.00     0.074 A 
ATOM     40  C   UNL A   1      38.964  27.680  29.664  1.00  0.00     0.031 C 
ATOM     41  C   UNL A   1      44.492  25.454  26.227  1.00  0.00     0.029 A 
ATOM     42  C   UNL A   1      44.585  26.796  26.793  1.00  0.00     0.049 A 
ATOM     43  H   UNL A   1      43.136  27.802  27.901  1.00  0.00     0.167 HD
ATOM     44  C   UNL A   1      39.994  29.900  30.060  1.00  0.00     0.037 A 
ATOM     45  C   UNL A   1      45.648  27.616  26.682  1.00  0.00     0.037 A 
ATOM     46  C   UNL A   1      41.061  30.861  29.955  1.00  0.00     0.049 A 
ATOM     47  C   UNL A   1      45.575  29.007  27.247  1.00  0.00     0.074 A 
ATOM     48  C   UNL A   1      41.119  32.147  30.463  1.00  0.00     0.029 A 
ATOM     49  N   UNL A   1      42.267  30.631  29.313  1.00  0.00    -0.354 N 
ATOM     50  N   UNL A   1      44.605  29.578  27.918  1.00  0.00    -0.248 NA
ATOM     51  C   UNL A   1      46.739  29.876  27.019  1.00  0.00     0.031 C 
ATOM     52  C   UNL A   1      42.353  32.706  30.109  1.00  0.00     0.029 A 
ATOM     53  C   UNL A   1      43.074  31.753  29.408  1.00  0.00     0.049 A 
ATOM     54  H   UNL A   1      42.515  29.794  28.857  1.00  0.00     0.167 HD
ATOM     55  C   UNL A   1      45.045  30.864  28.203  1.00  0.00     0.074 A 
ATOM     56  C   UNL A   1      46.376  30.985  27.646  1.00  0.00     0.031 C 
ATOM     57  C   UNL A   1      44.401  31.857  28.860  1.00  0.00     0.037 A 
BRANCH  44  58
ATOM     58  C   UNL A   1      38.755  30.302  30.802  1.00  0.00     0.057 A 
ATOM     59  C   UNL A   1      37.686  30.943  30.168  1.00  0.00     0.134 A 
ATOM     60  C   UNL A   1      38.621  30.011  32.166  1.00  0.00     0.134 A 
ATOM     61  F   UNL A   1      37.760  31.263  28.867  1.00  0.00    -0.206 F 
ATOM     62  C   UNL A   1      36.531  31.298  30.868  1.00  0.00     0.040 A 
ATOM     63  C   UNL A   1      37.463  30.341  32.871  1.00  0.00     0.040 A 
ATOM     64  F   UNL A   1      39.609  29.393  32.831  1.00  0.00    -0.206 F 
ATOM     65  C   UNL A   1      36.415  30.991  32.223  1.00  0.00     0.006 A 
ENDBRANCH  44  58
BRANCH  45  66
ATOM     66  C   UNL A   1      46.863  27.164  25.960  1.00  0.00     0.057 A 
ATOM     67  C   UNL A   1      47.002  27.366  24.583  1.00  0.00     0.134 A 
ATOM     68  C   UNL A   1      47.901  26.499  26.625  1.00  0.00     0.134 A 
ATOM     69  F   UNL A   1      46.028  27.971  23.887  1.00  0.00    -0.206 F 
ATOM     70  C   UNL A   1      48.124  26.912  23.887  1.00  0.00     0.040 A 
ATOM     71  C   UNL A   1      49.040  26.062  25.948  1.00  0.00     0.040 A 
ATOM     72  F   UNL A   1      47.825  26.272  27.944  1.00  0.00    -0.206 F 
ATOM     73  C   UNL A   1      49.151  26.263  24.573  1.00  0.00     0.006 A 
ENDBRANCH  45  66
BRANCH  57  74
ATOM     74  C   UNL A   1      45.139  33.149  29.042  1.00  0.00     0.057 A 
ATOM     75  C   UNL A   1      45.981  33.368  30.139  1.00  0.00     0.134 A 
ATOM     76  C   UNL A   1      45.029  34.172  28.092  1.00  0.00     0.134 A 
ATOM     77  F   UNL A   1      46.116  32.432  31.089  1.00  0.00    -0.206 F 
ATOM     78  C   UNL A   1      46.677  34.568  30.293  1.00  0.00     0.040 A 
ATOM     79  C   UNL A   1      45.734  35.368  28.226  1.00  0.00     0.040 A 
ATOM     80  F   UNL A   1      44.242  34.022  27.016  1.00  0.00    -0.206 F 
ATOM     81  C   UNL A   1      46.558  35.570  29.332  1.00  0.00     0.006 A 
ENDBRANCH  57  74
ENDBRANCH  31  32
ENDBRANCH  24  26
ENDBRANCH  23  24
ENDBRANCH  22  23
ENDBRANCH   1  22
TORSDOF 13
ENDMDL
