MODEL 1
REMARK VINA RESULT:     -10.2      0.000      0.000
REMARK SMILES COc1cc(S(=O)(=O)CCO)cc(C(=O)OCCOC(=O)c2ccc(-c3c4nc(c(-c5c(F)cccc5F)c5ccc([nH]5)c(-c5c(F)cccc5F)c5nc(c(-c6c(F)cccc6F)c6ccc3[nH]6)C=C5)C=C4)cc2)c1OC
REMARK SMILES IDX 17 1 16 2 14 3 15 4 13 5 3 6 4 7 76 8 5 9 12 10 2 11 1 12
REMARK SMILES IDX 77 13 78 14 6 15 7 16 8 17 9 18 10 19 11 20 18 22 19 23
REMARK SMILES IDX 20 24 21 25 22 26 23 27 75 28 24 29 74 30 25 31 26 32 27 33
REMARK SMILES IDX 68 34 28 35 73 36 67 37 69 38 29 39 72 40 66 41 65 42 30 44
REMARK SMILES IDX 56 45 39 46 55 47 40 48 43 49 54 50 70 51 41 52 42 53 53 55
REMARK SMILES IDX 71 56 44 57 31 58 32 59 37 60 33 61 34 62 36 63 38 64 35 65
REMARK SMILES IDX 57 66 58 67 63 68 59 69 60 70 62 71 64 72 61 73 45 74 46 75
REMARK SMILES IDX 51 76 47 77 48 78 50 79 52 80 49 81
REMARK H PARENT 11 21 69 43 43 54
REMARK Flexibility Score: inf
ROOT
ATOM      1  C   UNL A   1      31.742  28.731  27.297  1.00  0.00     0.275 C 
ENDROOT
BRANCH   1   2
ATOM      2  O   UNL A   1      32.551  27.685  26.725  1.00  0.00    -0.458 OA
BRANCH   2   3
ATOM      3  C   UNL A   1      31.891  26.607  26.231  1.00  0.00     0.342 C 
ATOM      4  O   UNL A   1      30.731  26.301  26.427  1.00  0.00    -0.246 OA
BRANCH   3   5
ATOM      5  C   UNL A   1      32.763  25.881  25.281  1.00  0.00     0.107 A 
ATOM      6  C   UNL A   1      33.688  25.534  23.090  1.00  0.00     0.162 A 
ATOM      7  C   UNL A   1      34.494  24.504  23.595  1.00  0.00     0.070 A 
ATOM      8  C   UNL A   1      32.803  26.232  23.923  1.00  0.00     0.175 A 
ATOM      9  C   UNL A   1      34.459  24.184  24.956  1.00  0.00     0.072 A 
ATOM     10  C   UNL A   1      33.588  24.867  25.797  1.00  0.00     0.040 A 
BRANCH   6  11
ATOM     11  O   UNL A   1      33.789  25.807  21.752  1.00  0.00    -0.493 OA
ATOM     12  C   UNL A   1      32.695  25.233  21.034  1.00  0.00     0.278 C 
ENDBRANCH   6  11
BRANCH   8  13
ATOM     13  O   UNL A   1      32.044  27.311  23.555  1.00  0.00    -0.492 OA
ATOM     14  C   UNL A   1      32.728  28.505  23.198  1.00  0.00     0.278 C 
ENDBRANCH   8  13
BRANCH   9  15
ATOM     15  S   UNL A   1      35.558  22.899  25.513  1.00  0.00     0.180 S 
ATOM     16  O   UNL A   1      35.866  22.128  24.321  1.00  0.00    -0.224 OA
ATOM     17  O   UNL A   1      36.621  23.565  26.244  1.00  0.00    -0.224 OA
BRANCH  15  18
ATOM     18  C   UNL A   1      34.725  21.795  26.622  1.00  0.00     0.170 C 
BRANCH  18  19
ATOM     19  C   UNL A   1      33.454  21.200  26.052  1.00  0.00     0.172 C 
BRANCH  19  20
ATOM     20  O   UNL A   1      33.187  19.937  26.644  1.00  0.00    -0.395 OA
ATOM     21  H   UNL A   1      32.831  19.334  25.973  1.00  0.00     0.210 HD
ENDBRANCH  19  20
ENDBRANCH  18  19
ENDBRANCH  15  18
ENDBRANCH   9  15
ENDBRANCH   3   5
ENDBRANCH   2   3
ENDBRANCH   1   2
BRANCH   1  22
ATOM     22  C   UNL A   1      31.748  29.953  26.383  1.00  0.00     0.275 C 
BRANCH  22  23
ATOM     23  O   UNL A   1      33.098  30.436  26.273  1.00  0.00    -0.458 OA
BRANCH  23  24
ATOM     24  C   UNL A   1      33.449  31.426  27.123  1.00  0.00     0.338 C 
ATOM     25  O   UNL A   1      32.799  32.400  27.456  1.00  0.00    -0.246 OA
BRANCH  24  26
ATOM     26  C   UNL A   1      34.781  31.123  27.668  1.00  0.00     0.060 A 
ATOM     27  C   UNL A   1      35.095  29.806  27.984  1.00  0.00     0.016 A 
ATOM     28  C   UNL A   1      35.675  32.148  27.972  1.00  0.00     0.016 A 
ATOM     29  C   UNL A   1      36.257  29.519  28.692  1.00  0.00     0.010 A 
ATOM     30  C   UNL A   1      36.895  31.837  28.589  1.00  0.00     0.010 A 
ATOM     31  C   UNL A   1      37.187  30.521  28.998  1.00  0.00    -0.014 A 
BRANCH  31  32
ATOM     32  C   UNL A   1      38.427  30.203  29.774  1.00  0.00     0.031 A 
ATOM     33  C   UNL A   1      39.509  29.343  29.165  1.00  0.00     0.074 A 
ATOM     34  C   UNL A   1      38.620  30.698  31.016  1.00  0.00     0.049 A 
ATOM     35  N   UNL A   1      40.538  28.774  29.742  1.00  0.00    -0.248 NA
ATOM     36  C   UNL A   1      39.419  29.083  27.719  1.00  0.00     0.031 C 
ATOM     37  C   UNL A   1      37.711  31.598  31.729  1.00  0.00     0.029 A 
ATOM     38  N   UNL A   1      39.659  30.520  31.900  1.00  0.00    -0.354 N 
ATOM     39  C   UNL A   1      41.164  28.023  28.754  1.00  0.00     0.074 A 
ATOM     40  C   UNL A   1      40.416  28.229  27.532  1.00  0.00     0.031 C 
ATOM     41  C   UNL A   1      38.256  31.940  32.904  1.00  0.00     0.029 A 
ATOM     42  C   UNL A   1      39.491  31.188  33.091  1.00  0.00     0.049 A 
ATOM     43  H   UNL A   1      40.449  29.968  31.699  1.00  0.00     0.167 HD
ATOM     44  C   UNL A   1      42.256  27.228  28.859  1.00  0.00     0.037 A 
ATOM     45  C   UNL A   1      40.204  31.155  34.233  1.00  0.00     0.037 A 
ATOM     46  C   UNL A   1      43.055  27.090  30.049  1.00  0.00     0.049 A 
ATOM     47  C   UNL A   1      41.381  30.230  34.341  1.00  0.00     0.074 A 
ATOM     48  C   UNL A   1      44.199  26.333  30.235  1.00  0.00     0.029 A 
ATOM     49  N   UNL A   1      42.805  27.738  31.247  1.00  0.00    -0.354 N 
ATOM     50  N   UNL A   1      41.916  29.462  33.423  1.00  0.00    -0.248 NA
ATOM     51  C   UNL A   1      42.030  30.135  35.657  1.00  0.00     0.031 C 
ATOM     52  C   UNL A   1      44.622  26.494  31.559  1.00  0.00     0.029 A 
ATOM     53  C   UNL A   1      43.761  27.380  32.185  1.00  0.00     0.049 A 
ATOM     54  H   UNL A   1      42.059  28.359  31.410  1.00  0.00     0.167 HD
ATOM     55  C   UNL A   1      42.958  28.794  34.050  1.00  0.00     0.074 A 
ATOM     56  C   UNL A   1      43.002  29.267  35.417  1.00  0.00     0.031 C 
ATOM     57  C   UNL A   1      43.796  27.859  33.540  1.00  0.00     0.037 A 
BRANCH  44  58
ATOM     58  C   UNL A   1      42.638  26.400  27.667  1.00  0.00     0.057 A 
ATOM     59  C   UNL A   1      42.116  25.122  27.441  1.00  0.00     0.134 A 
ATOM     60  C   UNL A   1      43.495  26.932  26.693  1.00  0.00     0.134 A 
ATOM     61  F   UNL A   1      41.298  24.553  28.340  1.00  0.00    -0.206 F 
ATOM     62  C   UNL A   1      42.442  24.395  26.294  1.00  0.00     0.040 A 
ATOM     63  C   UNL A   1      43.810  26.225  25.532  1.00  0.00     0.040 A 
ATOM     64  F   UNL A   1      44.022  28.156  26.846  1.00  0.00    -0.206 F 
ATOM     65  C   UNL A   1      43.285  24.951  25.332  1.00  0.00     0.006 A 
ENDBRANCH  44  58
BRANCH  45  66
ATOM     66  C   UNL A   1      39.775  31.963  35.404  1.00  0.00     0.057 A 
ATOM     67  C   UNL A   1      38.756  31.518  36.255  1.00  0.00     0.134 A 
ATOM     68  C   UNL A   1      40.355  33.206  35.689  1.00  0.00     0.134 A 
ATOM     69  F   UNL A   1      38.140  30.351  36.018  1.00  0.00    -0.206 F 
ATOM     70  C   UNL A   1      38.326  32.284  37.341  1.00  0.00     0.040 A 
ATOM     71  C   UNL A   1      39.959  33.965  36.790  1.00  0.00     0.040 A 
ATOM     72  F   UNL A   1      41.332  33.691  34.909  1.00  0.00    -0.206 F 
ATOM     73  C   UNL A   1      38.934  33.507  37.615  1.00  0.00     0.006 A 
ENDBRANCH  45  66
BRANCH  57  74
ATOM     74  C   UNL A   1      44.841  27.302  34.459  1.00  0.00     0.057 A 
ATOM     75  C   UNL A   1      44.644  26.099  35.149  1.00  0.00     0.134 A 
ATOM     76  C   UNL A   1      46.067  27.956  34.629  1.00  0.00     0.134 A 
ATOM     77  F   UNL A   1      43.484  25.435  35.039  1.00  0.00    -0.206 F 
ATOM     78  C   UNL A   1      45.627  25.573  35.989  1.00  0.00     0.040 A 
ATOM     79  C   UNL A   1      47.065  27.429  35.451  1.00  0.00     0.040 A 
ATOM     80  F   UNL A   1      46.318  29.109  33.993  1.00  0.00    -0.206 F 
ATOM     81  C   UNL A   1      46.843  26.237  36.137  1.00  0.00     0.006 A 
ENDBRANCH  57  74
ENDBRANCH  31  32
ENDBRANCH  24  26
ENDBRANCH  23  24
ENDBRANCH  22  23
ENDBRANCH   1  22
TORSDOF 17
ENDMDL
MODEL 2
REMARK VINA RESULT:      -9.9      3.991      8.876
REMARK SMILES COc1cc(S(=O)(=O)CCO)cc(C(=O)OCCOC(=O)c2ccc(-c3c4nc(c(-c5c(F)cccc5F)c5ccc([nH]5)c(-c5c(F)cccc5F)c5nc(c(-c6c(F)cccc6F)c6ccc3[nH]6)C=C5)C=C4)cc2)c1OC
REMARK SMILES IDX 17 1 16 2 14 3 15 4 13 5 3 6 4 7 76 8 5 9 12 10 2 11 1 12
REMARK SMILES IDX 77 13 78 14 6 15 7 16 8 17 9 18 10 19 11 20 18 22 19 23
REMARK SMILES IDX 20 24 21 25 22 26 23 27 75 28 24 29 74 30 25 31 26 32 27 33
REMARK SMILES IDX 68 34 28 35 73 36 67 37 69 38 29 39 72 40 66 41 65 42 30 44
REMARK SMILES IDX 56 45 39 46 55 47 40 48 43 49 54 50 70 51 41 52 42 53 53 55
REMARK SMILES IDX 71 56 44 57 31 58 32 59 37 60 33 61 34 62 36 63 38 64 35 65
REMARK SMILES IDX 57 66 58 67 63 68 59 69 60 70 62 71 64 72 61 73 45 74 46 75
REMARK SMILES IDX 51 76 47 77 48 78 50 79 52 80 49 81
REMARK H PARENT 11 21 69 43 43 54
REMARK Flexibility Score: inf
ROOT
ATOM      1  C   UNL A   1      36.397  22.125  23.935  1.00  0.00     0.275 C 
ENDROOT
BRANCH   1   2
ATOM      2  O   UNL A   1      35.256  22.415  24.765  1.00  0.00    -0.458 OA
BRANCH   2   3
ATOM      3  C   UNL A   1      34.043  22.045  24.283  1.00  0.00     0.342 C 
ATOM      4  O   UNL A   1      33.693  20.929  23.948  1.00  0.00    -0.246 OA
BRANCH   3   5
ATOM      5  C   UNL A   1      33.114  23.195  24.332  1.00  0.00     0.107 A 
ATOM      6  C   UNL A   1      31.399  24.493  25.403  1.00  0.00     0.162 A 
ATOM      7  C   UNL A   1      31.466  25.436  24.368  1.00  0.00     0.070 A 
ATOM      8  C   UNL A   1      32.214  23.353  25.397  1.00  0.00     0.175 A 
ATOM      9  C   UNL A   1      32.386  25.274  23.327  1.00  0.00     0.072 A 
ATOM     10  C   UNL A   1      33.204  24.150  23.304  1.00  0.00     0.040 A 
BRANCH   6  11
ATOM     11  O   UNL A   1      30.489  24.725  26.400  1.00  0.00    -0.493 OA
ATOM     12  C   UNL A   1      29.602  25.786  26.041  1.00  0.00     0.278 C 
ENDBRANCH   6  11
BRANCH   8  13
ATOM     13  O   UNL A   1      32.295  22.424  26.400  1.00  0.00    -0.492 OA
ATOM     14  C   UNL A   1      33.007  22.787  27.576  1.00  0.00     0.278 C 
ENDBRANCH   8  13
BRANCH   9  15
ATOM     15  S   UNL A   1      32.435  26.550  22.086  1.00  0.00     0.180 S 
ATOM     16  O   UNL A   1      33.820  26.596  21.652  1.00  0.00    -0.224 OA
ATOM     17  O   UNL A   1      31.386  26.230  21.135  1.00  0.00    -0.224 OA
BRANCH  15  18
ATOM     18  C   UNL A   1      32.080  28.134  22.798  1.00  0.00     0.170 C 
BRANCH  18  19
ATOM     19  C   UNL A   1      30.718  28.681  22.423  1.00  0.00     0.172 C 
BRANCH  19  20
ATOM     20  O   UNL A   1      30.848  29.739  21.484  1.00  0.00    -0.395 OA
ATOM     21  H   UNL A   1      30.656  30.584  21.920  1.00  0.00     0.210 HD
ENDBRANCH  19  20
ENDBRANCH  18  19
ENDBRANCH  15  18
ENDBRANCH   9  15
ENDBRANCH   3   5
ENDBRANCH   2   3
ENDBRANCH   1   2
BRANCH   1  22
ATOM     22  C   UNL A   1      37.170  20.940  24.506  1.00  0.00     0.275 C 
BRANCH  22  23
ATOM     23  O   UNL A   1      37.642  21.291  25.818  1.00  0.00    -0.458 OA
BRANCH  23  24
ATOM     24  C   UNL A   1      38.953  21.071  26.059  1.00  0.00     0.338 C 
ATOM     25  O   UNL A   1      39.606  20.070  25.823  1.00  0.00    -0.246 OA
BRANCH  24  26
ATOM     26  C   UNL A   1      39.535  22.295  26.628  1.00  0.00     0.060 A 
ATOM     27  C   UNL A   1      39.030  23.528  26.232  1.00  0.00     0.016 A 
ATOM     28  C   UNL A   1      40.649  22.232  27.464  1.00  0.00     0.016 A 
ATOM     29  C   UNL A   1      39.692  24.698  26.586  1.00  0.00     0.010 A 
ATOM     30  C   UNL A   1      41.247  23.421  27.906  1.00  0.00     0.010 A 
ATOM     31  C   UNL A   1      40.804  24.674  27.439  1.00  0.00    -0.014 A 
BRANCH  31  32
ATOM     32  C   UNL A   1      41.519  25.938  27.801  1.00  0.00     0.031 A 
ATOM     33  C   UNL A   1      40.837  26.982  28.654  1.00  0.00     0.074 A 
ATOM     34  C   UNL A   1      42.790  26.160  27.403  1.00  0.00     0.049 A 
ATOM     35  N   UNL A   1      41.192  28.222  28.886  1.00  0.00    -0.248 NA
ATOM     36  C   UNL A   1      39.591  26.584  29.327  1.00  0.00     0.031 C 
ATOM     37  C   UNL A   1      43.620  25.231  26.634  1.00  0.00     0.029 A 
ATOM     38  N   UNL A   1      43.616  27.242  27.604  1.00  0.00    -0.354 N 
ATOM     39  C   UNL A   1      40.174  28.772  29.657  1.00  0.00     0.074 A 
ATOM     40  C   UNL A   1      39.199  27.726  29.876  1.00  0.00     0.031 C 
ATOM     41  C   UNL A   1      44.845  25.752  26.482  1.00  0.00     0.029 A 
ATOM     42  C   UNL A   1      44.857  27.103  27.028  1.00  0.00     0.049 A 
ATOM     43  H   UNL A   1      43.344  28.041  28.112  1.00  0.00     0.167 HD
ATOM     44  C   UNL A   1      40.059  30.037  30.129  1.00  0.00     0.037 A 
ATOM     45  C   UNL A   1      45.872  27.979  26.888  1.00  0.00     0.037 A 
ATOM     46  C   UNL A   1      41.067  31.056  29.989  1.00  0.00     0.049 A 
ATOM     47  C   UNL A   1      45.702  29.388  27.377  1.00  0.00     0.074 A 
ATOM     48  C   UNL A   1      41.051  32.355  30.467  1.00  0.00     0.029 A 
ATOM     49  N   UNL A   1      42.280  30.884  29.342  1.00  0.00    -0.354 N 
ATOM     50  N   UNL A   1      44.700  29.920  28.033  1.00  0.00    -0.248 NA
ATOM     51  C   UNL A   1      46.787  30.331  27.068  1.00  0.00     0.031 C 
ATOM     52  C   UNL A   1      42.238  32.982  30.076  1.00  0.00     0.029 A 
ATOM     53  C   UNL A   1      43.010  32.061  29.387  1.00  0.00     0.049 A 
ATOM     54  H   UNL A   1      42.578  30.050  28.912  1.00  0.00     0.167 HD
ATOM     55  C   UNL A   1      45.033  31.256  28.213  1.00  0.00     0.074 A 
ATOM     56  C   UNL A   1      46.341  31.448  27.625  1.00  0.00     0.031 C 
ATOM     57  C   UNL A   1      44.310  32.239  28.801  1.00  0.00     0.037 A 
BRANCH  44  58
ATOM     58  C   UNL A   1      38.777  30.418  30.808  1.00  0.00     0.057 A 
ATOM     59  C   UNL A   1      37.688  30.953  30.112  1.00  0.00     0.134 A 
ATOM     60  C   UNL A   1      38.614  30.176  32.179  1.00  0.00     0.134 A 
ATOM     61  F   UNL A   1      37.783  31.217  28.800  1.00  0.00    -0.206 F 
ATOM     62  C   UNL A   1      36.484  31.245  30.758  1.00  0.00     0.040 A 
ATOM     63  C   UNL A   1      37.410  30.442  32.831  1.00  0.00     0.040 A 
ATOM     64  F   UNL A   1      39.618  29.657  32.903  1.00  0.00    -0.206 F 
ATOM     65  C   UNL A   1      36.341  30.981  32.120  1.00  0.00     0.006 A 
ENDBRANCH  44  58
BRANCH  45  66
ATOM     66  C   UNL A   1      47.113  27.575  26.179  1.00  0.00     0.057 A 
ATOM     67  C   UNL A   1      47.215  27.674  24.786  1.00  0.00     0.134 A 
ATOM     68  C   UNL A   1      48.218  27.061  26.870  1.00  0.00     0.134 A 
ATOM     69  F   UNL A   1      46.181  28.129  24.065  1.00  0.00    -0.206 F 
ATOM     70  C   UNL A   1      48.367  27.270  24.108  1.00  0.00     0.040 A 
ATOM     71  C   UNL A   1      49.387  26.685  26.209  1.00  0.00     0.040 A 
ATOM     72  F   UNL A   1      48.182  26.935  28.205  1.00  0.00    -0.206 F 
ATOM     73  C   UNL A   1      49.460  26.782  24.821  1.00  0.00     0.006 A 
ENDBRANCH  45  66
BRANCH  57  74
ATOM     74  C   UNL A   1      44.928  33.604  28.854  1.00  0.00     0.057 A 
ATOM     75  C   UNL A   1      45.792  33.978  29.891  1.00  0.00     0.134 A 
ATOM     76  C   UNL A   1      44.684  34.540  27.841  1.00  0.00     0.134 A 
ATOM     77  F   UNL A   1      46.052  33.131  30.898  1.00  0.00    -0.206 F 
ATOM     78  C   UNL A   1      46.380  35.243  29.926  1.00  0.00     0.040 A 
ATOM     79  C   UNL A   1      45.283  35.800  27.856  1.00  0.00     0.040 A 
ATOM     80  F   UNL A   1      43.870  34.240  26.819  1.00  0.00    -0.206 F 
ATOM     81  C   UNL A   1      46.130  36.155  28.904  1.00  0.00     0.006 A 
ENDBRANCH  57  74
ENDBRANCH  31  32
ENDBRANCH  24  26
ENDBRANCH  23  24
ENDBRANCH  22  23
ENDBRANCH   1  22
TORSDOF 17
ENDMDL
MODEL 3
REMARK VINA RESULT:      -9.9      2.674      4.502
REMARK SMILES COc1cc(S(=O)(=O)CCO)cc(C(=O)OCCOC(=O)c2ccc(-c3c4nc(c(-c5c(F)cccc5F)c5ccc([nH]5)c(-c5c(F)cccc5F)c5nc(c(-c6c(F)cccc6F)c6ccc3[nH]6)C=C5)C=C4)cc2)c1OC
REMARK SMILES IDX 17 1 16 2 14 3 15 4 13 5 3 6 4 7 76 8 5 9 12 10 2 11 1 12
REMARK SMILES IDX 77 13 78 14 6 15 7 16 8 17 9 18 10 19 11 20 18 22 19 23
REMARK SMILES IDX 20 24 21 25 22 26 23 27 75 28 24 29 74 30 25 31 26 32 27 33
REMARK SMILES IDX 68 34 28 35 73 36 67 37 69 38 29 39 72 40 66 41 65 42 30 44
REMARK SMILES IDX 56 45 39 46 55 47 40 48 43 49 54 50 70 51 41 52 42 53 53 55
REMARK SMILES IDX 71 56 44 57 31 58 32 59 37 60 33 61 34 62 36 63 38 64 35 65
REMARK SMILES IDX 57 66 58 67 63 68 59 69 60 70 62 71 64 72 61 73 45 74 46 75
REMARK SMILES IDX 51 76 47 77 48 78 50 79 52 80 49 81
REMARK H PARENT 11 21 69 43 43 54
REMARK Flexibility Score: inf
ROOT
ATOM      1  C   UNL A   1      31.567  31.910  26.863  1.00  0.00     0.275 C 
ENDROOT
BRANCH   1   2
ATOM      2  O   UNL A   1      31.789  30.490  26.947  1.00  0.00    -0.458 OA
BRANCH   2   3
ATOM      3  C   UNL A   1      32.449  29.914  25.912  1.00  0.00     0.342 C 
ATOM      4  O   UNL A   1      33.653  29.841  25.756  1.00  0.00    -0.246 OA
BRANCH   3   5
ATOM      5  C   UNL A   1      31.483  29.246  25.012  1.00  0.00     0.107 A 
ATOM      6  C   UNL A   1      30.442  27.283  24.099  1.00  0.00     0.162 A 
ATOM      7  C   UNL A   1      29.577  28.091  23.348  1.00  0.00     0.070 A 
ATOM      8  C   UNL A   1      31.415  27.847  24.935  1.00  0.00     0.175 A 
ATOM      9  C   UNL A   1      29.644  29.484  23.456  1.00  0.00     0.072 A 
ATOM     10  C   UNL A   1      30.601  30.062  24.282  1.00  0.00     0.040 A 
BRANCH   6  11
ATOM     11  O   UNL A   1      30.307  25.927  23.959  1.00  0.00    -0.493 OA
ATOM     12  C   UNL A   1      30.985  25.468  22.788  1.00  0.00     0.278 C 
ENDBRANCH   6  11
BRANCH   8  13
ATOM     13  O   UNL A   1      32.242  27.153  25.778  1.00  0.00    -0.492 OA
ATOM     14  C   UNL A   1      33.385  26.528  25.209  1.00  0.00     0.278 C 
ENDBRANCH   8  13
BRANCH   9  15
ATOM     15  S   UNL A   1      28.468  30.426  22.506  1.00  0.00     0.180 S 
ATOM     16  O   UNL A   1      28.340  29.706  21.251  1.00  0.00    -0.224 OA
ATOM     17  O   UNL A   1      27.310  30.608  23.362  1.00  0.00    -0.224 OA
BRANCH  15  18
ATOM     18  C   UNL A   1      29.121  32.024  22.103  1.00  0.00     0.170 C 
BRANCH  18  19
ATOM     19  C   UNL A   1      28.734  33.108  23.087  1.00  0.00     0.172 C 
BRANCH  19  20
ATOM     20  O   UNL A   1      29.729  34.120  23.129  1.00  0.00    -0.395 OA
ATOM     21  H   UNL A   1      29.455  34.868  22.576  1.00  0.00     0.210 HD
ENDBRANCH  19  20
ENDBRANCH  18  19
ENDBRANCH  15  18
ENDBRANCH   9  15
ENDBRANCH   3   5
ENDBRANCH   2   3
ENDBRANCH   1   2
BRANCH   1  22
ATOM     22  C   UNL A   1      32.660  32.655  27.624  1.00  0.00     0.275 C 
BRANCH  22  23
ATOM     23  O   UNL A   1      32.347  34.059  27.617  1.00  0.00    -0.458 OA
BRANCH  23  24
ATOM     24  C   UNL A   1      32.917  34.801  28.591  1.00  0.00     0.338 C 
ATOM     25  O   UNL A   1      32.516  35.845  29.077  1.00  0.00    -0.246 OA
BRANCH  24  26
ATOM     26  C   UNL A   1      34.131  34.114  29.054  1.00  0.00     0.060 A 
ATOM     27  C   UNL A   1      34.028  33.190  30.089  1.00  0.00     0.016 A 
ATOM     28  C   UNL A   1      35.382  34.458  28.547  1.00  0.00     0.016 A 
ATOM     29  C   UNL A   1      35.176  32.685  30.687  1.00  0.00     0.010 A 
ATOM     30  C   UNL A   1      36.531  33.861  29.084  1.00  0.00     0.010 A 
ATOM     31  C   UNL A   1      36.450  32.996  30.192  1.00  0.00    -0.014 A 
BRANCH  31  32
ATOM     32  C   UNL A   1      37.681  32.458  30.853  1.00  0.00     0.031 A 
ATOM     33  C   UNL A   1      38.432  31.300  30.240  1.00  0.00     0.074 A 
ATOM     34  C   UNL A   1      38.162  33.010  31.988  1.00  0.00     0.049 A 
ATOM     35  N   UNL A   1      39.372  30.553  30.764  1.00  0.00    -0.248 NA
ATOM     36  C   UNL A   1      38.075  30.928  28.862  1.00  0.00     0.031 C 
ATOM     37  C   UNL A   1      37.602  34.174  32.677  1.00  0.00     0.029 A 
ATOM     38  N   UNL A   1      39.248  32.668  32.760  1.00  0.00    -0.354 N 
ATOM     39  C   UNL A   1      39.655  29.575  29.816  1.00  0.00     0.074 A 
ATOM     40  C   UNL A   1      38.807  29.838  28.674  1.00  0.00     0.031 C 
ATOM     41  C   UNL A   1      38.376  34.485  33.726  1.00  0.00     0.029 A 
ATOM     42  C   UNL A   1      39.415  33.472  33.864  1.00  0.00     0.049 A 
ATOM     43  H   UNL A   1      39.849  31.919  32.543  1.00  0.00     0.167 HD
ATOM     44  C   UNL A   1      40.535  28.548  29.897  1.00  0.00     0.037 A 
ATOM     45  C   UNL A   1      40.259  33.376  34.910  1.00  0.00     0.037 A 
ATOM     46  C   UNL A   1      41.443  28.334  30.994  1.00  0.00     0.049 A 
ATOM     47  C   UNL A   1      41.190  32.202  35.000  1.00  0.00     0.074 A 
ATOM     48  C   UNL A   1      42.394  27.339  31.143  1.00  0.00     0.029 A 
ATOM     49  N   UNL A   1      41.528  29.139  32.117  1.00  0.00    -0.354 N 
ATOM     50  N   UNL A   1      41.392  31.238  34.136  1.00  0.00    -0.248 NA
ATOM     51  C   UNL A   1      41.982  32.079  36.233  1.00  0.00     0.031 C 
ATOM     52  C   UNL A   1      43.029  27.520  32.375  1.00  0.00     0.029 A 
ATOM     53  C   UNL A   1      42.500  28.650  32.975  1.00  0.00     0.049 A 
ATOM     54  H   UNL A   1      40.979  29.939  32.282  1.00  0.00     0.167 HD
ATOM     55  C   UNL A   1      42.329  30.397  34.719  1.00  0.00     0.074 A 
ATOM     56  C   UNL A   1      42.680  30.977  35.998  1.00  0.00     0.031 C 
ATOM     57  C   UNL A   1      42.842  29.237  34.242  1.00  0.00     0.037 A 
BRANCH  44  58
ATOM     58  C   UNL A   1      40.535  27.537  28.788  1.00  0.00     0.057 A 
ATOM     59  C   UNL A   1      39.697  26.417  28.791  1.00  0.00     0.134 A 
ATOM     60  C   UNL A   1      41.348  27.735  27.663  1.00  0.00     0.134 A 
ATOM     61  F   UNL A   1      38.903  26.166  29.843  1.00  0.00    -0.206 F 
ATOM     62  C   UNL A   1      39.674  25.522  27.719  1.00  0.00     0.040 A 
ATOM     63  C   UNL A   1      41.318  26.861  26.576  1.00  0.00     0.040 A 
ATOM     64  F   UNL A   1      42.168  28.794  27.594  1.00  0.00    -0.206 F 
ATOM     65  C   UNL A   1      40.481  25.748  26.604  1.00  0.00     0.006 A 
ENDBRANCH  44  58
BRANCH  45  66
ATOM     66  C   UNL A   1      40.204  34.377  36.007  1.00  0.00     0.057 A 
ATOM     67  C   UNL A   1      39.298  34.242  37.065  1.00  0.00     0.134 A 
ATOM     68  C   UNL A   1      41.039  35.502  36.014  1.00  0.00     0.134 A 
ATOM     69  F   UNL A   1      38.451  33.204  37.100  1.00  0.00    -0.206 F 
ATOM     70  C   UNL A   1      39.220  35.193  38.085  1.00  0.00     0.040 A 
ATOM     71  C   UNL A   1      40.995  36.441  37.043  1.00  0.00     0.040 A 
ATOM     72  F   UNL A   1      41.926  35.692  35.026  1.00  0.00    -0.206 F 
ATOM     73  C   UNL A   1      40.076  36.292  38.080  1.00  0.00     0.006 A 
ENDBRANCH  45  66
BRANCH  57  74
ATOM     74  C   UNL A   1      43.850  28.532  35.099  1.00  0.00     0.057 A 
ATOM     75  C   UNL A   1      43.467  27.553  36.025  1.00  0.00     0.134 A 
ATOM     76  C   UNL A   1      45.217  28.808  34.971  1.00  0.00     0.134 A 
ATOM     77  F   UNL A   1      42.172  27.256  36.204  1.00  0.00    -0.206 F 
ATOM     78  C   UNL A   1      44.411  26.885  36.807  1.00  0.00     0.040 A 
ATOM     79  C   UNL A   1      46.170  28.131  35.733  1.00  0.00     0.040 A 
ATOM     80  F   UNL A   1      45.646  29.731  34.098  1.00  0.00    -0.206 F 
ATOM     81  C   UNL A   1      45.766  27.170  36.658  1.00  0.00     0.006 A 
ENDBRANCH  57  74
ENDBRANCH  31  32
ENDBRANCH  24  26
ENDBRANCH  23  24
ENDBRANCH  22  23
ENDBRANCH   1  22
TORSDOF 17
ENDMDL
