MODEL 1
REMARK VINA RESULT:     -13.0      0.000      0.000
REMARK SMILES O=C(OCCOC(=O)c1nn(Cc2ccc(F)cc2)c2c1CN(C(=O)[C@H]1CC1(F)F)CC2)c1ccc(-c2c3nc(c(-c4c(F)cccc4F)c4ccc([nH]4)c(-c4c(F)cccc4F)c4nc(c(-c5c(F)cccc5F)c5ccc2[nH]5)C=C4)C=C3)cc1
REMARK SMILES IDX 4 1 3 2 2 3 1 4 33 5 34 6 86 7 35 8 85 9 36 10 37 11 38 12
REMARK SMILES IDX 79 13 39 14 84 15 78 16 80 17 40 18 83 19 77 20 76 21 41 23
REMARK SMILES IDX 67 24 50 25 66 26 51 27 54 28 65 29 81 30 52 31 53 32 64 34
REMARK SMILES IDX 82 35 55 36 42 37 43 38 48 39 44 40 45 41 47 42 49 43 46 44
REMARK SMILES IDX 68 45 69 46 74 47 70 48 71 49 73 50 75 51 72 52 56 53 57 54
REMARK SMILES IDX 62 55 58 56 59 57 61 58 63 59 60 60 5 61 6 62 7 63 8 64 9 65
REMARK SMILES IDX 10 66 21 67 11 68 20 69 22 70 32 71 23 72 31 73 12 74 13 75
REMARK SMILES IDX 14 76 19 77 15 78 18 79 16 80 17 81 24 82 25 83 26 84 27 85
REMARK SMILES IDX 28 86 29 87 30 88
REMARK H PARENT 80 22 54 33
REMARK Flexibility Score: inf
ROOT
ATOM      1  C   UNL A   1      33.330  31.431  27.614  1.00  0.00     0.275 C 
ENDROOT
BRANCH   1   2
ATOM      2  O   UNL A   1      34.518  31.143  28.375  1.00  0.00    -0.458 OA
BRANCH   2   3
ATOM      3  C   UNL A   1      35.655  31.784  28.044  1.00  0.00     0.338 C 
ATOM      4  O   UNL A   1      35.729  32.924  27.626  1.00  0.00    -0.246 OA
BRANCH   3   5
ATOM      5  C   UNL A   1      36.827  30.930  28.338  1.00  0.00     0.060 A 
ATOM      6  C   UNL A   1      38.018  31.459  28.851  1.00  0.00     0.016 A 
ATOM      7  C   UNL A   1      36.689  29.557  28.162  1.00  0.00     0.016 A 
ATOM      8  C   UNL A   1      39.088  30.620  29.141  1.00  0.00     0.010 A 
ATOM      9  C   UNL A   1      37.737  28.715  28.512  1.00  0.00     0.010 A 
ATOM     10  C   UNL A   1      38.959  29.240  28.958  1.00  0.00    -0.014 A 
BRANCH  10  11
ATOM     11  C   UNL A   1      40.096  28.367  29.290  1.00  0.00     0.031 A 
ATOM     12  C   UNL A   1      40.579  28.310  30.720  1.00  0.00     0.074 A 
ATOM     13  C   UNL A   1      40.598  27.494  28.386  1.00  0.00     0.049 A 
ATOM     14  N   UNL A   1      41.786  28.137  31.166  1.00  0.00    -0.248 NA
ATOM     15  C   UNL A   1      39.588  28.424  31.804  1.00  0.00     0.031 C 
ATOM     16  C   UNL A   1      40.139  27.222  27.017  1.00  0.00     0.029 A 
ATOM     17  N   UNL A   1      41.588  26.573  28.558  1.00  0.00    -0.354 N 
ATOM     18  C   UNL A   1      41.685  27.967  32.550  1.00  0.00     0.074 A 
ATOM     19  C   UNL A   1      40.294  28.101  32.889  1.00  0.00     0.031 C 
ATOM     20  C   UNL A   1      40.686  26.069  26.577  1.00  0.00     0.029 A 
ATOM     21  C   UNL A   1      41.657  25.620  27.554  1.00  0.00     0.049 A 
ATOM     22  H   UNL A   1      42.199  26.583  29.329  1.00  0.00     0.167 HD
ATOM     23  C   UNL A   1      42.749  27.704  33.355  1.00  0.00     0.037 A 
ATOM     24  C   UNL A   1      42.444  24.520  27.521  1.00  0.00     0.037 A 
ATOM     25  C   UNL A   1      43.959  28.253  32.821  1.00  0.00     0.049 A 
ATOM     26  C   UNL A   1      43.563  24.741  28.461  1.00  0.00     0.074 A 
ATOM     27  C   UNL A   1      44.361  29.539  32.515  1.00  0.00     0.029 A 
ATOM     28  N   UNL A   1      44.872  27.434  32.212  1.00  0.00    -0.354 N 
ATOM     29  N   UNL A   1      44.510  25.618  28.283  1.00  0.00    -0.248 NA
ATOM     30  C   UNL A   1      43.423  24.232  29.815  1.00  0.00     0.031 C 
ATOM     31  C   UNL A   1      45.120  29.403  31.318  1.00  0.00     0.029 A 
ATOM     32  C   UNL A   1      45.165  28.040  31.016  1.00  0.00     0.049 A 
ATOM     33  H   UNL A   1      45.242  26.590  32.559  1.00  0.00     0.167 HD
ATOM     34  C   UNL A   1      44.808  26.077  29.554  1.00  0.00     0.074 A 
ATOM     35  C   UNL A   1      44.189  25.113  30.461  1.00  0.00     0.031 C 
ATOM     36  C   UNL A   1      45.296  27.334  29.764  1.00  0.00     0.037 A 
BRANCH  23  37
ATOM     37  C   UNL A   1      42.719  26.777  34.536  1.00  0.00     0.057 A 
ATOM     38  C   UNL A   1      42.103  27.123  35.753  1.00  0.00     0.134 A 
ATOM     39  C   UNL A   1      43.027  25.413  34.378  1.00  0.00     0.134 A 
ATOM     40  F   UNL A   1      41.719  28.382  36.013  1.00  0.00    -0.206 F 
ATOM     41  C   UNL A   1      41.775  26.172  36.726  1.00  0.00     0.040 A 
ATOM     42  C   UNL A   1      42.682  24.450  35.334  1.00  0.00     0.040 A 
ATOM     43  F   UNL A   1      43.609  24.964  33.256  1.00  0.00    -0.206 F 
ATOM     44  C   UNL A   1      42.039  24.827  36.507  1.00  0.00     0.006 A 
ENDBRANCH  23  37
BRANCH  24  45
ATOM     45  C   UNL A   1      42.165  23.206  26.909  1.00  0.00     0.057 A 
ATOM     46  C   UNL A   1      41.012  22.473  27.242  1.00  0.00     0.134 A 
ATOM     47  C   UNL A   1      43.150  22.519  26.188  1.00  0.00     0.134 A 
ATOM     48  F   UNL A   1      40.044  23.013  27.998  1.00  0.00    -0.206 F 
ATOM     49  C   UNL A   1      40.853  21.130  26.891  1.00  0.00     0.040 A 
ATOM     50  C   UNL A   1      43.008  21.170  25.839  1.00  0.00     0.040 A 
ATOM     51  F   UNL A   1      44.300  23.123  25.861  1.00  0.00    -0.206 F 
ATOM     52  C   UNL A   1      41.860  20.469  26.200  1.00  0.00     0.006 A 
ENDBRANCH  24  45
BRANCH  36  53
ATOM     53  C   UNL A   1      45.711  28.160  28.575  1.00  0.00     0.057 A 
ATOM     54  C   UNL A   1      47.072  28.269  28.268  1.00  0.00     0.134 A 
ATOM     55  C   UNL A   1      44.839  29.000  27.866  1.00  0.00     0.134 A 
ATOM     56  F   UNL A   1      47.979  27.549  28.948  1.00  0.00    -0.206 F 
ATOM     57  C   UNL A   1      47.544  29.168  27.306  1.00  0.00     0.040 A 
ATOM     58  C   UNL A   1      45.292  29.877  26.876  1.00  0.00     0.040 A 
ATOM     59  F   UNL A   1      43.535  29.053  28.159  1.00  0.00    -0.206 F 
ATOM     60  C   UNL A   1      46.652  29.969  26.601  1.00  0.00     0.006 A 
ENDBRANCH  36  53
ENDBRANCH  10  11
ENDBRANCH   3   5
ENDBRANCH   2   3
ENDBRANCH   1   2
BRANCH   1  61
ATOM     61  C   UNL A   1      32.749  30.328  26.721  1.00  0.00     0.275 C 
BRANCH  61  62
ATOM     62  O   UNL A   1      33.134  29.019  27.185  1.00  0.00    -0.457 OA
BRANCH  62  63
ATOM     63  C   UNL A   1      32.143  28.067  27.257  1.00  0.00     0.359 C 
ATOM     64  O   UNL A   1      31.422  27.874  28.224  1.00  0.00    -0.244 OA
BRANCH  63  65
ATOM     65  C   UNL A   1      32.073  27.252  26.039  1.00  0.00     0.175 A 
ATOM     66  N   UNL A   1      32.795  26.115  25.952  1.00  0.00    -0.165 NA
ATOM     67  C   UNL A   1      31.267  27.424  24.870  1.00  0.00     0.028 A 
ATOM     68  N   UNL A   1      32.431  25.554  24.783  1.00  0.00    -0.264 N 
ATOM     69  C   UNL A   1      31.619  26.369  24.057  1.00  0.00     0.046 A 
ATOM     70  C   UNL A   1      30.269  28.462  24.477  1.00  0.00     0.159 C 
ATOM     71  C   UNL A   1      31.113  26.156  22.689  1.00  0.00     0.078 C 
ATOM     72  N   UNL A   1      29.840  28.313  23.055  1.00  0.00    -0.337 N 
ATOM     73  C   UNL A   1      30.655  27.509  22.130  1.00  0.00     0.126 C 
BRANCH  68  74
ATOM     74  C   UNL A   1      32.708  24.144  24.530  1.00  0.00     0.180 C 
BRANCH  74  75
ATOM     75  C   UNL A   1      34.152  23.770  24.737  1.00  0.00    -0.026 A 
ATOM     76  C   UNL A   1      35.002  23.617  23.628  1.00  0.00     0.008 A 
ATOM     77  C   UNL A   1      34.676  23.608  26.028  1.00  0.00     0.008 A 
ATOM     78  C   UNL A   1      36.354  23.327  23.807  1.00  0.00     0.039 A 
ATOM     79  C   UNL A   1      36.031  23.322  26.203  1.00  0.00     0.039 A 
ATOM     80  C   UNL A   1      36.857  23.187  25.093  1.00  0.00     0.123 A 
ATOM     81  F   UNL A   1      38.158  22.926  25.267  1.00  0.00    -0.207 F 
ENDBRANCH  74  75
ENDBRANCH  68  74
BRANCH  72  82
ATOM     82  C   UNL A   1      28.884  29.221  22.591  1.00  0.00     0.232 C 
ATOM     83  O   UNL A   1      27.720  28.910  22.375  1.00  0.00    -0.274 OA
BRANCH  82  84
ATOM     84  C   UNL A   1      29.286  30.645  22.479  1.00  0.00     0.154 C 
ATOM     85  C   UNL A   1      28.453  31.652  21.700  1.00  0.00     0.097 C 
ATOM     86  C   UNL A   1      28.509  31.697  23.178  1.00  0.00     0.260 C 
ATOM     87  F   UNL A   1      27.352  31.457  23.877  1.00  0.00    -0.206 F 
ATOM     88  F   UNL A   1      29.132  32.773  23.770  1.00  0.00    -0.206 F 
ENDBRANCH  82  84
ENDBRANCH  72  82
ENDBRANCH  63  65
ENDBRANCH  62  63
ENDBRANCH  61  62
ENDBRANCH   1  61
TORSDOF 15
ENDMDL
MODEL 2
REMARK VINA RESULT:     -12.9      3.063      6.874
REMARK SMILES O=C(OCCOC(=O)c1nn(Cc2ccc(F)cc2)c2c1CN(C(=O)[C@H]1CC1(F)F)CC2)c1ccc(-c2c3nc(c(-c4c(F)cccc4F)c4ccc([nH]4)c(-c4c(F)cccc4F)c4nc(c(-c5c(F)cccc5F)c5ccc2[nH]5)C=C4)C=C3)cc1
REMARK SMILES IDX 4 1 3 2 2 3 1 4 33 5 34 6 86 7 35 8 85 9 36 10 37 11 38 12
REMARK SMILES IDX 79 13 39 14 84 15 78 16 80 17 40 18 83 19 77 20 76 21 41 23
REMARK SMILES IDX 67 24 50 25 66 26 51 27 54 28 65 29 81 30 52 31 53 32 64 34
REMARK SMILES IDX 82 35 55 36 42 37 43 38 48 39 44 40 45 41 47 42 49 43 46 44
REMARK SMILES IDX 68 45 69 46 74 47 70 48 71 49 73 50 75 51 72 52 56 53 57 54
REMARK SMILES IDX 62 55 58 56 59 57 61 58 63 59 60 60 5 61 6 62 7 63 8 64 9 65
REMARK SMILES IDX 10 66 21 67 11 68 20 69 22 70 32 71 23 72 31 73 12 74 13 75
REMARK SMILES IDX 14 76 19 77 15 78 18 79 16 80 17 81 24 82 25 83 26 84 27 85
REMARK SMILES IDX 28 86 29 87 30 88
REMARK H PARENT 80 22 54 33
REMARK Flexibility Score: inf
ROOT
ATOM      1  C   UNL A   1      32.565  32.845  27.618  1.00  0.00     0.275 C 
ENDROOT
BRANCH   1   2
ATOM      2  O   UNL A   1      32.126  34.204  27.811  1.00  0.00    -0.458 OA
BRANCH   2   3
ATOM      3  C   UNL A   1      32.813  34.976  28.674  1.00  0.00     0.338 C 
ATOM      4  O   UNL A   1      32.388  35.976  29.222  1.00  0.00    -0.246 OA
BRANCH   3   5
ATOM      5  C   UNL A   1      34.146  34.391  28.933  1.00  0.00     0.060 A 
ATOM      6  C   UNL A   1      34.478  33.820  30.168  1.00  0.00     0.016 A 
ATOM      7  C   UNL A   1      35.054  34.353  27.878  1.00  0.00     0.016 A 
ATOM      8  C   UNL A   1      35.733  33.255  30.363  1.00  0.00     0.010 A 
ATOM      9  C   UNL A   1      36.283  33.731  28.056  1.00  0.00     0.010 A 
ATOM     10  C   UNL A   1      36.651  33.220  29.310  1.00  0.00    -0.014 A 
BRANCH  10  11
ATOM     11  C   UNL A   1      37.968  32.600  29.532  1.00  0.00     0.031 A 
ATOM     12  C   UNL A   1      38.143  31.132  29.220  1.00  0.00     0.074 A 
ATOM     13  C   UNL A   1      39.053  33.348  29.837  1.00  0.00     0.049 A 
ATOM     14  N   UNL A   1      38.904  30.260  29.809  1.00  0.00    -0.248 NA
ATOM     15  C   UNL A   1      37.406  30.560  28.081  1.00  0.00     0.031 C 
ATOM     16  C   UNL A   1      39.158  34.807  29.965  1.00  0.00     0.029 A 
ATOM     17  N   UNL A   1      40.344  32.940  29.996  1.00  0.00    -0.354 N 
ATOM     18  C   UNL A   1      38.860  29.098  29.035  1.00  0.00     0.074 A 
ATOM     19  C   UNL A   1      37.958  29.353  27.944  1.00  0.00     0.031 C 
ATOM     20  C   UNL A   1      40.458  35.170  29.951  1.00  0.00     0.029 A 
ATOM     21  C   UNL A   1      41.270  33.970  29.989  1.00  0.00     0.049 A 
ATOM     22  H   UNL A   1      40.596  31.995  30.105  1.00  0.00     0.167 HD
ATOM     23  C   UNL A   1      39.583  27.980  29.314  1.00  0.00     0.037 A 
ATOM     24  C   UNL A   1      42.618  33.861  29.997  1.00  0.00     0.037 A 
ATOM     25  C   UNL A   1      39.836  27.856  30.718  1.00  0.00     0.049 A 
ATOM     26  C   UNL A   1      42.957  32.517  30.512  1.00  0.00     0.074 A 
ATOM     27  C   UNL A   1      39.013  27.739  31.822  1.00  0.00     0.029 A 
ATOM     28  N   UNL A   1      41.073  28.160  31.221  1.00  0.00    -0.354 N 
ATOM     29  N   UNL A   1      42.758  32.129  31.740  1.00  0.00    -0.248 NA
ATOM     30  C   UNL A   1      43.176  31.455  29.544  1.00  0.00     0.031 C 
ATOM     31  C   UNL A   1      39.653  28.513  32.831  1.00  0.00     0.029 A 
ATOM     32  C   UNL A   1      40.840  28.999  32.281  1.00  0.00     0.049 A 
ATOM     33  H   UNL A   1      41.945  27.842  30.893  1.00  0.00     0.167 HD
ATOM     34  C   UNL A   1      42.419  30.791  31.636  1.00  0.00     0.074 A 
ATOM     35  C   UNL A   1      42.799  30.408  30.279  1.00  0.00     0.031 C 
ATOM     36  C   UNL A   1      41.618  30.183  32.559  1.00  0.00     0.037 A 
BRANCH  23  37
ATOM     37  C   UNL A   1      40.228  27.099  28.284  1.00  0.00     0.057 A 
ATOM     38  C   UNL A   1      39.768  25.798  28.007  1.00  0.00     0.134 A 
ATOM     39  C   UNL A   1      41.114  27.644  27.335  1.00  0.00     0.134 A 
ATOM     40  F   UNL A   1      38.887  25.180  28.808  1.00  0.00    -0.206 F 
ATOM     41  C   UNL A   1      40.129  25.104  26.846  1.00  0.00     0.040 A 
ATOM     42  C   UNL A   1      41.462  26.969  26.159  1.00  0.00     0.040 A 
ATOM     43  F   UNL A   1      41.612  28.880  27.488  1.00  0.00    -0.206 F 
ATOM     44  C   UNL A   1      40.957  25.699  25.903  1.00  0.00     0.006 A 
ENDBRANCH  23  37
BRANCH  24  45
ATOM     45  C   UNL A   1      43.619  34.751  29.375  1.00  0.00     0.057 A 
ATOM     46  C   UNL A   1      44.135  35.863  30.062  1.00  0.00     0.134 A 
ATOM     47  C   UNL A   1      43.891  34.688  28.003  1.00  0.00     0.134 A 
ATOM     48  F   UNL A   1      43.865  36.061  31.362  1.00  0.00    -0.206 F 
ATOM     49  C   UNL A   1      44.869  36.864  29.419  1.00  0.00     0.040 A 
ATOM     50  C   UNL A   1      44.616  35.688  27.344  1.00  0.00     0.040 A 
ATOM     51  F   UNL A   1      43.406  33.685  27.258  1.00  0.00    -0.206 F 
ATOM     52  C   UNL A   1      45.099  36.786  28.051  1.00  0.00     0.006 A 
ENDBRANCH  24  45
BRANCH  36  53
ATOM     53  C   UNL A   1      41.268  30.928  33.820  1.00  0.00     0.057 A 
ATOM     54  C   UNL A   1      41.954  30.621  35.001  1.00  0.00     0.134 A 
ATOM     55  C   UNL A   1      40.155  31.773  33.943  1.00  0.00     0.134 A 
ATOM     56  F   UNL A   1      42.990  29.766  34.979  1.00  0.00    -0.206 F 
ATOM     57  C   UNL A   1      41.555  31.127  36.242  1.00  0.00     0.040 A 
ATOM     58  C   UNL A   1      39.766  32.315  35.172  1.00  0.00     0.040 A 
ATOM     59  F   UNL A   1      39.366  32.040  32.897  1.00  0.00    -0.206 F 
ATOM     60  C   UNL A   1      40.462  31.983  36.329  1.00  0.00     0.006 A 
ENDBRANCH  36  53
ENDBRANCH  10  11
ENDBRANCH   3   5
ENDBRANCH   2   3
ENDBRANCH   1   2
BRANCH   1  61
ATOM     61  C   UNL A   1      31.737  31.934  26.704  1.00  0.00     0.275 C 
BRANCH  61  62
ATOM     62  O   UNL A   1      31.879  30.548  27.074  1.00  0.00    -0.457 OA
BRANCH  62  63
ATOM     63  C   UNL A   1      32.980  29.883  26.587  1.00  0.00     0.359 C 
ATOM     64  O   UNL A   1      34.134  30.276  26.671  1.00  0.00    -0.244 OA
BRANCH  63  65
ATOM     65  C   UNL A   1      32.612  28.644  25.892  1.00  0.00     0.175 A 
ATOM     66  N   UNL A   1      33.248  27.492  26.196  1.00  0.00    -0.165 NA
ATOM     67  C   UNL A   1      31.582  28.409  24.928  1.00  0.00     0.028 A 
ATOM     68  N   UNL A   1      32.616  26.542  25.481  1.00  0.00    -0.264 N 
ATOM     69  C   UNL A   1      31.703  27.071  24.622  1.00  0.00     0.046 A 
ATOM     70  C   UNL A   1      30.570  29.304  24.296  1.00  0.00     0.159 C 
ATOM     71  C   UNL A   1      30.905  26.366  23.604  1.00  0.00     0.078 C 
ATOM     72  N   UNL A   1      29.837  28.623  23.187  1.00  0.00    -0.337 N 
ATOM     73  C   UNL A   1      30.397  27.399  22.591  1.00  0.00     0.126 C 
BRANCH  68  74
ATOM     74  C   UNL A   1      32.769  25.135  25.837  1.00  0.00     0.180 C 
BRANCH  74  75
ATOM     75  C   UNL A   1      33.833  24.427  25.041  1.00  0.00    -0.026 A 
ATOM     76  C   UNL A   1      33.508  23.832  23.810  1.00  0.00     0.008 A 
ATOM     77  C   UNL A   1      35.162  24.386  25.491  1.00  0.00     0.008 A 
ATOM     78  C   UNL A   1      34.494  23.223  23.035  1.00  0.00     0.039 A 
ATOM     79  C   UNL A   1      36.147  23.778  24.711  1.00  0.00     0.039 A 
ATOM     80  C   UNL A   1      35.805  23.207  23.490  1.00  0.00     0.123 A 
ATOM     81  F   UNL A   1      36.756  22.637  22.739  1.00  0.00    -0.207 F 
ENDBRANCH  74  75
ENDBRANCH  68  74
BRANCH  72  82
ATOM     82  C   UNL A   1      28.845  29.366  22.543  1.00  0.00     0.232 C 
ATOM     83  O   UNL A   1      27.670  29.022  22.510  1.00  0.00    -0.274 OA
BRANCH  82  84
ATOM     84  C   UNL A   1      29.227  30.686  21.986  1.00  0.00     0.154 C 
ATOM     85  C   UNL A   1      28.310  31.455  21.045  1.00  0.00     0.097 C 
ATOM     86  C   UNL A   1      28.531  31.917  22.434  1.00  0.00     0.260 C 
ATOM     87  F   UNL A   1      27.460  31.919  23.293  1.00  0.00    -0.206 F 
ATOM     88  F   UNL A   1      29.214  33.098  22.624  1.00  0.00    -0.206 F 
ENDBRANCH  82  84
ENDBRANCH  72  82
ENDBRANCH  63  65
ENDBRANCH  62  63
ENDBRANCH  61  62
ENDBRANCH   1  61
TORSDOF 15
ENDMDL
MODEL 3
REMARK VINA RESULT:     -12.9      3.923      8.105
REMARK SMILES O=C(OCCOC(=O)c1nn(Cc2ccc(F)cc2)c2c1CN(C(=O)[C@H]1CC1(F)F)CC2)c1ccc(-c2c3nc(c(-c4c(F)cccc4F)c4ccc([nH]4)c(-c4c(F)cccc4F)c4nc(c(-c5c(F)cccc5F)c5ccc2[nH]5)C=C4)C=C3)cc1
REMARK SMILES IDX 4 1 3 2 2 3 1 4 33 5 34 6 86 7 35 8 85 9 36 10 37 11 38 12
REMARK SMILES IDX 79 13 39 14 84 15 78 16 80 17 40 18 83 19 77 20 76 21 41 23
REMARK SMILES IDX 67 24 50 25 66 26 51 27 54 28 65 29 81 30 52 31 53 32 64 34
REMARK SMILES IDX 82 35 55 36 42 37 43 38 48 39 44 40 45 41 47 42 49 43 46 44
REMARK SMILES IDX 68 45 69 46 74 47 70 48 71 49 73 50 75 51 72 52 56 53 57 54
REMARK SMILES IDX 62 55 58 56 59 57 61 58 63 59 60 60 5 61 6 62 7 63 8 64 9 65
REMARK SMILES IDX 10 66 21 67 11 68 20 69 22 70 32 71 23 72 31 73 12 74 13 75
REMARK SMILES IDX 14 76 19 77 15 78 18 79 16 80 17 81 24 82 25 83 26 84 27 85
REMARK SMILES IDX 28 86 29 87 30 88
REMARK H PARENT 80 22 54 33
REMARK Flexibility Score: inf
ROOT
ATOM      1  C   UNL A   1      38.739  21.673  25.691  1.00  0.00     0.275 C 
ENDROOT
BRANCH   1   2
ATOM      2  O   UNL A   1      39.452  22.234  26.810  1.00  0.00    -0.458 OA
BRANCH   2   3
ATOM      3  C   UNL A   1      40.673  22.756  26.587  1.00  0.00     0.338 C 
ATOM      4  O   UNL A   1      41.578  22.210  25.986  1.00  0.00    -0.246 OA
BRANCH   3   5
ATOM      5  C   UNL A   1      40.740  24.138  27.111  1.00  0.00     0.060 A 
ATOM      6  C   UNL A   1      39.802  25.114  26.748  1.00  0.00     0.016 A 
ATOM      7  C   UNL A   1      41.727  24.430  28.047  1.00  0.00     0.016 A 
ATOM      8  C   UNL A   1      39.882  26.394  27.284  1.00  0.00     0.010 A 
ATOM      9  C   UNL A   1      41.767  25.691  28.628  1.00  0.00     0.010 A 
ATOM     10  C   UNL A   1      40.877  26.696  28.218  1.00  0.00    -0.014 A 
BRANCH  10  11
ATOM     11  C   UNL A   1      40.933  28.052  28.788  1.00  0.00     0.031 A 
ATOM     12  C   UNL A   1      42.068  28.964  28.388  1.00  0.00     0.074 A 
ATOM     13  C   UNL A   1      39.906  28.550  29.514  1.00  0.00     0.049 A 
ATOM     14  N   UNL A   1      42.665  29.879  29.091  1.00  0.00    -0.248 NA
ATOM     15  C   UNL A   1      42.589  28.880  27.013  1.00  0.00     0.031 C 
ATOM     16  C   UNL A   1      38.616  27.925  29.833  1.00  0.00     0.029 A 
ATOM     17  N   UNL A   1      39.770  29.801  30.040  1.00  0.00    -0.354 N 
ATOM     18  C   UNL A   1      43.508  30.572  28.220  1.00  0.00     0.074 A 
ATOM     19  C   UNL A   1      43.385  29.948  26.930  1.00  0.00     0.031 C 
ATOM     20  C   UNL A   1      37.758  28.863  30.287  1.00  0.00     0.029 A 
ATOM     21  C   UNL A   1      38.483  30.106  30.454  1.00  0.00     0.049 A 
ATOM     22  H   UNL A   1      40.521  30.432  30.119  1.00  0.00     0.167 HD
ATOM     23  C   UNL A   1      44.258  31.644  28.592  1.00  0.00     0.037 A 
ATOM     24  C   UNL A   1      38.024  31.301  30.890  1.00  0.00     0.037 A 
ATOM     25  C   UNL A   1      44.613  31.580  29.978  1.00  0.00     0.049 A 
ATOM     26  C   UNL A   1      39.190  32.095  31.333  1.00  0.00     0.074 A 
ATOM     27  C   UNL A   1      45.331  30.669  30.730  1.00  0.00     0.029 A 
ATOM     28  N   UNL A   1      43.962  32.367  30.890  1.00  0.00    -0.354 N 
ATOM     29  N   UNL A   1      39.918  31.813  32.376  1.00  0.00    -0.248 NA
ATOM     30  C   UNL A   1      39.788  33.012  30.377  1.00  0.00     0.031 C 
ATOM     31  C   UNL A   1      44.640  30.607  31.974  1.00  0.00     0.029 A 
ATOM     32  C   UNL A   1      43.587  31.521  31.902  1.00  0.00     0.049 A 
ATOM     33  H   UNL A   1      43.798  33.337  30.831  1.00  0.00     0.167 HD
ATOM     34  C   UNL A   1      41.204  32.177  32.016  1.00  0.00     0.074 A 
ATOM     35  C   UNL A   1      41.045  33.006  30.824  1.00  0.00     0.031 C 
ATOM     36  C   UNL A   1      42.298  31.560  32.551  1.00  0.00     0.037 A 
BRANCH  23  37
ATOM     37  C   UNL A   1      44.507  32.853  27.738  1.00  0.00     0.057 A 
ATOM     38  C   UNL A   1      43.775  34.046  27.884  1.00  0.00     0.134 A 
ATOM     39  C   UNL A   1      45.683  32.954  26.972  1.00  0.00     0.134 A 
ATOM     40  F   UNL A   1      42.657  34.097  28.625  1.00  0.00    -0.206 F 
ATOM     41  C   UNL A   1      44.205  35.264  27.344  1.00  0.00     0.040 A 
ATOM     42  C   UNL A   1      46.137  34.171  26.448  1.00  0.00     0.040 A 
ATOM     43  F   UNL A   1      46.468  31.884  26.770  1.00  0.00    -0.206 F 
ATOM     44  C   UNL A   1      45.404  35.335  26.647  1.00  0.00     0.006 A 
ENDBRANCH  23  37
BRANCH  24  45
ATOM     45  C   UNL A   1      36.676  31.884  30.735  1.00  0.00     0.057 A 
ATOM     46  C   UNL A   1      36.280  32.499  29.534  1.00  0.00     0.134 A 
ATOM     47  C   UNL A   1      35.843  32.088  31.841  1.00  0.00     0.134 A 
ATOM     48  F   UNL A   1      37.048  32.432  28.436  1.00  0.00    -0.206 F 
ATOM     49  C   UNL A   1      35.128  33.286  29.442  1.00  0.00     0.040 A 
ATOM     50  C   UNL A   1      34.692  32.882  31.766  1.00  0.00     0.040 A 
ATOM     51  F   UNL A   1      36.161  31.574  33.037  1.00  0.00    -0.206 F 
ATOM     52  C   UNL A   1      34.337  33.492  30.566  1.00  0.00     0.006 A 
ENDBRANCH  24  45
BRANCH  36  53
ATOM     53  C   UNL A   1      42.104  30.610  33.704  1.00  0.00     0.057 A 
ATOM     54  C   UNL A   1      42.388  31.052  35.001  1.00  0.00     0.134 A 
ATOM     55  C   UNL A   1      41.850  29.239  33.549  1.00  0.00     0.134 A 
ATOM     56  F   UNL A   1      42.708  32.337  35.223  1.00  0.00    -0.206 F 
ATOM     57  C   UNL A   1      42.420  30.177  36.091  1.00  0.00     0.040 A 
ATOM     58  C   UNL A   1      41.842  28.358  34.635  1.00  0.00     0.040 A 
ATOM     59  F   UNL A   1      41.677  28.696  32.340  1.00  0.00    -0.206 F 
ATOM     60  C   UNL A   1      42.139  28.826  35.910  1.00  0.00     0.006 A 
ENDBRANCH  36  53
ENDBRANCH  10  11
ENDBRANCH   3   5
ENDBRANCH   2   3
ENDBRANCH   1   2
BRANCH   1  61
ATOM     61  C   UNL A   1      37.222  21.884  25.612  1.00  0.00     0.275 C 
BRANCH  61  62
ATOM     62  O   UNL A   1      36.898  23.157  25.020  1.00  0.00    -0.457 OA
BRANCH  62  63
ATOM     63  C   UNL A   1      36.048  23.144  23.938  1.00  0.00     0.359 C 
ATOM     64  O   UNL A   1      36.383  23.333  22.779  1.00  0.00    -0.244 OA
BRANCH  63  65
ATOM     65  C   UNL A   1      34.653  22.924  24.336  1.00  0.00     0.175 A 
ATOM     66  N   UNL A   1      34.065  21.735  24.083  1.00  0.00    -0.165 NA
ATOM     67  C   UNL A   1      33.762  23.781  25.054  1.00  0.00     0.028 A 
ATOM     68  N   UNL A   1      32.850  21.814  24.659  1.00  0.00    -0.264 N 
ATOM     69  C   UNL A   1      32.590  23.061  25.136  1.00  0.00     0.046 A 
ATOM     70  C   UNL A   1      33.917  25.155  25.614  1.00  0.00     0.159 C 
ATOM     71  C   UNL A   1      31.335  23.562  25.722  1.00  0.00     0.078 C 
ATOM     72  N   UNL A   1      32.621  25.708  26.107  1.00  0.00    -0.337 N 
ATOM     73  C   UNL A   1      31.357  25.094  25.669  1.00  0.00     0.126 C 
BRANCH  68  74
ATOM     74  C   UNL A   1      32.086  20.599  24.924  1.00  0.00     0.180 C 
BRANCH  74  75
ATOM     75  C   UNL A   1      32.706  19.360  24.335  1.00  0.00    -0.026 A 
ATOM     76  C   UNL A   1      32.248  18.867  23.100  1.00  0.00     0.008 A 
ATOM     77  C   UNL A   1      33.766  18.707  24.981  1.00  0.00     0.008 A 
ATOM     78  C   UNL A   1      32.851  17.754  22.514  1.00  0.00     0.039 A 
ATOM     79  C   UNL A   1      34.369  17.596  24.390  1.00  0.00     0.039 A 
ATOM     80  C   UNL A   1      33.909  17.133  23.163  1.00  0.00     0.123 A 
ATOM     81  F   UNL A   1      34.500  16.074  22.593  1.00  0.00    -0.207 F 
ENDBRANCH  74  75
ENDBRANCH  68  74
BRANCH  72  82
ATOM     82  C   UNL A   1      32.659  26.983  26.677  1.00  0.00     0.232 C 
ATOM     83  O   UNL A   1      31.774  27.414  27.404  1.00  0.00    -0.274 OA
BRANCH  82  84
ATOM     84  C   UNL A   1      33.890  27.787  26.480  1.00  0.00     0.154 C 
ATOM     85  C   UNL A   1      33.936  28.958  25.510  1.00  0.00     0.097 C 
ATOM     86  C   UNL A   1      33.957  29.184  26.972  1.00  0.00     0.260 C 
ATOM     87  F   UNL A   1      32.896  29.847  27.540  1.00  0.00    -0.206 F 
ATOM     88  F   UNL A   1      35.108  29.693  27.533  1.00  0.00    -0.206 F 
ENDBRANCH  82  84
ENDBRANCH  72  82
ENDBRANCH  63  65
ENDBRANCH  62  63
ENDBRANCH  61  62
ENDBRANCH   1  61
TORSDOF 15
ENDMDL
