MODEL 1
REMARK VINA RESULT:     -11.5      0.000      0.000
REMARK SMILES COc1ccc(-c2ccc(CCC(=O)OCCOC(=O)c3ccc(-c4c5nc(c(-c6c(F)cccc6F)c6ccc([nH]6)c(-c6c(F)cccc6F)c6nc(c(-c7c(F)cccc7F)c7ccc4[nH]7)C=C6)C=C5)cc3)n2-c2ccc(C(C)=O)cc2)cc1
REMARK SMILES IDX 16 1 15 2 13 3 14 4 12 5 11 6 10 7 7 8 8 9 75 10 9 11 6 12
REMARK SMILES IDX 3 13 4 14 86 15 5 16 85 17 2 18 1 19 76 20 77 21 84 22 78 23
REMARK SMILES IDX 83 24 79 25 80 26 81 27 82 28 17 29 18 30 19 31 20 32 21 33
REMARK SMILES IDX 22 34 74 35 23 36 73 37 24 38 25 39 26 40 67 41 27 42 72 43
REMARK SMILES IDX 66 44 68 45 28 46 71 47 65 48 64 49 29 51 55 52 38 53 54 54
REMARK SMILES IDX 39 55 42 56 53 57 69 58 40 59 41 60 52 62 70 63 43 64 30 65
REMARK SMILES IDX 31 66 36 67 32 68 33 69 35 70 37 71 34 72 56 73 57 74 62 75
REMARK SMILES IDX 58 76 59 77 61 78 63 79 60 80 44 81 45 82 50 83 46 84 47 85
REMARK SMILES IDX 49 86 51 87 48 88
REMARK H PARENT 68 50 42 61
REMARK Flexibility Score: inf
ROOT
ATOM      1  C   UNL A   1      37.632  22.274  25.378  1.00  0.00     0.274 C 
ENDROOT
BRANCH   1   2
ATOM      2  O   UNL A   1      36.360  22.281  26.055  1.00  0.00    -0.462 OA
BRANCH   2   3
ATOM      3  C   UNL A   1      35.245  22.294  25.280  1.00  0.00     0.306 C 
ATOM      4  O   UNL A   1      34.805  21.323  24.675  1.00  0.00    -0.252 OA
BRANCH   3   5
ATOM      5  C   UNL A   1      34.622  23.670  25.192  1.00  0.00     0.129 C 
BRANCH   5   6
ATOM      6  C   UNL A   1      33.185  23.788  25.700  1.00  0.00     0.066 C 
BRANCH   6   7
ATOM      7  C   UNL A   1      32.229  24.329  24.667  1.00  0.00     0.024 A 
ATOM      8  C   UNL A   1      30.636  25.681  23.827  1.00  0.00     0.053 A 
ATOM      9  C   UNL A   1      30.586  24.490  23.130  1.00  0.00     0.029 A 
ATOM     10  N   UNL A   1      31.757  25.638  24.650  1.00  0.00    -0.314 N 
ATOM     11  C   UNL A   1      31.607  23.671  23.622  1.00  0.00     0.024 A 
BRANCH   8  12
ATOM     12  C   UNL A   1      29.769  26.821  23.599  1.00  0.00    -0.001 A 
ATOM     13  C   UNL A   1      28.050  28.943  23.060  1.00  0.00     0.118 A 
ATOM     14  C   UNL A   1      29.404  29.046  22.743  1.00  0.00     0.047 A 
ATOM     15  C   UNL A   1      27.542  27.764  23.607  1.00  0.00     0.047 A 
ATOM     16  C   UNL A   1      30.268  27.989  23.017  1.00  0.00     0.014 A 
ATOM     17  C   UNL A   1      28.404  26.703  23.876  1.00  0.00     0.014 A 
BRANCH  13  18
ATOM     18  O   UNL A   1      27.276  30.028  22.750  1.00  0.00    -0.497 OA
ATOM     19  C   UNL A   1      27.939  31.271  22.958  1.00  0.00     0.278 C 
ENDBRANCH  13  18
ENDBRANCH   8  12
BRANCH  10  20
ATOM     20  C   UNL A   1      32.360  26.730  25.324  1.00  0.00     0.046 A 
ATOM     21  C   UNL A   1      31.809  27.154  26.540  1.00  0.00     0.027 A 
ATOM     22  C   UNL A   1      33.480  27.366  24.797  1.00  0.00     0.027 A 
ATOM     23  C   UNL A   1      32.368  28.236  27.225  1.00  0.00     0.014 A 
ATOM     24  C   UNL A   1      34.023  28.460  25.478  1.00  0.00     0.014 A 
ATOM     25  C   UNL A   1      33.474  28.908  26.693  1.00  0.00     0.017 A 
BRANCH  25  26
ATOM     26  C   UNL A   1      34.105  30.096  27.347  1.00  0.00     0.159 C 
ATOM     27  C   UNL A   1      35.583  30.131  27.645  1.00  0.00     0.093 C 
ATOM     28  O   UNL A   1      33.402  31.066  27.632  1.00  0.00    -0.295 OA
ENDBRANCH  25  26
ENDBRANCH  10  20
ENDBRANCH   6   7
ENDBRANCH   5   6
ENDBRANCH   3   5
ENDBRANCH   2   3
ENDBRANCH   1   2
BRANCH   1  29
ATOM     29  C   UNL A   1      38.297  20.894  25.310  1.00  0.00     0.275 C 
BRANCH  29  30
ATOM     30  O   UNL A   1      39.059  20.550  26.480  1.00  0.00    -0.458 OA
BRANCH  30  31
ATOM     31  C   UNL A   1      40.338  20.260  26.180  1.00  0.00     0.338 C 
ATOM     32  O   UNL A   1      40.768  19.208  25.751  1.00  0.00    -0.246 OA
BRANCH  31  33
ATOM     33  C   UNL A   1      41.315  21.246  26.588  1.00  0.00     0.060 A 
ATOM     34  C   UNL A   1      41.398  21.509  27.964  1.00  0.00     0.016 A 
ATOM     35  C   UNL A   1      41.747  22.153  25.621  1.00  0.00     0.016 A 
ATOM     36  C   UNL A   1      41.868  22.734  28.381  1.00  0.00     0.010 A 
ATOM     37  C   UNL A   1      42.206  23.387  26.039  1.00  0.00     0.010 A 
ATOM     38  C   UNL A   1      42.251  23.670  27.414  1.00  0.00    -0.014 A 
BRANCH  38  39
ATOM     39  C   UNL A   1      42.907  24.899  27.880  1.00  0.00     0.031 A 
ATOM     40  C   UNL A   1      41.869  25.948  28.292  1.00  0.00     0.074 A 
ATOM     41  C   UNL A   1      44.271  24.899  27.857  1.00  0.00     0.049 A 
ATOM     42  N   UNL A   1      42.003  27.222  28.498  1.00  0.00    -0.248 NA
ATOM     43  C   UNL A   1      40.448  25.525  28.462  1.00  0.00     0.031 C 
ATOM     44  C   UNL A   1      45.103  23.765  27.402  1.00  0.00     0.029 A 
ATOM     45  N   UNL A   1      45.232  25.828  28.196  1.00  0.00    -0.354 N 
ATOM     46  C   UNL A   1      40.781  27.684  29.025  1.00  0.00     0.074 A 
ATOM     47  C   UNL A   1      39.831  26.629  28.876  1.00  0.00     0.031 C 
ATOM     48  C   UNL A   1      46.412  24.093  27.422  1.00  0.00     0.029 A 
ATOM     49  C   UNL A   1      46.570  25.448  27.916  1.00  0.00     0.049 A 
ATOM     50  H   UNL A   1      45.005  26.695  28.603  1.00  0.00     0.167 HD
ATOM     51  C   UNL A   1      40.646  28.870  29.680  1.00  0.00     0.037 A 
ATOM     52  C   UNL A   1      47.718  26.185  28.044  1.00  0.00     0.037 A 
ATOM     53  C   UNL A   1      41.854  29.616  29.625  1.00  0.00     0.049 A 
ATOM     54  C   UNL A   1      47.304  27.425  28.723  1.00  0.00     0.074 A 
ATOM     55  C   UNL A   1      42.453  30.316  28.611  1.00  0.00     0.029 A 
ATOM     56  N   UNL A   1      42.770  29.405  30.625  1.00  0.00    -0.354 N 
ATOM     57  N   UNL A   1      46.983  27.506  29.980  1.00  0.00    -0.248 NA
ATOM     58  C   UNL A   1      47.145  28.649  27.929  1.00  0.00     0.031 C 
ATOM     59  C   UNL A   1      43.834  30.155  28.849  1.00  0.00     0.029 A 
ATOM     60  C   UNL A   1      44.022  29.483  30.061  1.00  0.00     0.049 A 
ATOM     61  H   UNL A   1      42.567  29.230  31.572  1.00  0.00     0.167 HD
ATOM     62  C   UNL A   1      46.279  28.686  30.032  1.00  0.00     0.074 A 
ATOM     63  C   UNL A   1      46.680  29.456  28.878  1.00  0.00     0.031 C 
ATOM     64  C   UNL A   1      45.091  28.736  30.686  1.00  0.00     0.037 A 
BRANCH  51  65
ATOM     65  C   UNL A   1      39.541  29.364  30.557  1.00  0.00     0.057 A 
ATOM     66  C   UNL A   1      39.277  28.683  31.764  1.00  0.00     0.134 A 
ATOM     67  C   UNL A   1      38.550  30.255  30.126  1.00  0.00     0.134 A 
ATOM     68  F   UNL A   1      40.172  27.828  32.284  1.00  0.00    -0.206 F 
ATOM     69  C   UNL A   1      38.064  28.805  32.444  1.00  0.00     0.040 A 
ATOM     70  C   UNL A   1      37.347  30.417  30.823  1.00  0.00     0.040 A 
ATOM     71  F   UNL A   1      38.672  30.931  28.974  1.00  0.00    -0.206 F 
ATOM     72  C   UNL A   1      37.086  29.664  31.964  1.00  0.00     0.006 A 
ENDBRANCH  51  65
BRANCH  52  73
ATOM     73  C   UNL A   1      49.174  26.090  27.642  1.00  0.00     0.057 A 
ATOM     74  C   UNL A   1      50.257  25.856  28.495  1.00  0.00     0.134 A 
ATOM     75  C   UNL A   1      49.542  26.164  26.269  1.00  0.00     0.134 A 
ATOM     76  F   UNL A   1      50.123  25.874  29.823  1.00  0.00    -0.206 F 
ATOM     77  C   UNL A   1      51.561  25.604  28.018  1.00  0.00     0.040 A 
ATOM     78  C   UNL A   1      50.822  25.882  25.778  1.00  0.00     0.040 A 
ATOM     79  F   UNL A   1      48.667  26.514  25.316  1.00  0.00    -0.206 F 
ATOM     80  C   UNL A   1      51.840  25.579  26.657  1.00  0.00     0.006 A 
ENDBRANCH  52  73
BRANCH  64  81
ATOM     81  C   UNL A   1      44.933  27.667  31.748  1.00  0.00     0.057 A 
ATOM     82  C   UNL A   1      45.658  27.752  32.943  1.00  0.00     0.134 A 
ATOM     83  C   UNL A   1      44.185  26.493  31.575  1.00  0.00     0.134 A 
ATOM     84  F   UNL A   1      46.399  28.839  33.206  1.00  0.00    -0.206 F 
ATOM     85  C   UNL A   1      45.649  26.723  33.896  1.00  0.00     0.040 A 
ATOM     86  C   UNL A   1      44.157  25.459  32.518  1.00  0.00     0.040 A 
ATOM     87  F   UNL A   1      43.460  26.302  30.476  1.00  0.00    -0.206 F 
ATOM     88  C   UNL A   1      44.900  25.569  33.685  1.00  0.00     0.006 A 
ENDBRANCH  64  81
ENDBRANCH  38  39
ENDBRANCH  31  33
ENDBRANCH  30  31
ENDBRANCH  29  30
ENDBRANCH   1  29
TORSDOF 17
ENDMDL
MODEL 2
REMARK VINA RESULT:     -11.5      3.551      9.396
REMARK SMILES COc1ccc(-c2ccc(CCC(=O)OCCOC(=O)c3ccc(-c4c5nc(c(-c6c(F)cccc6F)c6ccc([nH]6)c(-c6c(F)cccc6F)c6nc(c(-c7c(F)cccc7F)c7ccc4[nH]7)C=C6)C=C5)cc3)n2-c2ccc(C(C)=O)cc2)cc1
REMARK SMILES IDX 16 1 15 2 13 3 14 4 12 5 11 6 10 7 7 8 8 9 75 10 9 11 6 12
REMARK SMILES IDX 3 13 4 14 86 15 5 16 85 17 2 18 1 19 76 20 77 21 84 22 78 23
REMARK SMILES IDX 83 24 79 25 80 26 81 27 82 28 17 29 18 30 19 31 20 32 21 33
REMARK SMILES IDX 22 34 74 35 23 36 73 37 24 38 25 39 26 40 67 41 27 42 72 43
REMARK SMILES IDX 66 44 68 45 28 46 71 47 65 48 64 49 29 51 55 52 38 53 54 54
REMARK SMILES IDX 39 55 42 56 53 57 69 58 40 59 41 60 52 62 70 63 43 64 30 65
REMARK SMILES IDX 31 66 36 67 32 68 33 69 35 70 37 71 34 72 56 73 57 74 62 75
REMARK SMILES IDX 58 76 59 77 61 78 63 79 60 80 44 81 45 82 50 83 46 84 47 85
REMARK SMILES IDX 49 86 51 87 48 88
REMARK H PARENT 68 50 42 61
REMARK Flexibility Score: inf
ROOT
ATOM      1  C   UNL A   1      31.499  29.373  24.839  1.00  0.00     0.274 C 
ENDROOT
BRANCH   1   2
ATOM      2  O   UNL A   1      31.635  28.201  24.011  1.00  0.00    -0.462 OA
BRANCH   2   3
ATOM      3  C   UNL A   1      32.730  28.132  23.210  1.00  0.00     0.306 C 
ATOM      4  O   UNL A   1      32.973  28.908  22.293  1.00  0.00    -0.252 OA
BRANCH   3   5
ATOM      5  C   UNL A   1      33.605  26.942  23.535  1.00  0.00     0.129 C 
BRANCH   5   6
ATOM      6  C   UNL A   1      33.577  25.795  22.524  1.00  0.00     0.066 C 
BRANCH   6   7
ATOM      7  C   UNL A   1      32.747  24.620  22.976  1.00  0.00     0.024 A 
ATOM      8  C   UNL A   1      32.308  22.476  23.503  1.00  0.00     0.053 A 
ATOM      9  C   UNL A   1      31.118  23.068  23.129  1.00  0.00     0.029 A 
ATOM     10  N   UNL A   1      33.271  23.477  23.572  1.00  0.00    -0.314 N 
ATOM     11  C   UNL A   1      31.386  24.411  22.848  1.00  0.00     0.024 A 
BRANCH   8  12
ATOM     12  C   UNL A   1      32.463  21.093  23.912  1.00  0.00    -0.001 A 
ATOM     13  C   UNL A   1      32.628  18.421  24.677  1.00  0.00     0.118 A 
ATOM     14  C   UNL A   1      32.726  19.428  25.637  1.00  0.00     0.047 A 
ATOM     15  C   UNL A   1      32.404  18.744  23.338  1.00  0.00     0.047 A 
ATOM     16  C   UNL A   1      32.650  20.765  25.256  1.00  0.00     0.014 A 
ATOM     17  C   UNL A   1      32.321  20.081  22.956  1.00  0.00     0.014 A 
BRANCH  13  18
ATOM     18  O   UNL A   1      32.708  17.137  25.143  1.00  0.00    -0.497 OA
ATOM     19  C   UNL A   1      33.432  16.267  24.278  1.00  0.00     0.278 C 
ENDBRANCH  13  18
ENDBRANCH   8  12
BRANCH  10  20
ATOM     20  C   UNL A   1      34.549  23.388  24.180  1.00  0.00     0.046 A 
ATOM     21  C   UNL A   1      34.686  23.786  25.516  1.00  0.00     0.027 A 
ATOM     22  C   UNL A   1      35.646  22.908  23.471  1.00  0.00     0.027 A 
ATOM     23  C   UNL A   1      35.933  23.726  26.143  1.00  0.00     0.014 A 
ATOM     24  C   UNL A   1      36.896  22.868  24.098  1.00  0.00     0.014 A 
ATOM     25  C   UNL A   1      37.053  23.278  25.435  1.00  0.00     0.017 A 
BRANCH  25  26
ATOM     26  C   UNL A   1      38.427  23.219  26.024  1.00  0.00     0.159 C 
ATOM     27  C   UNL A   1      39.105  24.459  26.551  1.00  0.00     0.093 C 
ATOM     28  O   UNL A   1      39.004  22.132  26.091  1.00  0.00    -0.295 OA
ENDBRANCH  25  26
ENDBRANCH  10  20
ENDBRANCH   6   7
ENDBRANCH   5   6
ENDBRANCH   3   5
ENDBRANCH   2   3
ENDBRANCH   1   2
BRANCH   1  29
ATOM     29  C   UNL A   1      32.811  29.841  25.481  1.00  0.00     0.275 C 
BRANCH  29  30
ATOM     30  O   UNL A   1      32.735  30.025  26.905  1.00  0.00    -0.458 OA
BRANCH  30  31
ATOM     31  C   UNL A   1      33.382  31.135  27.304  1.00  0.00     0.338 C 
ATOM     32  O   UNL A   1      32.991  32.282  27.213  1.00  0.00    -0.246 OA
BRANCH  31  33
ATOM     33  C   UNL A   1      34.757  30.945  27.712  1.00  0.00     0.060 A 
ATOM     34  C   UNL A   1      35.061  29.721  28.326  1.00  0.00     0.016 A 
ATOM     35  C   UNL A   1      35.534  32.090  27.888  1.00  0.00     0.016 A 
ATOM     36  C   UNL A   1      36.133  29.656  29.189  1.00  0.00     0.010 A 
ATOM     37  C   UNL A   1      36.600  32.028  28.764  1.00  0.00     0.010 A 
ATOM     38  C   UNL A   1      36.883  30.815  29.414  1.00  0.00    -0.014 A 
BRANCH  38  39
ATOM     39  C   UNL A   1      38.117  30.684  30.198  1.00  0.00     0.031 A 
ATOM     40  C   UNL A   1      39.165  29.867  29.434  1.00  0.00     0.074 A 
ATOM     41  C   UNL A   1      38.117  31.279  31.426  1.00  0.00     0.049 A 
ATOM     42  N   UNL A   1      40.255  29.303  29.853  1.00  0.00    -0.248 NA
ATOM     43  C   UNL A   1      38.946  29.598  27.982  1.00  0.00     0.031 C 
ATOM     44  C   UNL A   1      36.976  32.026  31.997  1.00  0.00     0.029 A 
ATOM     45  N   UNL A   1      39.046  31.379  32.439  1.00  0.00    -0.354 N 
ATOM     46  C   UNL A   1      40.938  28.832  28.715  1.00  0.00     0.074 A 
ATOM     47  C   UNL A   1      40.040  28.938  27.610  1.00  0.00     0.031 C 
ATOM     48  C   UNL A   1      37.248  32.428  33.255  1.00  0.00     0.029 A 
ATOM     49  C   UNL A   1      38.590  32.018  33.621  1.00  0.00     0.049 A 
ATOM     50  H   UNL A   1      39.963  31.030  32.350  1.00  0.00     0.167 HD
ATOM     51  C   UNL A   1      42.258  28.499  28.715  1.00  0.00     0.037 A 
ATOM     52  C   UNL A   1      39.239  32.176  34.818  1.00  0.00     0.037 A 
ATOM     53  C   UNL A   1      42.792  28.556  30.030  1.00  0.00     0.049 A 
ATOM     54  C   UNL A   1      40.612  31.702  34.576  1.00  0.00     0.074 A 
ATOM     55  C   UNL A   1      42.648  27.732  31.114  1.00  0.00     0.029 A 
ATOM     56  N   UNL A   1      43.308  29.758  30.448  1.00  0.00    -0.354 N 
ATOM     57  N   UNL A   1      41.504  32.347  33.885  1.00  0.00    -0.248 NA
ATOM     58  C   UNL A   1      40.998  30.372  35.060  1.00  0.00     0.031 C 
ATOM     59  C   UNL A   1      42.701  28.603  32.221  1.00  0.00     0.029 A 
ATOM     60  C   UNL A   1      43.005  29.896  31.783  1.00  0.00     0.049 A 
ATOM     61  H   UNL A   1      43.804  30.403  29.893  1.00  0.00     0.167 HD
ATOM     62  C   UNL A   1      42.413  31.362  33.580  1.00  0.00     0.074 A 
ATOM     63  C   UNL A   1      42.227  30.313  34.555  1.00  0.00     0.031 C 
ATOM     64  C   UNL A   1      42.872  31.236  32.310  1.00  0.00     0.037 A 
BRANCH  51  65
ATOM     65  C   UNL A   1      43.199  28.293  27.571  1.00  0.00     0.057 A 
ATOM     66  C   UNL A   1      43.512  26.975  27.180  1.00  0.00     0.134 A 
ATOM     67  C   UNL A   1      44.031  29.299  27.063  1.00  0.00     0.134 A 
ATOM     68  F   UNL A   1      42.761  25.938  27.585  1.00  0.00    -0.206 F 
ATOM     69  C   UNL A   1      44.639  26.667  26.415  1.00  0.00     0.040 A 
ATOM     70  C   UNL A   1      45.140  29.005  26.260  1.00  0.00     0.040 A 
ATOM     71  F   UNL A   1      43.855  30.585  27.395  1.00  0.00    -0.206 F 
ATOM     72  C   UNL A   1      45.468  27.685  25.965  1.00  0.00     0.006 A 
ENDBRANCH  51  65
BRANCH  52  73
ATOM     73  C   UNL A   1      38.916  32.616  36.230  1.00  0.00     0.057 A 
ATOM     74  C   UNL A   1      39.257  33.838  36.817  1.00  0.00     0.134 A 
ATOM     75  C   UNL A   1      38.126  31.785  37.075  1.00  0.00     0.134 A 
ATOM     76  F   UNL A   1      40.091  34.695  36.223  1.00  0.00    -0.206 F 
ATOM     77  C   UNL A   1      38.765  34.242  38.076  1.00  0.00     0.040 A 
ATOM     78  C   UNL A   1      37.602  32.185  38.309  1.00  0.00     0.040 A 
ATOM     79  F   UNL A   1      37.813  30.525  36.741  1.00  0.00    -0.206 F 
ATOM     80  C   UNL A   1      37.905  33.433  38.809  1.00  0.00     0.006 A 
ENDBRANCH  52  73
BRANCH  64  81
ATOM     81  C   UNL A   1      42.777  32.511  31.496  1.00  0.00     0.057 A 
ATOM     82  C   UNL A   1      43.622  33.590  31.780  1.00  0.00     0.134 A 
ATOM     83  C   UNL A   1      41.792  32.752  30.527  1.00  0.00     0.134 A 
ATOM     84  F   UNL A   1      44.601  33.458  32.688  1.00  0.00    -0.206 F 
ATOM     85  C   UNL A   1      43.483  34.834  31.149  1.00  0.00     0.040 A 
ATOM     86  C   UNL A   1      41.642  33.984  29.879  1.00  0.00     0.040 A 
ATOM     87  F   UNL A   1      40.930  31.800  30.178  1.00  0.00    -0.206 F 
ATOM     88  C   UNL A   1      42.488  35.037  30.196  1.00  0.00     0.006 A 
ENDBRANCH  64  81
ENDBRANCH  38  39
ENDBRANCH  31  33
ENDBRANCH  30  31
ENDBRANCH  29  30
ENDBRANCH   1  29
TORSDOF 17
ENDMDL
MODEL 3
REMARK VINA RESULT:     -11.2      1.650      3.713
REMARK SMILES COc1ccc(-c2ccc(CCC(=O)OCCOC(=O)c3ccc(-c4c5nc(c(-c6c(F)cccc6F)c6ccc([nH]6)c(-c6c(F)cccc6F)c6nc(c(-c7c(F)cccc7F)c7ccc4[nH]7)C=C6)C=C5)cc3)n2-c2ccc(C(C)=O)cc2)cc1
REMARK SMILES IDX 16 1 15 2 13 3 14 4 12 5 11 6 10 7 7 8 8 9 75 10 9 11 6 12
REMARK SMILES IDX 3 13 4 14 86 15 5 16 85 17 2 18 1 19 76 20 77 21 84 22 78 23
REMARK SMILES IDX 83 24 79 25 80 26 81 27 82 28 17 29 18 30 19 31 20 32 21 33
REMARK SMILES IDX 22 34 74 35 23 36 73 37 24 38 25 39 26 40 67 41 27 42 72 43
REMARK SMILES IDX 66 44 68 45 28 46 71 47 65 48 64 49 29 51 55 52 38 53 54 54
REMARK SMILES IDX 39 55 42 56 53 57 69 58 40 59 41 60 52 62 70 63 43 64 30 65
REMARK SMILES IDX 31 66 36 67 32 68 33 69 35 70 37 71 34 72 56 73 57 74 62 75
REMARK SMILES IDX 58 76 59 77 61 78 63 79 60 80 44 81 45 82 50 83 46 84 47 85
REMARK SMILES IDX 49 86 51 87 48 88
REMARK H PARENT 68 50 42 61
REMARK Flexibility Score: inf
ROOT
ATOM      1  C   UNL A   1      35.263  22.888  24.098  1.00  0.00     0.274 C 
ENDROOT
BRANCH   1   2
ATOM      2  O   UNL A   1      34.047  22.360  23.532  1.00  0.00    -0.462 OA
BRANCH   2   3
ATOM      3  C   UNL A   1      33.346  23.173  22.700  1.00  0.00     0.306 C 
ATOM      4  O   UNL A   1      33.850  23.953  21.900  1.00  0.00    -0.252 OA
BRANCH   3   5
ATOM      5  C   UNL A   1      31.853  23.059  22.908  1.00  0.00     0.129 C 
BRANCH   5   6
ATOM      6  C   UNL A   1      31.117  24.364  23.211  1.00  0.00     0.066 C 
BRANCH   6   7
ATOM      7  C   UNL A   1      31.568  25.022  24.490  1.00  0.00     0.024 A 
ATOM      8  C   UNL A   1      32.404  26.655  25.796  1.00  0.00     0.053 A 
ATOM      9  C   UNL A   1      32.639  25.450  26.428  1.00  0.00     0.029 A 
ATOM     10  N   UNL A   1      31.595  26.398  24.693  1.00  0.00    -0.314 N 
ATOM     11  C   UNL A   1      32.077  24.443  25.638  1.00  0.00     0.024 A 
BRANCH   8  12
ATOM     12  C   UNL A   1      32.793  27.957  26.303  1.00  0.00    -0.001 A 
ATOM     13  C   UNL A   1      33.577  30.396  27.392  1.00  0.00     0.118 A 
ATOM     14  C   UNL A   1      32.222  30.099  27.252  1.00  0.00     0.047 A 
ATOM     15  C   UNL A   1      34.545  29.458  27.028  1.00  0.00     0.047 A 
ATOM     16  C   UNL A   1      31.826  28.882  26.702  1.00  0.00     0.014 A 
ATOM     17  C   UNL A   1      34.151  28.238  26.484  1.00  0.00     0.014 A 
BRANCH  13  18
ATOM     18  O   UNL A   1      33.872  31.612  27.946  1.00  0.00    -0.497 OA
ATOM     19  C   UNL A   1      35.127  31.636  28.618  1.00  0.00     0.278 C 
ENDBRANCH  13  18
ENDBRANCH   8  12
BRANCH  10  20
ATOM     20  C   UNL A   1      30.878  27.349  23.925  1.00  0.00     0.046 A 
ATOM     21  C   UNL A   1      31.596  28.235  23.111  1.00  0.00     0.027 A 
ATOM     22  C   UNL A   1      29.487  27.402  23.968  1.00  0.00     0.027 A 
ATOM     23  C   UNL A   1      30.923  29.194  22.351  1.00  0.00     0.014 A 
ATOM     24  C   UNL A   1      28.820  28.377  23.220  1.00  0.00     0.014 A 
ATOM     25  C   UNL A   1      29.528  29.283  22.409  1.00  0.00     0.017 A 
BRANCH  25  26
ATOM     26  C   UNL A   1      28.738  30.305  21.655  1.00  0.00     0.159 C 
ATOM     27  C   UNL A   1      28.778  31.764  22.039  1.00  0.00     0.093 C 
ATOM     28  O   UNL A   1      28.056  29.946  20.694  1.00  0.00    -0.295 OA
ENDBRANCH  25  26
ENDBRANCH  10  20
ENDBRANCH   6   7
ENDBRANCH   5   6
ENDBRANCH   3   5
ENDBRANCH   2   3
ENDBRANCH   1   2
BRANCH   1  29
ATOM     29  C   UNL A   1      36.308  21.820  24.444  1.00  0.00     0.275 C 
BRANCH  29  30
ATOM     30  O   UNL A   1      36.846  21.932  25.772  1.00  0.00    -0.458 OA
BRANCH  30  31
ATOM     31  C   UNL A   1      38.190  21.885  25.776  1.00  0.00     0.338 C 
ATOM     32  O   UNL A   1      38.893  21.001  25.328  1.00  0.00    -0.246 OA
BRANCH  31  33
ATOM     33  C   UNL A   1      38.850  22.909  26.558  1.00  0.00     0.060 A 
ATOM     34  C   UNL A   1      38.596  24.238  26.185  1.00  0.00     0.016 A 
ATOM     35  C   UNL A   1      39.984  22.531  27.276  1.00  0.00     0.016 A 
ATOM     36  C   UNL A   1      39.532  25.204  26.483  1.00  0.00     0.010 A 
ATOM     37  C   UNL A   1      40.928  23.497  27.562  1.00  0.00     0.010 A 
ATOM     38  C   UNL A   1      40.699  24.822  27.154  1.00  0.00    -0.014 A 
BRANCH  38  39
ATOM     39  C   UNL A   1      41.599  25.887  27.612  1.00  0.00     0.031 A 
ATOM     40  C   UNL A   1      40.878  26.833  28.578  1.00  0.00     0.074 A 
ATOM     41  C   UNL A   1      42.868  25.860  27.112  1.00  0.00     0.049 A 
ATOM     42  N   UNL A   1      41.207  28.017  28.993  1.00  0.00    -0.248 NA
ATOM     43  C   UNL A   1      39.560  26.416  29.141  1.00  0.00     0.031 C 
ATOM     44  C   UNL A   1      43.374  24.848  26.160  1.00  0.00     0.029 A 
ATOM     45  N   UNL A   1      43.980  26.658  27.283  1.00  0.00    -0.354 N 
ATOM     46  C   UNL A   1      40.290  28.369  30.002  1.00  0.00     0.074 A 
ATOM     47  C   UNL A   1      39.239  27.404  29.973  1.00  0.00     0.031 C 
ATOM     48  C   UNL A   1      44.640  25.130  25.789  1.00  0.00     0.029 A 
ATOM     49  C   UNL A   1      45.097  26.323  26.475  1.00  0.00     0.049 A 
ATOM     50  H   UNL A   1      43.996  27.409  27.919  1.00  0.00     0.167 HD
ATOM     51  C   UNL A   1      40.509  29.368  30.901  1.00  0.00     0.037 A 
ATOM     52  C   UNL A   1      46.293  26.981  26.347  1.00  0.00     0.037 A 
ATOM     53  C   UNL A   1      41.700  30.076  30.587  1.00  0.00     0.049 A 
ATOM     54  C   UNL A   1      46.265  28.032  27.378  1.00  0.00     0.074 A 
ATOM     55  C   UNL A   1      41.994  30.983  29.604  1.00  0.00     0.029 A 
ATOM     56  N   UNL A   1      42.871  29.610  31.131  1.00  0.00    -0.354 N 
ATOM     57  N   UNL A   1      46.396  27.819  28.653  1.00  0.00    -0.248 NA
ATOM     58  C   UNL A   1      45.980  29.414  26.974  1.00  0.00     0.031 C 
ATOM     59  C   UNL A   1      43.349  30.737  29.300  1.00  0.00     0.029 A 
ATOM     60  C   UNL A   1      43.862  29.790  30.194  1.00  0.00     0.049 A 
ATOM     61  H   UNL A   1      42.981  29.219  32.027  1.00  0.00     0.167 HD
ATOM     62  C   UNL A   1      45.880  28.969  29.203  1.00  0.00     0.074 A 
ATOM     63  C   UNL A   1      45.949  29.983  28.175  1.00  0.00     0.031 C 
ATOM     64  C   UNL A   1      44.993  28.891  30.226  1.00  0.00     0.037 A 
BRANCH  51  65
ATOM     65  C   UNL A   1      39.822  29.665  32.196  1.00  0.00     0.057 A 
ATOM     66  C   UNL A   1      38.839  30.676  32.224  1.00  0.00     0.134 A 
ATOM     67  C   UNL A   1      40.297  29.235  33.441  1.00  0.00     0.134 A 
ATOM     68  F   UNL A   1      38.294  31.141  31.089  1.00  0.00    -0.206 F 
ATOM     69  C   UNL A   1      38.429  31.290  33.409  1.00  0.00     0.040 A 
ATOM     70  C   UNL A   1      39.862  29.815  34.638  1.00  0.00     0.040 A 
ATOM     71  F   UNL A   1      41.259  28.306  33.538  1.00  0.00    -0.206 F 
ATOM     72  C   UNL A   1      38.954  30.869  34.623  1.00  0.00     0.006 A 
ENDBRANCH  51  65
BRANCH  52  73
ATOM     73  C   UNL A   1      47.510  26.950  25.448  1.00  0.00     0.057 A 
ATOM     74  C   UNL A   1      48.739  26.348  25.736  1.00  0.00     0.134 A 
ATOM     75  C   UNL A   1      47.446  27.503  24.138  1.00  0.00     0.134 A 
ATOM     76  F   UNL A   1      49.026  25.881  26.954  1.00  0.00    -0.206 F 
ATOM     77  C   UNL A   1      49.763  26.208  24.775  1.00  0.00     0.040 A 
ATOM     78  C   UNL A   1      48.437  27.342  23.164  1.00  0.00     0.040 A 
ATOM     79  F   UNL A   1      46.402  28.235  23.727  1.00  0.00    -0.206 F 
ATOM     80  C   UNL A   1      49.601  26.671  23.475  1.00  0.00     0.006 A 
ENDBRANCH  52  73
BRANCH  64  81
ATOM     81  C   UNL A   1      45.089  27.603  31.020  1.00  0.00     0.057 A 
ATOM     82  C   UNL A   1      46.188  27.373  31.856  1.00  0.00     0.134 A 
ATOM     83  C   UNL A   1      44.195  26.530  30.886  1.00  0.00     0.134 A 
ATOM     84  F   UNL A   1      47.096  28.340  32.054  1.00  0.00    -0.206 F 
ATOM     85  C   UNL A   1      46.389  26.146  32.504  1.00  0.00     0.040 A 
ATOM     86  C   UNL A   1      44.373  25.301  31.532  1.00  0.00     0.040 A 
ATOM     87  F   UNL A   1      43.115  26.633  30.115  1.00  0.00    -0.206 F 
ATOM     88  C   UNL A   1      45.483  25.102  32.341  1.00  0.00     0.006 A 
ENDBRANCH  64  81
ENDBRANCH  38  39
ENDBRANCH  31  33
ENDBRANCH  30  31
ENDBRANCH  29  30
ENDBRANCH   1  29
TORSDOF 17
ENDMDL
