MODEL 1
REMARK VINA RESULT:     -11.4      0.000      0.000
REMARK SMILES Cc1cc([N+](=O)[O-])c(-c2ccc(C(=O)OCCOC(=O)c3ccc(-c4c5nc(c(-c6c(F)cccc6F)c6ccc([nH]6)c(-c6c(F)cccc6F)c6nc(c(-c7c(F)cccc7F)c7ccc4[nH]7)C=C6)C=C5)cc3)o2)cc1Cl
REMARK SMILES IDX 16 1 15 2 13 3 14 4 12 5 9 6 10 7 75 8 11 9 8 10 1 11 2 12
REMARK SMILES IDX 3 13 77 14 4 15 76 16 78 17 5 18 6 19 7 20 17 21 18 22 19 23
REMARK SMILES IDX 20 24 21 25 22 26 74 27 23 28 73 29 24 30 25 31 26 32 67 33
REMARK SMILES IDX 27 34 72 35 66 36 68 37 28 38 71 39 65 40 64 41 29 43 55 44
REMARK SMILES IDX 38 45 54 46 39 47 42 48 53 49 69 50 40 51 41 52 52 54 70 55
REMARK SMILES IDX 43 56 30 57 31 58 36 59 32 60 33 61 35 62 37 63 34 64 56 65
REMARK SMILES IDX 57 66 62 67 58 68 59 69 61 70 63 71 60 72 44 73 45 74 50 75
REMARK SMILES IDX 46 76 47 77 49 78 51 79 48 80
REMARK H PARENT 68 42 42 53
REMARK Flexibility Score: inf
ROOT
ATOM      1  C   UNL A   1      44.994  21.268  24.400  1.00  0.00     0.275 C 
ENDROOT
BRANCH   1   2
ATOM      2  O   UNL A   1      44.340  21.031  25.661  1.00  0.00    -0.456 OA
BRANCH   2   3
ATOM      3  C   UNL A   1      43.154  20.352  25.598  1.00  0.00     0.374 C 
ATOM      4  O   UNL A   1      42.996  19.295  25.003  1.00  0.00    -0.242 OA
BRANCH   3   5
ATOM      5  C   UNL A   1      42.162  21.011  26.418  1.00  0.00     0.212 A 
ATOM      6  C   UNL A   1      40.206  21.974  26.751  1.00  0.00     0.142 A 
ATOM      7  C   UNL A   1      40.779  21.834  27.994  1.00  0.00     0.052 A 
ATOM      8  O   UNL A   1      41.048  21.509  25.792  1.00  0.00    -0.449 OA
ATOM      9  C   UNL A   1      42.035  21.209  27.782  1.00  0.00     0.059 A 
BRANCH   6  10
ATOM     10  C   UNL A   1      38.909  22.417  26.275  1.00  0.00     0.096 A 
ATOM     11  C   UNL A   1      34.882  23.482  25.030  1.00  0.00     0.046 C 
ATOM     12  C   UNL A   1      36.281  23.102  25.429  1.00  0.00    -0.026 A 
ATOM     13  C   UNL A   1      37.140  24.077  25.960  1.00  0.00     0.091 A 
ATOM     14  C   UNL A   1      36.759  21.789  25.299  1.00  0.00     0.045 A 
ATOM     15  C   UNL A   1      38.442  23.732  26.370  1.00  0.00     0.280 A 
ATOM     16  C   UNL A   1      38.051  21.453  25.720  1.00  0.00     0.040 A 
ATOM     17  Cl  UNL A   1      35.778  20.531  24.636  1.00  0.00    -0.084 Cl
BRANCH  15  18
ATOM     18  N   UNL A   1      39.278  24.792  26.918  1.00  0.00     0.063 N 
ATOM     19  O   UNL A   1      39.218  25.012  28.134  1.00  0.00    -0.258 OA
ATOM     20  O   UNL A   1      40.026  25.379  26.123  1.00  0.00    -0.258 OA
ENDBRANCH  15  18
ENDBRANCH   6  10
ENDBRANCH   3   5
ENDBRANCH   2   3
ENDBRANCH   1   2
BRANCH   1  21
ATOM     21  C   UNL A   1      44.542  22.589  23.765  1.00  0.00     0.275 C 
BRANCH  21  22
ATOM     22  O   UNL A   1      43.847  23.433  24.705  1.00  0.00    -0.458 OA
BRANCH  22  23
ATOM     23  C   UNL A   1      44.530  24.529  25.110  1.00  0.00     0.338 C 
ATOM     24  O   UNL A   1      45.560  24.971  24.627  1.00  0.00    -0.246 OA
BRANCH  23  25
ATOM     25  C   UNL A   1      43.778  25.238  26.160  1.00  0.00     0.060 A 
ATOM     26  C   UNL A   1      43.789  26.635  26.132  1.00  0.00     0.016 A 
ATOM     27  C   UNL A   1      43.143  24.560  27.202  1.00  0.00     0.016 A 
ATOM     28  C   UNL A   1      43.180  27.365  27.145  1.00  0.00     0.010 A 
ATOM     29  C   UNL A   1      42.532  25.295  28.228  1.00  0.00     0.010 A 
ATOM     30  C   UNL A   1      42.563  26.701  28.212  1.00  0.00    -0.014 A 
BRANCH  30  31
ATOM     31  C   UNL A   1      42.029  27.498  29.342  1.00  0.00     0.031 A 
ATOM     32  C   UNL A   1      42.730  27.466  30.669  1.00  0.00     0.074 A 
ATOM     33  C   UNL A   1      40.962  28.297  29.160  1.00  0.00     0.049 A 
ATOM     34  N   UNL A   1      42.418  28.070  31.787  1.00  0.00    -0.248 NA
ATOM     35  C   UNL A   1      43.949  26.645  30.749  1.00  0.00     0.031 C 
ATOM     36  C   UNL A   1      40.230  28.456  27.904  1.00  0.00     0.029 A 
ATOM     37  N   UNL A   1      40.316  29.134  30.035  1.00  0.00    -0.354 N 
ATOM     38  C   UNL A   1      43.393  27.699  32.703  1.00  0.00     0.074 A 
ATOM     39  C   UNL A   1      44.297  26.799  32.019  1.00  0.00     0.031 C 
ATOM     40  C   UNL A   1      39.239  29.344  28.087  1.00  0.00     0.029 A 
ATOM     41  C   UNL A   1      39.246  29.789  29.478  1.00  0.00     0.049 A 
ATOM     42  H   UNL A   1      40.593  29.253  30.972  1.00  0.00     0.167 HD
ATOM     43  C   UNL A   1      43.526  28.079  33.996  1.00  0.00     0.037 A 
ATOM     44  C   UNL A   1      38.362  30.640  30.035  1.00  0.00     0.037 A 
ATOM     45  C   UNL A   1      42.636  28.984  34.673  1.00  0.00     0.049 A 
ATOM     46  C   UNL A   1      38.502  31.003  31.486  1.00  0.00     0.074 A 
ATOM     47  C   UNL A   1      42.678  29.415  35.988  1.00  0.00     0.029 A 
ATOM     48  N   UNL A   1      41.544  29.602  34.085  1.00  0.00    -0.354 N 
ATOM     49  N   UNL A   1      39.417  30.630  32.349  1.00  0.00    -0.248 NA
ATOM     50  C   UNL A   1      37.486  31.907  32.044  1.00  0.00     0.031 C 
ATOM     51  C   UNL A   1      41.595  30.276  36.201  1.00  0.00     0.029 A 
ATOM     52  C   UNL A   1      40.900  30.406  35.010  1.00  0.00     0.049 A 
ATOM     53  H   UNL A   1      41.267  29.488  33.146  1.00  0.00     0.167 HD
ATOM     54  C   UNL A   1      39.101  31.270  33.540  1.00  0.00     0.074 A 
ATOM     55  C   UNL A   1      37.918  32.066  33.288  1.00  0.00     0.031 C 
ATOM     56  C   UNL A   1      39.734  31.204  34.736  1.00  0.00     0.037 A 
BRANCH  43  57
ATOM     57  C   UNL A   1      44.672  27.498  34.768  1.00  0.00     0.057 A 
ATOM     58  C   UNL A   1      45.923  28.125  34.815  1.00  0.00     0.134 A 
ATOM     59  C   UNL A   1      44.511  26.315  35.501  1.00  0.00     0.134 A 
ATOM     60  F   UNL A   1      46.144  29.253  34.123  1.00  0.00    -0.206 F 
ATOM     61  C   UNL A   1      46.980  27.586  35.550  1.00  0.00     0.040 A 
ATOM     62  C   UNL A   1      45.554  25.777  36.254  1.00  0.00     0.040 A 
ATOM     63  F   UNL A   1      43.335  25.668  35.499  1.00  0.00    -0.206 F 
ATOM     64  C   UNL A   1      46.795  26.411  36.277  1.00  0.00     0.006 A 
ENDBRANCH  43  57
BRANCH  44  65
ATOM     65  C   UNL A   1      37.257  31.201  29.222  1.00  0.00     0.057 A 
ATOM     66  C   UNL A   1      37.299  32.519  28.751  1.00  0.00     0.134 A 
ATOM     67  C   UNL A   1      36.119  30.443  28.918  1.00  0.00     0.134 A 
ATOM     68  F   UNL A   1      38.351  33.302  29.031  1.00  0.00    -0.206 F 
ATOM     69  C   UNL A   1      36.243  33.069  28.022  1.00  0.00     0.040 A 
ATOM     70  C   UNL A   1      35.067  30.973  28.171  1.00  0.00     0.040 A 
ATOM     71  F   UNL A   1      36.017  29.176  29.343  1.00  0.00    -0.206 F 
ATOM     72  C   UNL A   1      35.124  32.292  27.727  1.00  0.00     0.006 A 
ENDBRANCH  44  65
BRANCH  56  73
ATOM     73  C   UNL A   1      39.183  32.044  35.848  1.00  0.00     0.057 A 
ATOM     74  C   UNL A   1      38.246  31.542  36.758  1.00  0.00     0.134 A 
ATOM     75  C   UNL A   1      39.622  33.362  36.029  1.00  0.00     0.134 A 
ATOM     76  F   UNL A   1      37.777  30.291  36.630  1.00  0.00    -0.206 F 
ATOM     77  C   UNL A   1      37.748  32.327  37.799  1.00  0.00     0.040 A 
ATOM     78  C   UNL A   1      39.148  34.150  37.078  1.00  0.00     0.040 A 
ATOM     79  F   UNL A   1      40.524  33.900  35.194  1.00  0.00    -0.206 F 
ATOM     80  C   UNL A   1      38.204  33.634  37.964  1.00  0.00     0.006 A 
ENDBRANCH  56  73
ENDBRANCH  30  31
ENDBRANCH  23  25
ENDBRANCH  22  23
ENDBRANCH  21  22
ENDBRANCH   1  21
TORSDOF 13
ENDMDL
MODEL 2
REMARK VINA RESULT:     -11.3      5.060     10.889
REMARK SMILES Cc1cc([N+](=O)[O-])c(-c2ccc(C(=O)OCCOC(=O)c3ccc(-c4c5nc(c(-c6c(F)cccc6F)c6ccc([nH]6)c(-c6c(F)cccc6F)c6nc(c(-c7c(F)cccc7F)c7ccc4[nH]7)C=C6)C=C5)cc3)o2)cc1Cl
REMARK SMILES IDX 16 1 15 2 13 3 14 4 12 5 9 6 10 7 75 8 11 9 8 10 1 11 2 12
REMARK SMILES IDX 3 13 77 14 4 15 76 16 78 17 5 18 6 19 7 20 17 21 18 22 19 23
REMARK SMILES IDX 20 24 21 25 22 26 74 27 23 28 73 29 24 30 25 31 26 32 67 33
REMARK SMILES IDX 27 34 72 35 66 36 68 37 28 38 71 39 65 40 64 41 29 43 55 44
REMARK SMILES IDX 38 45 54 46 39 47 42 48 53 49 69 50 40 51 41 52 52 54 70 55
REMARK SMILES IDX 43 56 30 57 31 58 36 59 32 60 33 61 35 62 37 63 34 64 56 65
REMARK SMILES IDX 57 66 62 67 58 68 59 69 61 70 63 71 60 72 44 73 45 74 50 75
REMARK SMILES IDX 46 76 47 77 49 78 51 79 48 80
REMARK H PARENT 68 42 42 53
REMARK Flexibility Score: inf
ROOT
ATOM      1  C   UNL A   1      34.030  34.760  32.962  1.00  0.00     0.275 C 
ENDROOT
BRANCH   1   2
ATOM      2  O   UNL A   1      34.651  34.931  31.673  1.00  0.00    -0.456 OA
BRANCH   2   3
ATOM      3  C   UNL A   1      33.862  34.656  30.591  1.00  0.00     0.374 C 
ATOM      4  O   UNL A   1      32.724  35.078  30.443  1.00  0.00    -0.242 OA
BRANCH   3   5
ATOM      5  C   UNL A   1      34.608  33.890  29.617  1.00  0.00     0.212 A 
ATOM      6  C   UNL A   1      34.883  32.186  28.243  1.00  0.00     0.142 A 
ATOM      7  C   UNL A   1      35.931  33.045  28.001  1.00  0.00     0.052 A 
ATOM      8  O   UNL A   1      34.098  32.673  29.239  1.00  0.00    -0.449 OA
ATOM      9  C   UNL A   1      35.751  34.145  28.880  1.00  0.00     0.059 A 
BRANCH   6  10
ATOM     10  C   UNL A   1      34.412  30.961  27.626  1.00  0.00     0.096 A 
ATOM     11  C   UNL A   1      32.957  27.470  25.481  1.00  0.00     0.046 C 
ATOM     12  C   UNL A   1      33.431  28.679  26.240  1.00  0.00    -0.026 A 
ATOM     13  C   UNL A   1      34.621  28.610  26.982  1.00  0.00     0.091 A 
ATOM     14  C   UNL A   1      32.723  29.890  26.223  1.00  0.00     0.045 A 
ATOM     15  C   UNL A   1      35.096  29.742  27.671  1.00  0.00     0.280 A 
ATOM     16  C   UNL A   1      33.209  31.014  26.902  1.00  0.00     0.040 A 
ATOM     17  Cl  UNL A   1      31.238  30.058  25.355  1.00  0.00    -0.084 Cl
BRANCH  15  18
ATOM     18  N   UNL A   1      36.342  29.602  28.415  1.00  0.00     0.063 N 
ATOM     19  O   UNL A   1      36.274  29.329  29.619  1.00  0.00    -0.258 OA
ATOM     20  O   UNL A   1      37.393  29.728  27.770  1.00  0.00    -0.258 OA
ENDBRANCH  15  18
ENDBRANCH   6  10
ENDBRANCH   3   5
ENDBRANCH   2   3
ENDBRANCH   1   2
BRANCH   1  21
ATOM     21  C   UNL A   1      34.421  33.425  33.608  1.00  0.00     0.275 C 
BRANCH  21  22
ATOM     22  O   UNL A   1      35.387  32.701  32.818  1.00  0.00    -0.458 OA
BRANCH  22  23
ATOM     23  C   UNL A   1      36.514  32.341  33.474  1.00  0.00     0.338 C 
ATOM     24  O   UNL A   1      36.708  32.385  34.677  1.00  0.00    -0.246 OA
BRANCH  23  25
ATOM     25  C   UNL A   1      37.474  31.732  32.537  1.00  0.00     0.060 A 
ATOM     26  C   UNL A   1      38.356  30.775  33.047  1.00  0.00     0.016 A 
ATOM     27  C   UNL A   1      37.574  32.143  31.206  1.00  0.00     0.016 A 
ATOM     28  C   UNL A   1      39.349  30.231  32.240  1.00  0.00     0.010 A 
ATOM     29  C   UNL A   1      38.578  31.599  30.393  1.00  0.00     0.010 A 
ATOM     30  C   UNL A   1      39.480  30.653  30.913  1.00  0.00    -0.014 A 
BRANCH  30  31
ATOM     31  C   UNL A   1      40.620  30.152  30.109  1.00  0.00     0.031 A 
ATOM     32  C   UNL A   1      41.811  31.037  29.878  1.00  0.00     0.074 A 
ATOM     33  C   UNL A   1      40.617  28.888  29.646  1.00  0.00     0.049 A 
ATOM     34  N   UNL A   1      42.899  30.800  29.190  1.00  0.00    -0.248 NA
ATOM     35  C   UNL A   1      41.773  32.367  30.507  1.00  0.00     0.031 C 
ATOM     36  C   UNL A   1      39.545  27.916  29.853  1.00  0.00     0.029 A 
ATOM     37  N   UNL A   1      41.556  28.204  28.916  1.00  0.00    -0.354 N 
ATOM     38  C   UNL A   1      43.671  31.950  29.297  1.00  0.00     0.074 A 
ATOM     39  C   UNL A   1      42.919  32.893  30.096  1.00  0.00     0.031 C 
ATOM     40  C   UNL A   1      39.890  26.756  29.269  1.00  0.00     0.029 A 
ATOM     41  C   UNL A   1      41.188  26.915  28.620  1.00  0.00     0.049 A 
ATOM     42  H   UNL A   1      42.411  28.600  28.631  1.00  0.00     0.167 HD
ATOM     43  C   UNL A   1      44.899  32.193  28.780  1.00  0.00     0.037 A 
ATOM     44  C   UNL A   1      41.824  25.975  27.893  1.00  0.00     0.037 A 
ATOM     45  C   UNL A   1      45.653  31.252  27.996  1.00  0.00     0.049 A 
ATOM     46  C   UNL A   1      43.162  26.291  27.287  1.00  0.00     0.074 A 
ATOM     47  C   UNL A   1      46.898  31.414  27.414  1.00  0.00     0.029 A 
ATOM     48  N   UNL A   1      45.233  29.967  27.691  1.00  0.00    -0.354 N 
ATOM     49  N   UNL A   1      43.873  27.389  27.377  1.00  0.00    -0.248 NA
ATOM     50  C   UNL A   1      43.787  25.237  26.475  1.00  0.00     0.031 C 
ATOM     51  C   UNL A   1      47.220  30.234  26.734  1.00  0.00     0.029 A 
ATOM     52  C   UNL A   1      46.191  29.327  26.923  1.00  0.00     0.049 A 
ATOM     53  H   UNL A   1      44.380  29.567  27.979  1.00  0.00     0.167 HD
ATOM     54  C   UNL A   1      45.036  27.149  26.657  1.00  0.00     0.074 A 
ATOM     55  C   UNL A   1      44.942  25.798  26.145  1.00  0.00     0.031 C 
ATOM     56  C   UNL A   1      46.087  27.976  26.437  1.00  0.00     0.037 A 
BRANCH  43  57
ATOM     57  C   UNL A   1      45.494  33.546  29.033  1.00  0.00     0.057 A 
ATOM     58  C   UNL A   1      45.213  34.641  28.208  1.00  0.00     0.134 A 
ATOM     59  C   UNL A   1      46.333  33.761  30.134  1.00  0.00     0.134 A 
ATOM     60  F   UNL A   1      44.428  34.497  27.130  1.00  0.00    -0.206 F 
ATOM     61  C   UNL A   1      45.759  35.901  28.460  1.00  0.00     0.040 A 
ATOM     62  C   UNL A   1      46.870  35.019  30.407  1.00  0.00     0.040 A 
ATOM     63  F   UNL A   1      46.640  32.751  30.964  1.00  0.00    -0.206 F 
ATOM     64  C   UNL A   1      46.585  36.094  29.566  1.00  0.00     0.006 A 
ENDBRANCH  43  57
BRANCH  44  65
ATOM     65  C   UNL A   1      41.199  24.646  27.688  1.00  0.00     0.057 A 
ATOM     66  C   UNL A   1      41.660  23.514  28.371  1.00  0.00     0.134 A 
ATOM     67  C   UNL A   1      40.143  24.470  26.784  1.00  0.00     0.134 A 
ATOM     68  F   UNL A   1      42.685  23.616  29.230  1.00  0.00    -0.206 F 
ATOM     69  C   UNL A   1      41.106  22.252  28.151  1.00  0.00     0.040 A 
ATOM     70  C   UNL A   1      39.566  23.218  26.572  1.00  0.00     0.040 A 
ATOM     71  F   UNL A   1      39.659  25.515  26.098  1.00  0.00    -0.206 F 
ATOM     72  C   UNL A   1      40.052  22.103  27.250  1.00  0.00     0.006 A 
ENDBRANCH  44  65
BRANCH  56  73
ATOM     73  C   UNL A   1      47.234  27.426  25.645  1.00  0.00     0.057 A 
ATOM     74  C   UNL A   1      47.316  27.585  24.256  1.00  0.00     0.134 A 
ATOM     75  C   UNL A   1      48.286  26.759  26.285  1.00  0.00     0.134 A 
ATOM     76  F   UNL A   1      46.332  28.204  23.584  1.00  0.00    -0.206 F 
ATOM     77  C   UNL A   1      48.394  27.082  23.528  1.00  0.00     0.040 A 
ATOM     78  C   UNL A   1      49.380  26.269  25.570  1.00  0.00     0.040 A 
ATOM     79  F   UNL A   1      48.271  26.580  27.614  1.00  0.00    -0.206 F 
ATOM     80  C   UNL A   1      49.434  26.426  24.186  1.00  0.00     0.006 A 
ENDBRANCH  56  73
ENDBRANCH  30  31
ENDBRANCH  23  25
ENDBRANCH  22  23
ENDBRANCH  21  22
ENDBRANCH   1  21
TORSDOF 13
ENDMDL
MODEL 3
REMARK VINA RESULT:     -11.1      1.472      2.384
REMARK SMILES Cc1cc([N+](=O)[O-])c(-c2ccc(C(=O)OCCOC(=O)c3ccc(-c4c5nc(c(-c6c(F)cccc6F)c6ccc([nH]6)c(-c6c(F)cccc6F)c6nc(c(-c7c(F)cccc7F)c7ccc4[nH]7)C=C6)C=C5)cc3)o2)cc1Cl
REMARK SMILES IDX 16 1 15 2 13 3 14 4 12 5 9 6 10 7 75 8 11 9 8 10 1 11 2 12
REMARK SMILES IDX 3 13 77 14 4 15 76 16 78 17 5 18 6 19 7 20 17 21 18 22 19 23
REMARK SMILES IDX 20 24 21 25 22 26 74 27 23 28 73 29 24 30 25 31 26 32 67 33
REMARK SMILES IDX 27 34 72 35 66 36 68 37 28 38 71 39 65 40 64 41 29 43 55 44
REMARK SMILES IDX 38 45 54 46 39 47 42 48 53 49 69 50 40 51 41 52 52 54 70 55
REMARK SMILES IDX 43 56 30 57 31 58 36 59 32 60 33 61 35 62 37 63 34 64 56 65
REMARK SMILES IDX 57 66 62 67 58 68 59 69 61 70 63 71 60 72 44 73 45 74 50 75
REMARK SMILES IDX 46 76 47 77 49 78 51 79 48 80
REMARK H PARENT 68 42 42 53
REMARK Flexibility Score: inf
ROOT
ATOM      1  C   UNL A   1      42.872  21.126  26.022  1.00  0.00     0.275 C 
ENDROOT
BRANCH   1   2
ATOM      2  O   UNL A   1      41.546  21.589  25.703  1.00  0.00    -0.456 OA
BRANCH   2   3
ATOM      3  C   UNL A   1      40.578  21.308  26.628  1.00  0.00     0.374 C 
ATOM      4  O   UNL A   1      40.755  20.619  27.622  1.00  0.00    -0.242 OA
BRANCH   3   5
ATOM      5  C   UNL A   1      39.365  22.029  26.309  1.00  0.00     0.212 A 
ATOM      6  C   UNL A   1      37.268  22.154  25.638  1.00  0.00     0.142 A 
ATOM      7  C   UNL A   1      37.604  23.414  26.079  1.00  0.00     0.052 A 
ATOM      8  O   UNL A   1      38.335  21.321  25.744  1.00  0.00    -0.449 OA
ATOM      9  C   UNL A   1      38.952  23.333  26.517  1.00  0.00     0.059 A 
BRANCH   6  10
ATOM     10  C   UNL A   1      36.039  21.532  25.183  1.00  0.00     0.096 A 
ATOM     11  C   UNL A   1      32.388  19.445  24.082  1.00  0.00     0.046 C 
ATOM     12  C   UNL A   1      33.666  20.153  24.436  1.00  0.00    -0.026 A 
ATOM     13  C   UNL A   1      33.672  21.551  24.565  1.00  0.00     0.091 A 
ATOM     14  C   UNL A   1      34.864  19.456  24.656  1.00  0.00     0.045 A 
ATOM     15  C   UNL A   1      34.852  22.228  24.927  1.00  0.00     0.280 A 
ATOM     16  C   UNL A   1      36.030  20.137  25.028  1.00  0.00     0.040 A 
ATOM     17  Cl  UNL A   1      34.954  17.739  24.497  1.00  0.00    -0.084 Cl
BRANCH  15  18
ATOM     18  N   UNL A   1      34.785  23.678  25.050  1.00  0.00     0.063 N 
ATOM     19  O   UNL A   1      35.083  24.361  24.063  1.00  0.00    -0.258 OA
ATOM     20  O   UNL A   1      34.390  24.128  26.136  1.00  0.00    -0.258 OA
ENDBRANCH  15  18
ENDBRANCH   6  10
ENDBRANCH   3   5
ENDBRANCH   2   3
ENDBRANCH   1   2
BRANCH   1  21
ATOM     21  C   UNL A   1      43.949  21.964  25.323  1.00  0.00     0.275 C 
BRANCH  21  22
ATOM     22  O   UNL A   1      43.431  23.217  24.835  1.00  0.00    -0.458 OA
BRANCH  22  23
ATOM     23  C   UNL A   1      44.171  24.307  25.145  1.00  0.00     0.338 C 
ATOM     24  O   UNL A   1      45.213  24.660  24.618  1.00  0.00    -0.246 OA
BRANCH  23  25
ATOM     25  C   UNL A   1      43.469  25.130  26.145  1.00  0.00     0.060 A 
ATOM     26  C   UNL A   1      43.961  26.416  26.383  1.00  0.00     0.016 A 
ATOM     27  C   UNL A   1      42.405  24.633  26.899  1.00  0.00     0.016 A 
ATOM     28  C   UNL A   1      43.405  27.210  27.379  1.00  0.00     0.010 A 
ATOM     29  C   UNL A   1      41.847  25.430  27.908  1.00  0.00     0.010 A 
ATOM     30  C   UNL A   1      42.356  26.716  28.163  1.00  0.00    -0.014 A 
BRANCH  30  31
ATOM     31  C   UNL A   1      41.862  27.531  29.298  1.00  0.00     0.031 A 
ATOM     32  C   UNL A   1      42.594  27.497  30.609  1.00  0.00     0.074 A 
ATOM     33  C   UNL A   1      40.805  28.348  29.135  1.00  0.00     0.049 A 
ATOM     34  N   UNL A   1      42.318  28.116  31.729  1.00  0.00    -0.248 NA
ATOM     35  C   UNL A   1      43.800  26.655  30.668  1.00  0.00     0.031 C 
ATOM     36  C   UNL A   1      40.048  28.509  27.895  1.00  0.00     0.029 A 
ATOM     37  N   UNL A   1      40.195  29.203  30.017  1.00  0.00    -0.354 N 
ATOM     38  C   UNL A   1      43.308  27.734  32.625  1.00  0.00     0.074 A 
ATOM     39  C   UNL A   1      44.179  26.813  31.928  1.00  0.00     0.031 C 
ATOM     40  C   UNL A   1      39.077  29.417  28.092  1.00  0.00     0.029 A 
ATOM     41  C   UNL A   1      39.124  29.872  29.480  1.00  0.00     0.049 A 
ATOM     42  H   UNL A   1      40.496  29.325  30.946  1.00  0.00     0.167 HD
ATOM     43  C   UNL A   1      43.477  28.123  33.911  1.00  0.00     0.037 A 
ATOM     44  C   UNL A   1      38.268  30.743  30.050  1.00  0.00     0.037 A 
ATOM     45  C   UNL A   1      42.618  29.048  34.602  1.00  0.00     0.049 A 
ATOM     46  C   UNL A   1      38.449  31.116  31.494  1.00  0.00     0.074 A 
ATOM     47  C   UNL A   1      42.699  29.489  35.912  1.00  0.00     0.029 A 
ATOM     48  N   UNL A   1      41.525  29.682  34.033  1.00  0.00    -0.354 N 
ATOM     49  N   UNL A   1      39.376  30.733  32.338  1.00  0.00    -0.248 NA
ATOM     50  C   UNL A   1      37.461  32.042  32.068  1.00  0.00     0.031 C 
ATOM     51  C   UNL A   1      41.636  30.370  36.143  1.00  0.00     0.029 A 
ATOM     52  C   UNL A   1      40.917  30.504  34.967  1.00  0.00     0.049 A 
ATOM     53  H   UNL A   1      41.224  29.565  33.103  1.00  0.00     0.167 HD
ATOM     54  C   UNL A   1      39.099  31.388  33.531  1.00  0.00     0.074 A 
ATOM     55  C   UNL A   1      37.924  32.202  33.300  1.00  0.00     0.031 C 
ATOM     56  C   UNL A   1      39.758  31.320  34.713  1.00  0.00     0.037 A 
BRANCH  43  57
ATOM     57  C   UNL A   1      44.630  27.528  34.662  1.00  0.00     0.057 A 
ATOM     58  C   UNL A   1      44.511  26.317  35.356  1.00  0.00     0.134 A 
ATOM     59  C   UNL A   1      45.881  28.157  34.664  1.00  0.00     0.134 A 
ATOM     60  F   UNL A   1      43.335  25.674  35.405  1.00  0.00    -0.206 F 
ATOM     61  C   UNL A   1      45.594  25.762  36.040  1.00  0.00     0.040 A 
ATOM     62  C   UNL A   1      46.976  27.601  35.327  1.00  0.00     0.040 A 
ATOM     63  F   UNL A   1      46.060  29.318  34.015  1.00  0.00    -0.206 F 
ATOM     64  C   UNL A   1      46.832  26.402  36.021  1.00  0.00     0.006 A 
ENDBRANCH  43  57
BRANCH  44  65
ATOM     65  C   UNL A   1      37.154  31.318  29.257  1.00  0.00     0.057 A 
ATOM     66  C   UNL A   1      37.205  32.633  28.782  1.00  0.00     0.134 A 
ATOM     67  C   UNL A   1      36.000  30.575  28.979  1.00  0.00     0.134 A 
ATOM     68  F   UNL A   1      38.274  33.402  29.038  1.00  0.00    -0.206 F 
ATOM     69  C   UNL A   1      36.143  33.196  28.073  1.00  0.00     0.040 A 
ATOM     70  C   UNL A   1      34.940  31.117  28.252  1.00  0.00     0.040 A 
ATOM     71  F   UNL A   1      35.890  29.310  29.409  1.00  0.00    -0.206 F 
ATOM     72  C   UNL A   1      35.007  32.434  27.803  1.00  0.00     0.006 A 
ENDBRANCH  44  65
BRANCH  56  73
ATOM     73  C   UNL A   1      39.248  32.179  35.830  1.00  0.00     0.057 A 
ATOM     74  C   UNL A   1      39.666  33.505  35.992  1.00  0.00     0.134 A 
ATOM     75  C   UNL A   1      38.301  31.681  36.734  1.00  0.00     0.134 A 
ATOM     76  F   UNL A   1      40.582  34.034  35.166  1.00  0.00    -0.206 F 
ATOM     77  C   UNL A   1      39.175  34.301  37.027  1.00  0.00     0.040 A 
ATOM     78  C   UNL A   1      37.787  32.474  37.761  1.00  0.00     0.040 A 
ATOM     79  F   UNL A   1      37.855  30.421  36.629  1.00  0.00    -0.206 F 
ATOM     80  C   UNL A   1      38.228  33.788  37.912  1.00  0.00     0.006 A 
ENDBRANCH  56  73
ENDBRANCH  30  31
ENDBRANCH  23  25
ENDBRANCH  22  23
ENDBRANCH  21  22
ENDBRANCH   1  21
TORSDOF 13
ENDMDL
