MODEL 1
REMARK VINA RESULT:     -11.7      0.000      0.000
REMARK SMILES O=C(OCCOC(=O)[C@H]1CCCN(C(=O)CCOc2ccc(F)cc2)C1)c1ccc(-c2c3nc(c(-c4c(F)cccc4F)c4ccc([nH]4)c(-c4c(F)cccc4F)c4nc(c(-c5c(F)cccc5F)c5ccc2[nH]5)C=C4)C=C3)cc1
REMARK SMILES IDX 6 1 5 2 4 3 3 4 2 5 1 6 27 7 28 8 80 9 29 10 79 11 30 12
REMARK SMILES IDX 31 13 32 14 73 15 33 16 78 17 72 18 74 19 34 20 77 21 71 22
REMARK SMILES IDX 70 23 35 25 61 26 44 27 60 28 45 29 48 30 59 31 75 32 46 33
REMARK SMILES IDX 47 34 58 36 76 37 49 38 36 39 37 40 42 41 38 42 39 43 41 44
REMARK SMILES IDX 43 45 40 46 62 47 63 48 68 49 64 50 65 51 67 52 69 53 66 54
REMARK SMILES IDX 50 55 51 56 56 57 52 58 53 59 55 60 57 61 54 62 7 63 8 64
REMARK SMILES IDX 9 65 10 66 26 67 11 68 13 69 12 70 14 71 15 72 16 73 17 74
REMARK SMILES IDX 18 75 19 76 20 77 25 78 21 79 24 80 22 81 23 82
REMARK H PARENT 74 24 48 35
REMARK Flexibility Score: inf
ROOT
ATOM      1  O   UNL A   1      31.855  29.364  27.104  1.00  0.00    -0.462 OA
ENDROOT
BRANCH   1   2
ATOM      2  C   UNL A   1      32.085  30.621  26.382  1.00  0.00     0.274 C 
BRANCH   2   3
ATOM      3  C   UNL A   1      31.423  31.939  26.869  1.00  0.00     0.275 C 
BRANCH   3   4
ATOM      4  O   UNL A   1      32.264  33.088  26.880  1.00  0.00    -0.458 OA
BRANCH   4   5
ATOM      5  C   UNL A   1      32.952  33.574  27.933  1.00  0.00     0.338 C 
ATOM      6  O   UNL A   1      32.498  34.543  28.538  1.00  0.00    -0.246 OA
BRANCH   5   7
ATOM      7  C   UNL A   1      34.333  33.097  28.280  1.00  0.00     0.060 A 
ATOM      8  C   UNL A   1      35.555  33.767  28.122  1.00  0.00     0.016 A 
ATOM      9  C   UNL A   1      34.358  31.899  28.984  1.00  0.00     0.016 A 
ATOM     10  C   UNL A   1      36.714  33.358  28.785  1.00  0.00     0.010 A 
ATOM     11  C   UNL A   1      35.479  31.551  29.736  1.00  0.00     0.010 A 
ATOM     12  C   UNL A   1      36.678  32.252  29.618  1.00  0.00    -0.014 A 
BRANCH  12  13
ATOM     13  C   UNL A   1      37.924  31.647  30.122  1.00  0.00     0.031 A 
ATOM     14  C   UNL A   1      38.333  32.055  31.508  1.00  0.00     0.074 A 
ATOM     15  C   UNL A   1      38.625  30.735  29.420  1.00  0.00     0.049 A 
ATOM     16  N   UNL A   1      39.337  31.635  32.224  1.00  0.00    -0.248 NA
ATOM     17  C   UNL A   1      37.523  33.095  32.183  1.00  0.00     0.031 C 
ATOM     18  C   UNL A   1      38.304  30.265  28.072  1.00  0.00     0.029 A 
ATOM     19  N   UNL A   1      39.752  30.023  29.746  1.00  0.00    -0.354 N 
ATOM     20  C   UNL A   1      39.231  32.339  33.412  1.00  0.00     0.074 A 
ATOM     21  C   UNL A   1      38.244  33.364  33.248  1.00  0.00     0.031 C 
ATOM     22  C   UNL A   1      39.217  29.358  27.681  1.00  0.00     0.029 A 
ATOM     23  C   UNL A   1      40.165  29.148  28.766  1.00  0.00     0.049 A 
ATOM     24  H   UNL A   1      40.223  30.128  30.604  1.00  0.00     0.167 HD
ATOM     25  C   UNL A   1      39.795  32.062  34.601  1.00  0.00     0.037 A 
ATOM     26  C   UNL A   1      41.165  28.245  28.774  1.00  0.00     0.037 A 
ATOM     27  C   UNL A   1      40.756  31.023  34.764  1.00  0.00     0.049 A 
ATOM     28  C   UNL A   1      41.911  28.050  30.067  1.00  0.00     0.074 A 
ATOM     29  C   UNL A   1      41.450  30.670  35.899  1.00  0.00     0.029 A 
ATOM     30  N   UNL A   1      41.170  30.187  33.737  1.00  0.00    -0.354 N 
ATOM     31  N   UNL A   1      41.743  28.668  31.214  1.00  0.00    -0.248 NA
ATOM     32  C   UNL A   1      42.943  27.007  30.093  1.00  0.00     0.031 C 
ATOM     33  C   UNL A   1      42.363  29.681  35.533  1.00  0.00     0.029 A 
ATOM     34  C   UNL A   1      42.155  29.344  34.201  1.00  0.00     0.049 A 
ATOM     35  H   UNL A   1      40.815  30.196  32.818  1.00  0.00     0.167 HD
ATOM     36  C   UNL A   1      42.609  28.057  32.110  1.00  0.00     0.074 A 
ATOM     37  C   UNL A   1      43.301  27.020  31.371  1.00  0.00     0.031 C 
ATOM     38  C   UNL A   1      42.805  28.316  33.426  1.00  0.00     0.037 A 
BRANCH  25  39
ATOM     39  C   UNL A   1      39.359  32.901  35.759  1.00  0.00     0.057 A 
ATOM     40  C   UNL A   1      38.365  32.440  36.623  1.00  0.00     0.134 A 
ATOM     41  C   UNL A   1      39.985  34.121  36.073  1.00  0.00     0.134 A 
ATOM     42  F   UNL A   1      37.758  31.266  36.394  1.00  0.00    -0.206 F 
ATOM     43  C   UNL A   1      37.998  33.163  37.756  1.00  0.00     0.040 A 
ATOM     44  C   UNL A   1      39.652  34.833  37.224  1.00  0.00     0.040 A 
ATOM     45  F   UNL A   1      40.990  34.589  35.316  1.00  0.00    -0.206 F 
ATOM     46  C   UNL A   1      38.646  34.358  38.064  1.00  0.00     0.006 A 
ENDBRANCH  25  39
BRANCH  26  47
ATOM     47  C   UNL A   1      41.440  27.402  27.576  1.00  0.00     0.057 A 
ATOM     48  C   UNL A   1      40.854  26.138  27.421  1.00  0.00     0.134 A 
ATOM     49  C   UNL A   1      42.304  27.827  26.558  1.00  0.00     0.134 A 
ATOM     50  F   UNL A   1      40.020  25.661  28.357  1.00  0.00    -0.206 F 
ATOM     51  C   UNL A   1      41.119  25.331  26.310  1.00  0.00     0.040 A 
ATOM     52  C   UNL A   1      42.562  27.042  25.431  1.00  0.00     0.040 A 
ATOM     53  F   UNL A   1      42.891  29.030  26.632  1.00  0.00    -0.206 F 
ATOM     54  C   UNL A   1      41.973  25.785  25.307  1.00  0.00     0.006 A 
ENDBRANCH  26  47
BRANCH  38  55
ATOM     55  C   UNL A   1      43.770  27.449  34.175  1.00  0.00     0.057 A 
ATOM     56  C   UNL A   1      45.139  27.748  34.151  1.00  0.00     0.134 A 
ATOM     57  C   UNL A   1      43.371  26.256  34.784  1.00  0.00     0.134 A 
ATOM     58  F   UNL A   1      45.585  28.867  33.558  1.00  0.00    -0.206 F 
ATOM     59  C   UNL A   1      46.082  26.874  34.683  1.00  0.00     0.040 A 
ATOM     60  C   UNL A   1      44.303  25.395  35.361  1.00  0.00     0.040 A 
ATOM     61  F   UNL A   1      42.075  25.915  34.834  1.00  0.00    -0.206 F 
ATOM     62  C   UNL A   1      45.663  25.695  35.296  1.00  0.00     0.006 A 
ENDBRANCH  38  55
ENDBRANCH  12  13
ENDBRANCH   5   7
ENDBRANCH   4   5
ENDBRANCH   3   4
ENDBRANCH   2   3
ENDBRANCH   1   2
BRANCH   1  63
ATOM     63  C   UNL A   1      32.858  28.435  27.004  1.00  0.00     0.310 C 
ATOM     64  O   UNL A   1      33.999  28.689  27.383  1.00  0.00    -0.252 OA
BRANCH  63  65
ATOM     65  C   UNL A   1      32.372  26.873  26.379  1.00  0.00     0.119 C 
ATOM     66  C   UNL A   1      30.405  25.872  26.165  1.00  0.00     0.019 C 
ATOM     67  C   UNL A   1      33.080  27.421  24.594  1.00  0.00     0.134 C 
ATOM     68  C   UNL A   1      29.815  25.697  24.306  1.00  0.00     0.022 C 
ATOM     69  N   UNL A   1      32.441  26.724  23.126  1.00  0.00    -0.342 N 
ATOM     70  C   UNL A   1      30.798  26.476  22.968  1.00  0.00     0.119 C 
BRANCH  69  71
ATOM     71  C   UNL A   1      33.351  25.686  22.604  1.00  0.00     0.226 C 
ATOM     72  O   UNL A   1      34.119  25.920  21.670  1.00  0.00    -0.275 OA
BRANCH  71  73
ATOM     73  C   UNL A   1      33.578  24.363  23.523  1.00  0.00     0.141 C 
BRANCH  73  74
ATOM     74  C   UNL A   1      32.555  23.077  23.391  1.00  0.00     0.239 C 
BRANCH  74  75
ATOM     75  O   UNL A   1      32.178  21.989  24.363  1.00  0.00    -0.493 OA
BRANCH  75  76
ATOM     76  C   UNL A   1      32.625  20.701  24.253  1.00  0.00     0.119 A 
ATOM     77  C   UNL A   1      31.937  19.878  23.051  1.00  0.00     0.049 A 
ATOM     78  C   UNL A   1      33.933  19.929  24.986  1.00  0.00     0.049 A 
ATOM     79  C   UNL A   1      32.443  18.143  22.345  1.00  0.00     0.043 A 
ATOM     80  C   UNL A   1      34.512  18.346  24.506  1.00  0.00     0.043 A 
ATOM     81  C   UNL A   1      33.829  17.417  23.188  1.00  0.00     0.123 A 
ATOM     82  F   UNL A   1      34.302  16.206  22.884  1.00  0.00    -0.207 F 
ENDBRANCH  75  76
ENDBRANCH  74  75
ENDBRANCH  73  74
ENDBRANCH  71  73
ENDBRANCH  69  71
ENDBRANCH  63  65
ENDBRANCH   1  63
TORSDOF 16
ENDMDL
MODEL 2
REMARK VINA RESULT:     -11.6      1.590      1.981
REMARK SMILES O=C(OCCOC(=O)[C@H]1CCCN(C(=O)CCOc2ccc(F)cc2)C1)c1ccc(-c2c3nc(c(-c4c(F)cccc4F)c4ccc([nH]4)c(-c4c(F)cccc4F)c4nc(c(-c5c(F)cccc5F)c5ccc2[nH]5)C=C4)C=C3)cc1
REMARK SMILES IDX 6 1 5 2 4 3 3 4 2 5 1 6 27 7 28 8 80 9 29 10 79 11 30 12
REMARK SMILES IDX 31 13 32 14 73 15 33 16 78 17 72 18 74 19 34 20 77 21 71 22
REMARK SMILES IDX 70 23 35 25 61 26 44 27 60 28 45 29 48 30 59 31 75 32 46 33
REMARK SMILES IDX 47 34 58 36 76 37 49 38 36 39 37 40 42 41 38 42 39 43 41 44
REMARK SMILES IDX 43 45 40 46 62 47 63 48 68 49 64 50 65 51 67 52 69 53 66 54
REMARK SMILES IDX 50 55 51 56 56 57 52 58 53 59 55 60 57 61 54 62 7 63 8 64
REMARK SMILES IDX 9 65 10 66 26 67 11 68 13 69 12 70 14 71 15 72 16 73 17 74
REMARK SMILES IDX 18 75 19 76 20 77 25 78 21 79 24 80 22 81 23 82
REMARK H PARENT 74 24 48 35
REMARK Flexibility Score: inf
ROOT
ATOM      1  O   UNL A   1      32.571  29.514  27.201  1.00  0.00    -0.462 OA
ENDROOT
BRANCH   1   2
ATOM      2  C   UNL A   1      32.274  30.675  26.354  1.00  0.00     0.274 C 
BRANCH   2   3
ATOM      3  C   UNL A   1      31.507  31.895  26.933  1.00  0.00     0.275 C 
BRANCH   3   4
ATOM      4  O   UNL A   1      32.220  33.129  26.943  1.00  0.00    -0.458 OA
BRANCH   4   5
ATOM      5  C   UNL A   1      32.940  33.636  27.965  1.00  0.00     0.338 C 
ATOM      6  O   UNL A   1      32.519  34.637  28.542  1.00  0.00    -0.246 OA
BRANCH   5   7
ATOM      7  C   UNL A   1      34.316  33.140  28.303  1.00  0.00     0.060 A 
ATOM      8  C   UNL A   1      35.549  33.771  28.090  1.00  0.00     0.016 A 
ATOM      9  C   UNL A   1      34.327  31.972  29.058  1.00  0.00     0.016 A 
ATOM     10  C   UNL A   1      36.713  33.362  28.745  1.00  0.00     0.010 A 
ATOM     11  C   UNL A   1      35.456  31.629  29.800  1.00  0.00     0.010 A 
ATOM     12  C   UNL A   1      36.669  32.295  29.627  1.00  0.00    -0.014 A 
BRANCH  12  13
ATOM     13  C   UNL A   1      37.910  31.681  30.131  1.00  0.00     0.031 A 
ATOM     14  C   UNL A   1      38.323  32.086  31.516  1.00  0.00     0.074 A 
ATOM     15  C   UNL A   1      38.604  30.763  29.427  1.00  0.00     0.049 A 
ATOM     16  N   UNL A   1      39.324  31.659  32.232  1.00  0.00    -0.248 NA
ATOM     17  C   UNL A   1      37.521  33.131  32.191  1.00  0.00     0.031 C 
ATOM     18  C   UNL A   1      38.280  30.296  28.080  1.00  0.00     0.029 A 
ATOM     19  N   UNL A   1      39.727  30.044  29.754  1.00  0.00    -0.354 N 
ATOM     20  C   UNL A   1      39.224  32.364  33.420  1.00  0.00     0.074 A 
ATOM     21  C   UNL A   1      38.243  33.395  33.256  1.00  0.00     0.031 C 
ATOM     22  C   UNL A   1      39.186  29.383  27.688  1.00  0.00     0.029 A 
ATOM     23  C   UNL A   1      40.133  29.166  28.773  1.00  0.00     0.049 A 
ATOM     24  H   UNL A   1      40.199  30.145  30.611  1.00  0.00     0.167 HD
ATOM     25  C   UNL A   1      39.786  32.082  34.609  1.00  0.00     0.037 A 
ATOM     26  C   UNL A   1      41.126  28.255  28.781  1.00  0.00     0.037 A 
ATOM     27  C   UNL A   1      40.740  31.037  34.771  1.00  0.00     0.049 A 
ATOM     28  C   UNL A   1      41.872  28.055  30.074  1.00  0.00     0.074 A 
ATOM     29  C   UNL A   1      41.431  30.679  35.906  1.00  0.00     0.029 A 
ATOM     30  N   UNL A   1      41.147  30.198  33.745  1.00  0.00    -0.354 N 
ATOM     31  N   UNL A   1      41.709  28.675  31.221  1.00  0.00    -0.248 NA
ATOM     32  C   UNL A   1      42.896  27.005  30.100  1.00  0.00     0.031 C 
ATOM     33  C   UNL A   1      42.337  29.683  35.540  1.00  0.00     0.029 A 
ATOM     34  C   UNL A   1      42.127  29.348  34.207  1.00  0.00     0.049 A 
ATOM     35  H   UNL A   1      40.792  30.209  32.826  1.00  0.00     0.167 HD
ATOM     36  C   UNL A   1      42.571  28.058  32.117  1.00  0.00     0.074 A 
ATOM     37  C   UNL A   1      43.255  27.015  31.377  1.00  0.00     0.031 C 
ATOM     38  C   UNL A   1      42.769  28.315  33.433  1.00  0.00     0.037 A 
BRANCH  25  39
ATOM     39  C   UNL A   1      39.357  32.925  35.767  1.00  0.00     0.057 A 
ATOM     40  C   UNL A   1      38.360  32.470  36.631  1.00  0.00     0.134 A 
ATOM     41  C   UNL A   1      39.991  34.140  36.080  1.00  0.00     0.134 A 
ATOM     42  F   UNL A   1      37.744  31.301  36.403  1.00  0.00    -0.206 F 
ATOM     43  C   UNL A   1      37.998  33.196  37.764  1.00  0.00     0.040 A 
ATOM     44  C   UNL A   1      39.663  34.855  37.231  1.00  0.00     0.040 A 
ATOM     45  F   UNL A   1      40.999  34.601  35.323  1.00  0.00    -0.206 F 
ATOM     46  C   UNL A   1      38.655  34.387  38.071  1.00  0.00     0.006 A 
ENDBRANCH  25  39
BRANCH  26  47
ATOM     47  C   UNL A   1      41.396  27.410  27.583  1.00  0.00     0.057 A 
ATOM     48  C   UNL A   1      40.798  26.152  27.427  1.00  0.00     0.134 A 
ATOM     49  C   UNL A   1      42.264  27.828  26.567  1.00  0.00     0.134 A 
ATOM     50  F   UNL A   1      39.959  25.682  28.361  1.00  0.00    -0.206 F 
ATOM     51  C   UNL A   1      41.057  25.343  26.316  1.00  0.00     0.040 A 
ATOM     52  C   UNL A   1      42.517  27.041  25.439  1.00  0.00     0.040 A 
ATOM     53  F   UNL A   1      42.863  29.026  26.642  1.00  0.00    -0.206 F 
ATOM     54  C   UNL A   1      41.916  25.790  25.314  1.00  0.00     0.006 A 
ENDBRANCH  26  47
BRANCH  38  55
ATOM     55  C   UNL A   1      43.728  27.442  34.181  1.00  0.00     0.057 A 
ATOM     56  C   UNL A   1      43.248  26.348  34.916  1.00  0.00     0.134 A 
ATOM     57  C   UNL A   1      45.084  27.761  34.296  1.00  0.00     0.134 A 
ATOM     58  F   UNL A   1      41.950  26.009  34.866  1.00  0.00    -0.206 F 
ATOM     59  C   UNL A   1      44.079  25.621  35.762  1.00  0.00     0.040 A 
ATOM     60  C   UNL A   1      45.936  27.012  35.105  1.00  0.00     0.040 A 
ATOM     61  F   UNL A   1      45.600  28.799  33.620  1.00  0.00    -0.206 F 
ATOM     62  C   UNL A   1      45.430  25.950  35.854  1.00  0.00     0.006 A 
ENDBRANCH  38  55
ENDBRANCH  12  13
ENDBRANCH   5   7
ENDBRANCH   4   5
ENDBRANCH   3   4
ENDBRANCH   2   3
ENDBRANCH   1   2
BRANCH   1  63
ATOM     63  C   UNL A   1      33.599  28.718  26.770  1.00  0.00     0.310 C 
ATOM     64  O   UNL A   1      34.770  29.025  26.975  1.00  0.00    -0.252 OA
BRANCH  63  65
ATOM     65  C   UNL A   1      33.114  27.227  25.988  1.00  0.00     0.119 C 
ATOM     66  C   UNL A   1      31.330  25.925  26.185  1.00  0.00     0.019 C 
ATOM     67  C   UNL A   1      33.080  28.206  24.248  1.00  0.00     0.134 C 
ATOM     68  C   UNL A   1      30.151  25.971  24.622  1.00  0.00     0.022 C 
ATOM     69  N   UNL A   1      32.055  27.671  22.940  1.00  0.00    -0.342 N 
ATOM     70  C   UNL A   1      30.503  27.148  23.259  1.00  0.00     0.119 C 
BRANCH  69  71
ATOM     71  C   UNL A   1      32.841  26.934  21.931  1.00  0.00     0.226 C 
ATOM     72  O   UNL A   1      34.021  27.210  21.713  1.00  0.00    -0.275 OA
BRANCH  71  73
ATOM     73  C   UNL A   1      32.229  25.526  21.393  1.00  0.00     0.141 C 
BRANCH  73  74
ATOM     74  C   UNL A   1      33.103  24.136  21.532  1.00  0.00     0.239 C 
BRANCH  74  75
ATOM     75  O   UNL A   1      34.172  23.714  22.508  1.00  0.00    -0.493 OA
BRANCH  75  76
ATOM     76  C   UNL A   1      33.951  23.590  23.851  1.00  0.00     0.119 A 
ATOM     77  C   UNL A   1      32.547  22.889  24.214  1.00  0.00     0.049 A 
ATOM     78  C   UNL A   1      34.995  23.810  25.158  1.00  0.00     0.049 A 
ATOM     79  C   UNL A   1      31.935  22.259  25.944  1.00  0.00     0.043 A 
ATOM     80  C   UNL A   1      34.601  23.334  26.798  1.00  0.00     0.043 A 
ATOM     81  C   UNL A   1      33.107  22.539  27.250  1.00  0.00     0.123 A 
ATOM     82  F   UNL A   1      32.857  22.221  28.522  1.00  0.00    -0.207 F 
ENDBRANCH  75  76
ENDBRANCH  74  75
ENDBRANCH  73  74
ENDBRANCH  71  73
ENDBRANCH  69  71
ENDBRANCH  63  65
ENDBRANCH   1  63
TORSDOF 16
ENDMDL
MODEL 3
REMARK VINA RESULT:     -11.5      4.619      9.195
REMARK SMILES O=C(OCCOC(=O)[C@H]1CCCN(C(=O)CCOc2ccc(F)cc2)C1)c1ccc(-c2c3nc(c(-c4c(F)cccc4F)c4ccc([nH]4)c(-c4c(F)cccc4F)c4nc(c(-c5c(F)cccc5F)c5ccc2[nH]5)C=C4)C=C3)cc1
REMARK SMILES IDX 6 1 5 2 4 3 3 4 2 5 1 6 27 7 28 8 80 9 29 10 79 11 30 12
REMARK SMILES IDX 31 13 32 14 73 15 33 16 78 17 72 18 74 19 34 20 77 21 71 22
REMARK SMILES IDX 70 23 35 25 61 26 44 27 60 28 45 29 48 30 59 31 75 32 46 33
REMARK SMILES IDX 47 34 58 36 76 37 49 38 36 39 37 40 42 41 38 42 39 43 41 44
REMARK SMILES IDX 43 45 40 46 62 47 63 48 68 49 64 50 65 51 67 52 69 53 66 54
REMARK SMILES IDX 50 55 51 56 56 57 52 58 53 59 55 60 57 61 54 62 7 63 8 64
REMARK SMILES IDX 9 65 10 66 26 67 11 68 13 69 12 70 14 71 15 72 16 73 17 74
REMARK SMILES IDX 18 75 19 76 20 77 25 78 21 79 24 80 22 81 23 82
REMARK H PARENT 74 24 48 35
REMARK Flexibility Score: inf
ROOT
ATOM      1  O   UNL A   1      37.853  21.628  24.904  1.00  0.00    -0.462 OA
ENDROOT
BRANCH   1   2
ATOM      2  C   UNL A   1      38.846  20.938  25.737  1.00  0.00     0.274 C 
BRANCH   2   3
ATOM      3  C   UNL A   1      39.346  19.520  25.350  1.00  0.00     0.275 C 
BRANCH   3   4
ATOM      4  O   UNL A   1      40.513  19.066  26.030  1.00  0.00    -0.458 OA
BRANCH   4   5
ATOM      5  C   UNL A   1      41.773  19.513  25.856  1.00  0.00     0.338 C 
ATOM      6  O   UNL A   1      42.630  18.723  25.466  1.00  0.00    -0.246 OA
BRANCH   5   7
ATOM      7  C   UNL A   1      42.208  20.882  26.294  1.00  0.00     0.060 A 
ATOM      8  C   UNL A   1      42.617  21.964  25.503  1.00  0.00     0.016 A 
ATOM      9  C   UNL A   1      42.029  21.125  27.651  1.00  0.00     0.016 A 
ATOM     10  C   UNL A   1      42.671  23.267  26.002  1.00  0.00     0.010 A 
ATOM     11  C   UNL A   1      41.972  22.434  28.127  1.00  0.00     0.010 A 
ATOM     12  C   UNL A   1      42.326  23.515  27.320  1.00  0.00    -0.014 A 
BRANCH  12  13
ATOM     13  C   UNL A   1      42.616  24.819  27.944  1.00  0.00     0.031 A 
ATOM     14  C   UNL A   1      44.070  25.162  28.090  1.00  0.00     0.074 A 
ATOM     15  C   UNL A   1      41.646  25.684  28.304  1.00  0.00     0.049 A 
ATOM     16  N   UNL A   1      44.612  26.259  28.538  1.00  0.00    -0.248 NA
ATOM     17  C   UNL A   1      45.059  24.131  27.705  1.00  0.00     0.031 C 
ATOM     18  C   UNL A   1      40.208  25.448  28.193  1.00  0.00     0.029 A 
ATOM     19  N   UNL A   1      41.723  26.950  28.829  1.00  0.00    -0.354 N 
ATOM     20  C   UNL A   1      45.976  26.032  28.445  1.00  0.00     0.074 A 
ATOM     21  C   UNL A   1      46.187  24.649  28.138  1.00  0.00     0.031 C 
ATOM     22  C   UNL A   1      39.537  26.521  28.648  1.00  0.00     0.029 A 
ATOM     23  C   UNL A   1      40.498  27.541  29.043  1.00  0.00     0.049 A 
ATOM     24  H   UNL A   1      42.576  27.395  29.034  1.00  0.00     0.167 HD
ATOM     25  C   UNL A   1      46.976  26.931  28.457  1.00  0.00     0.037 A 
ATOM     26  C   UNL A   1      40.197  28.787  29.460  1.00  0.00     0.037 A 
ATOM     27  C   UNL A   1      46.755  28.310  28.736  1.00  0.00     0.049 A 
ATOM     28  C   UNL A   1      41.338  29.754  29.635  1.00  0.00     0.074 A 
ATOM     29  C   UNL A   1      47.684  29.321  28.837  1.00  0.00     0.029 A 
ATOM     30  N   UNL A   1      45.505  28.858  28.982  1.00  0.00    -0.354 N 
ATOM     31  N   UNL A   1      42.624  29.547  29.461  1.00  0.00    -0.248 NA
ATOM     32  C   UNL A   1      40.998  31.131  30.009  1.00  0.00     0.031 C 
ATOM     33  C   UNL A   1      47.002  30.468  29.247  1.00  0.00     0.029 A 
ATOM     34  C   UNL A   1      45.640  30.194  29.287  1.00  0.00     0.049 A 
ATOM     35  H   UNL A   1      44.652  28.367  28.944  1.00  0.00     0.167 HD
ATOM     36  C   UNL A   1      43.240  30.775  29.654  1.00  0.00     0.074 A 
ATOM     37  C   UNL A   1      42.185  31.721  29.959  1.00  0.00     0.031 C 
ATOM     38  C   UNL A   1      44.554  31.099  29.571  1.00  0.00     0.037 A 
BRANCH  25  39
ATOM     39  C   UNL A   1      48.345  26.411  28.158  1.00  0.00     0.057 A 
ATOM     40  C   UNL A   1      49.121  25.859  29.178  1.00  0.00     0.134 A 
ATOM     41  C   UNL A   1      48.859  26.373  26.850  1.00  0.00     0.134 A 
ATOM     42  F   UNL A   1      48.668  25.834  30.440  1.00  0.00    -0.206 F 
ATOM     43  C   UNL A   1      50.366  25.291  28.914  1.00  0.00     0.040 A 
ATOM     44  C   UNL A   1      50.086  25.773  26.569  1.00  0.00     0.040 A 
ATOM     45  F   UNL A   1      48.136  26.833  25.817  1.00  0.00    -0.206 F 
ATOM     46  C   UNL A   1      50.848  25.240  27.606  1.00  0.00     0.006 A 
ENDBRANCH  25  39
BRANCH  26  47
ATOM     47  C   UNL A   1      38.779  29.211  29.634  1.00  0.00     0.057 A 
ATOM     48  C   UNL A   1      38.037  29.738  28.567  1.00  0.00     0.134 A 
ATOM     49  C   UNL A   1      38.126  29.113  30.870  1.00  0.00     0.134 A 
ATOM     50  F   UNL A   1      38.596  29.868  27.355  1.00  0.00    -0.206 F 
ATOM     51  C   UNL A   1      36.711  30.155  28.724  1.00  0.00     0.040 A 
ATOM     52  C   UNL A   1      36.795  29.505  31.037  1.00  0.00     0.040 A 
ATOM     53  F   UNL A   1      38.769  28.606  31.932  1.00  0.00    -0.206 F 
ATOM     54  C   UNL A   1      36.084  30.035  29.962  1.00  0.00     0.006 A 
ENDBRANCH  26  47
BRANCH  38  55
ATOM     55  C   UNL A   1      44.936  32.532  29.769  1.00  0.00     0.057 A 
ATOM     56  C   UNL A   1      45.003  33.395  28.666  1.00  0.00     0.134 A 
ATOM     57  C   UNL A   1      45.375  33.017  31.005  1.00  0.00     0.134 A 
ATOM     58  F   UNL A   1      44.620  32.979  27.449  1.00  0.00    -0.206 F 
ATOM     59  C   UNL A   1      45.522  34.681  28.781  1.00  0.00     0.040 A 
ATOM     60  C   UNL A   1      45.853  34.318  31.142  1.00  0.00     0.040 A 
ATOM     61  F   UNL A   1      45.339  32.236  32.096  1.00  0.00    -0.206 F 
ATOM     62  C   UNL A   1      45.944  35.148  30.024  1.00  0.00     0.006 A 
ENDBRANCH  38  55
ENDBRANCH  12  13
ENDBRANCH   5   7
ENDBRANCH   4   5
ENDBRANCH   3   4
ENDBRANCH   2   3
ENDBRANCH   1   2
BRANCH   1  63
ATOM     63  C   UNL A   1      37.210  22.679  25.504  1.00  0.00     0.310 C 
ATOM     64  O   UNL A   1      37.832  23.659  25.905  1.00  0.00    -0.252 OA
BRANCH  63  65
ATOM     65  C   UNL A   1      35.465  22.544  25.579  1.00  0.00     0.119 C 
ATOM     66  C   UNL A   1      33.936  23.402  26.937  1.00  0.00     0.019 C 
ATOM     67  C   UNL A   1      35.370  23.406  23.780  1.00  0.00     0.134 C 
ATOM     68  C   UNL A   1      32.807  24.757  26.086  1.00  0.00     0.022 C 
ATOM     69  N   UNL A   1      33.951  24.299  23.290  1.00  0.00    -0.342 N 
ATOM     70  C   UNL A   1      33.184  25.306  24.377  1.00  0.00     0.119 C 
BRANCH  69  71
ATOM     71  C   UNL A   1      33.113  23.488  22.386  1.00  0.00     0.226 C 
ATOM     72  O   UNL A   1      33.452  23.270  21.222  1.00  0.00    -0.275 OA
BRANCH  71  73
ATOM     73  C   UNL A   1      31.936  22.592  23.064  1.00  0.00     0.141 C 
BRANCH  73  74
ATOM     74  C   UNL A   1      32.273  21.623  24.354  1.00  0.00     0.239 C 
BRANCH  74  75
ATOM     75  O   UNL A   1      31.937  20.182  24.644  1.00  0.00    -0.493 OA
BRANCH  75  76
ATOM     76  C   UNL A   1      32.885  19.228  24.888  1.00  0.00     0.119 A 
ATOM     77  C   UNL A   1      32.271  17.785  25.257  1.00  0.00     0.049 A 
ATOM     78  C   UNL A   1      34.551  19.245  24.620  1.00  0.00     0.049 A 
ATOM     79  C   UNL A   1      33.204  16.090  25.406  1.00  0.00     0.043 A 
ATOM     80  C   UNL A   1      35.562  17.819  24.743  1.00  0.00     0.043 A 
ATOM     81  C   UNL A   1      34.951  16.219  25.107  1.00  0.00     0.123 A 
ATOM     82  F   UNL A   1      35.777  15.175  25.207  1.00  0.00    -0.207 F 
ENDBRANCH  75  76
ENDBRANCH  74  75
ENDBRANCH  73  74
ENDBRANCH  71  73
ENDBRANCH  69  71
ENDBRANCH  63  65
ENDBRANCH   1  63
TORSDOF 16
ENDMDL
