MODEL 1
REMARK VINA RESULT:     -12.2      0.000      0.000
REMARK SMILES Cc1cc(C)c2c(CCCC(=O)OCCOC(=O)c3ccc(-c4c5nc(c(-c6c(F)cccc6F)c6ccc([nH]6)c(-c6c(F)cccc6F)c6nc(c(-c7c(F)cccc7F)c7ccc4[nH]7)C=C6)C=C5)cc3)c(-c3ccccn3)[nH]c2c1
REMARK SMILES IDX 14 1 13 2 11 3 12 4 10 5 9 6 8 7 7 8 1 9 2 10 3 11 82 12
REMARK SMILES IDX 4 13 81 14 5 15 6 16 80 17 73 18 74 20 75 21 79 22 76 23
REMARK SMILES IDX 78 24 77 25 15 26 16 27 17 28 18 29 19 30 20 31 72 32 21 33
REMARK SMILES IDX 71 34 22 35 23 36 24 37 65 38 25 39 70 40 64 41 66 42 26 43
REMARK SMILES IDX 69 44 63 45 62 46 27 48 53 49 36 50 52 51 37 52 40 53 51 54
REMARK SMILES IDX 67 55 38 56 39 57 50 59 68 60 41 61 28 62 29 63 34 64 30 65
REMARK SMILES IDX 31 66 33 67 35 68 32 69 54 70 55 71 60 72 56 73 57 74 59 75
REMARK SMILES IDX 61 76 58 77 42 78 43 79 48 80 44 81 45 82 47 83 49 84 46 85
REMARK H PARENT 80 19 66 47 40 58
REMARK Flexibility Score: inf
ROOT
ATOM      1  C   UNL A   1      40.845  20.353  27.128  1.00  0.00     0.274 C 
ENDROOT
BRANCH   1   2
ATOM      2  O   UNL A   1      40.517  21.498  26.317  1.00  0.00    -0.462 OA
BRANCH   2   3
ATOM      3  C   UNL A   1      39.229  21.815  26.049  1.00  0.00     0.305 C 
ATOM      4  O   UNL A   1      38.731  22.913  26.280  1.00  0.00    -0.252 OA
BRANCH   3   5
ATOM      5  C   UNL A   1      38.449  20.671  25.416  1.00  0.00     0.123 C 
BRANCH   5   6
ATOM      6  C   UNL A   1      37.088  20.942  24.775  1.00  0.00     0.017 C 
BRANCH   6   7
ATOM      7  C   UNL A   1      35.834  20.995  25.647  1.00  0.00     0.039 C 
BRANCH   7   8
ATOM      8  C   UNL A   1      34.505  21.111  24.950  1.00  0.00    -0.013 A 
ATOM      9  C   UNL A   1      31.512  25.347  22.472  1.00  0.00     0.044 C 
ATOM     10  C   UNL A   1      32.356  24.299  23.131  1.00  0.00    -0.049 A 
ATOM     11  C   UNL A   1      33.564  24.659  23.732  1.00  0.00     0.007 A 
ATOM     12  C   UNL A   1      31.931  22.973  23.176  1.00  0.00     0.030 A 
ATOM     13  C   UNL A   1      34.395  23.720  24.384  1.00  0.00    -0.041 A 
ATOM     14  C   UNL A   1      32.751  22.041  23.818  1.00  0.00     0.047 A 
ATOM     15  C   UNL A   1      35.679  24.243  24.978  1.00  0.00     0.045 C 
ATOM     16  C   UNL A   1      33.966  22.358  24.424  1.00  0.00     0.006 A 
ATOM     17  N   UNL A   1      32.544  20.699  23.983  1.00  0.00    -0.353 N 
ATOM     18  C   UNL A   1      33.611  20.095  24.590  1.00  0.00     0.068 A 
ATOM     19  H   UNL A   1      31.728  20.226  23.699  1.00  0.00     0.167 HD
BRANCH  18  20
ATOM     20  C   UNL A   1      33.583  18.644  24.729  1.00  0.00     0.087 A 
ATOM     21  C   UNL A   1      34.597  17.832  24.237  1.00  0.00     0.030 A 
ATOM     22  N   UNL A   1      32.476  18.154  25.326  1.00  0.00    -0.255 NA
ATOM     23  C   UNL A   1      34.522  16.458  24.475  1.00  0.00     0.004 A 
ATOM     24  C   UNL A   1      32.440  16.822  25.562  1.00  0.00     0.112 A 
ATOM     25  C   UNL A   1      33.437  15.945  25.176  1.00  0.00     0.020 A 
ENDBRANCH  18  20
ENDBRANCH   7   8
ENDBRANCH   6   7
ENDBRANCH   5   6
ENDBRANCH   3   5
ENDBRANCH   2   3
ENDBRANCH   1   2
BRANCH   1  26
ATOM     26  C   UNL A   1      42.226  19.824  26.767  1.00  0.00     0.275 C 
BRANCH  26  27
ATOM     27  O   UNL A   1      42.498  20.196  25.424  1.00  0.00    -0.458 OA
BRANCH  27  28
ATOM     28  C   UNL A   1      43.813  20.208  25.118  1.00  0.00     0.338 C 
ATOM     29  O   UNL A   1      44.525  19.254  24.868  1.00  0.00    -0.246 OA
BRANCH  28  30
ATOM     30  C   UNL A   1      44.284  21.595  25.120  1.00  0.00     0.060 A 
ATOM     31  C   UNL A   1      45.423  21.880  25.879  1.00  0.00     0.016 A 
ATOM     32  C   UNL A   1      43.451  22.592  24.604  1.00  0.00     0.016 A 
ATOM     33  C   UNL A   1      45.569  23.153  26.368  1.00  0.00     0.010 A 
ATOM     34  C   UNL A   1      43.572  23.852  25.120  1.00  0.00     0.010 A 
ATOM     35  C   UNL A   1      44.556  24.068  26.083  1.00  0.00    -0.014 A 
BRANCH  35  36
ATOM     36  C   UNL A   1      44.410  25.194  26.972  1.00  0.00     0.031 A 
ATOM     37  C   UNL A   1      45.494  26.188  26.912  1.00  0.00     0.074 A 
ATOM     38  C   UNL A   1      43.262  25.339  27.660  1.00  0.00     0.049 A 
ATOM     39  N   UNL A   1      46.291  26.560  27.856  1.00  0.00    -0.248 NA
ATOM     40  C   UNL A   1      45.800  26.758  25.591  1.00  0.00     0.031 C 
ATOM     41  C   UNL A   1      42.012  24.579  27.512  1.00  0.00     0.029 A 
ATOM     42  N   UNL A   1      42.930  26.295  28.560  1.00  0.00    -0.354 N 
ATOM     43  C   UNL A   1      47.093  27.541  27.288  1.00  0.00     0.074 A 
ATOM     44  C   UNL A   1      46.869  27.501  25.866  1.00  0.00     0.031 C 
ATOM     45  C   UNL A   1      41.010  25.255  28.118  1.00  0.00     0.029 A 
ATOM     46  C   UNL A   1      41.569  26.417  28.786  1.00  0.00     0.049 A 
ATOM     47  H   UNL A   1      43.599  26.856  29.014  1.00  0.00     0.167 HD
ATOM     48  C   UNL A   1      47.719  28.488  28.032  1.00  0.00     0.037 A 
ATOM     49  C   UNL A   1      40.968  27.476  29.381  1.00  0.00     0.037 A 
ATOM     50  C   UNL A   1      47.788  28.143  29.421  1.00  0.00     0.049 A 
ATOM     51  C   UNL A   1      42.027  28.240  30.097  1.00  0.00     0.074 A 
ATOM     52  C   UNL A   1      48.380  27.114  30.128  1.00  0.00     0.029 A 
ATOM     53  N   UNL A   1      46.863  28.699  30.271  1.00  0.00    -0.354 N 
ATOM     54  N   UNL A   1      42.666  27.806  31.148  1.00  0.00    -0.248 NA
ATOM     55  C   UNL A   1      42.689  29.317  29.371  1.00  0.00     0.031 C 
ATOM     56  C   UNL A   1      47.471  26.813  31.181  1.00  0.00     0.029 A 
ATOM     57  C   UNL A   1      46.391  27.691  31.074  1.00  0.00     0.049 A 
ATOM     58  H   UNL A   1      46.590  29.645  30.299  1.00  0.00     0.167 HD
ATOM     59  C   UNL A   1      43.968  28.264  30.995  1.00  0.00     0.074 A 
ATOM     60  C   UNL A   1      43.900  29.260  29.931  1.00  0.00     0.031 C 
ATOM     61  C   UNL A   1      45.026  27.595  31.542  1.00  0.00     0.037 A 
BRANCH  48  62
ATOM     62  C   UNL A   1      47.987  29.861  27.502  1.00  0.00     0.057 A 
ATOM     63  C   UNL A   1      49.292  30.360  27.449  1.00  0.00     0.134 A 
ATOM     64  C   UNL A   1      46.961  30.793  27.236  1.00  0.00     0.134 A 
ATOM     65  F   UNL A   1      50.339  29.576  27.745  1.00  0.00    -0.206 F 
ATOM     66  C   UNL A   1      49.559  31.699  27.138  1.00  0.00     0.040 A 
ATOM     67  C   UNL A   1      47.215  32.113  26.866  1.00  0.00     0.040 A 
ATOM     68  F   UNL A   1      45.665  30.485  27.402  1.00  0.00    -0.206 F 
ATOM     69  C   UNL A   1      48.520  32.575  26.832  1.00  0.00     0.006 A 
ENDBRANCH  48  62
BRANCH  49  70
ATOM     70  C   UNL A   1      39.647  28.062  29.060  1.00  0.00     0.057 A 
ATOM     71  C   UNL A   1      38.637  28.126  30.029  1.00  0.00     0.134 A 
ATOM     72  C   UNL A   1      39.423  28.811  27.888  1.00  0.00     0.134 A 
ATOM     73  F   UNL A   1      38.776  27.479  31.196  1.00  0.00    -0.206 F 
ATOM     74  C   UNL A   1      37.487  28.906  29.857  1.00  0.00     0.040 A 
ATOM     75  C   UNL A   1      38.273  29.582  27.699  1.00  0.00     0.040 A 
ATOM     76  F   UNL A   1      40.351  28.892  26.924  1.00  0.00    -0.206 F 
ATOM     77  C   UNL A   1      37.306  29.646  28.692  1.00  0.00     0.006 A 
ENDBRANCH  49  70
BRANCH  61  78
ATOM     78  C   UNL A   1      44.723  26.477  32.503  1.00  0.00     0.057 A 
ATOM     79  C   UNL A   1      44.556  25.141  32.107  1.00  0.00     0.134 A 
ATOM     80  C   UNL A   1      44.774  26.725  33.878  1.00  0.00     0.134 A 
ATOM     81  F   UNL A   1      44.602  24.792  30.816  1.00  0.00    -0.206 F 
ATOM     82  C   UNL A   1      44.405  24.106  33.035  1.00  0.00     0.040 A 
ATOM     83  C   UNL A   1      44.657  25.696  34.817  1.00  0.00     0.040 A 
ATOM     84  F   UNL A   1      44.993  27.968  34.334  1.00  0.00    -0.206 F 
ATOM     85  C   UNL A   1      44.464  24.382  34.397  1.00  0.00     0.006 A 
ENDBRANCH  61  78
ENDBRANCH  35  36
ENDBRANCH  28  30
ENDBRANCH  27  28
ENDBRANCH  26  27
ENDBRANCH   1  26
TORSDOF 15
ENDMDL
MODEL 2
REMARK VINA RESULT:     -11.9      2.312      6.629
REMARK SMILES Cc1cc(C)c2c(CCCC(=O)OCCOC(=O)c3ccc(-c4c5nc(c(-c6c(F)cccc6F)c6ccc([nH]6)c(-c6c(F)cccc6F)c6nc(c(-c7c(F)cccc7F)c7ccc4[nH]7)C=C6)C=C5)cc3)c(-c3ccccn3)[nH]c2c1
REMARK SMILES IDX 14 1 13 2 11 3 12 4 10 5 9 6 8 7 7 8 1 9 2 10 3 11 82 12
REMARK SMILES IDX 4 13 81 14 5 15 6 16 80 17 73 18 74 20 75 21 79 22 76 23
REMARK SMILES IDX 78 24 77 25 15 26 16 27 17 28 18 29 19 30 20 31 72 32 21 33
REMARK SMILES IDX 71 34 22 35 23 36 24 37 65 38 25 39 70 40 64 41 66 42 26 43
REMARK SMILES IDX 69 44 63 45 62 46 27 48 53 49 36 50 52 51 37 52 40 53 51 54
REMARK SMILES IDX 67 55 38 56 39 57 50 59 68 60 41 61 28 62 29 63 34 64 30 65
REMARK SMILES IDX 31 66 33 67 35 68 32 69 54 70 55 71 60 72 56 73 57 74 59 75
REMARK SMILES IDX 61 76 58 77 42 78 43 79 48 80 44 81 45 82 47 83 49 84 46 85
REMARK H PARENT 80 19 66 47 40 58
REMARK Flexibility Score: inf
ROOT
ATOM      1  C   UNL A   1      36.253  20.919  25.483  1.00  0.00     0.274 C 
ENDROOT
BRANCH   1   2
ATOM      2  O   UNL A   1      35.710  22.128  24.916  1.00  0.00    -0.462 OA
BRANCH   2   3
ATOM      3  C   UNL A   1      35.182  23.092  25.707  1.00  0.00     0.305 C 
ATOM      4  O   UNL A   1      34.742  22.888  26.833  1.00  0.00    -0.252 OA
BRANCH   3   5
ATOM      5  C   UNL A   1      35.200  24.471  25.064  1.00  0.00     0.123 C 
BRANCH   5   6
ATOM      6  C   UNL A   1      34.126  25.494  25.430  1.00  0.00     0.017 C 
BRANCH   6   7
ATOM      7  C   UNL A   1      33.413  26.276  24.327  1.00  0.00     0.039 C 
BRANCH   7   8
ATOM      8  C   UNL A   1      31.938  26.038  24.145  1.00  0.00    -0.013 A 
ATOM      9  C   UNL A   1      27.345  29.306  23.022  1.00  0.00     0.044 C 
ATOM     10  C   UNL A   1      28.591  28.525  23.306  1.00  0.00    -0.049 A 
ATOM     11  C   UNL A   1      29.808  29.191  23.457  1.00  0.00     0.007 A 
ATOM     12  C   UNL A   1      28.540  27.140  23.452  1.00  0.00     0.030 A 
ATOM     13  C   UNL A   1      31.014  28.512  23.744  1.00  0.00    -0.041 A 
ATOM     14  C   UNL A   1      29.731  26.463  23.733  1.00  0.00     0.047 A 
ATOM     15  C   UNL A   1      32.258  29.355  23.868  1.00  0.00     0.045 C 
ATOM     16  C   UNL A   1      30.967  27.091  23.885  1.00  0.00     0.006 A 
ATOM     17  N   UNL A   1      29.923  25.122  23.914  1.00  0.00    -0.353 N 
ATOM     18  C   UNL A   1      31.247  24.821  24.087  1.00  0.00     0.068 A 
ATOM     19  H   UNL A   1      29.199  24.454  23.918  1.00  0.00     0.167 HD
BRANCH  18  20
ATOM     20  C   UNL A   1      31.618  23.414  24.177  1.00  0.00     0.087 A 
ATOM     21  C   UNL A   1      32.161  22.720  23.103  1.00  0.00     0.030 A 
ATOM     22  N   UNL A   1      31.348  22.832  25.364  1.00  0.00    -0.255 NA
ATOM     23  C   UNL A   1      32.551  21.394  23.298  1.00  0.00     0.004 A 
ATOM     24  C   UNL A   1      31.757  21.552  25.533  1.00  0.00     0.112 A 
ATOM     25  C   UNL A   1      32.373  20.805  24.545  1.00  0.00     0.020 A 
ENDBRANCH  18  20
ENDBRANCH   7   8
ENDBRANCH   6   7
ENDBRANCH   5   6
ENDBRANCH   3   5
ENDBRANCH   2   3
ENDBRANCH   1   2
BRANCH   1  26
ATOM     26  C   UNL A   1      37.579  20.570  24.821  1.00  0.00     0.275 C 
BRANCH  26  27
ATOM     27  O   UNL A   1      38.623  21.041  25.661  1.00  0.00    -0.458 OA
BRANCH  27  28
ATOM     28  C   UNL A   1      39.652  20.177  25.787  1.00  0.00     0.338 C 
ATOM     29  O   UNL A   1      39.675  19.001  25.477  1.00  0.00    -0.246 OA
BRANCH  28  30
ATOM     30  C   UNL A   1      40.794  20.887  26.367  1.00  0.00     0.060 A 
ATOM     31  C   UNL A   1      41.005  20.737  27.741  1.00  0.00     0.016 A 
ATOM     32  C   UNL A   1      41.440  21.865  25.606  1.00  0.00     0.016 A 
ATOM     33  C   UNL A   1      41.642  21.752  28.409  1.00  0.00     0.010 A 
ATOM     34  C   UNL A   1      42.042  22.895  26.272  1.00  0.00     0.010 A 
ATOM     35  C   UNL A   1      42.019  22.870  27.666  1.00  0.00    -0.014 A 
BRANCH  35  36
ATOM     36  C   UNL A   1      42.195  24.111  28.377  1.00  0.00     0.031 A 
ATOM     37  C   UNL A   1      41.104  25.087  28.222  1.00  0.00     0.074 A 
ATOM     38  C   UNL A   1      43.230  24.235  29.230  1.00  0.00     0.049 A 
ATOM     39  N   UNL A   1      41.160  26.279  27.732  1.00  0.00    -0.248 NA
ATOM     40  C   UNL A   1      39.748  24.624  28.553  1.00  0.00     0.031 C 
ATOM     41  C   UNL A   1      44.156  23.190  29.691  1.00  0.00     0.029 A 
ATOM     42  N   UNL A   1      43.593  25.310  29.969  1.00  0.00    -0.354 N 
ATOM     43  C   UNL A   1      39.872  26.782  27.852  1.00  0.00     0.074 A 
ATOM     44  C   UNL A   1      39.016  25.677  28.198  1.00  0.00     0.031 C 
ATOM     45  C   UNL A   1      44.807  23.632  30.791  1.00  0.00     0.029 A 
ATOM     46  C   UNL A   1      44.431  25.014  31.032  1.00  0.00     0.049 A 
ATOM     47  H   UNL A   1      43.288  26.223  29.768  1.00  0.00     0.167 HD
ATOM     48  C   UNL A   1      39.612  28.113  27.892  1.00  0.00     0.037 A 
ATOM     49  C   UNL A   1      44.678  25.833  32.082  1.00  0.00     0.037 A 
ATOM     50  C   UNL A   1      40.709  28.904  27.416  1.00  0.00     0.049 A 
ATOM     51  C   UNL A   1      44.251  27.203  31.685  1.00  0.00     0.074 A 
ATOM     52  C   UNL A   1      41.364  29.010  26.204  1.00  0.00     0.029 A 
ATOM     53  N   UNL A   1      41.545  29.474  28.345  1.00  0.00    -0.354 N 
ATOM     54  N   UNL A   1      44.844  27.924  30.774  1.00  0.00    -0.248 NA
ATOM     55  C   UNL A   1      42.883  27.599  31.994  1.00  0.00     0.031 C 
ATOM     56  C   UNL A   1      42.733  29.213  26.536  1.00  0.00     0.029 A 
ATOM     57  C   UNL A   1      42.832  29.248  27.928  1.00  0.00     0.049 A 
ATOM     58  H   UNL A   1      41.271  29.956  29.159  1.00  0.00     0.167 HD
ATOM     59  C   UNL A   1      43.819  28.598  30.121  1.00  0.00     0.074 A 
ATOM     60  C   UNL A   1      42.646  28.426  30.972  1.00  0.00     0.031 C 
ATOM     61  C   UNL A   1      43.942  28.988  28.817  1.00  0.00     0.037 A 
BRANCH  48  62
ATOM     62  C   UNL A   1      38.456  28.672  28.660  1.00  0.00     0.057 A 
ATOM     63  C   UNL A   1      37.551  29.544  28.047  1.00  0.00     0.134 A 
ATOM     64  C   UNL A   1      38.329  28.536  30.059  1.00  0.00     0.134 A 
ATOM     65  F   UNL A   1      37.623  29.793  26.731  1.00  0.00    -0.206 F 
ATOM     66  C   UNL A   1      36.573  30.228  28.779  1.00  0.00     0.040 A 
ATOM     67  C   UNL A   1      37.323  29.165  30.791  1.00  0.00     0.040 A 
ATOM     68  F   UNL A   1      39.226  27.854  30.787  1.00  0.00    -0.206 F 
ATOM     69  C   UNL A   1      36.449  30.029  30.152  1.00  0.00     0.006 A 
ENDBRANCH  48  62
BRANCH  49  70
ATOM     70  C   UNL A   1      44.894  25.449  33.496  1.00  0.00     0.057 A 
ATOM     71  C   UNL A   1      43.830  24.987  34.283  1.00  0.00     0.134 A 
ATOM     72  C   UNL A   1      46.181  25.272  34.038  1.00  0.00     0.134 A 
ATOM     73  F   UNL A   1      42.568  25.075  33.836  1.00  0.00    -0.206 F 
ATOM     74  C   UNL A   1      44.034  24.364  35.520  1.00  0.00     0.040 A 
ATOM     75  C   UNL A   1      46.397  24.663  35.277  1.00  0.00     0.040 A 
ATOM     76  F   UNL A   1      47.281  25.601  33.344  1.00  0.00    -0.206 F 
ATOM     77  C   UNL A   1      45.322  24.190  36.017  1.00  0.00     0.006 A 
ENDBRANCH  49  70
BRANCH  61  78
ATOM     78  C   UNL A   1      45.301  28.871  28.179  1.00  0.00     0.057 A 
ATOM     79  C   UNL A   1      45.756  27.708  27.538  1.00  0.00     0.134 A 
ATOM     80  C   UNL A   1      46.100  30.012  28.057  1.00  0.00     0.134 A 
ATOM     81  F   UNL A   1      45.009  26.598  27.508  1.00  0.00    -0.206 F 
ATOM     82  C   UNL A   1      46.968  27.672  26.842  1.00  0.00     0.040 A 
ATOM     83  C   UNL A   1      47.298  29.999  27.338  1.00  0.00     0.040 A 
ATOM     84  F   UNL A   1      45.700  31.177  28.591  1.00  0.00    -0.206 F 
ATOM     85  C   UNL A   1      47.740  28.824  26.733  1.00  0.00     0.006 A 
ENDBRANCH  61  78
ENDBRANCH  35  36
ENDBRANCH  28  30
ENDBRANCH  27  28
ENDBRANCH  26  27
ENDBRANCH   1  26
TORSDOF 15
ENDMDL
MODEL 3
REMARK VINA RESULT:     -11.8      4.116      8.541
REMARK SMILES Cc1cc(C)c2c(CCCC(=O)OCCOC(=O)c3ccc(-c4c5nc(c(-c6c(F)cccc6F)c6ccc([nH]6)c(-c6c(F)cccc6F)c6nc(c(-c7c(F)cccc7F)c7ccc4[nH]7)C=C6)C=C5)cc3)c(-c3ccccn3)[nH]c2c1
REMARK SMILES IDX 14 1 13 2 11 3 12 4 10 5 9 6 8 7 7 8 1 9 2 10 3 11 82 12
REMARK SMILES IDX 4 13 81 14 5 15 6 16 80 17 73 18 74 20 75 21 79 22 76 23
REMARK SMILES IDX 78 24 77 25 15 26 16 27 17 28 18 29 19 30 20 31 72 32 21 33
REMARK SMILES IDX 71 34 22 35 23 36 24 37 65 38 25 39 70 40 64 41 66 42 26 43
REMARK SMILES IDX 69 44 63 45 62 46 27 48 53 49 36 50 52 51 37 52 40 53 51 54
REMARK SMILES IDX 67 55 38 56 39 57 50 59 68 60 41 61 28 62 29 63 34 64 30 65
REMARK SMILES IDX 31 66 33 67 35 68 32 69 54 70 55 71 60 72 56 73 57 74 59 75
REMARK SMILES IDX 61 76 58 77 42 78 43 79 48 80 44 81 45 82 47 83 49 84 46 85
REMARK H PARENT 80 19 66 47 40 58
REMARK Flexibility Score: inf
ROOT
ATOM      1  C   UNL A   1      34.727  32.726  28.016  1.00  0.00     0.274 C 
ENDROOT
BRANCH   1   2
ATOM      2  O   UNL A   1      33.452  32.072  27.863  1.00  0.00    -0.462 OA
BRANCH   2   3
ATOM      3  C   UNL A   1      32.377  32.746  27.389  1.00  0.00     0.305 C 
ATOM      4  O   UNL A   1      32.153  33.929  27.624  1.00  0.00    -0.252 OA
BRANCH   3   5
ATOM      5  C   UNL A   1      31.468  31.890  26.518  1.00  0.00     0.123 C 
BRANCH   5   6
ATOM      6  C   UNL A   1      31.760  30.399  26.351  1.00  0.00     0.017 C 
BRANCH   6   7
ATOM      7  C   UNL A   1      32.142  29.848  24.977  1.00  0.00     0.039 C 
BRANCH   7   8
ATOM      8  C   UNL A   1      31.287  28.752  24.403  1.00  0.00    -0.013 A 
ATOM      9  C   UNL A   1      31.028  23.033  24.922  1.00  0.00     0.044 C 
ATOM     10  C   UNL A   1      31.158  24.524  24.847  1.00  0.00    -0.049 A 
ATOM     11  C   UNL A   1      32.185  25.166  25.539  1.00  0.00     0.007 A 
ATOM     12  C   UNL A   1      30.279  25.272  24.065  1.00  0.00     0.030 A 
ATOM     13  C   UNL A   1      32.370  26.566  25.492  1.00  0.00    -0.041 A 
ATOM     14  C   UNL A   1      30.457  26.657  24.019  1.00  0.00     0.047 A 
ATOM     15  C   UNL A   1      33.513  27.129  26.300  1.00  0.00     0.045 C 
ATOM     16  C   UNL A   1      31.466  27.337  24.700  1.00  0.00     0.006 A 
ATOM     17  N   UNL A   1      29.725  27.584  23.330  1.00  0.00    -0.353 N 
ATOM     18  C   UNL A   1      30.146  28.859  23.597  1.00  0.00     0.068 A 
ATOM     19  H   UNL A   1      28.986  27.363  22.718  1.00  0.00     0.167 HD
BRANCH  18  20
ATOM     20  C   UNL A   1      29.385  29.961  23.023  1.00  0.00     0.087 A 
ATOM     21  C   UNL A   1      29.012  31.072  23.768  1.00  0.00     0.030 A 
ATOM     22  N   UNL A   1      29.032  29.793  21.731  1.00  0.00    -0.255 NA
ATOM     23  C   UNL A   1      28.343  32.113  23.120  1.00  0.00     0.004 A 
ATOM     24  C   UNL A   1      28.403  30.826  21.122  1.00  0.00     0.112 A 
ATOM     25  C   UNL A   1      28.058  32.001  21.764  1.00  0.00     0.020 A 
ENDBRANCH  18  20
ENDBRANCH   7   8
ENDBRANCH   6   7
ENDBRANCH   5   6
ENDBRANCH   3   5
ENDBRANCH   2   3
ENDBRANCH   1   2
BRANCH   1  26
ATOM     26  C   UNL A   1      35.437  32.219  29.263  1.00  0.00     0.275 C 
BRANCH  26  27
ATOM     27  O   UNL A   1      35.875  30.892  29.007  1.00  0.00    -0.458 OA
BRANCH  27  28
ATOM     28  C   UNL A   1      36.524  30.323  30.045  1.00  0.00     0.338 C 
ATOM     29  O   UNL A   1      36.459  30.633  31.220  1.00  0.00    -0.246 OA
BRANCH  28  30
ATOM     30  C   UNL A   1      37.350  29.225  29.538  1.00  0.00     0.060 A 
ATOM     31  C   UNL A   1      37.842  28.313  30.477  1.00  0.00     0.016 A 
ATOM     32  C   UNL A   1      37.820  29.283  28.224  1.00  0.00     0.016 A 
ATOM     33  C   UNL A   1      39.009  27.655  30.184  1.00  0.00     0.010 A 
ATOM     34  C   UNL A   1      39.002  28.658  27.942  1.00  0.00     0.010 A 
ATOM     35  C   UNL A   1      39.628  27.958  28.972  1.00  0.00    -0.014 A 
BRANCH  35  36
ATOM     36  C   UNL A   1      41.044  27.708  28.870  1.00  0.00     0.031 A 
ATOM     37  C   UNL A   1      41.416  26.459  28.186  1.00  0.00     0.074 A 
ATOM     38  C   UNL A   1      41.907  28.670  29.252  1.00  0.00     0.049 A 
ATOM     39  N   UNL A   1      42.080  25.457  28.656  1.00  0.00    -0.248 NA
ATOM     40  C   UNL A   1      40.876  26.256  26.834  1.00  0.00     0.031 C 
ATOM     41  C   UNL A   1      41.610  30.062  29.620  1.00  0.00     0.029 A 
ATOM     42  N   UNL A   1      43.260  28.635  29.267  1.00  0.00    -0.354 N 
ATOM     43  C   UNL A   1      42.188  24.565  27.598  1.00  0.00     0.074 A 
ATOM     44  C   UNL A   1      41.293  25.021  26.566  1.00  0.00     0.031 C 
ATOM     45  C   UNL A   1      42.754  30.780  29.589  1.00  0.00     0.029 A 
ATOM     46  C   UNL A   1      43.862  29.881  29.317  1.00  0.00     0.049 A 
ATOM     47  H   UNL A   1      43.773  27.795  29.244  1.00  0.00     0.167 HD
ATOM     48  C   UNL A   1      43.174  23.635  27.529  1.00  0.00     0.037 A 
ATOM     49  C   UNL A   1      45.162  30.132  29.031  1.00  0.00     0.037 A 
ATOM     50  C   UNL A   1      43.816  23.417  28.791  1.00  0.00     0.049 A 
ATOM     51  C   UNL A   1      45.884  28.831  29.075  1.00  0.00     0.074 A 
ATOM     52  C   UNL A   1      43.389  22.955  30.021  1.00  0.00     0.029 A 
ATOM     53  N   UNL A   1      45.015  24.048  29.023  1.00  0.00    -0.354 N 
ATOM     54  N   UNL A   1      46.089  28.139  30.162  1.00  0.00    -0.248 NA
ATOM     55  C   UNL A   1      45.995  28.078  27.832  1.00  0.00     0.031 C 
ATOM     56  C   UNL A   1      44.108  23.725  30.980  1.00  0.00     0.029 A 
ATOM     57  C   UNL A   1      44.953  24.590  30.282  1.00  0.00     0.049 A 
ATOM     58  H   UNL A   1      45.777  24.100  28.401  1.00  0.00     0.167 HD
ATOM     59  C   UNL A   1      45.962  26.810  29.775  1.00  0.00     0.074 A 
ATOM     60  C   UNL A   1      45.992  26.833  28.316  1.00  0.00     0.031 C 
ATOM     61  C   UNL A   1      45.558  25.848  30.657  1.00  0.00     0.037 A 
BRANCH  48  62
ATOM     62  C   UNL A   1      43.729  23.165  26.222  1.00  0.00     0.057 A 
ATOM     63  C   UNL A   1      43.649  21.817  25.859  1.00  0.00     0.134 A 
ATOM     64  C   UNL A   1      44.534  23.978  25.395  1.00  0.00     0.134 A 
ATOM     65  F   UNL A   1      42.960  20.945  26.609  1.00  0.00    -0.206 F 
ATOM     66  C   UNL A   1      44.319  21.313  24.737  1.00  0.00     0.040 A 
ATOM     67  C   UNL A   1      45.157  23.502  24.243  1.00  0.00     0.040 A 
ATOM     68  F   UNL A   1      44.819  25.250  25.715  1.00  0.00    -0.206 F 
ATOM     69  C   UNL A   1      45.063  22.158  23.919  1.00  0.00     0.006 A 
ENDBRANCH  48  62
BRANCH  49  70
ATOM     70  C   UNL A   1      45.725  31.328  28.364  1.00  0.00     0.057 A 
ATOM     71  C   UNL A   1      46.896  31.931  28.845  1.00  0.00     0.134 A 
ATOM     72  C   UNL A   1      45.291  31.756  27.095  1.00  0.00     0.134 A 
ATOM     73  F   UNL A   1      47.413  31.562  30.027  1.00  0.00    -0.206 F 
ATOM     74  C   UNL A   1      47.606  32.880  28.099  1.00  0.00     0.040 A 
ATOM     75  C   UNL A   1      45.983  32.712  26.347  1.00  0.00     0.040 A 
ATOM     76  F   UNL A   1      44.229  31.196  26.497  1.00  0.00    -0.206 F 
ATOM     77  C   UNL A   1      47.155  33.266  26.840  1.00  0.00     0.006 A 
ENDBRANCH  49  70
BRANCH  61  78
ATOM     78  C   UNL A   1      45.475  26.227  32.112  1.00  0.00     0.057 A 
ATOM     79  C   UNL A   1      44.338  26.804  32.697  1.00  0.00     0.134 A 
ATOM     80  C   UNL A   1      46.502  25.838  32.979  1.00  0.00     0.134 A 
ATOM     81  F   UNL A   1      43.262  27.109  31.961  1.00  0.00    -0.206 F 
ATOM     82  C   UNL A   1      44.243  27.024  34.074  1.00  0.00     0.040 A 
ATOM     83  C   UNL A   1      46.406  26.022  34.361  1.00  0.00     0.040 A 
ATOM     84  F   UNL A   1      47.594  25.223  32.501  1.00  0.00    -0.206 F 
ATOM     85  C   UNL A   1      45.278  26.623  34.913  1.00  0.00     0.006 A 
ENDBRANCH  61  78
ENDBRANCH  35  36
ENDBRANCH  28  30
ENDBRANCH  27  28
ENDBRANCH  26  27
ENDBRANCH   1  26
TORSDOF 15
ENDMDL
