MODEL 1
REMARK VINA RESULT:     -11.8      0.000      0.000
REMARK SMILES Cc1cc(OC(F)(F)F)cc2c1O[C@H](C(F)(F)F)C(C(=O)OCCOC(=O)c1ccc(-c3c4nc(c(-c5c(F)cccc5F)c5ccc([nH]5)c(-c5c(F)cccc5F)c5nc(c(-c6c(F)cccc6F)c6ccc3[nH]6)C=C5)C=C4)cc1)=C2
REMARK SMILES IDX 23 1 22 2 20 3 21 4 19 5 1 6 2 7 3 8 12 9 4 10 11 11 13 12
REMARK SMILES IDX 10 13 82 14 14 15 5 16 6 17 7 18 8 19 9 20 15 21 16 22 17 23
REMARK SMILES IDX 18 24 24 25 25 26 26 27 27 28 28 29 29 30 81 31 30 32 80 33
REMARK SMILES IDX 31 34 32 35 33 36 74 37 34 38 79 39 73 40 75 41 35 42 78 43
REMARK SMILES IDX 72 44 71 45 36 47 62 48 45 49 61 50 46 51 49 52 60 53 76 54
REMARK SMILES IDX 47 55 48 56 59 58 77 59 50 60 37 61 38 62 43 63 39 64 40 65
REMARK SMILES IDX 42 66 44 67 41 68 63 69 64 70 69 71 65 72 66 73 68 74 70 75
REMARK SMILES IDX 67 76 51 77 52 78 57 79 53 80 54 81 56 82 58 83 55 84
REMARK H PARENT 75 46 49 57
REMARK Flexibility Score: inf
ROOT
ATOM      1  C   UNL A   1      35.242  21.110  24.753  1.00  0.00     0.275 C 
ENDROOT
BRANCH   1   2
ATOM      2  O   UNL A   1      35.393  22.541  24.868  1.00  0.00    -0.459 OA
BRANCH   2   3
ATOM      3  C   UNL A   1      35.218  23.241  23.721  1.00  0.00     0.338 C 
ATOM      4  O   UNL A   1      35.750  23.028  22.649  1.00  0.00    -0.246 OA
BRANCH   3   5
ATOM      5  C   UNL A   1      34.229  24.317  23.933  1.00  0.00     0.087 C 
ATOM      6  C   UNL A   1      29.984  27.177  24.049  1.00  0.00     0.048 C 
ATOM      7  C   UNL A   1      31.290  27.164  24.794  1.00  0.00    -0.005 A 
ATOM      8  C   UNL A   1      31.508  28.076  25.846  1.00  0.00     0.054 A 
ATOM      9  C   UNL A   1      32.288  26.237  24.464  1.00  0.00     0.131 A 
ATOM     10  C   UNL A   1      32.705  28.065  26.562  1.00  0.00     0.130 A 
ATOM     11  C   UNL A   1      33.471  26.203  25.199  1.00  0.00     0.021 A 
ATOM     12  O   UNL A   1      32.044  25.404  23.407  1.00  0.00    -0.475 OA
ATOM     13  C   UNL A   1      33.681  27.124  26.232  1.00  0.00     0.058 A 
ATOM     14  C   UNL A   1      34.468  25.189  24.918  1.00  0.00     0.027 C 
ATOM     15  C   UNL A   1      32.972  24.323  23.113  1.00  0.00     0.316 C 
BRANCH  10  16
ATOM     16  O   UNL A   1      33.050  28.891  27.593  1.00  0.00    -0.406 OA
BRANCH  16  17
ATOM     17  C   UNL A   1      33.895  29.992  27.308  1.00  0.00     0.573 C 
ATOM     18  F   UNL A   1      33.587  31.054  28.083  1.00  0.00    -0.132 F 
ATOM     19  F   UNL A   1      35.193  29.668  27.486  1.00  0.00    -0.132 F 
ATOM     20  F   UNL A   1      33.725  30.350  26.017  1.00  0.00    -0.132 F 
ENDBRANCH  16  17
ENDBRANCH  10  16
BRANCH  15  21
ATOM     21  C   UNL A   1      32.211  22.992  23.238  1.00  0.00     0.430 C 
ATOM     22  F   UNL A   1      30.900  23.143  22.933  1.00  0.00    -0.167 F 
ATOM     23  F   UNL A   1      32.698  22.053  22.393  1.00  0.00    -0.167 F 
ATOM     24  F   UNL A   1      32.280  22.483  24.489  1.00  0.00    -0.167 F 
ENDBRANCH  15  21
ENDBRANCH   3   5
ENDBRANCH   2   3
ENDBRANCH   1   2
BRANCH   1  25
ATOM     25  C   UNL A   1      36.567  20.397  25.016  1.00  0.00     0.275 C 
BRANCH  25  26
ATOM     26  O   UNL A   1      37.654  21.340  24.968  1.00  0.00    -0.458 OA
BRANCH  26  27
ATOM     27  C   UNL A   1      38.740  21.011  25.700  1.00  0.00     0.338 C 
ATOM     28  O   UNL A   1      39.273  19.917  25.792  1.00  0.00    -0.246 OA
BRANCH  27  29
ATOM     29  C   UNL A   1      39.265  22.202  26.382  1.00  0.00     0.060 A 
ATOM     30  C   UNL A   1      38.709  23.449  26.105  1.00  0.00     0.016 A 
ATOM     31  C   UNL A   1      40.419  22.106  27.158  1.00  0.00     0.016 A 
ATOM     32  C   UNL A   1      39.381  24.610  26.477  1.00  0.00     0.010 A 
ATOM     33  C   UNL A   1      41.023  23.273  27.639  1.00  0.00     0.010 A 
ATOM     34  C   UNL A   1      40.544  24.539  27.256  1.00  0.00    -0.014 A 
BRANCH  34  35
ATOM     35  C   UNL A   1      41.283  25.777  27.628  1.00  0.00     0.031 A 
ATOM     36  C   UNL A   1      40.610  26.839  28.461  1.00  0.00     0.074 A 
ATOM     37  C   UNL A   1      42.564  25.950  27.242  1.00  0.00     0.049 A 
ATOM     38  N   UNL A   1      41.014  28.052  28.745  1.00  0.00    -0.248 NA
ATOM     39  C   UNL A   1      39.304  26.492  29.042  1.00  0.00     0.031 C 
ATOM     40  C   UNL A   1      43.362  24.983  26.486  1.00  0.00     0.029 A 
ATOM     41  N   UNL A   1      43.421  27.004  27.437  1.00  0.00    -0.354 N 
ATOM     42  C   UNL A   1      39.995  28.626  29.497  1.00  0.00     0.074 A 
ATOM     43  C   UNL A   1      38.945  27.635  29.608  1.00  0.00     0.031 C 
ATOM     44  C   UNL A   1      44.600  25.470  26.315  1.00  0.00     0.029 A 
ATOM     45  C   UNL A   1      44.657  26.819  26.865  1.00  0.00     0.049 A 
ATOM     46  H   UNL A   1      43.175  27.814  27.939  1.00  0.00     0.167 HD
ATOM     47  C   UNL A   1      39.938  29.864  30.046  1.00  0.00     0.037 A 
ATOM     48  C   UNL A   1      45.704  27.656  26.752  1.00  0.00     0.037 A 
ATOM     49  C   UNL A   1      40.999  30.835  29.963  1.00  0.00     0.049 A 
ATOM     50  C   UNL A   1      45.587  29.050  27.299  1.00  0.00     0.074 A 
ATOM     51  C   UNL A   1      41.042  32.117  30.485  1.00  0.00     0.029 A 
ATOM     52  N   UNL A   1      42.211  30.625  29.323  1.00  0.00    -0.354 N 
ATOM     53  N   UNL A   1      44.597  29.602  27.955  1.00  0.00    -0.248 NA
ATOM     54  C   UNL A   1      46.728  29.946  27.063  1.00  0.00     0.031 C 
ATOM     55  C   UNL A   1      42.265  32.697  30.126  1.00  0.00     0.029 A 
ATOM     56  C   UNL A   1      43.002  31.759  29.420  1.00  0.00     0.049 A 
ATOM     57  H   UNL A   1      42.472  29.793  28.867  1.00  0.00     0.167 HD
ATOM     58  C   UNL A   1      45.001  30.902  28.229  1.00  0.00     0.074 A 
ATOM     59  C   UNL A   1      46.334  31.049  27.682  1.00  0.00     0.031 C 
ATOM     60  C   UNL A   1      44.326  31.887  28.870  1.00  0.00     0.037 A 
BRANCH  47  61
ATOM     61  C   UNL A   1      38.671  30.246  30.757  1.00  0.00     0.057 A 
ATOM     62  C   UNL A   1      38.522  29.998  32.127  1.00  0.00     0.134 A 
ATOM     63  C   UNL A   1      37.596  30.852  30.092  1.00  0.00     0.134 A 
ATOM     64  F   UNL A   1      39.508  29.414  32.825  1.00  0.00    -0.206 F 
ATOM     65  C   UNL A   1      37.355  30.343  32.812  1.00  0.00     0.040 A 
ATOM     66  C   UNL A   1      36.434  31.226  30.772  1.00  0.00     0.040 A 
ATOM     67  F   UNL A   1      37.677  31.132  28.782  1.00  0.00    -0.206 F 
ATOM     68  C   UNL A   1      36.310  30.968  32.136  1.00  0.00     0.006 A 
ENDBRANCH  47  61
BRANCH  48  69
ATOM     69  C   UNL A   1      46.940  27.217  26.055  1.00  0.00     0.057 A 
ATOM     70  C   UNL A   1      47.122  27.429  24.683  1.00  0.00     0.134 A 
ATOM     71  C   UNL A   1      47.977  26.590  26.754  1.00  0.00     0.134 A 
ATOM     72  F   UNL A   1      46.165  28.025  23.956  1.00  0.00    -0.206 F 
ATOM     73  C   UNL A   1      48.283  27.019  24.027  1.00  0.00     0.040 A 
ATOM     74  C   UNL A   1      49.156  26.201  26.116  1.00  0.00     0.040 A 
ATOM     75  F   UNL A   1      47.873  26.382  28.075  1.00  0.00    -0.206 F 
ATOM     76  C   UNL A   1      49.309  26.410  24.746  1.00  0.00     0.006 A 
ENDBRANCH  48  69
BRANCH  60  77
ATOM     77  C   UNL A   1      45.042  33.195  29.039  1.00  0.00     0.057 A 
ATOM     78  C   UNL A   1      44.896  34.214  28.089  1.00  0.00     0.134 A 
ATOM     79  C   UNL A   1      45.877  33.445  30.135  1.00  0.00     0.134 A 
ATOM     80  F   UNL A   1      44.115  34.036  27.012  1.00  0.00    -0.206 F 
ATOM     81  C   UNL A   1      45.554  35.437  28.226  1.00  0.00     0.040 A 
ATOM     82  C   UNL A   1      46.518  34.674  30.297  1.00  0.00     0.040 A 
ATOM     83  F   UNL A   1      46.043  32.517  31.089  1.00  0.00    -0.206 F 
ATOM     84  C   UNL A   1      46.360  35.673  29.338  1.00  0.00     0.006 A 
ENDBRANCH  60  77
ENDBRANCH  34  35
ENDBRANCH  27  29
ENDBRANCH  26  27
ENDBRANCH  25  26
ENDBRANCH   1  25
TORSDOF 14
ENDMDL
MODEL 2
REMARK VINA RESULT:     -11.8      0.951      1.480
REMARK SMILES Cc1cc(OC(F)(F)F)cc2c1O[C@H](C(F)(F)F)C(C(=O)OCCOC(=O)c1ccc(-c3c4nc(c(-c5c(F)cccc5F)c5ccc([nH]5)c(-c5c(F)cccc5F)c5nc(c(-c6c(F)cccc6F)c6ccc3[nH]6)C=C5)C=C4)cc1)=C2
REMARK SMILES IDX 23 1 22 2 20 3 21 4 19 5 1 6 2 7 3 8 12 9 4 10 11 11 13 12
REMARK SMILES IDX 10 13 82 14 14 15 5 16 6 17 7 18 8 19 9 20 15 21 16 22 17 23
REMARK SMILES IDX 18 24 24 25 25 26 26 27 27 28 28 29 29 30 81 31 30 32 80 33
REMARK SMILES IDX 31 34 32 35 33 36 74 37 34 38 79 39 73 40 75 41 35 42 78 43
REMARK SMILES IDX 72 44 71 45 36 47 62 48 45 49 61 50 46 51 49 52 60 53 76 54
REMARK SMILES IDX 47 55 48 56 59 58 77 59 50 60 37 61 38 62 43 63 39 64 40 65
REMARK SMILES IDX 42 66 44 67 41 68 63 69 64 70 69 71 65 72 66 73 68 74 70 75
REMARK SMILES IDX 67 76 51 77 52 78 57 79 53 80 54 81 56 82 58 83 55 84
REMARK H PARENT 75 46 49 57
REMARK Flexibility Score: inf
ROOT
ATOM      1  C   UNL A   1      35.143  20.730  25.050  1.00  0.00     0.275 C 
ENDROOT
BRANCH   1   2
ATOM      2  O   UNL A   1      35.086  22.157  24.847  1.00  0.00    -0.459 OA
BRANCH   2   3
ATOM      3  C   UNL A   1      34.645  22.880  25.905  1.00  0.00     0.338 C 
ATOM      4  O   UNL A   1      34.991  22.762  27.064  1.00  0.00    -0.246 OA
BRANCH   3   5
ATOM      5  C   UNL A   1      33.680  23.902  25.450  1.00  0.00     0.087 C 
ATOM      6  C   UNL A   1      29.469  26.424  23.995  1.00  0.00     0.048 C 
ATOM      7  C   UNL A   1      30.832  26.812  24.499  1.00  0.00    -0.005 A 
ATOM      8  C   UNL A   1      31.139  28.169  24.723  1.00  0.00     0.054 A 
ATOM      9  C   UNL A   1      31.797  25.830  24.768  1.00  0.00     0.131 A 
ATOM     10  C   UNL A   1      32.390  28.545  25.210  1.00  0.00     0.130 A 
ATOM     11  C   UNL A   1      33.035  26.202  25.285  1.00  0.00     0.021 A 
ATOM     12  O   UNL A   1      31.463  24.533  24.491  1.00  0.00    -0.475 OA
ATOM     13  C   UNL A   1      33.333  27.555  25.489  1.00  0.00     0.058 A 
ATOM     14  C   UNL A   1      34.003  25.184  25.647  1.00  0.00     0.027 C 
ATOM     15  C   UNL A   1      32.360  23.459  24.890  1.00  0.00     0.316 C 
BRANCH  10  16
ATOM     16  O   UNL A   1      32.822  29.815  25.465  1.00  0.00    -0.406 OA
BRANCH  16  17
ATOM     17  C   UNL A   1      32.237  30.510  26.553  1.00  0.00     0.573 C 
ATOM     18  F   UNL A   1      31.268  31.350  26.129  1.00  0.00    -0.132 F 
ATOM     19  F   UNL A   1      31.723  29.652  27.459  1.00  0.00    -0.132 F 
ATOM     20  F   UNL A   1      33.192  31.244  27.165  1.00  0.00    -0.132 F 
ENDBRANCH  16  17
ENDBRANCH  10  16
BRANCH  15  21
ATOM     21  C   UNL A   1      31.607  22.548  25.873  1.00  0.00     0.430 C 
ATOM     22  F   UNL A   1      30.268  22.620  25.686  1.00  0.00    -0.167 F 
ATOM     23  F   UNL A   1      31.949  21.246  25.715  1.00  0.00    -0.167 F 
ATOM     24  F   UNL A   1      31.856  22.876  27.162  1.00  0.00    -0.167 F 
ENDBRANCH  15  21
ENDBRANCH   3   5
ENDBRANCH   2   3
ENDBRANCH   1   2
BRANCH   1  25
ATOM     25  C   UNL A   1      36.584  20.225  24.983  1.00  0.00     0.275 C 
BRANCH  25  26
ATOM     26  O   UNL A   1      37.500  21.325  25.128  1.00  0.00    -0.458 OA
BRANCH  26  27
ATOM     27  C   UNL A   1      38.678  21.024  25.716  1.00  0.00     0.338 C 
ATOM     28  O   UNL A   1      39.272  19.958  25.693  1.00  0.00    -0.246 OA
BRANCH  27  29
ATOM     29  C   UNL A   1      39.219  22.212  26.393  1.00  0.00     0.060 A 
ATOM     30  C   UNL A   1      38.678  23.464  26.111  1.00  0.00     0.016 A 
ATOM     31  C   UNL A   1      40.373  22.105  27.167  1.00  0.00     0.016 A 
ATOM     32  C   UNL A   1      39.365  24.618  26.477  1.00  0.00     0.010 A 
ATOM     33  C   UNL A   1      40.991  23.265  27.643  1.00  0.00     0.010 A 
ATOM     34  C   UNL A   1      40.527  24.536  27.256  1.00  0.00    -0.014 A 
BRANCH  34  35
ATOM     35  C   UNL A   1      41.283  25.766  27.622  1.00  0.00     0.031 A 
ATOM     36  C   UNL A   1      40.632  26.829  28.470  1.00  0.00     0.074 A 
ATOM     37  C   UNL A   1      42.558  25.931  27.216  1.00  0.00     0.049 A 
ATOM     38  N   UNL A   1      41.050  28.037  28.754  1.00  0.00    -0.248 NA
ATOM     39  C   UNL A   1      39.332  26.490  29.071  1.00  0.00     0.031 C 
ATOM     40  C   UNL A   1      43.337  24.961  26.443  1.00  0.00     0.029 A 
ATOM     41  N   UNL A   1      43.427  26.977  27.403  1.00  0.00    -0.354 N 
ATOM     42  C   UNL A   1      40.047  28.616  29.525  1.00  0.00     0.074 A 
ATOM     43  C   UNL A   1      38.992  27.633  29.647  1.00  0.00     0.031 C 
ATOM     44  C   UNL A   1      44.576  25.440  26.255  1.00  0.00     0.029 A 
ATOM     45  C   UNL A   1      44.652  26.785  26.810  1.00  0.00     0.049 A 
ATOM     46  H   UNL A   1      43.196  27.786  27.913  1.00  0.00     0.167 HD
ATOM     47  C   UNL A   1      40.009  29.851  30.081  1.00  0.00     0.037 A 
ATOM     48  C   UNL A   1      45.704  27.614  26.685  1.00  0.00     0.037 A 
ATOM     49  C   UNL A   1      41.076  30.815  29.986  1.00  0.00     0.049 A 
ATOM     50  C   UNL A   1      45.607  29.007  27.240  1.00  0.00     0.074 A 
ATOM     51  C   UNL A   1      41.138  32.093  30.514  1.00  0.00     0.029 A 
ATOM     52  N   UNL A   1      42.276  30.598  29.326  1.00  0.00    -0.354 N 
ATOM     53  N   UNL A   1      44.632  29.563  27.915  1.00  0.00    -0.248 NA
ATOM     54  C   UNL A   1      46.751  29.894  26.991  1.00  0.00     0.031 C 
ATOM     55  C   UNL A   1      42.359  32.665  30.138  1.00  0.00     0.029 A 
ATOM     56  C   UNL A   1      43.077  31.726  29.415  1.00  0.00     0.049 A 
ATOM     57  H   UNL A   1      42.523  29.766  28.862  1.00  0.00     0.167 HD
ATOM     58  C   UNL A   1      45.051  30.858  28.188  1.00  0.00     0.074 A 
ATOM     59  C   UNL A   1      46.377  30.997  27.622  1.00  0.00     0.031 C 
ATOM     60  C   UNL A   1      44.394  31.846  28.845  1.00  0.00     0.037 A 
BRANCH  47  61
ATOM     61  C   UNL A   1      38.756  30.240  30.813  1.00  0.00     0.057 A 
ATOM     62  C   UNL A   1      38.613  29.954  32.177  1.00  0.00     0.134 A 
ATOM     63  C   UNL A   1      37.690  30.889  30.176  1.00  0.00     0.134 A 
ATOM     64  F   UNL A   1      39.591  29.329  32.849  1.00  0.00    -0.206 F 
ATOM     65  C   UNL A   1      37.459  30.305  32.882  1.00  0.00     0.040 A 
ATOM     66  C   UNL A   1      36.542  31.269  30.877  1.00  0.00     0.040 A 
ATOM     67  F   UNL A   1      37.767  31.206  28.875  1.00  0.00    -0.206 F 
ATOM     68  C   UNL A   1      36.424  30.973  32.233  1.00  0.00     0.006 A 
ENDBRANCH  47  61
BRANCH  48  69
ATOM     69  C   UNL A   1      46.925  27.168  25.966  1.00  0.00     0.057 A 
ATOM     70  C   UNL A   1      47.083  27.377  24.590  1.00  0.00     0.134 A 
ATOM     71  C   UNL A   1      47.973  26.539  26.647  1.00  0.00     0.134 A 
ATOM     72  F   UNL A   1      46.115  27.975  23.880  1.00  0.00    -0.206 F 
ATOM     73  C   UNL A   1      48.230  26.961  23.914  1.00  0.00     0.040 A 
ATOM     74  C   UNL A   1      49.138  26.144  25.989  1.00  0.00     0.040 A 
ATOM     75  F   UNL A   1      47.893  26.334  27.970  1.00  0.00    -0.206 F 
ATOM     76  C   UNL A   1      49.267  26.350  24.616  1.00  0.00     0.006 A 
ENDBRANCH  48  69
BRANCH  60  77
ATOM     77  C   UNL A   1      45.123  33.147  29.009  1.00  0.00     0.057 A 
ATOM     78  C   UNL A   1      45.954  33.364  30.115  1.00  0.00     0.134 A 
ATOM     79  C   UNL A   1      45.000  34.185  28.076  1.00  0.00     0.134 A 
ATOM     80  F   UNL A   1      46.110  32.412  31.048  1.00  0.00    -0.206 F 
ATOM     81  C   UNL A   1      46.638  34.567  30.287  1.00  0.00     0.040 A 
ATOM     82  C   UNL A   1      45.701  35.383  28.224  1.00  0.00     0.040 A 
ATOM     83  F   UNL A   1      44.235  34.032  26.986  1.00  0.00    -0.206 F 
ATOM     84  C   UNL A   1      46.520  35.578  29.334  1.00  0.00     0.006 A 
ENDBRANCH  60  77
ENDBRANCH  34  35
ENDBRANCH  27  29
ENDBRANCH  26  27
ENDBRANCH  25  26
ENDBRANCH   1  25
TORSDOF 14
ENDMDL
MODEL 3
REMARK VINA RESULT:     -11.8      3.812      8.718
REMARK SMILES Cc1cc(OC(F)(F)F)cc2c1O[C@H](C(F)(F)F)C(C(=O)OCCOC(=O)c1ccc(-c3c4nc(c(-c5c(F)cccc5F)c5ccc([nH]5)c(-c5c(F)cccc5F)c5nc(c(-c6c(F)cccc6F)c6ccc3[nH]6)C=C5)C=C4)cc1)=C2
REMARK SMILES IDX 23 1 22 2 20 3 21 4 19 5 1 6 2 7 3 8 12 9 4 10 11 11 13 12
REMARK SMILES IDX 10 13 82 14 14 15 5 16 6 17 7 18 8 19 9 20 15 21 16 22 17 23
REMARK SMILES IDX 18 24 24 25 25 26 26 27 27 28 28 29 29 30 81 31 30 32 80 33
REMARK SMILES IDX 31 34 32 35 33 36 74 37 34 38 79 39 73 40 75 41 35 42 78 43
REMARK SMILES IDX 72 44 71 45 36 47 62 48 45 49 61 50 46 51 49 52 60 53 76 54
REMARK SMILES IDX 47 55 48 56 59 58 77 59 50 60 37 61 38 62 43 63 39 64 40 65
REMARK SMILES IDX 42 66 44 67 41 68 63 69 64 70 69 71 65 72 66 73 68 74 70 75
REMARK SMILES IDX 67 76 51 77 52 78 57 79 53 80 54 81 56 82 58 83 55 84
REMARK H PARENT 75 46 49 57
REMARK Flexibility Score: inf
ROOT
ATOM      1  C   UNL A   1      31.600  28.433  24.740  1.00  0.00     0.275 C 
ENDROOT
BRANCH   1   2
ATOM      2  O   UNL A   1      32.327  27.378  25.404  1.00  0.00    -0.459 OA
BRANCH   2   3
ATOM      3  C   UNL A   1      31.573  26.512  26.124  1.00  0.00     0.338 C 
ATOM      4  O   UNL A   1      30.659  26.790  26.876  1.00  0.00    -0.246 OA
BRANCH   3   5
ATOM      5  C   UNL A   1      31.988  25.123  25.837  1.00  0.00     0.087 C 
ATOM      6  C   UNL A   1      32.407  20.374  23.973  1.00  0.00     0.048 C 
ATOM      7  C   UNL A   1      33.309  21.316  24.723  1.00  0.00    -0.005 A 
ATOM      8  C   UNL A   1      34.640  20.946  24.998  1.00  0.00     0.054 A 
ATOM      9  C   UNL A   1      32.840  22.571  25.135  1.00  0.00     0.131 A 
ATOM     10  C   UNL A   1      35.497  21.815  25.673  1.00  0.00     0.130 A 
ATOM     11  C   UNL A   1      33.703  23.453  25.781  1.00  0.00     0.021 A 
ATOM     12  O   UNL A   1      31.528  22.863  24.883  1.00  0.00    -0.475 OA
ATOM     13  C   UNL A   1      35.019  23.068  26.061  1.00  0.00     0.058 A 
ATOM     14  C   UNL A   1      33.247  24.785  26.131  1.00  0.00     0.027 C 
ATOM     15  C   UNL A   1      31.025  24.202  25.148  1.00  0.00     0.316 C 
BRANCH  10  16
ATOM     16  O   UNL A   1      36.799  21.585  26.009  1.00  0.00    -0.406 OA
BRANCH  16  17
ATOM     17  C   UNL A   1      37.729  21.370  24.961  1.00  0.00     0.573 C 
ATOM     18  F   UNL A   1      37.796  20.063  24.630  1.00  0.00    -0.132 F 
ATOM     19  F   UNL A   1      37.404  22.094  23.868  1.00  0.00    -0.132 F 
ATOM     20  F   UNL A   1      38.952  21.764  25.376  1.00  0.00    -0.132 F 
ENDBRANCH  16  17
ENDBRANCH  10  16
BRANCH  15  21
ATOM     21  C   UNL A   1      30.527  24.797  23.820  1.00  0.00     0.430 C 
ATOM     22  F   UNL A   1      29.963  23.848  23.035  1.00  0.00    -0.167 F 
ATOM     23  F   UNL A   1      29.581  25.746  24.018  1.00  0.00    -0.167 F 
ATOM     24  F   UNL A   1      31.528  25.367  23.112  1.00  0.00    -0.167 F 
ENDBRANCH  15  21
ENDBRANCH   3   5
ENDBRANCH   2   3
ENDBRANCH   1   2
BRANCH   1  25
ATOM     25  C   UNL A   1      32.157  29.804  25.120  1.00  0.00     0.275 C 
BRANCH  25  26
ATOM     26  O   UNL A   1      32.361  29.878  26.543  1.00  0.00    -0.458 OA
BRANCH  26  27
ATOM     27  C   UNL A   1      32.909  31.029  26.990  1.00  0.00     0.338 C 
ATOM     28  O   UNL A   1      32.382  32.127  27.061  1.00  0.00    -0.246 OA
BRANCH  27  29
ATOM     29  C   UNL A   1      34.283  30.784  27.452  1.00  0.00     0.060 A 
ATOM     30  C   UNL A   1      34.718  29.473  27.635  1.00  0.00     0.016 A 
ATOM     31  C   UNL A   1      35.076  31.850  27.870  1.00  0.00     0.016 A 
ATOM     32  C   UNL A   1      35.876  29.219  28.365  1.00  0.00     0.010 A 
ATOM     33  C   UNL A   1      36.303  31.593  28.490  1.00  0.00     0.010 A 
ATOM     34  C   UNL A   1      36.690  30.275  28.797  1.00  0.00    -0.014 A 
BRANCH  34  35
ATOM     35  C   UNL A   1      37.912  30.009  29.606  1.00  0.00     0.031 A 
ATOM     36  C   UNL A   1      39.020  29.155  29.044  1.00  0.00     0.074 A 
ATOM     37  C   UNL A   1      38.046  30.545  30.836  1.00  0.00     0.049 A 
ATOM     38  N   UNL A   1      40.077  28.667  29.643  1.00  0.00    -0.248 NA
ATOM     39  C   UNL A   1      38.919  28.795  27.621  1.00  0.00     0.031 C 
ATOM     40  C   UNL A   1      37.085  31.439  31.485  1.00  0.00     0.029 A 
ATOM     41  N   UNL A   1      39.052  30.416  31.762  1.00  0.00    -0.354 N 
ATOM     42  C   UNL A   1      40.739  27.906  28.685  1.00  0.00     0.074 A 
ATOM     43  C   UNL A   1      39.954  27.983  27.471  1.00  0.00     0.031 C 
ATOM     44  C   UNL A   1      37.563  31.807  32.683  1.00  0.00     0.029 A 
ATOM     45  C   UNL A   1      38.816  31.105  32.927  1.00  0.00     0.049 A 
ATOM     46  H   UNL A   1      39.864  29.882  31.605  1.00  0.00     0.167 HD
ATOM     47  C   UNL A   1      41.896  27.210  28.804  1.00  0.00     0.037 A 
ATOM     48  C   UNL A   1      39.505  31.133  34.082  1.00  0.00     0.037 A 
ATOM     49  C   UNL A   1      42.693  27.164  30.003  1.00  0.00     0.049 A 
ATOM     50  C   UNL A   1      40.741  30.289  34.217  1.00  0.00     0.074 A 
ATOM     51  C   UNL A   1      43.881  26.489  30.228  1.00  0.00     0.029 A 
ATOM     52  N   UNL A   1      42.386  27.831  31.179  1.00  0.00    -0.354 N 
ATOM     53  N   UNL A   1      41.326  29.529  33.325  1.00  0.00    -0.248 NA
ATOM     54  C   UNL A   1      41.397  30.291  35.532  1.00  0.00     0.031 C 
ATOM     55  C   UNL A   1      44.271  26.716  31.553  1.00  0.00     0.029 A 
ATOM     56  C   UNL A   1      43.350  27.569  32.140  1.00  0.00     0.049 A 
ATOM     57  H   UNL A   1      41.598  28.407  31.312  1.00  0.00     0.167 HD
ATOM     58  C   UNL A   1      42.428  28.976  33.962  1.00  0.00     0.074 A 
ATOM     59  C   UNL A   1      42.440  29.504  35.311  1.00  0.00     0.031 C 
ATOM     60  C   UNL A   1      43.345  28.104  33.477  1.00  0.00     0.037 A 
BRANCH  47  61
ATOM     61  C   UNL A   1      42.348  26.414  27.612  1.00  0.00     0.057 A 
ATOM     62  C   UNL A   1      41.947  25.081  27.455  1.00  0.00     0.134 A 
ATOM     63  C   UNL A   1      43.181  26.957  26.624  1.00  0.00     0.134 A 
ATOM     64  F   UNL A   1      41.155  24.496  28.366  1.00  0.00    -0.206 F 
ATOM     65  C   UNL A   1      42.351  24.320  26.356  1.00  0.00     0.040 A 
ATOM     66  C   UNL A   1      43.570  26.213  25.507  1.00  0.00     0.040 A 
ATOM     67  F   UNL A   1      43.590  28.232  26.705  1.00  0.00    -0.206 F 
ATOM     68  C   UNL A   1      43.158  24.889  25.374  1.00  0.00     0.006 A 
ENDBRANCH  47  61
BRANCH  48  69
ATOM     69  C   UNL A   1      39.020  31.954  35.221  1.00  0.00     0.057 A 
ATOM     70  C   UNL A   1      39.285  33.327  35.300  1.00  0.00     0.134 A 
ATOM     71  C   UNL A   1      38.262  31.383  36.250  1.00  0.00     0.134 A 
ATOM     72  F   UNL A   1      40.006  33.934  34.346  1.00  0.00    -0.206 F 
ATOM     73  C   UNL A   1      38.829  34.100  36.368  1.00  0.00     0.040 A 
ATOM     74  C   UNL A   1      37.775  32.150  37.309  1.00  0.00     0.040 A 
ATOM     75  F   UNL A   1      37.953  30.078  36.218  1.00  0.00    -0.206 F 
ATOM     76  C   UNL A   1      38.063  33.512  37.373  1.00  0.00     0.006 A 
ENDBRANCH  48  69
BRANCH  60  77
ATOM     77  C   UNL A   1      44.451  27.701  34.406  1.00  0.00     0.057 A 
ATOM     78  C   UNL A   1      45.634  28.449  34.473  1.00  0.00     0.134 A 
ATOM     79  C   UNL A   1      44.349  26.573  35.232  1.00  0.00     0.134 A 
ATOM     80  F   UNL A   1      45.797  29.536  33.705  1.00  0.00    -0.206 F 
ATOM     81  C   UNL A   1      46.675  28.089  35.330  1.00  0.00     0.040 A 
ATOM     82  C   UNL A   1      45.373  26.220  36.112  1.00  0.00     0.040 A 
ATOM     83  F   UNL A   1      43.235  25.827  35.228  1.00  0.00    -0.206 F 
ATOM     84  C   UNL A   1      46.542  26.978  36.159  1.00  0.00     0.006 A 
ENDBRANCH  60  77
ENDBRANCH  34  35
ENDBRANCH  27  29
ENDBRANCH  26  27
ENDBRANCH  25  26
ENDBRANCH   1  25
TORSDOF 14
ENDMDL
