MODEL 1
REMARK VINA RESULT:     -11.0      0.000      0.000
REMARK SMILES CC[C@@H](C)[C@@H](C(=O)OCCOC(=O)c1ccc(-c2c3nc(c(-c4c(F)cccc4F)c4ccc([nH]4)c(-c4c(F)cccc4F)c4nc(c(-c5c(F)cccc5F)c5ccc2[nH]5)C=C4)C=C3)cc1)N1C(=O)/C(=C/c2ccc(O)cc2)SC1=S
REMARK SMILES IDX 9 1 8 2 6 3 7 4 5 5 3 6 4 7 2 8 1 9 68 10 69 11 81 12 70 13
REMARK SMILES IDX 71 14 80 15 82 16 72 17 73 18 74 19 79 20 75 21 78 22 76 23
REMARK SMILES IDX 77 24 10 26 11 27 12 28 13 29 14 30 15 31 67 32 16 33 66 34
REMARK SMILES IDX 17 35 18 36 19 37 60 38 20 39 65 40 59 41 61 42 21 43 64 44
REMARK SMILES IDX 58 45 57 46 22 48 48 49 31 50 47 51 32 52 35 53 46 54 62 55
REMARK SMILES IDX 33 56 34 57 45 59 63 60 36 61 23 62 24 63 29 64 25 65 26 66
REMARK SMILES IDX 28 67 30 68 27 69 49 70 50 71 55 72 51 73 52 74 54 75 56 76
REMARK SMILES IDX 53 77 37 78 38 79 43 80 39 81 40 82 42 83 44 84 41 85
REMARK H PARENT 77 25 61 47 35 58
REMARK Flexibility Score: inf
ROOT
ATOM      1  C   UNL A   1      32.115  29.015  25.228  1.00  0.00     0.274 C 
ENDROOT
BRANCH   1   2
ATOM      2  O   UNL A   1      32.165  28.085  26.338  1.00  0.00    -0.461 OA
BRANCH   2   3
ATOM      3  C   UNL A   1      31.443  26.936  26.213  1.00  0.00     0.329 C 
ATOM      4  O   UNL A   1      30.510  26.666  26.955  1.00  0.00    -0.250 OA
BRANCH   3   5
ATOM      5  C   UNL A   1      31.865  26.104  24.955  1.00  0.00     0.204 C 
BRANCH   5   6
ATOM      6  C   UNL A   1      30.494  25.468  24.410  1.00  0.00     0.020 C 
ATOM      7  C   UNL A   1      30.579  24.383  23.333  1.00  0.00     0.010 C 
BRANCH   6   8
ATOM      8  C   UNL A   1      29.488  26.574  23.962  1.00  0.00     0.002 C 
ATOM      9  C   UNL A   1      29.960  27.492  22.836  1.00  0.00     0.004 C 
ENDBRANCH   6   8
ENDBRANCH   5   6
BRANCH   5  10
ATOM     10  N   UNL A   1      32.937  25.083  25.285  1.00  0.00    -0.278 N 
ATOM     11  C   UNL A   1      33.939  24.733  24.391  1.00  0.00     0.267 C 
ATOM     12  C   UNL A   1      32.796  24.031  26.161  1.00  0.00     0.149 C 
ATOM     13  O   UNL A   1      33.890  24.800  23.171  1.00  0.00    -0.268 OA
ATOM     14  C   UNL A   1      35.030  23.997  25.104  1.00  0.00     0.081 C 
ATOM     15  S   UNL A   1      34.399  23.405  26.579  1.00  0.00    -0.054 SA
ATOM     16  S   UNL A   1      31.395  23.270  26.663  1.00  0.00    -0.052 S 
ATOM     17  C   UNL A   1      36.257  23.845  24.589  1.00  0.00     0.029 C 
BRANCH  17  18
ATOM     18  C   UNL A   1      37.411  23.154  25.183  1.00  0.00    -0.024 A 
ATOM     19  C   UNL A   1      37.625  21.787  24.962  1.00  0.00     0.012 A 
ATOM     20  C   UNL A   1      38.256  23.832  26.069  1.00  0.00     0.012 A 
ATOM     21  C   UNL A   1      38.630  21.098  25.648  1.00  0.00     0.047 A 
ATOM     22  C   UNL A   1      39.274  23.147  26.745  1.00  0.00     0.047 A 
ATOM     23  C   UNL A   1      39.442  21.783  26.537  1.00  0.00     0.115 A 
BRANCH  23  24
ATOM     24  O   UNL A   1      40.403  21.073  27.194  1.00  0.00    -0.508 OA
ATOM     25  H   UNL A   1      40.430  21.077  28.130  1.00  0.00     0.293 HD
ENDBRANCH  23  24
ENDBRANCH  17  18
ENDBRANCH   5  10
ENDBRANCH   3   5
ENDBRANCH   2   3
ENDBRANCH   1   2
BRANCH   1  26
ATOM     26  C   UNL A   1      31.662  30.440  25.605  1.00  0.00     0.275 C 
BRANCH  26  27
ATOM     27  O   UNL A   1      31.963  30.754  26.980  1.00  0.00    -0.458 OA
BRANCH  27  28
ATOM     28  C   UNL A   1      32.796  31.808  27.186  1.00  0.00     0.338 C 
ATOM     29  O   UNL A   1      32.518  32.987  27.077  1.00  0.00    -0.246 OA
BRANCH  28  30
ATOM     30  C   UNL A   1      34.050  31.325  27.812  1.00  0.00     0.060 A 
ATOM     31  C   UNL A   1      34.925  32.294  28.311  1.00  0.00     0.016 A 
ATOM     32  C   UNL A   1      34.344  29.969  27.975  1.00  0.00     0.016 A 
ATOM     33  C   UNL A   1      36.044  31.915  29.043  1.00  0.00     0.010 A 
ATOM     34  C   UNL A   1      35.501  29.589  28.673  1.00  0.00     0.010 A 
ATOM     35  C   UNL A   1      36.344  30.561  29.235  1.00  0.00    -0.014 A 
BRANCH  35  36
ATOM     36  C   UNL A   1      37.552  30.193  30.018  1.00  0.00     0.031 A 
ATOM     37  C   UNL A   1      38.673  29.447  29.353  1.00  0.00     0.074 A 
ATOM     38  C   UNL A   1      37.725  30.666  31.267  1.00  0.00     0.049 A 
ATOM     39  N   UNL A   1      39.835  29.090  29.840  1.00  0.00    -0.248 NA
ATOM     40  C   UNL A   1      38.481  29.100  27.937  1.00  0.00     0.031 C 
ATOM     41  C   UNL A   1      36.803  31.562  31.961  1.00  0.00     0.029 A 
ATOM     42  N   UNL A   1      38.771  30.515  32.144  1.00  0.00    -0.354 N 
ATOM     43  C   UNL A   1      40.516  28.488  28.792  1.00  0.00     0.074 A 
ATOM     44  C   UNL A   1      39.641  28.535  27.639  1.00  0.00     0.031 C 
ATOM     45  C   UNL A   1      37.348  31.920  33.138  1.00  0.00     0.029 A 
ATOM     46  C   UNL A   1      38.626  31.232  33.308  1.00  0.00     0.049 A 
ATOM     47  H   UNL A   1      39.554  29.946  31.957  1.00  0.00     0.167 HD
ATOM     48  C   UNL A   1      41.751  27.934  28.792  1.00  0.00     0.037 A 
ATOM     49  C   UNL A   1      39.426  31.310  34.392  1.00  0.00     0.037 A 
ATOM     50  C   UNL A   1      42.609  27.840  29.943  1.00  0.00     0.049 A 
ATOM     51  C   UNL A   1      40.693  30.494  34.435  1.00  0.00     0.074 A 
ATOM     52  C   UNL A   1      43.831  27.201  30.057  1.00  0.00     0.029 A 
ATOM     53  N   UNL A   1      42.331  28.394  31.183  1.00  0.00    -0.354 N 
ATOM     54  N   UNL A   1      41.289  29.835  33.473  1.00  0.00    -0.248 NA
ATOM     55  C   UNL A   1      41.378  30.399  35.735  1.00  0.00     0.031 C 
ATOM     56  C   UNL A   1      44.264  27.316  31.383  1.00  0.00     0.029 A 
ATOM     57  C   UNL A   1      43.334  28.068  32.081  1.00  0.00     0.049 A 
ATOM     58  H   UNL A   1      41.539  28.939  31.393  1.00  0.00     0.167 HD
ATOM     59  C   UNL A   1      42.418  29.258  34.045  1.00  0.00     0.074 A 
ATOM     60  C   UNL A   1      42.439  29.663  35.434  1.00  0.00     0.031 C 
ATOM     61  C   UNL A   1      43.345  28.455  33.469  1.00  0.00     0.037 A 
BRANCH  48  62
ATOM     62  C   UNL A   1      42.207  27.303  27.512  1.00  0.00     0.057 A 
ATOM     63  C   UNL A   1      42.846  28.041  26.509  1.00  0.00     0.134 A 
ATOM     64  C   UNL A   1      41.999  25.937  27.285  1.00  0.00     0.134 A 
ATOM     65  F   UNL A   1      43.053  29.358  26.659  1.00  0.00    -0.206 F 
ATOM     66  C   UNL A   1      43.245  27.442  25.312  1.00  0.00     0.040 A 
ATOM     67  C   UNL A   1      42.411  25.324  26.102  1.00  0.00     0.040 A 
ATOM     68  F   UNL A   1      41.390  25.179  28.209  1.00  0.00    -0.206 F 
ATOM     69  C   UNL A   1      43.030  26.080  25.108  1.00  0.00     0.006 A 
ENDBRANCH  48  62
BRANCH  49  70
ATOM     70  C   UNL A   1      39.041  32.137  35.566  1.00  0.00     0.057 A 
ATOM     71  C   UNL A   1      38.247  31.611  36.594  1.00  0.00     0.134 A 
ATOM     72  C   UNL A   1      39.393  33.490  35.659  1.00  0.00     0.134 A 
ATOM     73  F   UNL A   1      37.842  30.333  36.549  1.00  0.00    -0.206 F 
ATOM     74  C   UNL A   1      37.809  32.400  37.660  1.00  0.00     0.040 A 
ATOM     75  C   UNL A   1      38.989  34.283  36.734  1.00  0.00     0.040 A 
ATOM     76  F   UNL A   1      40.132  34.065  34.699  1.00  0.00    -0.206 F 
ATOM     77  C   UNL A   1      38.185  33.740  37.734  1.00  0.00     0.006 A 
ENDBRANCH  49  70
BRANCH  61  78
ATOM     78  C   UNL A   1      44.454  27.932  34.336  1.00  0.00     0.057 A 
ATOM     79  C   UNL A   1      44.367  26.679  34.958  1.00  0.00     0.134 A 
ATOM     80  C   UNL A   1      45.649  28.646  34.492  1.00  0.00     0.134 A 
ATOM     81  F   UNL A   1      43.245  25.949  34.859  1.00  0.00    -0.206 F 
ATOM     82  C   UNL A   1      45.424  26.160  35.708  1.00  0.00     0.040 A 
ATOM     83  C   UNL A   1      46.721  28.127  35.220  1.00  0.00     0.040 A 
ATOM     84  F   UNL A   1      45.804  29.850  33.920  1.00  0.00    -0.206 F 
ATOM     85  C   UNL A   1      46.610  26.880  35.832  1.00  0.00     0.006 A 
ENDBRANCH  61  78
ENDBRANCH  35  36
ENDBRANCH  28  30
ENDBRANCH  27  28
ENDBRANCH  26  27
ENDBRANCH   1  26
TORSDOF 16
ENDMDL
MODEL 2
REMARK VINA RESULT:     -10.9      3.644      8.066
REMARK SMILES CC[C@@H](C)[C@@H](C(=O)OCCOC(=O)c1ccc(-c2c3nc(c(-c4c(F)cccc4F)c4ccc([nH]4)c(-c4c(F)cccc4F)c4nc(c(-c5c(F)cccc5F)c5ccc2[nH]5)C=C4)C=C3)cc1)N1C(=O)/C(=C/c2ccc(O)cc2)SC1=S
REMARK SMILES IDX 9 1 8 2 6 3 7 4 5 5 3 6 4 7 2 8 1 9 68 10 69 11 81 12 70 13
REMARK SMILES IDX 71 14 80 15 82 16 72 17 73 18 74 19 79 20 75 21 78 22 76 23
REMARK SMILES IDX 77 24 10 26 11 27 12 28 13 29 14 30 15 31 67 32 16 33 66 34
REMARK SMILES IDX 17 35 18 36 19 37 60 38 20 39 65 40 59 41 61 42 21 43 64 44
REMARK SMILES IDX 58 45 57 46 22 48 48 49 31 50 47 51 32 52 35 53 46 54 62 55
REMARK SMILES IDX 33 56 34 57 45 59 63 60 36 61 23 62 24 63 29 64 25 65 26 66
REMARK SMILES IDX 28 67 30 68 27 69 49 70 50 71 55 72 51 73 52 74 54 75 56 76
REMARK SMILES IDX 53 77 37 78 38 79 43 80 39 81 40 82 42 83 44 84 41 85
REMARK H PARENT 77 25 61 47 35 58
REMARK Flexibility Score: inf
ROOT
ATOM      1  C   UNL A   1      37.871  20.512  24.962  1.00  0.00     0.274 C 
ENDROOT
BRANCH   1   2
ATOM      2  O   UNL A   1      36.873  21.400  25.522  1.00  0.00    -0.461 OA
BRANCH   2   3
ATOM      3  C   UNL A   1      36.014  21.993  24.646  1.00  0.00     0.329 C 
ATOM      4  O   UNL A   1      36.350  22.313  23.516  1.00  0.00    -0.250 OA
BRANCH   3   5
ATOM      5  C   UNL A   1      34.557  22.081  25.214  1.00  0.00     0.204 C 
BRANCH   5   6
ATOM      6  C   UNL A   1      33.772  20.871  24.505  1.00  0.00     0.020 C 
ATOM      7  C   UNL A   1      32.286  20.685  24.830  1.00  0.00     0.010 C 
BRANCH   6   8
ATOM      8  C   UNL A   1      34.523  19.516  24.691  1.00  0.00     0.002 C 
ATOM      9  C   UNL A   1      33.739  18.259  24.318  1.00  0.00     0.004 C 
ENDBRANCH   6   8
ENDBRANCH   5   6
BRANCH   5  10
ATOM     10  N   UNL A   1      33.939  23.447  24.977  1.00  0.00    -0.278 N 
ATOM     11  C   UNL A   1      33.111  24.065  25.904  1.00  0.00     0.267 C 
ATOM     12  C   UNL A   1      33.635  23.985  23.747  1.00  0.00     0.149 C 
ATOM     13  O   UNL A   1      32.424  23.517  26.756  1.00  0.00    -0.268 OA
ATOM     14  C   UNL A   1      32.953  25.514  25.566  1.00  0.00     0.081 C 
ATOM     15  S   UNL A   1      33.382  25.728  23.925  1.00  0.00    -0.054 SA
ATOM     16  S   UNL A   1      33.344  23.194  22.304  1.00  0.00    -0.052 S 
ATOM     17  C   UNL A   1      32.511  26.419  26.448  1.00  0.00     0.029 C 
BRANCH  17  18
ATOM     18  C   UNL A   1      32.316  27.863  26.247  1.00  0.00    -0.024 A 
ATOM     19  C   UNL A   1      32.845  28.794  27.149  1.00  0.00     0.012 A 
ATOM     20  C   UNL A   1      31.503  28.323  25.204  1.00  0.00     0.012 A 
ATOM     21  C   UNL A   1      32.530  30.153  27.044  1.00  0.00     0.047 A 
ATOM     22  C   UNL A   1      31.200  29.686  25.087  1.00  0.00     0.047 A 
ATOM     23  C   UNL A   1      31.707  30.586  26.018  1.00  0.00     0.115 A 
BRANCH  23  24
ATOM     24  O   UNL A   1      31.416  31.916  25.956  1.00  0.00    -0.508 OA
ATOM     25  H   UNL A   1      30.580  32.226  26.247  1.00  0.00     0.293 HD
ENDBRANCH  23  24
ENDBRANCH  17  18
ENDBRANCH   5  10
ENDBRANCH   3   5
ENDBRANCH   2   3
ENDBRANCH   1   2
BRANCH   1  26
ATOM     26  C   UNL A   1      39.267  20.627  25.607  1.00  0.00     0.275 C 
BRANCH  26  27
ATOM     27  O   UNL A   1      39.889  19.337  25.777  1.00  0.00    -0.458 OA
BRANCH  27  28
ATOM     28  C   UNL A   1      41.236  19.338  25.960  1.00  0.00     0.338 C 
ATOM     29  O   UNL A   1      42.033  18.543  25.501  1.00  0.00    -0.246 OA
BRANCH  28  30
ATOM     30  C   UNL A   1      41.639  20.608  26.610  1.00  0.00     0.060 A 
ATOM     31  C   UNL A   1      42.162  21.607  25.783  1.00  0.00     0.016 A 
ATOM     32  C   UNL A   1      41.454  20.855  27.972  1.00  0.00     0.016 A 
ATOM     33  C   UNL A   1      42.419  22.874  26.294  1.00  0.00     0.010 A 
ATOM     34  C   UNL A   1      41.762  22.121  28.495  1.00  0.00     0.010 A 
ATOM     35  C   UNL A   1      42.221  23.147  27.653  1.00  0.00    -0.014 A 
BRANCH  35  36
ATOM     36  C   UNL A   1      42.514  24.510  28.165  1.00  0.00     0.031 A 
ATOM     37  C   UNL A   1      43.938  24.958  28.323  1.00  0.00     0.074 A 
ATOM     38  C   UNL A   1      41.520  25.405  28.329  1.00  0.00     0.049 A 
ATOM     39  N   UNL A   1      44.404  26.125  28.691  1.00  0.00    -0.248 NA
ATOM     40  C   UNL A   1      44.976  23.978  27.973  1.00  0.00     0.031 C 
ATOM     41  C   UNL A   1      40.111  25.160  28.026  1.00  0.00     0.029 A 
ATOM     42  N   UNL A   1      41.555  26.720  28.724  1.00  0.00    -0.354 N 
ATOM     43  C   UNL A   1      45.785  26.024  28.607  1.00  0.00     0.074 A 
ATOM     44  C   UNL A   1      46.083  24.685  28.145  1.00  0.00     0.031 C 
ATOM     45  C   UNL A   1      39.425  26.304  28.199  1.00  0.00     0.029 A 
ATOM     46  C   UNL A   1      40.330  27.344  28.684  1.00  0.00     0.049 A 
ATOM     47  H   UNL A   1      42.382  27.175  29.008  1.00  0.00     0.167 HD
ATOM     48  C   UNL A   1      46.722  26.957  28.901  1.00  0.00     0.037 A 
ATOM     49  C   UNL A   1      39.981  28.603  29.017  1.00  0.00     0.037 A 
ATOM     50  C   UNL A   1      46.439  28.274  29.406  1.00  0.00     0.049 A 
ATOM     51  C   UNL A   1      41.030  29.544  29.553  1.00  0.00     0.074 A 
ATOM     52  C   UNL A   1      47.330  29.244  29.829  1.00  0.00     0.029 A 
ATOM     53  N   UNL A   1      45.168  28.804  29.563  1.00  0.00    -0.354 N 
ATOM     54  N   UNL A   1      42.333  29.411  29.572  1.00  0.00    -0.248 NA
ATOM     55  C   UNL A   1      40.550  30.800  30.156  1.00  0.00     0.031 C 
ATOM     56  C   UNL A   1      46.596  30.338  30.302  1.00  0.00     0.029 A 
ATOM     57  C   UNL A   1      45.249  30.067  30.126  1.00  0.00     0.049 A 
ATOM     58  H   UNL A   1      44.331  28.349  29.311  1.00  0.00     0.167 HD
ATOM     59  C   UNL A   1      42.827  30.563  30.176  1.00  0.00     0.074 A 
ATOM     60  C   UNL A   1      41.687  31.396  30.489  1.00  0.00     0.031 C 
ATOM     61  C   UNL A   1      44.113  30.889  30.455  1.00  0.00     0.037 A 
BRANCH  48  62
ATOM     62  C   UNL A   1      48.154  26.541  28.764  1.00  0.00     0.057 A 
ATOM     63  C   UNL A   1      48.890  26.788  27.600  1.00  0.00     0.134 A 
ATOM     64  C   UNL A   1      48.801  25.881  29.816  1.00  0.00     0.134 A 
ATOM     65  F   UNL A   1      48.318  27.396  26.549  1.00  0.00    -0.206 F 
ATOM     66  C   UNL A   1      50.218  26.373  27.479  1.00  0.00     0.040 A 
ATOM     67  C   UNL A   1      50.133  25.479  29.715  1.00  0.00     0.040 A 
ATOM     68  F   UNL A   1      48.147  25.614  30.957  1.00  0.00    -0.206 F 
ATOM     69  C   UNL A   1      50.843  25.720  28.540  1.00  0.00     0.006 A 
ENDBRANCH  48  62
BRANCH  49  70
ATOM     70  C   UNL A   1      38.566  29.052  28.923  1.00  0.00     0.057 A 
ATOM     71  C   UNL A   1      38.065  29.629  27.749  1.00  0.00     0.134 A 
ATOM     72  C   UNL A   1      37.700  28.983  30.022  1.00  0.00     0.134 A 
ATOM     73  F   UNL A   1      38.852  29.761  26.671  1.00  0.00    -0.206 F 
ATOM     74  C   UNL A   1      36.763  30.130  27.676  1.00  0.00     0.040 A 
ATOM     75  C   UNL A   1      36.387  29.451  29.954  1.00  0.00     0.040 A 
ATOM     76  F   UNL A   1      38.120  28.464  31.185  1.00  0.00    -0.206 F 
ATOM     77  C   UNL A   1      35.918  30.036  28.780  1.00  0.00     0.006 A 
ENDBRANCH  49  70
BRANCH  61  78
ATOM     78  C   UNL A   1      44.367  32.192  31.157  1.00  0.00     0.057 A 
ATOM     79  C   UNL A   1      44.512  33.390  30.444  1.00  0.00     0.134 A 
ATOM     80  C   UNL A   1      44.393  32.268  32.555  1.00  0.00     0.134 A 
ATOM     81  F   UNL A   1      44.509  33.386  29.102  1.00  0.00    -0.206 F 
ATOM     82  C   UNL A   1      44.679  34.613  31.096  1.00  0.00     0.040 A 
ATOM     83  C   UNL A   1      44.536  33.488  33.219  1.00  0.00     0.040 A 
ATOM     84  F   UNL A   1      44.256  31.161  33.301  1.00  0.00    -0.206 F 
ATOM     85  C   UNL A   1      44.681  34.666  32.488  1.00  0.00     0.006 A 
ENDBRANCH  61  78
ENDBRANCH  35  36
ENDBRANCH  28  30
ENDBRANCH  27  28
ENDBRANCH  26  27
ENDBRANCH   1  26
TORSDOF 16
ENDMDL
MODEL 3
REMARK VINA RESULT:     -10.9      4.010      7.735
REMARK SMILES CC[C@@H](C)[C@@H](C(=O)OCCOC(=O)c1ccc(-c2c3nc(c(-c4c(F)cccc4F)c4ccc([nH]4)c(-c4c(F)cccc4F)c4nc(c(-c5c(F)cccc5F)c5ccc2[nH]5)C=C4)C=C3)cc1)N1C(=O)/C(=C/c2ccc(O)cc2)SC1=S
REMARK SMILES IDX 9 1 8 2 6 3 7 4 5 5 3 6 4 7 2 8 1 9 68 10 69 11 81 12 70 13
REMARK SMILES IDX 71 14 80 15 82 16 72 17 73 18 74 19 79 20 75 21 78 22 76 23
REMARK SMILES IDX 77 24 10 26 11 27 12 28 13 29 14 30 15 31 67 32 16 33 66 34
REMARK SMILES IDX 17 35 18 36 19 37 60 38 20 39 65 40 59 41 61 42 21 43 64 44
REMARK SMILES IDX 58 45 57 46 22 48 48 49 31 50 47 51 32 52 35 53 46 54 62 55
REMARK SMILES IDX 33 56 34 57 45 59 63 60 36 61 23 62 24 63 29 64 25 65 26 66
REMARK SMILES IDX 28 67 30 68 27 69 49 70 50 71 55 72 51 73 52 74 54 75 56 76
REMARK SMILES IDX 53 77 37 78 38 79 43 80 39 81 40 82 42 83 44 84 41 85
REMARK H PARENT 77 25 61 47 35 58
REMARK Flexibility Score: inf
ROOT
ATOM      1  C   UNL A   1      33.041  30.952  27.121  1.00  0.00     0.274 C 
ENDROOT
BRANCH   1   2
ATOM      2  O   UNL A   1      33.240  29.912  26.132  1.00  0.00    -0.461 OA
BRANCH   2   3
ATOM      3  C   UNL A   1      32.305  28.922  26.081  1.00  0.00     0.329 C 
ATOM      4  O   UNL A   1      31.524  28.712  26.997  1.00  0.00    -0.250 OA
BRANCH   3   5
ATOM      5  C   UNL A   1      32.275  28.207  24.688  1.00  0.00     0.204 C 
BRANCH   5   6
ATOM      6  C   UNL A   1      30.799  28.488  24.119  1.00  0.00     0.020 C 
ATOM      7  C   UNL A   1      30.446  27.951  22.728  1.00  0.00     0.010 C 
BRANCH   6   8
ATOM      8  C   UNL A   1      30.432  30.003  24.204  1.00  0.00     0.002 C 
ATOM      9  C   UNL A   1      29.216  30.445  23.392  1.00  0.00     0.004 C 
ENDBRANCH   6   8
ENDBRANCH   5   6
BRANCH   5  10
ATOM     10  N   UNL A   1      32.630  26.736  24.799  1.00  0.00    -0.278 N 
ATOM     11  C   UNL A   1      33.418  26.083  23.863  1.00  0.00     0.267 C 
ATOM     12  C   UNL A   1      31.865  25.775  25.421  1.00  0.00     0.149 C 
ATOM     13  O   UNL A   1      33.564  26.386  22.686  1.00  0.00    -0.268 OA
ATOM     14  C   UNL A   1      33.885  24.771  24.410  1.00  0.00     0.081 C 
ATOM     15  S   UNL A   1      32.862  24.341  25.711  1.00  0.00    -0.054 SA
ATOM     16  S   UNL A   1      30.222  25.782  25.724  1.00  0.00    -0.052 S 
ATOM     17  C   UNL A   1      34.919  24.096  23.890  1.00  0.00     0.029 C 
BRANCH  17  18
ATOM     18  C   UNL A   1      35.478  22.810  24.332  1.00  0.00    -0.024 A 
ATOM     19  C   UNL A   1      36.862  22.605  24.381  1.00  0.00     0.012 A 
ATOM     20  C   UNL A   1      34.628  21.732  24.609  1.00  0.00     0.012 A 
ATOM     21  C   UNL A   1      37.391  21.339  24.652  1.00  0.00     0.047 A 
ATOM     22  C   UNL A   1      35.155  20.467  24.897  1.00  0.00     0.047 A 
ATOM     23  C   UNL A   1      36.533  20.280  24.902  1.00  0.00     0.115 A 
BRANCH  23  24
ATOM     24  O   UNL A   1      37.087  19.060  25.152  1.00  0.00    -0.508 OA
ATOM     25  H   UNL A   1      37.947  18.863  24.835  1.00  0.00     0.293 HD
ENDBRANCH  23  24
ENDBRANCH  17  18
ENDBRANCH   5  10
ENDBRANCH   3   5
ENDBRANCH   2   3
ENDBRANCH   1   2
BRANCH   1  26
ATOM     26  C   UNL A   1      34.334  31.459  27.790  1.00  0.00     0.275 C 
BRANCH  26  27
ATOM     27  O   UNL A   1      35.120  30.378  28.331  1.00  0.00    -0.458 OA
BRANCH  27  28
ATOM     28  C   UNL A   1      35.911  30.683  29.393  1.00  0.00     0.338 C 
ATOM     29  O   UNL A   1      35.562  31.206  30.434  1.00  0.00    -0.246 OA
BRANCH  28  30
ATOM     30  C   UNL A   1      37.243  30.060  29.205  1.00  0.00     0.060 A 
ATOM     31  C   UNL A   1      37.702  29.929  27.891  1.00  0.00     0.016 A 
ATOM     32  C   UNL A   1      38.059  29.674  30.271  1.00  0.00     0.016 A 
ATOM     33  C   UNL A   1      39.000  29.496  27.643  1.00  0.00     0.010 A 
ATOM     34  C   UNL A   1      39.351  29.190  30.015  1.00  0.00     0.010 A 
ATOM     35  C   UNL A   1      39.840  29.125  28.701  1.00  0.00    -0.014 A 
BRANCH  35  36
ATOM     36  C   UNL A   1      41.218  28.660  28.398  1.00  0.00     0.031 A 
ATOM     37  C   UNL A   1      42.385  29.571  28.649  1.00  0.00     0.074 A 
ATOM     38  C   UNL A   1      41.445  27.375  28.061  1.00  0.00     0.049 A 
ATOM     39  N   UNL A   1      43.666  29.334  28.512  1.00  0.00    -0.248 NA
ATOM     40  C   UNL A   1      42.071  30.909  29.168  1.00  0.00     0.031 C 
ATOM     41  C   UNL A   1      40.421  26.336  27.972  1.00  0.00     0.029 A 
ATOM     42  N   UNL A   1      42.620  26.712  27.801  1.00  0.00    -0.354 N 
ATOM     43  C   UNL A   1      44.310  30.485  28.939  1.00  0.00     0.074 A 
ATOM     44  C   UNL A   1      43.281  31.419  29.346  1.00  0.00     0.031 C 
ATOM     45  C   UNL A   1      41.019  25.157  27.726  1.00  0.00     0.029 A 
ATOM     46  C   UNL A   1      42.458  25.365  27.579  1.00  0.00     0.049 A 
ATOM     47  H   UNL A   1      43.497  27.160  27.778  1.00  0.00     0.167 HD
ATOM     48  C   UNL A   1      45.638  30.749  28.974  1.00  0.00     0.037 A 
ATOM     49  C   UNL A   1      43.367  24.415  27.276  1.00  0.00     0.037 A 
ATOM     50  C   UNL A   1      46.666  29.847  28.527  1.00  0.00     0.049 A 
ATOM     51  C   UNL A   1      44.814  24.803  27.108  1.00  0.00     0.074 A 
ATOM     52  C   UNL A   1      48.028  30.073  28.430  1.00  0.00     0.029 A 
ATOM     53  N   UNL A   1      46.446  28.549  28.095  1.00  0.00    -0.354 N 
ATOM     54  N   UNL A   1      45.413  25.928  27.412  1.00  0.00    -0.248 NA
ATOM     55  C   UNL A   1      45.707  23.795  26.511  1.00  0.00     0.031 C 
ATOM     56  C   UNL A   1      48.624  28.933  27.879  1.00  0.00     0.029 A 
ATOM     57  C   UNL A   1      47.639  27.980  27.681  1.00  0.00     0.049 A 
ATOM     58  H   UNL A   1      45.570  28.098  28.085  1.00  0.00     0.167 HD
ATOM     59  C   UNL A   1      46.746  25.761  27.055  1.00  0.00     0.074 A 
ATOM     60  C   UNL A   1      46.877  24.418  26.532  1.00  0.00     0.031 C 
ATOM     61  C   UNL A   1      47.766  26.650  27.143  1.00  0.00     0.037 A 
BRANCH  48  62
ATOM     62  C   UNL A   1      46.042  32.114  29.437  1.00  0.00     0.057 A 
ATOM     63  C   UNL A   1      46.197  33.184  28.547  1.00  0.00     0.134 A 
ATOM     64  C   UNL A   1      46.280  32.357  30.795  1.00  0.00     0.134 A 
ATOM     65  F   UNL A   1      46.006  33.008  27.231  1.00  0.00    -0.206 F 
ATOM     66  C   UNL A   1      46.597  34.446  28.993  1.00  0.00     0.040 A 
ATOM     67  C   UNL A   1      46.660  33.618  31.255  1.00  0.00     0.040 A 
ATOM     68  F   UNL A   1      46.150  31.371  31.696  1.00  0.00    -0.206 F 
ATOM     69  C   UNL A   1      46.826  34.665  30.351  1.00  0.00     0.006 A 
ENDBRANCH  48  62
BRANCH  49  70
ATOM     70  C   UNL A   1      42.948  23.007  27.042  1.00  0.00     0.057 A 
ATOM     71  C   UNL A   1      42.775  22.509  25.744  1.00  0.00     0.134 A 
ATOM     72  C   UNL A   1      42.642  22.146  28.104  1.00  0.00     0.134 A 
ATOM     73  F   UNL A   1      43.014  23.292  24.681  1.00  0.00    -0.206 F 
ATOM     74  C   UNL A   1      42.303  21.215  25.513  1.00  0.00     0.040 A 
ATOM     75  C   UNL A   1      42.198  20.841  27.888  1.00  0.00     0.040 A 
ATOM     76  F   UNL A   1      42.762  22.565  29.373  1.00  0.00    -0.206 F 
ATOM     77  C   UNL A   1      42.018  20.374  26.587  1.00  0.00     0.006 A 
ENDBRANCH  49  70
BRANCH  61  78
ATOM     78  C   UNL A   1      49.115  26.219  26.642  1.00  0.00     0.057 A 
ATOM     79  C   UNL A   1      49.577  26.593  25.374  1.00  0.00     0.134 A 
ATOM     80  C   UNL A   1      49.991  25.491  27.457  1.00  0.00     0.134 A 
ATOM     81  F   UNL A   1      48.784  27.280  24.538  1.00  0.00    -0.206 F 
ATOM     82  C   UNL A   1      50.857  26.253  24.932  1.00  0.00     0.040 A 
ATOM     83  C   UNL A   1      51.281  25.166  27.037  1.00  0.00     0.040 A 
ATOM     84  F   UNL A   1      49.616  25.104  28.686  1.00  0.00    -0.206 F 
ATOM     85  C   UNL A   1      51.718  25.547  25.769  1.00  0.00     0.006 A 
ENDBRANCH  61  78
ENDBRANCH  35  36
ENDBRANCH  28  30
ENDBRANCH  27  28
ENDBRANCH  26  27
ENDBRANCH   1  26
TORSDOF 16
ENDMDL
