MODEL 1
REMARK VINA RESULT:      -9.8      0.000      0.000
REMARK SMILES C[C@@H](C(=O)N(C)C)[N@H+](CC(=O)OCCOC(=O)c1ccc(-c2c3nc(c(-c4c(F)cccc4F)c4ccc([nH]4)c(-c4c(F)cccc4F)c4nc(c(-c5c(F)cccc5F)c5ccc2[nH]5)C=C4)C=C3)cc1)C(C)(C)C
REMARK SMILES IDX 13 1 12 2 10 3 11 4 9 5 8 6 2 8 1 9 3 10 4 11 5 12 6 13 7 14
REMARK SMILES IDX 72 15 73 16 74 17 75 18 14 19 15 20 16 21 17 22 18 23 19 24
REMARK SMILES IDX 71 25 20 26 70 27 21 28 22 29 23 30 64 31 24 32 69 33 63 34
REMARK SMILES IDX 65 35 25 36 68 37 62 38 61 39 26 41 52 42 35 43 51 44 36 45
REMARK SMILES IDX 39 46 50 47 66 48 37 49 38 50 49 52 67 53 40 54 27 55 28 56
REMARK SMILES IDX 33 57 29 58 30 59 32 60 34 61 31 62 53 63 54 64 59 65 55 66
REMARK SMILES IDX 56 67 58 68 60 69 57 70 41 71 42 72 47 73 43 74 44 75 46 76
REMARK SMILES IDX 48 77 45 78
REMARK H PARENT 8 7 65 40 39 51
REMARK Flexibility Score: inf
ROOT
ATOM      1  C   UNL A   1      32.690  31.357  26.937  1.00  0.00     0.274 C 
ENDROOT
BRANCH   1   2
ATOM      2  O   UNL A   1      31.712  30.425  26.436  1.00  0.00    -0.458 OA
BRANCH   2   3
ATOM      3  C   UNL A   1      32.151  29.416  25.646  1.00  0.00     0.361 C 
ATOM      4  O   UNL A   1      33.000  29.550  24.769  1.00  0.00    -0.245 OA
BRANCH   3   5
ATOM      5  C   UNL A   1      31.416  28.088  25.859  1.00  0.00     0.387 C 
BRANCH   5   6
ATOM      6  N   UNL A   1      31.500  27.122  24.745  1.00  0.00    -0.312 N 
ATOM      7  H   UNL A   1      31.973  27.483  23.917  1.00  0.00     0.349 HD
BRANCH   6   8
ATOM      8  C   UNL A   1      32.403  25.972  25.029  1.00  0.00     0.272 C 
ATOM      9  C   UNL A   1      33.760  26.280  25.657  1.00  0.00     0.086 C 
BRANCH   8  10
ATOM     10  C   UNL A   1      31.713  24.830  25.835  1.00  0.00     0.280 C 
ATOM     11  O   UNL A   1      31.459  24.943  27.036  1.00  0.00    -0.268 OA
ATOM     12  N   UNL A   1      31.398  23.640  25.166  1.00  0.00    -0.344 N 
ATOM     13  C   UNL A   1      31.805  23.269  23.818  1.00  0.00     0.146 C 
ATOM     14  C   UNL A   1      30.691  22.605  25.905  1.00  0.00     0.146 C 
ENDBRANCH   8  10
ENDBRANCH   6   8
BRANCH   6  15
ATOM     15  C   UNL A   1      30.522  27.172  23.631  1.00  0.00     0.090 C 
ATOM     16  C   UNL A   1      31.142  26.673  22.311  1.00  0.00     0.078 C 
ATOM     17  C   UNL A   1      29.244  26.352  23.911  1.00  0.00     0.078 C 
ATOM     18  C   UNL A   1      30.014  28.606  23.324  1.00  0.00     0.078 C 
ENDBRANCH   6  15
ENDBRANCH   5   6
ENDBRANCH   3   5
ENDBRANCH   2   3
ENDBRANCH   1   2
BRANCH   1  19
ATOM     19  C   UNL A   1      32.034  32.681  27.311  1.00  0.00     0.275 C 
BRANCH  19  20
ATOM     20  O   UNL A   1      33.040  33.706  27.367  1.00  0.00    -0.458 OA
BRANCH  20  21
ATOM     21  C   UNL A   1      33.218  34.265  28.584  1.00  0.00     0.338 C 
ATOM     22  O   UNL A   1      32.536  35.112  29.128  1.00  0.00    -0.246 OA
BRANCH  21  23
ATOM     23  C   UNL A   1      34.443  33.746  29.202  1.00  0.00     0.060 A 
ATOM     24  C   UNL A   1      35.698  34.252  28.850  1.00  0.00     0.016 A 
ATOM     25  C   UNL A   1      34.330  32.631  30.033  1.00  0.00     0.016 A 
ATOM     26  C   UNL A   1      36.846  33.595  29.280  1.00  0.00     0.010 A 
ATOM     27  C   UNL A   1      35.480  32.023  30.526  1.00  0.00     0.010 A 
ATOM     28  C   UNL A   1      36.744  32.489  30.139  1.00  0.00    -0.014 A 
BRANCH  28  29
ATOM     29  C   UNL A   1      37.960  31.872  30.711  1.00  0.00     0.031 A 
ATOM     30  C   UNL A   1      38.725  30.827  29.958  1.00  0.00     0.074 A 
ATOM     31  C   UNL A   1      38.327  32.236  31.952  1.00  0.00     0.049 A 
ATOM     32  N   UNL A   1      39.714  30.077  30.370  1.00  0.00    -0.248 NA
ATOM     33  C   UNL A   1      38.327  30.585  28.562  1.00  0.00     0.031 C 
ATOM     34  C   UNL A   1      37.650  33.250  32.766  1.00  0.00     0.029 A 
ATOM     35  N   UNL A   1      39.348  31.794  32.750  1.00  0.00    -0.354 N 
ATOM     36  C   UNL A   1      40.040  29.254  29.300  1.00  0.00     0.074 A 
ATOM     37  C   UNL A   1      39.142  29.597  28.216  1.00  0.00     0.031 C 
ATOM     38  C   UNL A   1      38.284  33.363  33.941  1.00  0.00     0.029 A 
ATOM     39  C   UNL A   1      39.365  32.387  33.987  1.00  0.00     0.049 A 
ATOM     40  H   UNL A   1      40.005  31.118  32.464  1.00  0.00     0.167 HD
ATOM     41  C   UNL A   1      40.997  28.298  29.240  1.00  0.00     0.037 A 
ATOM     42  C   UNL A   1      40.142  32.145  35.057  1.00  0.00     0.037 A 
ATOM     43  C   UNL A   1      41.888  27.977  30.326  1.00  0.00     0.049 A 
ATOM     44  C   UNL A   1      41.180  31.071  34.968  1.00  0.00     0.074 A 
ATOM     45  C   UNL A   1      42.899  27.032  30.366  1.00  0.00     0.029 A 
ATOM     46  N   UNL A   1      41.873  28.599  31.566  1.00  0.00    -0.354 N 
ATOM     47  N   UNL A   1      41.464  30.284  33.959  1.00  0.00    -0.248 NA
ATOM     48  C   UNL A   1      41.994  30.840  36.167  1.00  0.00     0.031 C 
ATOM     49  C   UNL A   1      43.478  27.064  31.641  1.00  0.00     0.029 A 
ATOM     50  C   UNL A   1      42.849  28.051  32.383  1.00  0.00     0.049 A 
ATOM     51  H   UNL A   1      41.260  29.324  31.827  1.00  0.00     0.167 HD
ATOM     52  C   UNL A   1      42.489  29.463  34.398  1.00  0.00     0.074 A 
ATOM     53  C   UNL A   1      42.793  29.863  35.758  1.00  0.00     0.031 C 
ATOM     54  C   UNL A   1      43.119  28.461  33.737  1.00  0.00     0.037 A 
BRANCH  41  55
ATOM     55  C   UNL A   1      41.113  27.508  27.970  1.00  0.00     0.057 A 
ATOM     56  C   UNL A   1      41.938  27.918  26.917  1.00  0.00     0.134 A 
ATOM     57  C   UNL A   1      40.428  26.295  27.821  1.00  0.00     0.134 A 
ATOM     58  F   UNL A   1      42.615  29.074  26.993  1.00  0.00    -0.206 F 
ATOM     59  C   UNL A   1      42.071  27.155  25.754  1.00  0.00     0.040 A 
ATOM     60  C   UNL A   1      40.564  25.516  26.670  1.00  0.00     0.040 A 
ATOM     61  F   UNL A   1      39.624  25.843  28.794  1.00  0.00    -0.206 F 
ATOM     62  C   UNL A   1      41.387  25.946  25.631  1.00  0.00     0.006 A 
ENDBRANCH  41  55
BRANCH  42  63
ATOM     63  C   UNL A   1      39.933  32.931  36.294  1.00  0.00     0.057 A 
ATOM     64  C   UNL A   1      40.639  34.116  36.521  1.00  0.00     0.134 A 
ATOM     65  C   UNL A   1      38.978  32.551  37.245  1.00  0.00     0.134 A 
ATOM     66  F   UNL A   1      41.575  34.522  35.650  1.00  0.00    -0.206 F 
ATOM     67  C   UNL A   1      40.400  34.901  37.650  1.00  0.00     0.040 A 
ATOM     68  C   UNL A   1      38.714  33.337  38.367  1.00  0.00     0.040 A 
ATOM     69  F   UNL A   1      38.262  31.430  37.075  1.00  0.00    -0.206 F 
ATOM     70  C   UNL A   1      39.427  34.516  38.571  1.00  0.00     0.006 A 
ENDBRANCH  42  63
BRANCH  54  71
ATOM     71  C   UNL A   1      44.198  27.745  34.488  1.00  0.00     0.057 A 
ATOM     72  C   UNL A   1      45.512  28.227  34.512  1.00  0.00     0.134 A 
ATOM     73  C   UNL A   1      43.920  26.570  35.193  1.00  0.00     0.134 A 
ATOM     74  F   UNL A   1      45.840  29.341  33.840  1.00  0.00    -0.206 F 
ATOM     75  C   UNL A   1      46.520  27.551  35.198  1.00  0.00     0.040 A 
ATOM     76  C   UNL A   1      44.916  25.892  35.896  1.00  0.00     0.040 A 
ATOM     77  F   UNL A   1      42.678  26.061  35.207  1.00  0.00    -0.206 F 
ATOM     78  C   UNL A   1      46.222  26.381  35.896  1.00  0.00     0.006 A 
ENDBRANCH  54  71
ENDBRANCH  28  29
ENDBRANCH  21  23
ENDBRANCH  20  21
ENDBRANCH  19  20
ENDBRANCH   1  19
TORSDOF 15
ENDMDL
MODEL 2
REMARK VINA RESULT:      -9.7      4.593      9.410
REMARK SMILES C[C@@H](C(=O)N(C)C)[N@H+](CC(=O)OCCOC(=O)c1ccc(-c2c3nc(c(-c4c(F)cccc4F)c4ccc([nH]4)c(-c4c(F)cccc4F)c4nc(c(-c5c(F)cccc5F)c5ccc2[nH]5)C=C4)C=C3)cc1)C(C)(C)C
REMARK SMILES IDX 13 1 12 2 10 3 11 4 9 5 8 6 2 8 1 9 3 10 4 11 5 12 6 13 7 14
REMARK SMILES IDX 72 15 73 16 74 17 75 18 14 19 15 20 16 21 17 22 18 23 19 24
REMARK SMILES IDX 71 25 20 26 70 27 21 28 22 29 23 30 64 31 24 32 69 33 63 34
REMARK SMILES IDX 65 35 25 36 68 37 62 38 61 39 26 41 52 42 35 43 51 44 36 45
REMARK SMILES IDX 39 46 50 47 66 48 37 49 38 50 49 52 67 53 40 54 27 55 28 56
REMARK SMILES IDX 33 57 29 58 30 59 32 60 34 61 31 62 53 63 54 64 59 65 55 66
REMARK SMILES IDX 56 67 58 68 60 69 57 70 41 71 42 72 47 73 43 74 44 75 46 76
REMARK SMILES IDX 48 77 45 78
REMARK H PARENT 8 7 65 40 39 51
REMARK Flexibility Score: inf
ROOT
ATOM      1  C   UNL A   1      35.266  20.222  25.021  1.00  0.00     0.274 C 
ENDROOT
BRANCH   1   2
ATOM      2  O   UNL A   1      34.129  20.666  24.257  1.00  0.00    -0.458 OA
BRANCH   2   3
ATOM      3  C   UNL A   1      32.915  20.633  24.858  1.00  0.00     0.361 C 
ATOM      4  O   UNL A   1      32.379  19.605  25.266  1.00  0.00    -0.245 OA
BRANCH   3   5
ATOM      5  C   UNL A   1      32.196  21.985  24.893  1.00  0.00     0.387 C 
BRANCH   5   6
ATOM      6  N   UNL A   1      33.045  23.170  24.650  1.00  0.00    -0.312 N 
ATOM      7  H   UNL A   1      34.044  22.967  24.624  1.00  0.00     0.349 HD
BRANCH   6   8
ATOM      8  C   UNL A   1      32.898  23.730  23.278  1.00  0.00     0.272 C 
ATOM      9  C   UNL A   1      32.892  22.745  22.113  1.00  0.00     0.086 C 
BRANCH   8  10
ATOM     10  C   UNL A   1      31.688  24.701  23.135  1.00  0.00     0.280 C 
ATOM     11  O   UNL A   1      30.524  24.294  23.127  1.00  0.00    -0.268 OA
ATOM     12  N   UNL A   1      31.947  26.071  22.991  1.00  0.00    -0.344 N 
ATOM     13  C   UNL A   1      33.247  26.690  22.780  1.00  0.00     0.146 C 
ATOM     14  C   UNL A   1      30.812  26.980  22.928  1.00  0.00     0.146 C 
ENDBRANCH   8  10
ENDBRANCH   6   8
BRANCH   6  15
ATOM     15  C   UNL A   1      33.697  23.871  25.784  1.00  0.00     0.090 C 
ATOM     16  C   UNL A   1      35.064  24.456  25.375  1.00  0.00     0.078 C 
ATOM     17  C   UNL A   1      32.834  25.010  26.367  1.00  0.00     0.078 C 
ATOM     18  C   UNL A   1      33.998  22.943  26.989  1.00  0.00     0.078 C 
ENDBRANCH   6  15
ENDBRANCH   5   6
ENDBRANCH   3   5
ENDBRANCH   2   3
ENDBRANCH   1   2
BRANCH   1  19
ATOM     19  C   UNL A   1      36.506  21.036  24.668  1.00  0.00     0.275 C 
BRANCH  19  20
ATOM     20  O   UNL A   1      37.098  21.539  25.877  1.00  0.00    -0.458 OA
BRANCH  20  21
ATOM     21  C   UNL A   1      38.433  21.357  25.977  1.00  0.00     0.338 C 
ATOM     22  O   UNL A   1      39.073  20.349  25.749  1.00  0.00    -0.246 OA
BRANCH  21  23
ATOM     23  C   UNL A   1      39.070  22.578  26.484  1.00  0.00     0.060 A 
ATOM     24  C   UNL A   1      38.605  23.842  26.112  1.00  0.00     0.016 A 
ATOM     25  C   UNL A   1      40.245  22.438  27.224  1.00  0.00     0.016 A 
ATOM     26  C   UNL A   1      39.359  24.969  26.425  1.00  0.00     0.010 A 
ATOM     27  C   UNL A   1      40.957  23.572  27.603  1.00  0.00     0.010 A 
ATOM     28  C   UNL A   1      40.529  24.842  27.191  1.00  0.00    -0.014 A 
BRANCH  28  29
ATOM     29  C   UNL A   1      41.260  26.045  27.645  1.00  0.00     0.031 A 
ATOM     30  C   UNL A   1      40.582  27.096  28.471  1.00  0.00     0.074 A 
ATOM     31  C   UNL A   1      42.536  26.193  27.250  1.00  0.00     0.049 A 
ATOM     32  N   UNL A   1      41.025  28.276  28.821  1.00  0.00    -0.248 NA
ATOM     33  C   UNL A   1      39.230  26.789  28.963  1.00  0.00     0.031 C 
ATOM     34  C   UNL A   1      43.286  25.223  26.448  1.00  0.00     0.029 A 
ATOM     35  N   UNL A   1      43.424  27.216  27.454  1.00  0.00    -0.354 N 
ATOM     36  C   UNL A   1      40.000  28.866  29.549  1.00  0.00     0.074 A 
ATOM     37  C   UNL A   1      38.910  27.912  29.591  1.00  0.00     0.031 C 
ATOM     38  C   UNL A   1      44.526  25.688  26.243  1.00  0.00     0.029 A 
ATOM     39  C   UNL A   1      44.634  27.014  26.840  1.00  0.00     0.049 A 
ATOM     40  H   UNL A   1      43.214  28.015  27.989  1.00  0.00     0.167 HD
ATOM     41  C   UNL A   1      39.977  30.094  30.118  1.00  0.00     0.037 A 
ATOM     42  C   UNL A   1      45.701  27.824  26.734  1.00  0.00     0.037 A 
ATOM     43  C   UNL A   1      41.076  31.026  30.074  1.00  0.00     0.049 A 
ATOM     44  C   UNL A   1      45.641  29.182  27.358  1.00  0.00     0.074 A 
ATOM     45  C   UNL A   1      41.159  32.292  30.626  1.00  0.00     0.029 A 
ATOM     46  N   UNL A   1      42.286  30.786  29.439  1.00  0.00    -0.354 N 
ATOM     47  N   UNL A   1      44.659  29.739  28.024  1.00  0.00    -0.248 NA
ATOM     48  C   UNL A   1      46.829  30.031  27.206  1.00  0.00     0.031 C 
ATOM     49  C   UNL A   1      42.411  32.830  30.302  1.00  0.00     0.029 A 
ATOM     50  C   UNL A   1      43.119  31.885  29.576  1.00  0.00     0.049 A 
ATOM     51  H   UNL A   1      42.519  29.957  28.963  1.00  0.00     0.167 HD
ATOM     52  C   UNL A   1      45.106  31.003  28.371  1.00  0.00     0.074 A 
ATOM     53  C   UNL A   1      46.459  31.123  27.861  1.00  0.00     0.031 C 
ATOM     54  C   UNL A   1      44.454  31.981  29.046  1.00  0.00     0.037 A 
BRANCH  41  55
ATOM     55  C   UNL A   1      38.717  30.516  30.813  1.00  0.00     0.057 A 
ATOM     56  C   UNL A   1      37.684  31.176  30.137  1.00  0.00     0.134 A 
ATOM     57  C   UNL A   1      38.514  30.213  32.166  1.00  0.00     0.134 A 
ATOM     58  F   UNL A   1      37.819  31.504  28.843  1.00  0.00    -0.206 F 
ATOM     59  C   UNL A   1      36.498  31.530  30.784  1.00  0.00     0.040 A 
ATOM     60  C   UNL A   1      37.326  30.547  32.820  1.00  0.00     0.040 A 
ATOM     61  F   UNL A   1      39.462  29.578  32.871  1.00  0.00    -0.206 F 
ATOM     62  C   UNL A   1      36.314  31.209  32.129  1.00  0.00     0.006 A 
ENDBRANCH  41  55
BRANCH  42  63
ATOM     63  C   UNL A   1      46.891  27.358  25.987  1.00  0.00     0.057 A 
ATOM     64  C   UNL A   1      47.914  26.655  26.630  1.00  0.00     0.134 A 
ATOM     65  C   UNL A   1      47.001  27.546  24.603  1.00  0.00     0.134 A 
ATOM     66  F   UNL A   1      47.867  26.456  27.956  1.00  0.00    -0.206 F 
ATOM     67  C   UNL A   1      49.007  26.151  25.923  1.00  0.00     0.040 A 
ATOM     68  C   UNL A   1      48.077  27.028  23.882  1.00  0.00     0.040 A 
ATOM     69  F   UNL A   1      46.045  28.202  23.931  1.00  0.00    -0.206 F 
ATOM     70  C   UNL A   1      49.083  26.328  24.543  1.00  0.00     0.006 A 
ENDBRANCH  42  63
BRANCH  54  71
ATOM     71  C   UNL A   1      45.210  33.253  29.266  1.00  0.00     0.057 A 
ATOM     72  C   UNL A   1      46.032  33.429  30.387  1.00  0.00     0.134 A 
ATOM     73  C   UNL A   1      45.119  34.308  28.352  1.00  0.00     0.134 A 
ATOM     74  F   UNL A   1      46.144  32.458  31.306  1.00  0.00    -0.206 F 
ATOM     75  C   UNL A   1      46.722  34.621  30.600  1.00  0.00     0.040 A 
ATOM     76  C   UNL A   1      45.817  35.499  28.545  1.00  0.00     0.040 A 
ATOM     77  F   UNL A   1      44.347  34.197  27.259  1.00  0.00    -0.206 F 
ATOM     78  C   UNL A   1      46.618  35.660  29.675  1.00  0.00     0.006 A 
ENDBRANCH  54  71
ENDBRANCH  28  29
ENDBRANCH  21  23
ENDBRANCH  20  21
ENDBRANCH  19  20
ENDBRANCH   1  19
TORSDOF 15
ENDMDL
MODEL 3
REMARK VINA RESULT:      -9.7      4.834      8.336
REMARK SMILES C[C@@H](C(=O)N(C)C)[N@H+](CC(=O)OCCOC(=O)c1ccc(-c2c3nc(c(-c4c(F)cccc4F)c4ccc([nH]4)c(-c4c(F)cccc4F)c4nc(c(-c5c(F)cccc5F)c5ccc2[nH]5)C=C4)C=C3)cc1)C(C)(C)C
REMARK SMILES IDX 13 1 12 2 10 3 11 4 9 5 8 6 2 8 1 9 3 10 4 11 5 12 6 13 7 14
REMARK SMILES IDX 72 15 73 16 74 17 75 18 14 19 15 20 16 21 17 22 18 23 19 24
REMARK SMILES IDX 71 25 20 26 70 27 21 28 22 29 23 30 64 31 24 32 69 33 63 34
REMARK SMILES IDX 65 35 25 36 68 37 62 38 61 39 26 41 52 42 35 43 51 44 36 45
REMARK SMILES IDX 39 46 50 47 66 48 37 49 38 50 49 52 67 53 40 54 27 55 28 56
REMARK SMILES IDX 33 57 29 58 30 59 32 60 34 61 31 62 53 63 54 64 59 65 55 66
REMARK SMILES IDX 56 67 58 68 60 69 57 70 41 71 42 72 47 73 43 74 44 75 46 76
REMARK SMILES IDX 48 77 45 78
REMARK H PARENT 8 7 65 40 39 51
REMARK Flexibility Score: inf
ROOT
ATOM      1  C   UNL A   1      33.219  29.640  25.959  1.00  0.00     0.274 C 
ENDROOT
BRANCH   1   2
ATOM      2  O   UNL A   1      34.152  28.626  25.540  1.00  0.00    -0.458 OA
BRANCH   2   3
ATOM      3  C   UNL A   1      33.903  27.986  24.373  1.00  0.00     0.361 C 
ATOM      4  O   UNL A   1      34.073  28.488  23.264  1.00  0.00    -0.245 OA
BRANCH   3   5
ATOM      5  C   UNL A   1      33.279  26.596  24.541  1.00  0.00     0.387 C 
BRANCH   5   6
ATOM      6  N   UNL A   1      32.027  26.361  23.792  1.00  0.00    -0.312 N 
ATOM      7  H   UNL A   1      31.711  27.164  23.248  1.00  0.00     0.349 HD
BRANCH   6   8
ATOM      8  C   UNL A   1      32.181  25.387  22.676  1.00  0.00     0.272 C 
ATOM      9  C   UNL A   1      32.378  25.951  21.271  1.00  0.00     0.086 C 
BRANCH   8  10
ATOM     10  C   UNL A   1      33.268  24.303  22.949  1.00  0.00     0.280 C 
ATOM     11  O   UNL A   1      34.394  24.370  22.451  1.00  0.00    -0.268 OA
ATOM     12  N   UNL A   1      32.934  23.218  23.770  1.00  0.00    -0.344 N 
ATOM     13  C   UNL A   1      31.608  22.884  24.268  1.00  0.00     0.146 C 
ATOM     14  C   UNL A   1      33.972  22.246  24.078  1.00  0.00     0.146 C 
ENDBRANCH   8  10
ENDBRANCH   6   8
BRANCH   6  15
ATOM     15  C   UNL A   1      30.726  26.817  24.341  1.00  0.00     0.090 C 
ATOM     16  C   UNL A   1      29.563  25.932  23.847  1.00  0.00     0.078 C 
ATOM     17  C   UNL A   1      30.697  26.845  25.884  1.00  0.00     0.078 C 
ATOM     18  C   UNL A   1      30.349  28.258  23.910  1.00  0.00     0.078 C 
ENDBRANCH   6  15
ENDBRANCH   5   6
ENDBRANCH   3   5
ENDBRANCH   2   3
ENDBRANCH   1   2
BRANCH   1  19
ATOM     19  C   UNL A   1      33.667  30.280  27.268  1.00  0.00     0.275 C 
BRANCH  19  20
ATOM     20  O   UNL A   1      34.776  29.537  27.800  1.00  0.00    -0.458 OA
BRANCH  20  21
ATOM     21  C   UNL A   1      35.550  30.216  28.675  1.00  0.00     0.338 C 
ATOM     22  O   UNL A   1      35.239  31.158  29.378  1.00  0.00    -0.246 OA
BRANCH  21  23
ATOM     23  C   UNL A   1      36.921  29.695  28.643  1.00  0.00     0.060 A 
ATOM     24  C   UNL A   1      37.578  29.320  29.818  1.00  0.00     0.016 A 
ATOM     25  C   UNL A   1      37.601  29.731  27.425  1.00  0.00     0.016 A 
ATOM     26  C   UNL A   1      38.941  29.046  29.783  1.00  0.00     0.010 A 
ATOM     27  C   UNL A   1      38.946  29.380  27.379  1.00  0.00     0.010 A 
ATOM     28  C   UNL A   1      39.630  29.053  28.559  1.00  0.00    -0.014 A 
BRANCH  28  29
ATOM     29  C   UNL A   1      41.044  28.627  28.494  1.00  0.00     0.031 A 
ATOM     30  C   UNL A   1      42.158  29.611  28.681  1.00  0.00     0.074 A 
ATOM     31  C   UNL A   1      41.302  27.339  28.206  1.00  0.00     0.049 A 
ATOM     32  N   UNL A   1      43.443  29.440  28.503  1.00  0.00    -0.248 NA
ATOM     33  C   UNL A   1      41.784  30.966  29.117  1.00  0.00     0.031 C 
ATOM     34  C   UNL A   1      40.285  26.301  28.012  1.00  0.00     0.029 A 
ATOM     35  N   UNL A   1      42.489  26.684  28.017  1.00  0.00    -0.354 N 
ATOM     36  C   UNL A   1      44.031  30.669  28.777  1.00  0.00     0.074 A 
ATOM     37  C   UNL A   1      42.961  31.578  29.133  1.00  0.00     0.031 C 
ATOM     38  C   UNL A   1      40.892  25.137  27.747  1.00  0.00     0.029 A 
ATOM     39  C   UNL A   1      42.332  25.361  27.688  1.00  0.00     0.049 A 
ATOM     40  H   UNL A   1      43.367  27.119  28.109  1.00  0.00     0.167 HD
ATOM     41  C   UNL A   1      45.343  30.998  28.724  1.00  0.00     0.037 A 
ATOM     42  C   UNL A   1      43.243  24.438  27.337  1.00  0.00     0.037 A 
ATOM     43  C   UNL A   1      46.395  30.076  28.377  1.00  0.00     0.049 A 
ATOM     44  C   UNL A   1      44.684  24.835  27.271  1.00  0.00     0.074 A 
ATOM     45  C   UNL A   1      47.758  30.306  28.302  1.00  0.00     0.029 A 
ATOM     46  N   UNL A   1      46.196  28.743  28.046  1.00  0.00    -0.354 N 
ATOM     47  N   UNL A   1      45.227  26.004  27.509  1.00  0.00    -0.248 NA
ATOM     48  C   UNL A   1      45.638  23.792  26.874  1.00  0.00     0.031 C 
ATOM     49  C   UNL A   1      48.381  29.118  27.901  1.00  0.00     0.029 A 
ATOM     50  C   UNL A   1      47.409  28.140  27.757  1.00  0.00     0.049 A 
ATOM     51  H   UNL A   1      45.321  28.292  28.023  1.00  0.00     0.167 HD
ATOM     52  C   UNL A   1      46.585  25.841  27.291  1.00  0.00     0.074 A 
ATOM     53  C   UNL A   1      46.787  24.453  26.924  1.00  0.00     0.031 C 
ATOM     54  C   UNL A   1      47.577  26.761  27.380  1.00  0.00     0.037 A 
BRANCH  41  55
ATOM     55  C   UNL A   1      45.716  32.420  29.020  1.00  0.00     0.057 A 
ATOM     56  C   UNL A   1      45.765  33.397  28.018  1.00  0.00     0.134 A 
ATOM     57  C   UNL A   1      45.981  32.828  30.334  1.00  0.00     0.134 A 
ATOM     58  F   UNL A   1      45.532  33.070  26.738  1.00  0.00    -0.206 F 
ATOM     59  C   UNL A   1      46.075  34.727  28.311  1.00  0.00     0.040 A 
ATOM     60  C   UNL A   1      46.276  34.158  30.641  1.00  0.00     0.040 A 
ATOM     61  F   UNL A   1      45.946  31.944  31.341  1.00  0.00    -0.206 F 
ATOM     62  C   UNL A   1      46.326  35.112  29.627  1.00  0.00     0.006 A 
ENDBRANCH  41  55
BRANCH  42  63
ATOM     63  C   UNL A   1      42.794  23.066  27.008  1.00  0.00     0.057 A 
ATOM     64  C   UNL A   1      42.748  22.623  25.683  1.00  0.00     0.134 A 
ATOM     65  C   UNL A   1      42.465  22.147  28.013  1.00  0.00     0.134 A 
ATOM     66  F   UNL A   1      43.041  23.464  24.680  1.00  0.00    -0.206 F 
ATOM     67  C   UNL A   1      42.393  21.311  25.366  1.00  0.00     0.040 A 
ATOM     68  C   UNL A   1      42.130  20.828  27.711  1.00  0.00     0.040 A 
ATOM     69  F   UNL A   1      42.502  22.512  29.302  1.00  0.00    -0.206 F 
ATOM     70  C   UNL A   1      42.093  20.407  26.383  1.00  0.00     0.006 A 
ENDBRANCH  42  63
BRANCH  54  71
ATOM     71  C   UNL A   1      48.961  26.276  27.078  1.00  0.00     0.057 A 
ATOM     72  C   UNL A   1      49.513  26.401  25.797  1.00  0.00     0.134 A 
ATOM     73  C   UNL A   1      49.745  25.685  28.073  1.00  0.00     0.134 A 
ATOM     74  F   UNL A   1      48.800  26.945  24.800  1.00  0.00    -0.206 F 
ATOM     75  C   UNL A   1      50.796  25.934  25.512  1.00  0.00     0.040 A 
ATOM     76  C   UNL A   1      51.035  25.228  27.805  1.00  0.00     0.040 A 
ATOM     77  F   UNL A   1      49.269  25.539  29.320  1.00  0.00    -0.206 F 
ATOM     78  C   UNL A   1      51.562  25.348  26.520  1.00  0.00     0.006 A 
ENDBRANCH  54  71
ENDBRANCH  28  29
ENDBRANCH  21  23
ENDBRANCH  20  21
ENDBRANCH  19  20
ENDBRANCH   1  19
TORSDOF 15
ENDMDL
