MODEL 1
REMARK VINA RESULT:     -11.9      0.000      0.000
REMARK SMILES O=C(CN1CC2(CCC1=O)CC[NH+](Cc1ccc(Cl)c(F)c1)CC2)OCCOC(=O)c1ccc(-c2c3nc(c(-c4c(F)cccc4F)c4ccc([nH]4)c(-c4c(F)cccc4F)c4nc(c(-c5c(F)cccc5F)c5ccc2[nH]5)C=C4)C=C3)cc1
REMARK SMILES IDX 26 1 25 2 2 3 1 4 3 5 4 6 5 7 9 8 6 9 8 10 10 11 7 12 11 13
REMARK SMILES IDX 24 14 12 15 23 16 13 17 14 19 15 20 16 21 22 22 17 23 20 24
REMARK SMILES IDX 18 25 21 26 19 27 27 28 28 29 29 30 30 31 31 32 32 33 84 34
REMARK SMILES IDX 33 35 83 36 34 37 35 38 36 39 77 40 37 41 82 42 76 43 78 44
REMARK SMILES IDX 38 45 81 46 75 47 74 48 39 50 65 51 48 52 64 53 49 54 52 55
REMARK SMILES IDX 63 56 79 57 50 58 51 59 62 61 80 62 53 63 40 64 41 65 46 66
REMARK SMILES IDX 42 67 43 68 45 69 47 70 44 71 66 72 67 73 72 74 68 75 69 76
REMARK SMILES IDX 71 77 73 78 70 79 54 80 55 81 60 82 56 83 57 84 59 85 61 86
REMARK SMILES IDX 58 87
REMARK H PARENT 13 18 78 49 52 60
REMARK Flexibility Score: inf
ROOT
ATOM      1  C   UNL A   1      32.319  28.593  25.419  1.00  0.00     0.274 C 
ENDROOT
BRANCH   1   2
ATOM      2  O   UNL A   1      31.621  27.776  26.381  1.00  0.00    -0.461 OA
BRANCH   2   3
ATOM      3  C   UNL A   1      31.153  26.528  26.128  1.00  0.00     0.325 C 
ATOM      4  O   UNL A   1      31.458  25.597  26.873  1.00  0.00    -0.250 OA
BRANCH   3   5
ATOM      5  C   UNL A   1      30.139  26.345  25.000  1.00  0.00     0.242 C 
BRANCH   5   6
ATOM      6  N   UNL A   1      30.730  25.996  23.718  1.00  0.00    -0.331 N 
ATOM      7  C   UNL A   1      31.224  24.644  23.493  1.00  0.00     0.127 C 
ATOM      8  C   UNL A   1      30.705  26.946  22.711  1.00  0.00     0.223 C 
ATOM      9  C   UNL A   1      32.586  24.685  22.798  1.00  0.00    -0.001 C 
ATOM     10  C   UNL A   1      31.732  26.793  21.609  1.00  0.00     0.101 C 
ATOM     11  O   UNL A   1      29.990  27.947  22.764  1.00  0.00    -0.275 OA
ATOM     12  C   UNL A   1      32.338  25.407  21.452  1.00  0.00     0.019 C 
ATOM     13  C   UNL A   1      33.602  25.457  23.673  1.00  0.00     0.070 C 
ATOM     14  C   UNL A   1      33.093  23.257  22.494  1.00  0.00     0.070 C 
ATOM     15  C   UNL A   1      34.196  24.633  24.819  1.00  0.00     0.263 C 
ATOM     16  C   UNL A   1      33.773  22.545  23.666  1.00  0.00     0.263 C 
ATOM     17  N   UNL A   1      34.736  23.345  24.408  1.00  0.00    -0.331 N 
ATOM     18  H   UNL A   1      34.866  22.815  25.268  1.00  0.00     0.348 HD
BRANCH  17  19
ATOM     19  C   UNL A   1      36.134  23.332  23.964  1.00  0.00     0.299 C 
BRANCH  19  20
ATOM     20  C   UNL A   1      37.176  22.991  25.008  1.00  0.00     0.009 A 
ATOM     21  C   UNL A   1      37.789  21.730  25.020  1.00  0.00     0.011 A 
ATOM     22  C   UNL A   1      37.615  23.963  25.921  1.00  0.00     0.050 A 
ATOM     23  C   UNL A   1      38.902  21.487  25.829  1.00  0.00     0.024 A 
ATOM     24  C   UNL A   1      38.736  23.722  26.713  1.00  0.00     0.142 A 
ATOM     25  C   UNL A   1      39.395  22.498  26.652  1.00  0.00     0.076 A 
ATOM     26  F   UNL A   1      39.206  24.717  27.480  1.00  0.00    -0.205 F 
ATOM     27  Cl  UNL A   1      40.842  22.232  27.544  1.00  0.00    -0.081 Cl
ENDBRANCH  19  20
ENDBRANCH  17  19
ENDBRANCH   5   6
ENDBRANCH   3   5
ENDBRANCH   2   3
ENDBRANCH   1   2
BRANCH   1  28
ATOM     28  C   UNL A   1      32.042  30.075  25.668  1.00  0.00     0.275 C 
BRANCH  28  29
ATOM     29  O   UNL A   1      32.311  30.397  27.045  1.00  0.00    -0.458 OA
BRANCH  29  30
ATOM     30  C   UNL A   1      32.901  31.604  27.270  1.00  0.00     0.338 C 
ATOM     31  O   UNL A   1      32.366  32.688  27.242  1.00  0.00    -0.246 OA
BRANCH  30  32
ATOM     32  C   UNL A   1      34.279  31.366  27.774  1.00  0.00     0.060 A 
ATOM     33  C   UNL A   1      34.667  30.047  28.052  1.00  0.00     0.016 A 
ATOM     34  C   UNL A   1      35.199  32.410  27.914  1.00  0.00     0.016 A 
ATOM     35  C   UNL A   1      35.955  29.776  28.520  1.00  0.00     0.010 A 
ATOM     36  C   UNL A   1      36.484  32.142  28.387  1.00  0.00     0.010 A 
ATOM     37  C   UNL A   1      36.852  30.832  28.735  1.00  0.00    -0.014 A 
BRANCH  37  38
ATOM     38  C   UNL A   1      38.054  30.637  29.580  1.00  0.00     0.031 A 
ATOM     39  C   UNL A   1      39.160  29.786  29.015  1.00  0.00     0.074 A 
ATOM     40  C   UNL A   1      38.155  31.140  30.821  1.00  0.00     0.049 A 
ATOM     41  N   UNL A   1      40.256  29.354  29.582  1.00  0.00    -0.248 NA
ATOM     42  C   UNL A   1      38.991  29.349  27.618  1.00  0.00     0.031 C 
ATOM     43  C   UNL A   1      37.165  31.988  31.480  1.00  0.00     0.029 A 
ATOM     44  N   UNL A   1      39.146  30.980  31.759  1.00  0.00    -0.354 N 
ATOM     45  C   UNL A   1      40.896  28.587  28.618  1.00  0.00     0.074 A 
ATOM     46  C   UNL A   1      40.060  28.591  27.439  1.00  0.00     0.031 C 
ATOM     47  C   UNL A   1      37.594  32.265  32.725  1.00  0.00     0.029 A 
ATOM     48  C   UNL A   1      38.868  31.584  32.960  1.00  0.00     0.049 A 
ATOM     49  H   UNL A   1      39.975  30.480  31.586  1.00  0.00     0.167 HD
ATOM     50  C   UNL A   1      42.078  27.935  28.702  1.00  0.00     0.037 A 
ATOM     51  C   UNL A   1      39.555  31.562  34.119  1.00  0.00     0.037 A 
ATOM     52  C   UNL A   1      42.907  27.914  29.872  1.00  0.00     0.049 A 
ATOM     53  C   UNL A   1      40.844  30.785  34.210  1.00  0.00     0.074 A 
ATOM     54  C   UNL A   1      44.128  27.288  30.056  1.00  0.00     0.029 A 
ATOM     55  N   UNL A   1      42.594  28.546  31.066  1.00  0.00    -0.354 N 
ATOM     56  N   UNL A   1      41.458  30.084  33.286  1.00  0.00    -0.248 NA
ATOM     57  C   UNL A   1      41.534  30.791  35.510  1.00  0.00     0.031 C 
ATOM     58  C   UNL A   1      44.536  27.512  31.375  1.00  0.00     0.029 A 
ATOM     59  C   UNL A   1      43.588  28.311  31.998  1.00  0.00     0.049 A 
ATOM     60  H   UNL A   1      41.783  29.082  31.227  1.00  0.00     0.167 HD
ATOM     61  C   UNL A   1      42.615  29.596  33.882  1.00  0.00     0.074 A 
ATOM     62  C   UNL A   1      42.620  30.078  35.246  1.00  0.00     0.031 C 
ATOM     63  C   UNL A   1      43.587  28.818  33.345  1.00  0.00     0.037 A 
BRANCH  50  64
ATOM     64  C   UNL A   1      42.512  27.166  27.492  1.00  0.00     0.057 A 
ATOM     65  C   UNL A   1      43.072  27.803  26.377  1.00  0.00     0.134 A 
ATOM     66  C   UNL A   1      42.346  25.777  27.433  1.00  0.00     0.134 A 
ATOM     67  F   UNL A   1      43.233  29.135  26.365  1.00  0.00    -0.206 F 
ATOM     68  C   UNL A   1      43.428  27.087  25.234  1.00  0.00     0.040 A 
ATOM     69  C   UNL A   1      42.720  25.048  26.304  1.00  0.00     0.040 A 
ATOM     70  F   UNL A   1      41.811  25.110  28.466  1.00  0.00    -0.206 F 
ATOM     71  C   UNL A   1      43.255  25.705  25.197  1.00  0.00     0.006 A 
ENDBRANCH  50  64
BRANCH  51  72
ATOM     72  C   UNL A   1      39.038  32.291  35.304  1.00  0.00     0.057 A 
ATOM     73  C   UNL A   1      39.310  33.652  35.489  1.00  0.00     0.134 A 
ATOM     74  C   UNL A   1      38.291  31.642  36.293  1.00  0.00     0.134 A 
ATOM     75  F   UNL A   1      40.049  34.320  34.590  1.00  0.00    -0.206 F 
ATOM     76  C   UNL A   1      38.866  34.339  36.620  1.00  0.00     0.040 A 
ATOM     77  C   UNL A   1      37.823  32.322  37.420  1.00  0.00     0.040 A 
ATOM     78  F   UNL A   1      38.007  30.336  36.180  1.00  0.00    -0.206 F 
ATOM     79  C   UNL A   1      38.116  33.674  37.587  1.00  0.00     0.006 A 
ENDBRANCH  51  72
BRANCH  63  80
ATOM     80  C   UNL A   1      44.764  28.478  34.210  1.00  0.00     0.057 A 
ATOM     81  C   UNL A   1      45.891  29.305  34.285  1.00  0.00     0.134 A 
ATOM     82  C   UNL A   1      44.733  27.347  35.036  1.00  0.00     0.134 A 
ATOM     83  F   UNL A   1      45.984  30.398  33.514  1.00  0.00    -0.206 F 
ATOM     84  C   UNL A   1      46.950  29.013  35.145  1.00  0.00     0.040 A 
ATOM     85  C   UNL A   1      45.777  27.055  35.915  1.00  0.00     0.040 A 
ATOM     86  F   UNL A   1      43.676  26.520  35.019  1.00  0.00    -0.206 F 
ATOM     87  C   UNL A   1      46.891  27.890  35.969  1.00  0.00     0.006 A 
ENDBRANCH  63  80
ENDBRANCH  37  38
ENDBRANCH  30  32
ENDBRANCH  29  30
ENDBRANCH  28  29
ENDBRANCH   1  28
TORSDOF 14
ENDMDL
MODEL 2
REMARK VINA RESULT:     -11.9      1.780      2.673
REMARK SMILES O=C(CN1CC2(CCC1=O)CC[NH+](Cc1ccc(Cl)c(F)c1)CC2)OCCOC(=O)c1ccc(-c2c3nc(c(-c4c(F)cccc4F)c4ccc([nH]4)c(-c4c(F)cccc4F)c4nc(c(-c5c(F)cccc5F)c5ccc2[nH]5)C=C4)C=C3)cc1
REMARK SMILES IDX 26 1 25 2 2 3 1 4 3 5 4 6 5 7 9 8 6 9 8 10 10 11 7 12 11 13
REMARK SMILES IDX 24 14 12 15 23 16 13 17 14 19 15 20 16 21 22 22 17 23 20 24
REMARK SMILES IDX 18 25 21 26 19 27 27 28 28 29 29 30 30 31 31 32 32 33 84 34
REMARK SMILES IDX 33 35 83 36 34 37 35 38 36 39 77 40 37 41 82 42 76 43 78 44
REMARK SMILES IDX 38 45 81 46 75 47 74 48 39 50 65 51 48 52 64 53 49 54 52 55
REMARK SMILES IDX 63 56 79 57 50 58 51 59 62 61 80 62 53 63 40 64 41 65 46 66
REMARK SMILES IDX 42 67 43 68 45 69 47 70 44 71 66 72 67 73 72 74 68 75 69 76
REMARK SMILES IDX 71 77 73 78 70 79 54 80 55 81 60 82 56 83 57 84 59 85 61 86
REMARK SMILES IDX 58 87
REMARK H PARENT 13 18 78 49 52 60
REMARK Flexibility Score: inf
ROOT
ATOM      1  C   UNL A   1      31.073  30.633  25.486  1.00  0.00     0.274 C 
ENDROOT
BRANCH   1   2
ATOM      2  O   UNL A   1      31.978  29.635  26.004  1.00  0.00    -0.461 OA
BRANCH   2   3
ATOM      3  C   UNL A   1      33.071  29.178  25.343  1.00  0.00     0.325 C 
ATOM      4  O   UNL A   1      33.989  28.651  25.971  1.00  0.00    -0.250 OA
BRANCH   3   5
ATOM      5  C   UNL A   1      33.064  29.205  23.816  1.00  0.00     0.242 C 
BRANCH   5   6
ATOM      6  N   UNL A   1      32.635  27.959  23.201  1.00  0.00    -0.331 N 
ATOM      7  C   UNL A   1      31.396  27.327  23.634  1.00  0.00     0.127 C 
ATOM      8  C   UNL A   1      33.377  27.470  22.139  1.00  0.00     0.223 C 
ATOM      9  C   UNL A   1      31.600  25.821  23.807  1.00  0.00    -0.001 C 
ATOM     10  C   UNL A   1      33.258  25.987  21.854  1.00  0.00     0.101 C 
ATOM     11  O   UNL A   1      34.203  28.156  21.538  1.00  0.00    -0.275 OA
ATOM     12  C   UNL A   1      32.020  25.300  22.412  1.00  0.00     0.019 C 
ATOM     13  C   UNL A   1      32.701  25.556  24.862  1.00  0.00     0.070 C 
ATOM     14  C   UNL A   1      30.278  25.127  24.204  1.00  0.00     0.070 C 
ATOM     15  C   UNL A   1      32.222  25.672  26.312  1.00  0.00     0.263 C 
ATOM     16  C   UNL A   1      29.928  25.197  25.693  1.00  0.00     0.263 C 
ATOM     17  N   UNL A   1      31.022  24.900  26.605  1.00  0.00    -0.331 N 
ATOM     18  H   UNL A   1      30.682  25.251  27.499  1.00  0.00     0.348 HD
BRANCH  17  19
ATOM     19  C   UNL A   1      31.224  23.505  27.013  1.00  0.00     0.299 C 
BRANCH  19  20
ATOM     20  C   UNL A   1      32.380  22.769  26.371  1.00  0.00     0.009 A 
ATOM     21  C   UNL A   1      33.616  22.672  27.025  1.00  0.00     0.011 A 
ATOM     22  C   UNL A   1      32.205  22.090  25.154  1.00  0.00     0.050 A 
ATOM     23  C   UNL A   1      34.608  21.811  26.548  1.00  0.00     0.024 A 
ATOM     24  C   UNL A   1      33.190  21.219  24.692  1.00  0.00     0.142 A 
ATOM     25  C   UNL A   1      34.379  21.058  25.397  1.00  0.00     0.076 A 
ATOM     26  F   UNL A   1      32.938  20.489  23.595  1.00  0.00    -0.205 F 
ATOM     27  Cl  UNL A   1      35.552  19.905  24.893  1.00  0.00    -0.081 Cl
ENDBRANCH  19  20
ENDBRANCH  17  19
ENDBRANCH   5   6
ENDBRANCH   3   5
ENDBRANCH   2   3
ENDBRANCH   1   2
BRANCH   1  28
ATOM     28  C   UNL A   1      31.299  31.976  26.178  1.00  0.00     0.275 C 
BRANCH  28  29
ATOM     29  O   UNL A   1      32.212  31.811  27.278  1.00  0.00    -0.458 OA
BRANCH  29  30
ATOM     30  C   UNL A   1      32.971  32.899  27.591  1.00  0.00     0.338 C 
ATOM     31  O   UNL A   1      32.603  34.049  27.636  1.00  0.00    -0.246 OA
BRANCH  30  32
ATOM     32  C   UNL A   1      34.291  32.424  28.085  1.00  0.00     0.060 A 
ATOM     33  C   UNL A   1      34.448  31.055  28.348  1.00  0.00     0.016 A 
ATOM     34  C   UNL A   1      35.376  33.295  28.228  1.00  0.00     0.016 A 
ATOM     35  C   UNL A   1      35.674  30.565  28.806  1.00  0.00     0.010 A 
ATOM     36  C   UNL A   1      36.598  32.807  28.691  1.00  0.00     0.010 A 
ATOM     37  C   UNL A   1      36.739  31.449  29.025  1.00  0.00    -0.014 A 
BRANCH  37  38
ATOM     38  C   UNL A   1      37.893  31.044  29.861  1.00  0.00     0.031 A 
ATOM     39  C   UNL A   1      38.873  30.075  29.256  1.00  0.00     0.074 A 
ATOM     40  C   UNL A   1      38.053  31.464  31.127  1.00  0.00     0.049 A 
ATOM     41  N   UNL A   1      39.892  29.464  29.802  1.00  0.00    -0.248 NA
ATOM     42  C   UNL A   1      38.657  29.737  27.837  1.00  0.00     0.031 C 
ATOM     43  C   UNL A   1      37.187  32.409  31.826  1.00  0.00     0.029 A 
ATOM     44  N   UNL A   1      39.003  31.118  32.057  1.00  0.00    -0.354 N 
ATOM     45  C   UNL A   1      40.427  28.664  28.800  1.00  0.00     0.074 A 
ATOM     46  C   UNL A   1      39.610  28.847  27.622  1.00  0.00     0.031 C 
ATOM     47  C   UNL A   1      37.639  32.559  33.086  1.00  0.00     0.029 A 
ATOM     48  C   UNL A   1      38.802  31.694  33.287  1.00  0.00     0.049 A 
ATOM     49  H   UNL A   1      39.755  30.515  31.860  1.00  0.00     0.167 HD
ATOM     50  C   UNL A   1      41.504  27.848  28.853  1.00  0.00     0.037 A 
ATOM     51  C   UNL A   1      39.469  31.516  34.445  1.00  0.00     0.037 A 
ATOM     52  C   UNL A   1      42.311  27.651  30.022  1.00  0.00     0.049 A 
ATOM     53  C   UNL A   1      40.634  30.561  34.498  1.00  0.00     0.074 A 
ATOM     54  C   UNL A   1      43.429  26.851  30.176  1.00  0.00     0.029 A 
ATOM     55  N   UNL A   1      42.079  28.259  31.246  1.00  0.00    -0.354 N 
ATOM     56  N   UNL A   1      41.151  29.829  33.540  1.00  0.00    -0.248 NA
ATOM     57  C   UNL A   1      41.306  30.404  35.798  1.00  0.00     0.031 C 
ATOM     58  C   UNL A   1      43.853  26.947  31.505  1.00  0.00     0.029 A 
ATOM     59  C   UNL A   1      43.022  27.839  32.167  1.00  0.00     0.049 A 
ATOM     60  H   UNL A   1      41.351  28.896  31.433  1.00  0.00     0.167 HD
ATOM     61  C   UNL A   1      42.223  29.152  34.112  1.00  0.00     0.074 A 
ATOM     62  C   UNL A   1      42.284  29.559  35.500  1.00  0.00     0.031 C 
ATOM     63  C   UNL A   1      43.080  28.272  33.538  1.00  0.00     0.037 A 
BRANCH  50  64
ATOM     64  C   UNL A   1      41.836  27.089  27.606  1.00  0.00     0.057 A 
ATOM     65  C   UNL A   1      42.659  27.631  26.611  1.00  0.00     0.134 A 
ATOM     66  C   UNL A   1      41.309  25.810  27.389  1.00  0.00     0.134 A 
ATOM     67  F   UNL A   1      43.174  28.862  26.750  1.00  0.00    -0.206 F 
ATOM     68  C   UNL A   1      42.924  26.938  25.429  1.00  0.00     0.040 A 
ATOM     69  C   UNL A   1      41.586  25.098  26.221  1.00  0.00     0.040 A 
ATOM     70  F   UNL A   1      40.509  25.238  28.302  1.00  0.00    -0.206 F 
ATOM     71  C   UNL A   1      42.389  25.666  25.234  1.00  0.00     0.006 A 
ENDBRANCH  50  64
BRANCH  51  72
ATOM     72  C   UNL A   1      39.049  32.250  35.665  1.00  0.00     0.057 A 
ATOM     73  C   UNL A   1      38.234  31.642  36.628  1.00  0.00     0.134 A 
ATOM     74  C   UNL A   1      39.423  33.581  35.883  1.00  0.00     0.134 A 
ATOM     75  F   UNL A   1      37.817  30.378  36.457  1.00  0.00    -0.206 F 
ATOM     76  C   UNL A   1      37.797  32.334  37.758  1.00  0.00     0.040 A 
ATOM     77  C   UNL A   1      39.010  34.279  37.020  1.00  0.00     0.040 A 
ATOM     78  F   UNL A   1      40.193  34.223  34.993  1.00  0.00    -0.206 F 
ATOM     79  C   UNL A   1      38.189  33.656  37.958  1.00  0.00     0.006 A 
ENDBRANCH  51  72
BRANCH  63  80
ATOM     80  C   UNL A   1      44.189  27.726  34.387  1.00  0.00     0.057 A 
ATOM     81  C   UNL A   1      45.400  28.408  34.551  1.00  0.00     0.134 A 
ATOM     82  C   UNL A   1      44.010  26.539  35.109  1.00  0.00     0.134 A 
ATOM     83  F   UNL A   1      45.636  29.546  33.881  1.00  0.00    -0.206 F 
ATOM     84  C   UNL A   1      46.398  27.923  35.397  1.00  0.00     0.040 A 
ATOM     85  C   UNL A   1      44.992  26.055  35.973  1.00  0.00     0.040 A 
ATOM     86  F   UNL A   1      42.867  25.844  35.003  1.00  0.00    -0.206 F 
ATOM     87  C   UNL A   1      46.192  26.748  36.118  1.00  0.00     0.006 A 
ENDBRANCH  63  80
ENDBRANCH  37  38
ENDBRANCH  30  32
ENDBRANCH  29  30
ENDBRANCH  28  29
ENDBRANCH   1  28
TORSDOF 14
ENDMDL
MODEL 3
REMARK VINA RESULT:     -11.8      1.251      6.285
REMARK SMILES O=C(CN1CC2(CCC1=O)CC[NH+](Cc1ccc(Cl)c(F)c1)CC2)OCCOC(=O)c1ccc(-c2c3nc(c(-c4c(F)cccc4F)c4ccc([nH]4)c(-c4c(F)cccc4F)c4nc(c(-c5c(F)cccc5F)c5ccc2[nH]5)C=C4)C=C3)cc1
REMARK SMILES IDX 26 1 25 2 2 3 1 4 3 5 4 6 5 7 9 8 6 9 8 10 10 11 7 12 11 13
REMARK SMILES IDX 24 14 12 15 23 16 13 17 14 19 15 20 16 21 22 22 17 23 20 24
REMARK SMILES IDX 18 25 21 26 19 27 27 28 28 29 29 30 30 31 31 32 32 33 84 34
REMARK SMILES IDX 33 35 83 36 34 37 35 38 36 39 77 40 37 41 82 42 76 43 78 44
REMARK SMILES IDX 38 45 81 46 75 47 74 48 39 50 65 51 48 52 64 53 49 54 52 55
REMARK SMILES IDX 63 56 79 57 50 58 51 59 62 61 80 62 53 63 40 64 41 65 46 66
REMARK SMILES IDX 42 67 43 68 45 69 47 70 44 71 66 72 67 73 72 74 68 75 69 76
REMARK SMILES IDX 71 77 73 78 70 79 54 80 55 81 60 82 56 83 57 84 59 85 61 86
REMARK SMILES IDX 58 87
REMARK H PARENT 13 18 78 49 52 60
REMARK Flexibility Score: inf
ROOT
ATOM      1  C   UNL A   1      31.605  31.725  26.690  1.00  0.00     0.274 C 
ENDROOT
BRANCH   1   2
ATOM      2  O   UNL A   1      32.780  30.903  26.534  1.00  0.00    -0.461 OA
BRANCH   2   3
ATOM      3  C   UNL A   1      32.762  29.622  26.088  1.00  0.00     0.325 C 
ATOM      4  O   UNL A   1      33.787  29.119  25.629  1.00  0.00    -0.250 OA
BRANCH   3   5
ATOM      5  C   UNL A   1      31.498  28.791  26.306  1.00  0.00     0.242 C 
BRANCH   5   6
ATOM      6  N   UNL A   1      31.181  27.891  25.210  1.00  0.00    -0.331 N 
ATOM      7  C   UNL A   1      31.207  26.450  25.426  1.00  0.00     0.127 C 
ATOM      8  C   UNL A   1      30.757  28.446  24.014  1.00  0.00     0.223 C 
ATOM      9  C   UNL A   1      31.912  25.751  24.262  1.00  0.00    -0.001 C 
ATOM     10  C   UNL A   1      30.928  27.595  22.773  1.00  0.00     0.101 C 
ATOM     11  O   UNL A   1      30.393  29.618  23.922  1.00  0.00    -0.275 OA
ATOM     12  C   UNL A   1      31.078  26.099  23.008  1.00  0.00     0.019 C 
ATOM     13  C   UNL A   1      33.365  26.272  24.136  1.00  0.00     0.070 C 
ATOM     14  C   UNL A   1      31.892  24.217  24.446  1.00  0.00     0.070 C 
ATOM     15  C   UNL A   1      34.347  25.642  25.127  1.00  0.00     0.263 C 
ATOM     16  C   UNL A   1      32.978  23.658  25.370  1.00  0.00     0.263 C 
ATOM     17  N   UNL A   1      34.316  24.186  25.150  1.00  0.00    -0.331 N 
ATOM     18  H   UNL A   1      34.815  23.915  25.996  1.00  0.00     0.348 HD
BRANCH  17  19
ATOM     19  C   UNL A   1      35.183  23.497  24.189  1.00  0.00     0.299 C 
BRANCH  19  20
ATOM     20  C   UNL A   1      36.525  23.022  24.703  1.00  0.00     0.009 A 
ATOM     21  C   UNL A   1      37.325  23.861  25.491  1.00  0.00     0.011 A 
ATOM     22  C   UNL A   1      36.947  21.701  24.481  1.00  0.00     0.050 A 
ATOM     23  C   UNL A   1      38.450  23.358  26.152  1.00  0.00     0.024 A 
ATOM     24  C   UNL A   1      38.058  21.200  25.156  1.00  0.00     0.142 A 
ATOM     25  C   UNL A   1      38.795  22.015  26.009  1.00  0.00     0.076 A 
ATOM     26  F   UNL A   1      38.358  19.899  25.020  1.00  0.00    -0.205 F 
ATOM     27  Cl  UNL A   1      40.101  21.375  26.929  1.00  0.00    -0.081 Cl
ENDBRANCH  19  20
ENDBRANCH  17  19
ENDBRANCH   5   6
ENDBRANCH   3   5
ENDBRANCH   2   3
ENDBRANCH   1   2
BRANCH   1  28
ATOM     28  C   UNL A   1      31.990  33.200  26.799  1.00  0.00     0.275 C 
BRANCH  28  29
ATOM     29  O   UNL A   1      32.417  33.494  28.142  1.00  0.00    -0.458 OA
BRANCH  29  30
ATOM     30  C   UNL A   1      33.537  34.260  28.256  1.00  0.00     0.338 C 
ATOM     31  O   UNL A   1      33.590  35.467  28.279  1.00  0.00    -0.246 OA
BRANCH  30  32
ATOM     32  C   UNL A   1      34.686  33.369  28.569  1.00  0.00     0.060 A 
ATOM     33  C   UNL A   1      34.417  32.038  28.922  1.00  0.00     0.016 A 
ATOM     34  C   UNL A   1      36.008  33.811  28.457  1.00  0.00     0.016 A 
ATOM     35  C   UNL A   1      35.467  31.164  29.216  1.00  0.00     0.010 A 
ATOM     36  C   UNL A   1      37.056  32.940  28.757  1.00  0.00     0.010 A 
ATOM     37  C   UNL A   1      36.788  31.628  29.181  1.00  0.00    -0.014 A 
BRANCH  37  38
ATOM     38  C   UNL A   1      37.870  30.868  29.851  1.00  0.00     0.031 A 
ATOM     39  C   UNL A   1      38.140  31.185  31.297  1.00  0.00     0.074 A 
ATOM     40  C   UNL A   1      38.629  29.969  29.203  1.00  0.00     0.049 A 
ATOM     41  N   UNL A   1      39.098  30.766  32.081  1.00  0.00    -0.248 NA
ATOM     42  C   UNL A   1      37.203  32.124  31.939  1.00  0.00     0.031 C 
ATOM     43  C   UNL A   1      38.466  29.560  27.811  1.00  0.00     0.029 A 
ATOM     44  N   UNL A   1      39.716  29.253  29.644  1.00  0.00    -0.354 N 
ATOM     45  C   UNL A   1      38.885  31.398  33.300  1.00  0.00     0.074 A 
ATOM     46  C   UNL A   1      37.725  32.246  33.148  1.00  0.00     0.031 C 
ATOM     47  C   UNL A   1      39.431  28.672  27.505  1.00  0.00     0.029 A 
ATOM     48  C   UNL A   1      40.297  28.480  28.669  1.00  0.00     0.049 A 
ATOM     49  H   UNL A   1      40.047  29.291  30.569  1.00  0.00     0.167 HD
ATOM     50  C   UNL A   1      39.592  31.284  34.448  1.00  0.00     0.037 A 
ATOM     51  C   UNL A   1      41.414  27.727  28.712  1.00  0.00     0.037 A 
ATOM     52  C   UNL A   1      40.752  30.455  34.603  1.00  0.00     0.049 A 
ATOM     53  C   UNL A   1      42.219  27.655  29.985  1.00  0.00     0.074 A 
ATOM     54  C   UNL A   1      41.534  30.265  35.728  1.00  0.00     0.029 A 
ATOM     55  N   UNL A   1      41.302  29.681  33.593  1.00  0.00    -0.354 N 
ATOM     56  N   UNL A   1      41.996  28.234  31.141  1.00  0.00    -0.248 NA
ATOM     57  C   UNL A   1      43.435  26.828  29.957  1.00  0.00     0.031 C 
ATOM     58  C   UNL A   1      42.581  29.402  35.388  1.00  0.00     0.029 A 
ATOM     59  C   UNL A   1      42.425  29.024  34.063  1.00  0.00     0.049 A 
ATOM     60  H   UNL A   1      40.947  29.610  32.677  1.00  0.00     0.167 HD
ATOM     61  C   UNL A   1      43.023  27.817  31.981  1.00  0.00     0.074 A 
ATOM     62  C   UNL A   1      43.870  26.937  31.204  1.00  0.00     0.031 C 
ATOM     63  C   UNL A   1      43.243  28.135  33.281  1.00  0.00     0.037 A 
BRANCH  50  64
ATOM     64  C   UNL A   1      39.131  32.111  35.608  1.00  0.00     0.057 A 
ATOM     65  C   UNL A   1      39.549  33.436  35.781  1.00  0.00     0.134 A 
ATOM     66  C   UNL A   1      38.277  31.567  36.575  1.00  0.00     0.134 A 
ATOM     67  F   UNL A   1      40.388  34.004  34.900  1.00  0.00    -0.206 F 
ATOM     68  C   UNL A   1      39.156  34.184  36.890  1.00  0.00     0.040 A 
ATOM     69  C   UNL A   1      37.858  32.314  37.677  1.00  0.00     0.040 A 
ATOM     70  F   UNL A   1      37.845  30.302  36.470  1.00  0.00    -0.206 F 
ATOM     71  C   UNL A   1      38.305  33.624  37.840  1.00  0.00     0.006 A 
ENDBRANCH  50  64
BRANCH  51  72
ATOM     72  C   UNL A   1      41.855  26.982  27.507  1.00  0.00     0.057 A 
ATOM     73  C   UNL A   1      41.426  25.670  27.272  1.00  0.00     0.134 A 
ATOM     74  C   UNL A   1      42.739  27.548  26.580  1.00  0.00     0.134 A 
ATOM     75  F   UNL A   1      40.605  25.064  28.142  1.00  0.00    -0.206 F 
ATOM     76  C   UNL A   1      41.868  24.943  26.165  1.00  0.00     0.040 A 
ATOM     77  C   UNL A   1      43.172  26.840  25.457  1.00  0.00     0.040 A 
ATOM     78  F   UNL A   1      43.195  28.797  26.754  1.00  0.00    -0.206 F 
ATOM     79  C   UNL A   1      42.740  25.531  25.251  1.00  0.00     0.006 A 
ENDBRANCH  51  72
BRANCH  63  80
ATOM     80  C   UNL A   1      44.413  27.493  33.966  1.00  0.00     0.057 A 
ATOM     81  C   UNL A   1      45.659  28.125  34.051  1.00  0.00     0.134 A 
ATOM     82  C   UNL A   1      44.264  26.261  34.616  1.00  0.00     0.134 A 
ATOM     83  F   UNL A   1      45.866  29.303  33.443  1.00  0.00    -0.206 F 
ATOM     84  C   UNL A   1      46.720  27.548  34.750  1.00  0.00     0.040 A 
ATOM     85  C   UNL A   1      45.312  25.684  35.334  1.00  0.00     0.040 A 
ATOM     86  F   UNL A   1      43.091  25.610  34.581  1.00  0.00    -0.206 F 
ATOM     87  C   UNL A   1      46.545  26.328  35.402  1.00  0.00     0.006 A 
ENDBRANCH  63  80
ENDBRANCH  37  38
ENDBRANCH  30  32
ENDBRANCH  29  30
ENDBRANCH  28  29
ENDBRANCH   1  28
TORSDOF 14
ENDMDL
