MODEL 1
REMARK VINA RESULT:     -16.8      0.000      0.000
REMARK SMILES Cc1ccccc1/C=C1\SC(=O)N(CC(=O)Nc2ccccc2C(=O)OCCOC(=O)c2ccc(-c3c4nc(c(-c5c(F)cccc5F)c5ccc([nH]5)c(-c5c(F)cccc5F)c5nc(c(-c6c(F)cccc6F)c6ccc3[nH]6)C=C5)C=C4)cc2)C1=O
REMARK SMILES IDX 27 1 26 2 24 3 25 4 23 5 18 6 19 7 20 8 22 9 21 10 17 11
REMARK SMILES IDX 15 12 16 13 14 15 13 16 8 17 9 18 10 19 86 20 11 21 87 22
REMARK SMILES IDX 12 23 7 24 1 25 2 26 3 27 4 28 6 29 5 30 28 31 29 32 30 33
REMARK SMILES IDX 31 34 32 35 33 36 85 37 34 38 84 39 35 40 36 41 37 42 78 43
REMARK SMILES IDX 38 44 83 45 77 46 79 47 39 48 82 49 76 50 75 51 40 53 66 54
REMARK SMILES IDX 49 55 65 56 50 57 53 58 64 59 80 60 51 61 52 62 63 64 81 65
REMARK SMILES IDX 54 66 41 67 42 68 47 69 43 70 44 71 46 72 48 73 45 74 67 75
REMARK SMILES IDX 68 76 73 77 69 78 70 79 72 80 74 81 71 82 55 83 56 84 61 85
REMARK SMILES IDX 57 86 58 87 60 88 62 89 59 90
REMARK H PARENT 17 14 79 52 53 63
REMARK Flexibility Score: inf
ROOT
ATOM      1  C   UNL A   1      33.361  29.385  27.199  1.00  0.00     0.275 C 
ENDROOT
BRANCH   1   2
ATOM      2  O   UNL A   1      31.903  30.795  26.833  1.00  0.00    -0.458 OA
BRANCH   2   3
ATOM      3  C   UNL A   1      30.926  31.470  25.775  1.00  0.00     0.340 C 
ATOM      4  O   UNL A   1      31.247  32.608  26.249  1.00  0.00    -0.246 OA
BRANCH   3   5
ATOM      5  C   UNL A   1      29.613  31.068  24.107  1.00  0.00     0.083 A 
ATOM      6  C   UNL A   1      30.182  30.265  22.665  1.00  0.00     0.055 A 
ATOM      7  C   UNL A   1      29.395  30.068  21.518  1.00  0.00     0.027 A 
ATOM      8  C   UNL A   1      28.060  30.464  21.533  1.00  0.00     0.002 A 
ATOM      9  C   UNL A   1      28.189  31.369  23.841  1.00  0.00     0.018 A 
ATOM     10  C   UNL A   1      27.482  31.075  22.649  1.00  0.00     0.001 A 
BRANCH   6  11
ATOM     11  N   UNL A   1      31.745  29.586  22.459  1.00  0.00    -0.324 N 
ATOM     12  C   UNL A   1      32.578  28.406  23.121  1.00  0.00     0.244 C 
ATOM     13  O   UNL A   1      33.723  28.300  22.638  1.00  0.00    -0.273 OA
ATOM     14  H   UNL A   1      32.255  30.044  21.752  1.00  0.00     0.170 HD
BRANCH  12  15
ATOM     15  C   UNL A   1      31.968  26.946  24.194  1.00  0.00     0.230 C 
BRANCH  15  16
ATOM     16  N   UNL A   1      32.644  25.416  24.830  1.00  0.00    -0.259 N 
ATOM     17  C   UNL A   1      36.138  23.035  23.903  1.00  0.00     0.029 C 
ATOM     18  C   UNL A   1      34.906  23.424  24.311  1.00  0.00     0.083 C 
ATOM     19  S   UNL A   1      34.262  22.713  26.282  1.00  0.00    -0.022 SA
ATOM     20  C   UNL A   1      33.854  24.889  23.628  1.00  0.00     0.268 C 
ATOM     21  C   UNL A   1      32.561  24.277  26.387  1.00  0.00     0.294 C 
ATOM     22  O   UNL A   1      33.907  25.311  22.477  1.00  0.00    -0.268 OA
ATOM     23  O   UNL A   1      31.817  23.925  27.294  1.00  0.00    -0.261 OA
BRANCH  17  24
ATOM     24  C   UNL A   1      37.100  22.167  24.653  1.00  0.00    -0.021 A 
ATOM     25  C   UNL A   1      38.060  24.016  26.133  1.00  0.00     0.045 C 
ATOM     26  C   UNL A   1      38.018  22.607  25.621  1.00  0.00    -0.044 A 
ATOM     27  C   UNL A   1      38.971  21.704  26.154  1.00  0.00     0.004 A 
ATOM     28  C   UNL A   1      38.971  20.354  25.814  1.00  0.00     0.000 A 
ATOM     29  C   UNL A   1      37.102  20.789  24.370  1.00  0.00     0.008 A 
ATOM     30  C   UNL A   1      38.007  19.887  24.941  1.00  0.00     0.001 A 
ENDBRANCH  17  24
ENDBRANCH  15  16
ENDBRANCH  12  15
ENDBRANCH   6  11
ENDBRANCH   3   5
ENDBRANCH   2   3
ENDBRANCH   1   2
BRANCH   1  31
ATOM     31  C   UNL A   1      35.046  30.128  27.568  1.00  0.00     0.275 C 
BRANCH  31  32
ATOM     32  O   UNL A   1      36.303  29.154  28.219  1.00  0.00    -0.458 OA
BRANCH  32  33
ATOM     33  C   UNL A   1      37.351  29.143  29.243  1.00  0.00     0.338 C 
ATOM     34  O   UNL A   1      37.038  29.008  30.421  1.00  0.00    -0.246 OA
BRANCH  33  35
ATOM     35  C   UNL A   1      38.880  29.664  28.935  1.00  0.00     0.060 A 
ATOM     36  C   UNL A   1      39.317  28.853  27.519  1.00  0.00     0.016 A 
ATOM     37  C   UNL A   1      40.218  30.428  29.794  1.00  0.00     0.016 A 
ATOM     38  C   UNL A   1      41.020  28.848  26.661  1.00  0.00     0.010 A 
ATOM     39  C   UNL A   1      41.919  30.436  29.150  1.00  0.00     0.010 A 
ATOM     40  C   UNL A   1      42.363  29.730  27.528  1.00  0.00    -0.014 A 
BRANCH  40  41
ATOM     41  C   UNL A   1      43.808  29.299  27.455  1.00  0.00     0.031 A 
ATOM     42  C   UNL A   1      44.819  30.369  27.230  1.00  0.00     0.074 A 
ATOM     43  C   UNL A   1      44.251  28.101  27.960  1.00  0.00     0.049 A 
ATOM     44  N   UNL A   1      46.087  30.180  27.310  1.00  0.00    -0.248 NA
ATOM     45  C   UNL A   1      44.511  31.751  26.870  1.00  0.00     0.031 C 
ATOM     46  C   UNL A   1      45.549  27.851  28.601  1.00  0.00     0.029 A 
ATOM     47  N   UNL A   1      43.593  26.880  28.177  1.00  0.00    -0.354 N 
ATOM     48  C   UNL A   1      46.736  31.382  27.293  1.00  0.00     0.074 A 
ATOM     49  C   UNL A   1      45.711  32.337  26.967  1.00  0.00     0.031 C 
ATOM     50  C   UNL A   1      45.612  26.622  29.127  1.00  0.00     0.029 A 
ATOM     51  C   UNL A   1      44.500  25.880  28.600  1.00  0.00     0.049 A 
ATOM     52  H   UNL A   1      42.627  26.738  28.051  1.00  0.00     0.167 HD
ATOM     53  C   UNL A   1      48.059  31.389  27.620  1.00  0.00     0.037 A 
ATOM     54  C   UNL A   1      44.712  24.764  27.837  1.00  0.00     0.037 A 
ATOM     55  C   UNL A   1      48.602  30.014  27.587  1.00  0.00     0.049 A 
ATOM     56  C   UNL A   1      45.903  24.897  26.912  1.00  0.00     0.074 A 
ATOM     57  C   UNL A   1      49.135  29.138  28.517  1.00  0.00     0.029 A 
ATOM     58  N   UNL A   1      48.378  29.242  26.437  1.00  0.00    -0.354 N 
ATOM     59  N   UNL A   1      46.832  25.809  27.026  1.00  0.00    -0.248 NA
ATOM     60  C   UNL A   1      46.129  24.037  25.754  1.00  0.00     0.031 C 
ATOM     61  C   UNL A   1      49.109  27.823  27.951  1.00  0.00     0.029 A 
ATOM     62  C   UNL A   1      48.620  27.896  26.656  1.00  0.00     0.049 A 
ATOM     63  H   UNL A   1      48.084  29.615  25.575  1.00  0.00     0.167 HD
ATOM     64  C   UNL A   1      47.582  25.849  25.886  1.00  0.00     0.074 A 
ATOM     65  C   UNL A   1      47.188  24.639  25.185  1.00  0.00     0.031 C 
ATOM     66  C   UNL A   1      48.390  26.915  25.584  1.00  0.00     0.037 A 
BRANCH  53  67
ATOM     67  C   UNL A   1      48.844  32.615  28.058  1.00  0.00     0.057 A 
ATOM     68  C   UNL A   1      49.251  33.580  27.116  1.00  0.00     0.134 A 
ATOM     69  C   UNL A   1      49.329  32.857  29.363  1.00  0.00     0.134 A 
ATOM     70  F   UNL A   1      48.907  33.483  25.825  1.00  0.00    -0.206 F 
ATOM     71  C   UNL A   1      50.057  34.685  27.444  1.00  0.00     0.040 A 
ATOM     72  C   UNL A   1      50.093  33.983  29.714  1.00  0.00     0.040 A 
ATOM     73  F   UNL A   1      49.147  31.996  30.368  1.00  0.00    -0.206 F 
ATOM     74  C   UNL A   1      50.471  34.899  28.750  1.00  0.00     0.006 A 
ENDBRANCH  53  67
BRANCH  54  75
ATOM     75  C   UNL A   1      43.436  24.058  27.582  1.00  0.00     0.057 A 
ATOM     76  C   UNL A   1      42.954  24.156  26.264  1.00  0.00     0.134 A 
ATOM     77  C   UNL A   1      43.130  22.903  28.306  1.00  0.00     0.134 A 
ATOM     78  F   UNL A   1      43.150  25.278  25.555  1.00  0.00    -0.206 F 
ATOM     79  C   UNL A   1      42.424  23.051  25.609  1.00  0.00     0.040 A 
ATOM     80  C   UNL A   1      42.595  21.791  27.659  1.00  0.00     0.040 A 
ATOM     81  F   UNL A   1      43.534  22.769  29.579  1.00  0.00    -0.206 F 
ATOM     82  C   UNL A   1      42.299  21.849  26.295  1.00  0.00     0.006 A 
ENDBRANCH  54  75
BRANCH  66  83
ATOM     83  C   UNL A   1      49.087  27.098  24.249  1.00  0.00     0.057 A 
ATOM     84  C   UNL A   1      50.433  26.795  23.990  1.00  0.00     0.134 A 
ATOM     85  C   UNL A   1      48.360  27.545  23.123  1.00  0.00     0.134 A 
ATOM     86  F   UNL A   1      51.208  26.180  24.894  1.00  0.00    -0.206 F 
ATOM     87  C   UNL A   1      51.045  27.060  22.757  1.00  0.00     0.040 A 
ATOM     88  C   UNL A   1      48.939  27.735  21.866  1.00  0.00     0.040 A 
ATOM     89  F   UNL A   1      47.046  27.808  23.187  1.00  0.00    -0.206 F 
ATOM     90  C   UNL A   1      50.297  27.534  21.689  1.00  0.00     0.006 A 
ENDBRANCH  66  83
ENDBRANCH  40  41
ENDBRANCH  33  35
ENDBRANCH  32  33
ENDBRANCH  31  32
ENDBRANCH   1  31
TORSDOF 15
ENDMDL
MODEL 2
REMARK VINA RESULT:     -16.5      2.129      3.263
REMARK SMILES Cc1ccccc1/C=C1\SC(=O)N(CC(=O)Nc2ccccc2C(=O)OCCOC(=O)c2ccc(-c3c4nc(c(-c5c(F)cccc5F)c5ccc([nH]5)c(-c5c(F)cccc5F)c5nc(c(-c6c(F)cccc6F)c6ccc3[nH]6)C=C5)C=C4)cc2)C1=O
REMARK SMILES IDX 27 1 26 2 24 3 25 4 23 5 18 6 19 7 20 8 22 9 21 10 17 11
REMARK SMILES IDX 15 12 16 13 14 15 13 16 8 17 9 18 10 19 86 20 11 21 87 22
REMARK SMILES IDX 12 23 7 24 1 25 2 26 3 27 4 28 6 29 5 30 28 31 29 32 30 33
REMARK SMILES IDX 31 34 32 35 33 36 85 37 34 38 84 39 35 40 36 41 37 42 78 43
REMARK SMILES IDX 38 44 83 45 77 46 79 47 39 48 82 49 76 50 75 51 40 53 66 54
REMARK SMILES IDX 49 55 65 56 50 57 53 58 64 59 80 60 51 61 52 62 63 64 81 65
REMARK SMILES IDX 54 66 41 67 42 68 47 69 43 70 44 71 46 72 48 73 45 74 67 75
REMARK SMILES IDX 68 76 73 77 69 78 70 79 72 80 74 81 71 82 55 83 56 84 61 85
REMARK SMILES IDX 57 86 58 87 60 88 62 89 59 90
REMARK H PARENT 17 14 79 52 53 63
REMARK Flexibility Score: inf
ROOT
ATOM      1  C   UNL A   1      33.729  29.360  27.202  1.00  0.00     0.275 C 
ENDROOT
BRANCH   1   2
ATOM      2  O   UNL A   1      31.879  30.147  26.751  1.00  0.00    -0.458 OA
BRANCH   2   3
ATOM      3  C   UNL A   1      30.994  30.999  25.740  1.00  0.00     0.340 C 
ATOM      4  O   UNL A   1      31.442  32.058  26.287  1.00  0.00    -0.246 OA
BRANCH   3   5
ATOM      5  C   UNL A   1      29.656  30.861  24.050  1.00  0.00     0.083 A 
ATOM      6  C   UNL A   1      30.193  30.264  22.500  1.00  0.00     0.055 A 
ATOM      7  C   UNL A   1      29.389  30.246  21.348  1.00  0.00     0.027 A 
ATOM      8  C   UNL A   1      28.062  30.658  21.438  1.00  0.00     0.002 A 
ATOM      9  C   UNL A   1      28.234  31.221  23.850  1.00  0.00     0.018 A 
ATOM     10  C   UNL A   1      27.508  31.113  22.638  1.00  0.00     0.001 A 
BRANCH   6  11
ATOM     11  N   UNL A   1      31.740  29.595  22.177  1.00  0.00    -0.324 N 
ATOM     12  C   UNL A   1      32.759  28.643  22.939  1.00  0.00     0.244 C 
ATOM     13  O   UNL A   1      33.806  28.448  22.292  1.00  0.00    -0.273 OA
ATOM     14  H   UNL A   1      32.085  29.872  21.297  1.00  0.00     0.170 HD
BRANCH  12  15
ATOM     15  C   UNL A   1      32.453  27.488  24.432  1.00  0.00     0.230 C 
BRANCH  15  16
ATOM     16  N   UNL A   1      31.880  25.813  24.696  1.00  0.00    -0.259 N 
ATOM     17  C   UNL A   1      32.994  21.947  23.102  1.00  0.00     0.029 C 
ATOM     18  C   UNL A   1      32.295  22.970  23.649  1.00  0.00     0.083 C 
ATOM     19  S   UNL A   1      31.151  22.510  25.462  1.00  0.00    -0.022 SA
ATOM     20  C   UNL A   1      32.550  24.858  23.346  1.00  0.00     0.268 C 
ATOM     21  C   UNL A   1      30.911  24.750  25.984  1.00  0.00     0.294 C 
ATOM     22  O   UNL A   1      32.981  25.347  22.307  1.00  0.00    -0.268 OA
ATOM     23  O   UNL A   1      30.035  24.820  26.838  1.00  0.00    -0.261 OA
BRANCH  17  24
ATOM     24  C   UNL A   1      33.060  20.537  23.600  1.00  0.00    -0.021 A 
ATOM     25  C   UNL A   1      34.802  20.959  25.421  1.00  0.00     0.045 C 
ATOM     26  C   UNL A   1      33.917  20.063  24.607  1.00  0.00    -0.044 A 
ATOM     27  C   UNL A   1      33.981  18.675  24.887  1.00  0.00     0.004 A 
ATOM     28  C   UNL A   1      33.145  17.761  24.252  1.00  0.00     0.000 A 
ATOM     29  C   UNL A   1      32.201  19.590  23.014  1.00  0.00     0.008 A 
ATOM     30  C   UNL A   1      32.225  18.228  23.333  1.00  0.00     0.001 A 
ENDBRANCH  17  24
ENDBRANCH  15  16
ENDBRANCH  12  15
ENDBRANCH   6  11
ENDBRANCH   3   5
ENDBRANCH   2   3
ENDBRANCH   1   2
BRANCH   1  31
ATOM     31  C   UNL A   1      35.012  30.661  27.634  1.00  0.00     0.275 C 
BRANCH  31  32
ATOM     32  O   UNL A   1      36.159  30.374  28.881  1.00  0.00    -0.458 OA
BRANCH  32  33
ATOM     33  C   UNL A   1      37.593  30.428  29.174  1.00  0.00     0.338 C 
ATOM     34  O   UNL A   1      38.072  31.457  29.639  1.00  0.00    -0.246 OA
BRANCH  33  35
ATOM     35  C   UNL A   1      38.650  29.319  28.577  1.00  0.00     0.060 A 
ATOM     36  C   UNL A   1      39.396  28.676  29.949  1.00  0.00     0.016 A 
ATOM     37  C   UNL A   1      39.451  28.939  27.052  1.00  0.00     0.016 A 
ATOM     38  C   UNL A   1      40.852  27.447  30.012  1.00  0.00     0.010 A 
ATOM     39  C   UNL A   1      40.904  27.849  26.953  1.00  0.00     0.010 A 
ATOM     40  C   UNL A   1      41.598  26.997  28.408  1.00  0.00    -0.014 A 
BRANCH  40  41
ATOM     41  C   UNL A   1      43.064  26.669  28.248  1.00  0.00     0.031 A 
ATOM     42  C   UNL A   1      44.035  27.742  28.597  1.00  0.00     0.074 A 
ATOM     43  C   UNL A   1      43.532  25.379  28.190  1.00  0.00     0.049 A 
ATOM     44  N   UNL A   1      45.305  27.558  28.671  1.00  0.00    -0.248 NA
ATOM     45  C   UNL A   1      43.685  29.132  28.876  1.00  0.00     0.031 C 
ATOM     46  C   UNL A   1      44.804  24.888  28.738  1.00  0.00     0.029 A 
ATOM     47  N   UNL A   1      42.920  24.181  27.791  1.00  0.00    -0.354 N 
ATOM     48  C   UNL A   1      45.899  28.648  29.240  1.00  0.00     0.074 A 
ATOM     49  C   UNL A   1      44.851  29.631  29.307  1.00  0.00     0.031 C 
ATOM     50  C   UNL A   1      44.894  23.555  28.660  1.00  0.00     0.029 A 
ATOM     51  C   UNL A   1      43.847  23.112  27.780  1.00  0.00     0.049 A 
ATOM     52  H   UNL A   1      41.969  24.096  27.549  1.00  0.00     0.167 HD
ATOM     53  C   UNL A   1      47.200  28.528  29.624  1.00  0.00     0.037 A 
ATOM     54  C   UNL A   1      44.151  22.464  26.615  1.00  0.00     0.037 A 
ATOM     55  C   UNL A   1      47.807  27.325  29.015  1.00  0.00     0.049 A 
ATOM     56  C   UNL A   1      45.382  23.019  25.931  1.00  0.00     0.074 A 
ATOM     57  C   UNL A   1      48.327  26.132  29.487  1.00  0.00     0.029 A 
ATOM     58  N   UNL A   1      47.680  27.151  27.629  1.00  0.00    -0.354 N 
ATOM     59  N   UNL A   1      46.261  23.797  26.506  1.00  0.00    -0.248 NA
ATOM     60  C   UNL A   1      45.709  22.777  24.530  1.00  0.00     0.031 C 
ATOM     61  C   UNL A   1      48.392  25.214  28.390  1.00  0.00     0.029 A 
ATOM     62  C   UNL A   1      47.970  25.855  27.236  1.00  0.00     0.049 A 
ATOM     63  H   UNL A   1      47.416  27.868  27.007  1.00  0.00     0.167 HD
ATOM     64  C   UNL A   1      47.069  24.359  25.560  1.00  0.00     0.074 A 
ATOM     65  C   UNL A   1      46.768  23.588  24.366  1.00  0.00     0.031 C 
ATOM     66  C   UNL A   1      47.843  25.459  25.825  1.00  0.00     0.037 A 
BRANCH  53  67
ATOM     67  C   UNL A   1      47.905  29.437  30.619  1.00  0.00     0.057 A 
ATOM     68  C   UNL A   1      48.061  29.046  31.963  1.00  0.00     0.134 A 
ATOM     69  C   UNL A   1      48.355  30.751  30.355  1.00  0.00     0.134 A 
ATOM     70  F   UNL A   1      47.655  27.842  32.391  1.00  0.00    -0.206 F 
ATOM     71  C   UNL A   1      48.620  29.880  32.948  1.00  0.00     0.040 A 
ATOM     72  C   UNL A   1      48.959  31.575  31.319  1.00  0.00     0.040 A 
ATOM     73  F   UNL A   1      48.187  31.343  29.170  1.00  0.00    -0.206 F 
ATOM     74  C   UNL A   1      49.084  31.145  32.627  1.00  0.00     0.006 A 
ENDBRANCH  53  67
BRANCH  54  75
ATOM     75  C   UNL A   1      42.923  21.928  25.983  1.00  0.00     0.057 A 
ATOM     76  C   UNL A   1      42.689  20.559  26.203  1.00  0.00     0.134 A 
ATOM     77  C   UNL A   1      41.817  22.762  25.809  1.00  0.00     0.134 A 
ATOM     78  F   UNL A   1      43.718  19.703  26.294  1.00  0.00    -0.206 F 
ATOM     79  C   UNL A   1      41.416  20.087  26.503  1.00  0.00     0.040 A 
ATOM     80  C   UNL A   1      40.536  22.298  26.105  1.00  0.00     0.040 A 
ATOM     81  F   UNL A   1      41.981  24.071  25.562  1.00  0.00    -0.206 F 
ATOM     82  C   UNL A   1      40.347  20.975  26.510  1.00  0.00     0.006 A 
ENDBRANCH  54  75
BRANCH  66  83
ATOM     83  C   UNL A   1      48.602  26.235  24.765  1.00  0.00     0.057 A 
ATOM     84  C   UNL A   1      48.019  27.076  23.804  1.00  0.00     0.134 A 
ATOM     85  C   UNL A   1      50.014  26.197  24.732  1.00  0.00     0.134 A 
ATOM     86  F   UNL A   1      46.713  27.375  23.821  1.00  0.00    -0.206 F 
ATOM     87  C   UNL A   1      48.765  27.705  22.797  1.00  0.00     0.040 A 
ATOM     88  C   UNL A   1      50.775  26.887  23.783  1.00  0.00     0.040 A 
ATOM     89  F   UNL A   1      50.725  25.498  25.628  1.00  0.00    -0.206 F 
ATOM     90  C   UNL A   1      50.148  27.610  22.783  1.00  0.00     0.006 A 
ENDBRANCH  66  83
ENDBRANCH  40  41
ENDBRANCH  33  35
ENDBRANCH  32  33
ENDBRANCH  31  32
ENDBRANCH   1  31
TORSDOF 15
ENDMDL
MODEL 3
REMARK VINA RESULT:     -16.0      4.364      8.367
REMARK SMILES Cc1ccccc1/C=C1\SC(=O)N(CC(=O)Nc2ccccc2C(=O)OCCOC(=O)c2ccc(-c3c4nc(c(-c5c(F)cccc5F)c5ccc([nH]5)c(-c5c(F)cccc5F)c5nc(c(-c6c(F)cccc6F)c6ccc3[nH]6)C=C5)C=C4)cc2)C1=O
REMARK SMILES IDX 27 1 26 2 24 3 25 4 23 5 18 6 19 7 20 8 22 9 21 10 17 11
REMARK SMILES IDX 15 12 16 13 14 15 13 16 8 17 9 18 10 19 86 20 11 21 87 22
REMARK SMILES IDX 12 23 7 24 1 25 2 26 3 27 4 28 6 29 5 30 28 31 29 32 30 33
REMARK SMILES IDX 31 34 32 35 33 36 85 37 34 38 84 39 35 40 36 41 37 42 78 43
REMARK SMILES IDX 38 44 83 45 77 46 79 47 39 48 82 49 76 50 75 51 40 53 66 54
REMARK SMILES IDX 49 55 65 56 50 57 53 58 64 59 80 60 51 61 52 62 63 64 81 65
REMARK SMILES IDX 54 66 41 67 42 68 47 69 43 70 44 71 46 72 48 73 45 74 67 75
REMARK SMILES IDX 68 76 73 77 69 78 70 79 72 80 74 81 71 82 55 83 56 84 61 85
REMARK SMILES IDX 57 86 58 87 60 88 62 89 59 90
REMARK H PARENT 17 14 79 52 53 63
REMARK Flexibility Score: inf
ROOT
ATOM      1  C   UNL A   1      36.157  23.597  26.150  1.00  0.00     0.275 C 
ENDROOT
BRANCH   1   2
ATOM      2  O   UNL A   1      35.032  24.900  25.017  1.00  0.00    -0.458 OA
BRANCH   2   3
ATOM      3  C   UNL A   1      34.212  26.261  24.958  1.00  0.00     0.340 C 
ATOM      4  O   UNL A   1      33.665  25.851  23.884  1.00  0.00    -0.246 OA
BRANCH   3   5
ATOM      5  C   UNL A   1      33.813  28.105  26.011  1.00  0.00     0.083 A 
ATOM      6  C   UNL A   1      32.663  29.275  25.410  1.00  0.00     0.055 A 
ATOM      7  C   UNL A   1      32.441  30.527  26.005  1.00  0.00     0.027 A 
ATOM      8  C   UNL A   1      33.111  30.852  27.181  1.00  0.00     0.002 A 
ATOM      9  C   UNL A   1      34.362  28.708  27.246  1.00  0.00     0.018 A 
ATOM     10  C   UNL A   1      34.021  29.976  27.780  1.00  0.00     0.001 A 
BRANCH   6  11
ATOM     11  N   UNL A   1      31.637  29.049  24.053  1.00  0.00    -0.324 N 
ATOM     12  C   UNL A   1      30.621  27.933  23.556  1.00  0.00     0.244 C 
ATOM     13  O   UNL A   1      30.108  28.210  22.454  1.00  0.00    -0.273 OA
ATOM     14  H   UNL A   1      31.693  29.802  23.420  1.00  0.00     0.170 HD
BRANCH  12  15
ATOM     15  C   UNL A   1      29.807  26.512  24.542  1.00  0.00     0.230 C 
BRANCH  15  16
ATOM     16  N   UNL A   1      30.216  24.829  24.994  1.00  0.00    -0.259 N 
ATOM     17  C   UNL A   1      32.716  21.752  23.259  1.00  0.00     0.029 C 
ATOM     18  C   UNL A   1      31.743  22.395  23.948  1.00  0.00     0.083 C 
ATOM     19  S   UNL A   1      31.413  21.738  26.012  1.00  0.00    -0.022 SA
ATOM     20  C   UNL A   1      30.953  24.107  23.538  1.00  0.00     0.268 C 
ATOM     21  C   UNL A   1      30.216  23.649  26.522  1.00  0.00     0.294 C 
ATOM     22  O   UNL A   1      30.842  24.573  22.409  1.00  0.00    -0.268 OA
ATOM     23  O   UNL A   1      29.635  23.428  27.579  1.00  0.00    -0.261 OA
BRANCH  17  24
ATOM     24  C   UNL A   1      33.582  20.638  23.757  1.00  0.00    -0.021 A 
ATOM     25  C   UNL A   1      32.151  18.731  22.838  1.00  0.00     0.045 C 
ATOM     26  C   UNL A   1      33.309  19.266  23.627  1.00  0.00    -0.044 A 
ATOM     27  C   UNL A   1      34.141  18.315  24.268  1.00  0.00     0.004 A 
ATOM     28  C   UNL A   1      35.289  18.693  24.957  1.00  0.00     0.000 A 
ATOM     29  C   UNL A   1      34.775  20.977  24.422  1.00  0.00     0.008 A 
ATOM     30  C   UNL A   1      35.627  20.032  25.005  1.00  0.00     0.001 A 
ENDBRANCH  17  24
ENDBRANCH  15  16
ENDBRANCH  12  15
ENDBRANCH   6  11
ENDBRANCH   3   5
ENDBRANCH   2   3
ENDBRANCH   1   2
BRANCH   1  31
ATOM     31  C   UNL A   1      37.693  22.972  25.269  1.00  0.00     0.275 C 
BRANCH  31  32
ATOM     32  O   UNL A   1      39.194  22.872  26.100  1.00  0.00    -0.458 OA
BRANCH  32  33
ATOM     33  C   UNL A   1      40.064  23.611  27.018  1.00  0.00     0.338 C 
ATOM     34  O   UNL A   1      41.003  23.030  27.553  1.00  0.00    -0.246 OA
BRANCH  33  35
ATOM     35  C   UNL A   1      39.634  25.068  27.648  1.00  0.00     0.060 A 
ATOM     36  C   UNL A   1      40.366  26.194  26.624  1.00  0.00     0.016 A 
ATOM     37  C   UNL A   1      39.037  25.729  29.170  1.00  0.00     0.016 A 
ATOM     38  C   UNL A   1      40.431  28.088  26.837  1.00  0.00     0.010 A 
ATOM     39  C   UNL A   1      39.105  27.504  29.561  1.00  0.00     0.010 A 
ATOM     40  C   UNL A   1      39.717  28.751  28.381  1.00  0.00    -0.014 A 
BRANCH  40  41
ATOM     41  C   UNL A   1      40.246  29.990  29.063  1.00  0.00     0.031 A 
ATOM     42  C   UNL A   1      39.241  30.997  29.503  1.00  0.00     0.074 A 
ATOM     43  C   UNL A   1      41.496  30.049  29.629  1.00  0.00     0.049 A 
ATOM     44  N   UNL A   1      39.523  32.012  30.237  1.00  0.00    -0.248 NA
ATOM     45  C   UNL A   1      37.825  30.979  29.145  1.00  0.00     0.031 C 
ATOM     46  C   UNL A   1      41.869  30.783  30.845  1.00  0.00     0.029 A 
ATOM     47  N   UNL A   1      42.676  29.338  29.360  1.00  0.00    -0.354 N 
ATOM     48  C   UNL A   1      38.371  32.607  30.668  1.00  0.00     0.074 A 
ATOM     49  C   UNL A   1      37.332  31.955  29.919  1.00  0.00     0.031 C 
ATOM     50  C   UNL A   1      43.123  30.510  31.223  1.00  0.00     0.029 A 
ATOM     51  C   UNL A   1      43.758  29.836  30.123  1.00  0.00     0.049 A 
ATOM     52  H   UNL A   1      42.742  28.590  28.723  1.00  0.00     0.167 HD
ATOM     53  C   UNL A   1      38.475  33.541  31.655  1.00  0.00     0.037 A 
ATOM     54  C   UNL A   1      44.847  30.391  29.509  1.00  0.00     0.037 A 
ATOM     55  C   UNL A   1      39.883  33.970  31.810  1.00  0.00     0.049 A 
ATOM     56  C   UNL A   1      44.755  31.896  29.383  1.00  0.00     0.074 A 
ATOM     57  C   UNL A   1      40.838  33.883  32.807  1.00  0.00     0.029 A 
ATOM     58  N   UNL A   1      40.579  34.378  30.662  1.00  0.00    -0.354 N 
ATOM     59  N   UNL A   1      43.918  32.646  30.051  1.00  0.00    -0.248 NA
ATOM     60  C   UNL A   1      45.571  32.684  28.465  1.00  0.00     0.031 C 
ATOM     61  C   UNL A   1      42.119  34.125  32.213  1.00  0.00     0.029 A 
ATOM     62  C   UNL A   1      41.948  34.418  30.869  1.00  0.00     0.049 A 
ATOM     63  H   UNL A   1      40.144  34.611  29.810  1.00  0.00     0.167 HD
ATOM     64  C   UNL A   1      43.875  33.894  29.501  1.00  0.00     0.074 A 
ATOM     65  C   UNL A   1      45.018  33.902  28.605  1.00  0.00     0.031 C 
ATOM     66  C   UNL A   1      42.856  34.772  29.768  1.00  0.00     0.037 A 
BRANCH  53  67
ATOM     67  C   UNL A   1      37.331  34.005  32.542  1.00  0.00     0.057 A 
ATOM     68  C   UNL A   1      37.365  33.779  33.933  1.00  0.00     0.134 A 
ATOM     69  C   UNL A   1      36.121  34.578  32.091  1.00  0.00     0.134 A 
ATOM     70  F   UNL A   1      38.427  33.211  34.521  1.00  0.00    -0.206 F 
ATOM     71  C   UNL A   1      36.299  34.101  34.791  1.00  0.00     0.040 A 
ATOM     72  C   UNL A   1      35.069  34.949  32.944  1.00  0.00     0.040 A 
ATOM     73  F   UNL A   1      35.853  34.762  30.795  1.00  0.00    -0.206 F 
ATOM     74  C   UNL A   1      35.149  34.700  34.302  1.00  0.00     0.006 A 
ENDBRANCH  53  67
BRANCH  54  75
ATOM     75  C   UNL A   1      45.448  29.433  28.551  1.00  0.00     0.057 A 
ATOM     76  C   UNL A   1      46.067  28.315  29.137  1.00  0.00     0.134 A 
ATOM     77  C   UNL A   1      44.882  29.280  27.284  1.00  0.00     0.134 A 
ATOM     78  F   UNL A   1      46.697  28.431  30.316  1.00  0.00    -0.206 F 
ATOM     79  C   UNL A   1      45.897  27.040  28.607  1.00  0.00     0.040 A 
ATOM     80  C   UNL A   1      44.710  28.007  26.742  1.00  0.00     0.040 A 
ATOM     81  F   UNL A   1      44.308  30.321  26.662  1.00  0.00    -0.206 F 
ATOM     82  C   UNL A   1      45.166  26.884  27.436  1.00  0.00     0.006 A 
ENDBRANCH  54  75
BRANCH  66  83
ATOM     83  C   UNL A   1      42.659  36.087  29.037  1.00  0.00     0.057 A 
ATOM     84  C   UNL A   1      41.811  36.282  27.935  1.00  0.00     0.134 A 
ATOM     85  C   UNL A   1      43.306  37.257  29.493  1.00  0.00     0.134 A 
ATOM     86  F   UNL A   1      40.981  35.325  27.501  1.00  0.00    -0.206 F 
ATOM     87  C   UNL A   1      41.730  37.502  27.249  1.00  0.00     0.040 A 
ATOM     88  C   UNL A   1      43.169  38.500  28.867  1.00  0.00     0.040 A 
ATOM     89  F   UNL A   1      44.093  37.254  30.579  1.00  0.00    -0.206 F 
ATOM     90  C   UNL A   1      42.412  38.617  27.714  1.00  0.00     0.006 A 
ENDBRANCH  66  83
ENDBRANCH  40  41
ENDBRANCH  33  35
ENDBRANCH  32  33
ENDBRANCH  31  32
ENDBRANCH   1  31
TORSDOF 15
ENDMDL
