MODEL 1
REMARK VINA RESULT:     -10.2      0.000      0.000
REMARK SMILES C[C@H]1CC[C@](C#N)([C@H](O)C(=O)OCCOC(=O)c2ccc(-c3c4nc(c(-c5c(F)cccc5F)c5ccc([nH]5)c(-c5c(F)cccc5F)c5nc(c(-c6c(F)cccc6F)c6ccc3[nH]6)C=C5)C=C4)cc2)C1
REMARK SMILES IDX 13 1 12 2 10 3 11 4 8 5 5 6 1 7 2 8 3 9 72 10 4 11 6 12 7 13
REMARK SMILES IDX 9 14 14 16 15 17 16 18 17 19 18 20 19 21 71 22 20 23 70 24
REMARK SMILES IDX 21 25 22 26 23 27 64 28 24 29 69 30 63 31 65 32 25 33 68 34
REMARK SMILES IDX 62 35 61 36 26 38 52 39 35 40 51 41 36 42 39 43 50 44 66 45
REMARK SMILES IDX 37 46 38 47 49 49 67 50 40 51 27 52 28 53 33 54 29 55 30 56
REMARK SMILES IDX 32 57 34 58 31 59 53 60 54 61 59 62 55 63 56 64 58 65 60 66
REMARK SMILES IDX 57 67 41 68 42 69 47 70 43 71 44 72 46 73 48 74 45 75
REMARK H PARENT 9 15 65 37 39 48
REMARK Flexibility Score: inf
ROOT
ATOM      1  C   UNL A   1      35.382  20.261  25.014  1.00  0.00     0.274 C 
ENDROOT
BRANCH   1   2
ATOM      2  O   UNL A   1      34.808  21.547  25.303  1.00  0.00    -0.460 OA
BRANCH   2   3
ATOM      3  C   UNL A   1      33.759  21.536  26.170  1.00  0.00     0.336 C 
ATOM      4  O   UNL A   1      33.859  21.365  27.377  1.00  0.00    -0.249 OA
BRANCH   3   5
ATOM      5  C   UNL A   1      32.426  21.827  25.455  1.00  0.00     0.244 C 
BRANCH   5   6
ATOM      6  C   UNL A   1      31.936  23.238  25.812  1.00  0.00     0.094 C 
ATOM      7  C   UNL A   1      30.425  26.106  25.398  1.00  0.00     0.008 C 
ATOM      8  C   UNL A   1      31.736  25.497  24.909  1.00  0.00    -0.013 C 
ATOM      9  C   UNL A   1      32.843  25.527  25.967  1.00  0.00     0.005 C 
ATOM     10  C   UNL A   1      31.588  24.025  24.542  1.00  0.00     0.029 C 
ATOM     11  C   UNL A   1      33.031  24.095  26.480  1.00  0.00     0.026 C 
BRANCH   6  12
ATOM     12  C   UNL A   1      30.786  23.146  26.750  1.00  0.00     0.072 C 
ATOM     13  N   UNL A   1      29.887  23.044  27.471  1.00  0.00    -0.198 NA
ENDBRANCH   6  12
ENDBRANCH   5   6
BRANCH   5  14
ATOM     14  O   UNL A   1      31.431  20.831  25.706  1.00  0.00    -0.380 OA
ATOM     15  H   UNL A   1      31.209  20.826  26.651  1.00  0.00     0.211 HD
ENDBRANCH   5  14
ENDBRANCH   3   5
ENDBRANCH   2   3
ENDBRANCH   1   2
BRANCH   1  16
ATOM     16  C   UNL A   1      36.900  20.345  24.809  1.00  0.00     0.275 C 
BRANCH  16  17
ATOM     17  O   UNL A   1      37.522  21.412  25.556  1.00  0.00    -0.458 OA
BRANCH  17  18
ATOM     18  C   UNL A   1      38.784  21.162  25.978  1.00  0.00     0.338 C 
ATOM     19  O   UNL A   1      39.439  20.149  25.772  1.00  0.00    -0.246 OA
BRANCH  18  20
ATOM     20  C   UNL A   1      39.384  22.355  26.600  1.00  0.00     0.060 A 
ATOM     21  C   UNL A   1      38.918  23.599  26.173  1.00  0.00     0.016 A 
ATOM     22  C   UNL A   1      40.471  22.281  27.467  1.00  0.00     0.016 A 
ATOM     23  C   UNL A   1      39.566  24.768  26.532  1.00  0.00     0.010 A 
ATOM     24  C   UNL A   1      41.100  23.466  27.873  1.00  0.00     0.010 A 
ATOM     25  C   UNL A   1      40.672  24.714  27.381  1.00  0.00    -0.014 A 
BRANCH  25  26
ATOM     26  C   UNL A   1      41.394  25.974  27.684  1.00  0.00     0.031 A 
ATOM     27  C   UNL A   1      40.729  27.039  28.508  1.00  0.00     0.074 A 
ATOM     28  C   UNL A   1      42.669  26.127  27.277  1.00  0.00     0.049 A 
ATOM     29  N   UNL A   1      41.169  28.226  28.838  1.00  0.00    -0.248 NA
ATOM     30  C   UNL A   1      39.386  26.730  29.027  1.00  0.00     0.031 C 
ATOM     31  C   UNL A   1      43.442  25.135  26.525  1.00  0.00     0.029 A 
ATOM     32  N   UNL A   1      43.542  27.170  27.446  1.00  0.00    -0.354 N 
ATOM     33  C   UNL A   1      40.150  28.816  29.575  1.00  0.00     0.074 A 
ATOM     34  C   UNL A   1      39.058  27.868  29.621  1.00  0.00     0.031 C 
ATOM     35  C   UNL A   1      44.677  25.612  26.311  1.00  0.00     0.029 A 
ATOM     36  C   UNL A   1      44.762  26.965  26.850  1.00  0.00     0.049 A 
ATOM     37  H   UNL A   1      43.317  27.988  27.947  1.00  0.00     0.167 HD
ATOM     38  C   UNL A   1      40.133  30.036  30.163  1.00  0.00     0.037 A 
ATOM     39  C   UNL A   1      45.820  27.789  26.722  1.00  0.00     0.037 A 
ATOM     40  C   UNL A   1      41.232  30.966  30.121  1.00  0.00     0.049 A 
ATOM     41  C   UNL A   1      45.745  29.164  27.322  1.00  0.00     0.074 A 
ATOM     42  C   UNL A   1      41.319  32.225  30.690  1.00  0.00     0.029 A 
ATOM     43  N   UNL A   1      42.436  30.739  29.470  1.00  0.00    -0.354 N 
ATOM     44  N   UNL A   1      44.774  29.718  28.008  1.00  0.00    -0.248 NA
ATOM     45  C   UNL A   1      46.915  30.030  27.132  1.00  0.00     0.031 C 
ATOM     46  C   UNL A   1      42.549  32.783  30.331  1.00  0.00     0.029 A 
ATOM     47  C   UNL A   1      43.262  31.845  29.603  1.00  0.00     0.049 A 
ATOM     48  H   UNL A   1      42.671  29.914  28.987  1.00  0.00     0.167 HD
ATOM     49  C   UNL A   1      45.230  30.981  28.362  1.00  0.00     0.074 A 
ATOM     50  C   UNL A   1      46.570  31.103  27.827  1.00  0.00     0.031 C 
ATOM     51  C   UNL A   1      44.598  31.950  29.070  1.00  0.00     0.037 A 
BRANCH  38  52
ATOM     52  C   UNL A   1      38.870  30.452  30.864  1.00  0.00     0.057 A 
ATOM     53  C   UNL A   1      37.841  31.142  30.210  1.00  0.00     0.134 A 
ATOM     54  C   UNL A   1      38.670  30.130  32.214  1.00  0.00     0.134 A 
ATOM     55  F   UNL A   1      37.971  31.496  28.922  1.00  0.00    -0.206 F 
ATOM     56  C   UNL A   1      36.674  31.521  30.877  1.00  0.00     0.040 A 
ATOM     57  C   UNL A   1      37.494  30.474  32.883  1.00  0.00     0.040 A 
ATOM     58  F   UNL A   1      39.609  29.465  32.902  1.00  0.00    -0.206 F 
ATOM     59  C   UNL A   1      36.495  31.179  32.216  1.00  0.00     0.006 A 
ENDBRANCH  38  52
BRANCH  39  60
ATOM     60  C   UNL A   1      47.025  27.344  25.974  1.00  0.00     0.057 A 
ATOM     61  C   UNL A   1      48.112  26.758  26.630  1.00  0.00     0.134 A 
ATOM     62  C   UNL A   1      47.124  27.512  24.587  1.00  0.00     0.134 A 
ATOM     63  F   UNL A   1      48.088  26.588  27.960  1.00  0.00    -0.206 F 
ATOM     64  C   UNL A   1      49.264  26.378  25.939  1.00  0.00     0.040 A 
ATOM     65  C   UNL A   1      48.255  27.106  23.879  1.00  0.00     0.040 A 
ATOM     66  F   UNL A   1      46.115  28.063  23.896  1.00  0.00    -0.206 F 
ATOM     67  C   UNL A   1      49.335  26.545  24.558  1.00  0.00     0.006 A 
ENDBRANCH  39  60
BRANCH  51  68
ATOM     68  C   UNL A   1      45.375  33.204  29.358  1.00  0.00     0.057 A 
ATOM     69  C   UNL A   1      46.189  33.337  30.490  1.00  0.00     0.134 A 
ATOM     70  C   UNL A   1      45.317  34.290  28.474  1.00  0.00     0.134 A 
ATOM     71  F   UNL A   1      46.281  32.340  31.384  1.00  0.00    -0.206 F 
ATOM     72  C   UNL A   1      46.885  34.519  30.754  1.00  0.00     0.040 A 
ATOM     73  C   UNL A   1      46.037  35.461  28.708  1.00  0.00     0.040 A 
ATOM     74  F   UNL A   1      44.567  34.227  27.364  1.00  0.00    -0.206 F 
ATOM     75  C   UNL A   1      46.815  35.582  29.857  1.00  0.00     0.006 A 
ENDBRANCH  51  68
ENDBRANCH  25  26
ENDBRANCH  18  20
ENDBRANCH  17  18
ENDBRANCH  16  17
ENDBRANCH   1  16
TORSDOF 14
ENDMDL
MODEL 2
REMARK VINA RESULT:     -10.2      4.826      7.601
REMARK SMILES C[C@H]1CC[C@](C#N)([C@H](O)C(=O)OCCOC(=O)c2ccc(-c3c4nc(c(-c5c(F)cccc5F)c5ccc([nH]5)c(-c5c(F)cccc5F)c5nc(c(-c6c(F)cccc6F)c6ccc3[nH]6)C=C5)C=C4)cc2)C1
REMARK SMILES IDX 13 1 12 2 10 3 11 4 8 5 5 6 1 7 2 8 3 9 72 10 4 11 6 12 7 13
REMARK SMILES IDX 9 14 14 16 15 17 16 18 17 19 18 20 19 21 71 22 20 23 70 24
REMARK SMILES IDX 21 25 22 26 23 27 64 28 24 29 69 30 63 31 65 32 25 33 68 34
REMARK SMILES IDX 62 35 61 36 26 38 52 39 35 40 51 41 36 42 39 43 50 44 66 45
REMARK SMILES IDX 37 46 38 47 49 49 67 50 40 51 27 52 28 53 33 54 29 55 30 56
REMARK SMILES IDX 32 57 34 58 31 59 53 60 54 61 59 62 55 63 56 64 58 65 60 66
REMARK SMILES IDX 57 67 41 68 42 69 47 70 43 71 44 72 46 73 48 74 45 75
REMARK H PARENT 9 15 65 37 39 48
REMARK Flexibility Score: inf
ROOT
ATOM      1  C   UNL A   1      31.768  31.021  26.742  1.00  0.00     0.274 C 
ENDROOT
BRANCH   1   2
ATOM      2  O   UNL A   1      31.271  30.512  25.493  1.00  0.00    -0.460 OA
BRANCH   2   3
ATOM      3  C   UNL A   1      32.129  29.707  24.809  1.00  0.00     0.336 C 
ATOM      4  O   UNL A   1      33.297  29.515  25.119  1.00  0.00    -0.249 OA
BRANCH   3   5
ATOM      5  C   UNL A   1      31.435  29.010  23.624  1.00  0.00     0.244 C 
BRANCH   5   6
ATOM      6  C   UNL A   1      31.364  27.496  23.871  1.00  0.00     0.094 C 
ATOM      7  C   UNL A   1      30.418  24.402  23.415  1.00  0.00     0.008 C 
ATOM      8  C   UNL A   1      29.787  25.642  24.043  1.00  0.00    -0.013 C 
ATOM      9  C   UNL A   1      30.305  25.929  25.455  1.00  0.00     0.005 C 
ATOM     10  C   UNL A   1      30.090  26.908  23.251  1.00  0.00     0.029 C 
ATOM     11  C   UNL A   1      31.233  27.146  25.367  1.00  0.00     0.026 C 
BRANCH   6  12
ATOM     12  C   UNL A   1      32.596  26.846  23.352  1.00  0.00     0.072 C 
ATOM     13  N   UNL A   1      33.547  26.350  22.917  1.00  0.00    -0.198 NA
ENDBRANCH   6  12
ENDBRANCH   5   6
BRANCH   5  14
ATOM     14  O   UNL A   1      32.037  29.323  22.364  1.00  0.00    -0.380 OA
ATOM     15  H   UNL A   1      31.369  29.701  21.771  1.00  0.00     0.211 HD
ENDBRANCH   5  14
ENDBRANCH   3   5
ENDBRANCH   2   3
ENDBRANCH   1   2
BRANCH   1  16
ATOM     16  C   UNL A   1      31.520  32.529  26.884  1.00  0.00     0.275 C 
BRANCH  16  17
ATOM     17  O   UNL A   1      32.723  33.320  26.788  1.00  0.00    -0.458 OA
BRANCH  17  18
ATOM     18  C   UNL A   1      33.197  33.794  27.964  1.00  0.00     0.338 C 
ATOM     19  O   UNL A   1      32.625  34.556  28.731  1.00  0.00    -0.246 OA
BRANCH  18  20
ATOM     20  C   UNL A   1      34.465  33.138  28.329  1.00  0.00     0.060 A 
ATOM     21  C   UNL A   1      34.401  31.803  28.727  1.00  0.00     0.016 A 
ATOM     22  C   UNL A   1      35.667  33.835  28.425  1.00  0.00     0.016 A 
ATOM     23  C   UNL A   1      35.494  31.172  29.295  1.00  0.00     0.010 A 
ATOM     24  C   UNL A   1      36.790  33.184  28.953  1.00  0.00     0.010 A 
ATOM     25  C   UNL A   1      36.702  31.859  29.422  1.00  0.00    -0.014 A 
BRANCH  25  26
ATOM     26  C   UNL A   1      37.831  31.184  30.106  1.00  0.00     0.031 A 
ATOM     27  C   UNL A   1      38.086  31.441  31.563  1.00  0.00     0.074 A 
ATOM     28  C   UNL A   1      38.581  30.290  29.433  1.00  0.00     0.049 A 
ATOM     29  N   UNL A   1      39.048  30.991  32.328  1.00  0.00    -0.248 NA
ATOM     30  C   UNL A   1      37.135  32.327  32.254  1.00  0.00     0.031 C 
ATOM     31  C   UNL A   1      38.389  29.909  28.031  1.00  0.00     0.029 A 
ATOM     32  N   UNL A   1      39.648  29.532  29.839  1.00  0.00    -0.354 N 
ATOM     33  C   UNL A   1      38.837  31.560  33.577  1.00  0.00     0.074 A 
ATOM     34  C   UNL A   1      37.671  32.410  33.462  1.00  0.00     0.031 C 
ATOM     35  C   UNL A   1      39.298  28.981  27.700  1.00  0.00     0.029 A 
ATOM     36  C   UNL A   1      40.176  28.750  28.841  1.00  0.00     0.049 A 
ATOM     37  H   UNL A   1      40.003  29.546  30.758  1.00  0.00     0.167 HD
ATOM     38  C   UNL A   1      39.549  31.383  34.716  1.00  0.00     0.037 A 
ATOM     39  C   UNL A   1      41.267  27.960  28.836  1.00  0.00     0.037 A 
ATOM     40  C   UNL A   1      40.700  30.524  34.820  1.00  0.00     0.049 A 
ATOM     41  C   UNL A   1      42.080  27.839  30.094  1.00  0.00     0.074 A 
ATOM     42  C   UNL A   1      41.488  30.269  35.929  1.00  0.00     0.029 A 
ATOM     43  N   UNL A   1      41.230  29.781  33.775  1.00  0.00    -0.354 N 
ATOM     44  N   UNL A   1      41.879  28.389  31.267  1.00  0.00    -0.248 NA
ATOM     45  C   UNL A   1      43.273  26.986  30.027  1.00  0.00     0.031 C 
ATOM     46  C   UNL A   1      42.530  29.422  35.540  1.00  0.00     0.029 A 
ATOM     47  C   UNL A   1      42.349  29.087  34.208  1.00  0.00     0.049 A 
ATOM     48  H   UNL A   1      40.864  29.749  32.862  1.00  0.00     0.167 HD
ATOM     49  C   UNL A   1      42.897  27.920  32.088  1.00  0.00     0.074 A 
ATOM     50  C   UNL A   1      43.703  27.029  31.279  1.00  0.00     0.031 C 
ATOM     51  C   UNL A   1      43.139  28.197  33.393  1.00  0.00     0.037 A 
BRANCH  38  52
ATOM     52  C   UNL A   1      39.129  32.168  35.927  1.00  0.00     0.057 A 
ATOM     53  C   UNL A   1      39.567  33.478  36.160  1.00  0.00     0.134 A 
ATOM     54  C   UNL A   1      38.247  31.609  36.862  1.00  0.00     0.134 A 
ATOM     55  F   UNL A   1      40.424  34.070  35.315  1.00  0.00    -0.206 F 
ATOM     56  C   UNL A   1      39.167  34.193  37.292  1.00  0.00     0.040 A 
ATOM     57  C   UNL A   1      37.814  32.325  37.980  1.00  0.00     0.040 A 
ATOM     58  F   UNL A   1      37.782  30.362  36.700  1.00  0.00    -0.206 F 
ATOM     59  C   UNL A   1      38.281  33.618  38.201  1.00  0.00     0.006 A 
ENDBRANCH  38  52
BRANCH  39  60
ATOM     60  C   UNL A   1      41.665  27.246  27.596  1.00  0.00     0.057 A 
ATOM     61  C   UNL A   1      41.297  25.915  27.372  1.00  0.00     0.134 A 
ATOM     62  C   UNL A   1      42.440  27.874  26.611  1.00  0.00     0.134 A 
ATOM     63  F   UNL A   1      40.572  25.252  28.285  1.00  0.00    -0.206 F 
ATOM     64  C   UNL A   1      41.704  25.227  26.228  1.00  0.00     0.040 A 
ATOM     65  C   UNL A   1      42.826  27.208  25.448  1.00  0.00     0.040 A 
ATOM     66  F   UNL A   1      42.824  29.150  26.761  1.00  0.00    -0.206 F 
ATOM     67  C   UNL A   1      42.466  25.875  25.258  1.00  0.00     0.006 A 
ENDBRANCH  39  60
BRANCH  51  68
ATOM     68  C   UNL A   1      44.290  27.481  34.043  1.00  0.00     0.057 A 
ATOM     69  C   UNL A   1      45.578  28.029  34.097  1.00  0.00     0.134 A 
ATOM     70  C   UNL A   1      44.097  26.228  34.638  1.00  0.00     0.134 A 
ATOM     71  F   UNL A   1      45.836  29.221  33.536  1.00  0.00    -0.206 F 
ATOM     72  C   UNL A   1      46.640  27.339  34.685  1.00  0.00     0.040 A 
ATOM     73  C   UNL A   1      45.142  25.545  35.261  1.00  0.00     0.040 A 
ATOM     74  F   UNL A   1      42.887  25.649  34.633  1.00  0.00    -0.206 F 
ATOM     75  C   UNL A   1      46.421  26.096  35.275  1.00  0.00     0.006 A 
ENDBRANCH  51  68
ENDBRANCH  25  26
ENDBRANCH  18  20
ENDBRANCH  17  18
ENDBRANCH  16  17
ENDBRANCH   1  16
TORSDOF 14
ENDMDL
MODEL 3
REMARK VINA RESULT:     -10.1      1.776      7.012
REMARK SMILES C[C@H]1CC[C@](C#N)([C@H](O)C(=O)OCCOC(=O)c2ccc(-c3c4nc(c(-c5c(F)cccc5F)c5ccc([nH]5)c(-c5c(F)cccc5F)c5nc(c(-c6c(F)cccc6F)c6ccc3[nH]6)C=C5)C=C4)cc2)C1
REMARK SMILES IDX 13 1 12 2 10 3 11 4 8 5 5 6 1 7 2 8 3 9 72 10 4 11 6 12 7 13
REMARK SMILES IDX 9 14 14 16 15 17 16 18 17 19 18 20 19 21 71 22 20 23 70 24
REMARK SMILES IDX 21 25 22 26 23 27 64 28 24 29 69 30 63 31 65 32 25 33 68 34
REMARK SMILES IDX 62 35 61 36 26 38 52 39 35 40 51 41 36 42 39 43 50 44 66 45
REMARK SMILES IDX 37 46 38 47 49 49 67 50 40 51 27 52 28 53 33 54 29 55 30 56
REMARK SMILES IDX 32 57 34 58 31 59 53 60 54 61 59 62 55 63 56 64 58 65 60 66
REMARK SMILES IDX 57 67 41 68 42 69 47 70 43 71 44 72 46 73 48 74 45 75
REMARK H PARENT 9 15 65 37 39 48
REMARK Flexibility Score: inf
ROOT
ATOM      1  C   UNL A   1      35.808  21.877  25.389  1.00  0.00     0.274 C 
ENDROOT
BRANCH   1   2
ATOM      2  O   UNL A   1      34.619  21.472  24.689  1.00  0.00    -0.460 OA
BRANCH   2   3
ATOM      3  C   UNL A   1      33.721  20.765  25.426  1.00  0.00     0.336 C 
ATOM      4  O   UNL A   1      33.696  20.736  26.649  1.00  0.00    -0.249 OA
BRANCH   3   5
ATOM      5  C   UNL A   1      32.690  20.048  24.534  1.00  0.00     0.244 C 
BRANCH   5   6
ATOM      6  C   UNL A   1      33.071  18.569  24.374  1.00  0.00     0.094 C 
ATOM      7  C   UNL A   1      32.918  15.341  24.856  1.00  0.00     0.008 C 
ATOM      8  C   UNL A   1      33.455  16.527  25.653  1.00  0.00    -0.013 C 
ATOM      9  C   UNL A   1      34.819  17.015  25.157  1.00  0.00     0.005 C 
ATOM     10  C   UNL A   1      32.546  17.747  25.557  1.00  0.00     0.029 C 
ATOM     11  C   UNL A   1      34.595  18.341  24.422  1.00  0.00     0.026 C 
BRANCH   6  12
ATOM     12  C   UNL A   1      32.570  18.062  23.069  1.00  0.00     0.072 C 
ATOM     13  N   UNL A   1      32.156  17.688  22.055  1.00  0.00    -0.198 NA
ENDBRANCH   6  12
ENDBRANCH   5   6
BRANCH   5  14
ATOM     14  O   UNL A   1      32.501  20.697  23.272  1.00  0.00    -0.380 OA
ATOM     15  H   UNL A   1      31.734  20.310  22.821  1.00  0.00     0.211 HD
ENDBRANCH   5  14
ENDBRANCH   3   5
ENDBRANCH   2   3
ENDBRANCH   1   2
BRANCH   1  16
ATOM     16  C   UNL A   1      36.959  20.883  25.184  1.00  0.00     0.275 C 
BRANCH  16  17
ATOM     17  O   UNL A   1      38.245  21.520  25.023  1.00  0.00    -0.458 OA
BRANCH  17  18
ATOM     18  C   UNL A   1      39.156  21.230  25.982  1.00  0.00     0.338 C 
ATOM     19  O   UNL A   1      39.632  20.131  26.233  1.00  0.00    -0.246 OA
BRANCH  18  20
ATOM     20  C   UNL A   1      39.670  22.457  26.615  1.00  0.00     0.060 A 
ATOM     21  C   UNL A   1      39.165  23.673  26.153  1.00  0.00     0.016 A 
ATOM     22  C   UNL A   1      40.720  22.443  27.529  1.00  0.00     0.016 A 
ATOM     23  C   UNL A   1      39.740  24.875  26.526  1.00  0.00     0.010 A 
ATOM     24  C   UNL A   1      41.273  23.661  27.948  1.00  0.00     0.010 A 
ATOM     25  C   UNL A   1      40.809  24.883  27.423  1.00  0.00    -0.014 A 
BRANCH  25  26
ATOM     26  C   UNL A   1      41.456  26.178  27.742  1.00  0.00     0.031 A 
ATOM     27  C   UNL A   1      42.847  26.461  27.253  1.00  0.00     0.074 A 
ATOM     28  C   UNL A   1      40.766  27.123  28.409  1.00  0.00     0.049 A 
ATOM     29  N   UNL A   1      43.604  27.507  27.468  1.00  0.00    -0.248 NA
ATOM     30  C   UNL A   1      43.476  25.427  26.415  1.00  0.00     0.031 C 
ATOM     31  C   UNL A   1      39.384  26.988  28.879  1.00  0.00     0.029 A 
ATOM     32  N   UNL A   1      41.127  28.386  28.800  1.00  0.00    -0.354 N 
ATOM     33  C   UNL A   1      44.804  27.246  26.818  1.00  0.00     0.074 A 
ATOM     34  C   UNL A   1      44.686  25.931  26.225  1.00  0.00     0.031 C 
ATOM     35  C   UNL A   1      39.012  28.128  29.482  1.00  0.00     0.029 A 
ATOM     36  C   UNL A   1      40.146  29.045  29.499  1.00  0.00     0.049 A 
ATOM     37  H   UNL A   1      42.005  28.784  28.599  1.00  0.00     0.167 HD
ATOM     38  C   UNL A   1      45.900  28.036  26.724  1.00  0.00     0.037 A 
ATOM     39  C   UNL A   1      40.168  30.242  30.115  1.00  0.00     0.037 A 
ATOM     40  C   UNL A   1      46.001  29.348  27.308  1.00  0.00     0.049 A 
ATOM     41  C   UNL A   1      41.423  31.066  30.055  1.00  0.00     0.074 A 
ATOM     42  C   UNL A   1      47.064  30.233  27.264  1.00  0.00     0.029 A 
ATOM     43  N   UNL A   1      44.999  29.964  28.046  1.00  0.00    -0.354 N 
ATOM     44  N   UNL A   1      42.556  30.808  29.448  1.00  0.00    -0.248 NA
ATOM     45  C   UNL A   1      41.402  32.351  30.764  1.00  0.00     0.031 C 
ATOM     46  C   UNL A   1      46.730  31.356  28.027  1.00  0.00     0.029 A 
ATOM     47  C   UNL A   1      45.431  31.207  28.483  1.00  0.00     0.049 A 
ATOM     48  H   UNL A   1      44.114  29.577  28.230  1.00  0.00     0.167 HD
ATOM     49  C   UNL A   1      43.369  31.911  29.671  1.00  0.00     0.074 A 
ATOM     50  C   UNL A   1      42.591  32.847  30.456  1.00  0.00     0.031 C 
ATOM     51  C   UNL A   1      44.642  32.132  29.259  1.00  0.00     0.037 A 
BRANCH  38  52
ATOM     52  C   UNL A   1      47.095  27.482  25.998  1.00  0.00     0.057 A 
ATOM     53  C   UNL A   1      47.282  27.656  24.620  1.00  0.00     0.134 A 
ATOM     54  C   UNL A   1      48.090  26.786  26.699  1.00  0.00     0.134 A 
ATOM     55  F   UNL A   1      46.362  28.299  23.885  1.00  0.00    -0.206 F 
ATOM     56  C   UNL A   1      48.398  27.134  23.962  1.00  0.00     0.040 A 
ATOM     57  C   UNL A   1      49.225  26.288  26.058  1.00  0.00     0.040 A 
ATOM     58  F   UNL A   1      47.980  26.587  28.020  1.00  0.00    -0.206 F 
ATOM     59  C   UNL A   1      49.378  26.454  24.684  1.00  0.00     0.006 A 
ENDBRANCH  38  52
BRANCH  39  60
ATOM     60  C   UNL A   1      38.975  30.719  30.862  1.00  0.00     0.057 A 
ATOM     61  C   UNL A   1      38.771  30.377  32.203  1.00  0.00     0.134 A 
ATOM     62  C   UNL A   1      38.000  31.515  30.245  1.00  0.00     0.134 A 
ATOM     63  F   UNL A   1      39.656  29.601  32.844  1.00  0.00    -0.206 F 
ATOM     64  C   UNL A   1      37.630  30.786  32.896  1.00  0.00     0.040 A 
ATOM     65  C   UNL A   1      36.872  31.959  30.936  1.00  0.00     0.040 A 
ATOM     66  F   UNL A   1      38.136  31.883  28.962  1.00  0.00    -0.206 F 
ATOM     67  C   UNL A   1      36.680  31.585  32.264  1.00  0.00     0.006 A 
ENDBRANCH  39  60
BRANCH  51  68
ATOM     68  C   UNL A   1      45.250  33.464  29.600  1.00  0.00     0.057 A 
ATOM     69  C   UNL A   1      45.995  33.670  30.768  1.00  0.00     0.134 A 
ATOM     70  C   UNL A   1      45.098  34.553  28.731  1.00  0.00     0.134 A 
ATOM     71  F   UNL A   1      46.169  32.673  31.650  1.00  0.00    -0.206 F 
ATOM     72  C   UNL A   1      46.533  34.920  31.079  1.00  0.00     0.040 A 
ATOM     73  C   UNL A   1      45.663  35.797  29.014  1.00  0.00     0.040 A 
ATOM     74  F   UNL A   1      44.408  34.424  27.589  1.00  0.00    -0.206 F 
ATOM     75  C   UNL A   1      46.373  35.986  30.196  1.00  0.00     0.006 A 
ENDBRANCH  51  68
ENDBRANCH  25  26
ENDBRANCH  18  20
ENDBRANCH  17  18
ENDBRANCH  16  17
ENDBRANCH   1  16
TORSDOF 14
ENDMDL
