MODEL 1
REMARK VINA RESULT:     -11.4      0.000      0.000
REMARK SMILES CCn1cc(C)c(C(=O)OCCOC(=O)c2ccc(-c3c4nc(c(-c5c(F)cccc5F)c5ccc([nH]5)c(-c5c(F)cccc5F)c5nc(c(-c6c(F)cccc6F)c6ccc3[nH]6)C=C5)C=C4)cc2)c1CC(=O)N1CCc2ccccc21
REMARK SMILES IDX 11 1 10 2 8 3 9 4 7 5 3 6 4 7 70 8 5 9 6 10 2 11 1 12 71 13
REMARK SMILES IDX 72 14 73 15 74 16 75 17 82 18 76 19 77 20 81 21 78 22 80 23
REMARK SMILES IDX 79 24 12 25 13 26 14 27 15 28 16 29 17 30 69 31 18 32 68 33
REMARK SMILES IDX 19 34 20 35 21 36 62 37 22 38 67 39 61 40 63 41 23 42 66 43
REMARK SMILES IDX 60 44 59 45 24 47 50 48 33 49 49 50 34 51 37 52 48 53 64 54
REMARK SMILES IDX 35 55 36 56 47 58 65 59 38 60 25 61 26 62 31 63 27 64 28 65
REMARK SMILES IDX 30 66 32 67 29 68 51 69 52 70 57 71 53 72 54 73 56 74 58 75
REMARK SMILES IDX 55 76 39 77 40 78 45 79 41 80 42 81 44 82 46 83 43 84
REMARK H PARENT 63 46 37 57
REMARK Flexibility Score: inf
ROOT
ATOM      1  C   UNL A   1      31.778  30.241  26.871  1.00  0.00     0.275 C 
ENDROOT
BRANCH   1   2
ATOM      2  O   UNL A   1      31.502  29.209  25.911  1.00  0.00    -0.458 OA
BRANCH   2   3
ATOM      3  C   UNL A   1      31.845  27.954  26.290  1.00  0.00     0.340 C 
ATOM      4  O   UNL A   1      31.753  27.563  27.455  1.00  0.00    -0.246 OA
BRANCH   3   5
ATOM      5  C   UNL A   1      32.273  27.054  25.203  1.00  0.00     0.084 A 
ATOM      6  N   UNL A   1      32.347  25.525  23.582  1.00  0.00    -0.350 N 
ATOM      7  C   UNL A   1      33.277  26.466  23.252  1.00  0.00     0.090 A 
ATOM      8  C   UNL A   1      31.876  25.741  24.877  1.00  0.00     0.042 A 
ATOM      9  C   UNL A   1      33.271  27.439  24.221  1.00  0.00    -0.019 A 
ATOM     10  C   UNL A   1      34.143  28.649  24.184  1.00  0.00     0.047 C 
BRANCH   6  11
ATOM     11  C   UNL A   1      31.828  24.572  22.608  1.00  0.00     0.118 C 
ATOM     12  C   UNL A   1      32.895  23.867  21.789  1.00  0.00     0.027 C 
ENDBRANCH   6  11
BRANCH   8  13
ATOM     13  C   UNL A   1      31.009  24.667  25.511  1.00  0.00     0.155 C 
BRANCH  13  14
ATOM     14  C   UNL A   1      31.661  23.644  26.418  1.00  0.00     0.232 C 
ATOM     15  O   UNL A   1      31.390  23.678  27.625  1.00  0.00    -0.274 OA
BRANCH  14  16
ATOM     16  N   UNL A   1      32.490  22.698  25.838  1.00  0.00    -0.311 N 
ATOM     17  C   UNL A   1      32.112  21.401  25.246  1.00  0.00     0.130 C 
ATOM     18  C   UNL A   1      33.851  22.917  25.538  1.00  0.00     0.047 A 
ATOM     19  C   UNL A   1      33.196  21.037  24.220  1.00  0.00     0.059 C 
ATOM     20  C   UNL A   1      34.268  22.030  24.545  1.00  0.00    -0.022 A 
ATOM     21  C   UNL A   1      34.691  23.919  25.996  1.00  0.00     0.026 A 
ATOM     22  C   UNL A   1      35.485  22.205  23.901  1.00  0.00     0.006 A 
ATOM     23  C   UNL A   1      35.933  24.082  25.380  1.00  0.00     0.002 A 
ATOM     24  C   UNL A   1      36.313  23.251  24.316  1.00  0.00     0.000 A 
ENDBRANCH  14  16
ENDBRANCH  13  14
ENDBRANCH   8  13
ENDBRANCH   3   5
ENDBRANCH   2   3
ENDBRANCH   1   2
BRANCH   1  25
ATOM     25  C   UNL A   1      33.210  30.761  26.787  1.00  0.00     0.275 C 
BRANCH  25  26
ATOM     26  O   UNL A   1      33.973  30.627  27.987  1.00  0.00    -0.458 OA
BRANCH  26  27
ATOM     27  C   UNL A   1      34.975  31.527  28.081  1.00  0.00     0.338 C 
ATOM     28  O   UNL A   1      35.045  32.649  27.615  1.00  0.00    -0.246 OA
BRANCH  27  29
ATOM     29  C   UNL A   1      36.169  30.895  28.614  1.00  0.00     0.060 A 
ATOM     30  C   UNL A   1      37.210  31.723  29.038  1.00  0.00     0.016 A 
ATOM     31  C   UNL A   1      36.338  29.523  28.395  1.00  0.00     0.016 A 
ATOM     32  C   UNL A   1      38.461  31.173  29.201  1.00  0.00     0.010 A 
ATOM     33  C   UNL A   1      37.589  28.976  28.559  1.00  0.00     0.010 A 
ATOM     34  C   UNL A   1      38.647  29.813  28.922  1.00  0.00    -0.014 A 
BRANCH  34  35
ATOM     35  C   UNL A   1      39.967  29.257  29.154  1.00  0.00     0.031 A 
ATOM     36  C   UNL A   1      40.342  29.160  30.593  1.00  0.00     0.074 A 
ATOM     37  C   UNL A   1      40.693  28.704  28.167  1.00  0.00     0.049 A 
ATOM     38  N   UNL A   1      41.403  29.597  31.189  1.00  0.00    -0.248 NA
ATOM     39  C   UNL A   1      39.339  28.579  31.504  1.00  0.00     0.031 C 
ATOM     40  C   UNL A   1      40.295  28.457  26.778  1.00  0.00     0.029 A 
ATOM     41  N   UNL A   1      41.915  28.119  28.249  1.00  0.00    -0.354 N 
ATOM     42  C   UNL A   1      41.280  29.201  32.520  1.00  0.00     0.074 A 
ATOM     43  C   UNL A   1      39.942  28.702  32.684  1.00  0.00     0.031 C 
ATOM     44  C   UNL A   1      41.152  27.570  26.228  1.00  0.00     0.029 A 
ATOM     45  C   UNL A   1      42.214  27.294  27.181  1.00  0.00     0.049 A 
ATOM     46  H   UNL A   1      42.533  28.269  29.001  1.00  0.00     0.167 HD
ATOM     47  C   UNL A   1      42.353  29.113  33.350  1.00  0.00     0.037 A 
ATOM     48  C   UNL A   1      43.207  26.376  27.136  1.00  0.00     0.037 A 
ATOM     49  C   UNL A   1      43.449  29.922  32.895  1.00  0.00     0.049 A 
ATOM     50  C   UNL A   1      44.180  26.704  28.208  1.00  0.00     0.074 A 
ATOM     51  C   UNL A   1      43.631  31.272  32.670  1.00  0.00     0.029 A 
ATOM     52  N   UNL A   1      44.505  29.300  32.277  1.00  0.00    -0.354 N 
ATOM     53  N   UNL A   1      44.934  27.768  28.213  1.00  0.00    -0.248 NA
ATOM     54  C   UNL A   1      44.009  26.059  29.503  1.00  0.00     0.031 C 
ATOM     55  C   UNL A   1      44.494  31.346  31.537  1.00  0.00     0.029 A 
ATOM     56  C   UNL A   1      44.799  30.037  31.160  1.00  0.00     0.049 A 
ATOM     57  H   UNL A   1      44.963  28.482  32.579  1.00  0.00     0.167 HD
ATOM     58  C   UNL A   1      44.999  28.157  29.545  1.00  0.00     0.074 A 
ATOM     59  C   UNL A   1      44.498  27.013  30.300  1.00  0.00     0.031 C 
ATOM     60  C   UNL A   1      45.191  29.463  29.895  1.00  0.00     0.037 A 
BRANCH  47  61
ATOM     61  C   UNL A   1      42.520  28.015  34.371  1.00  0.00     0.057 A 
ATOM     62  C   UNL A   1      42.841  26.715  33.940  1.00  0.00     0.134 A 
ATOM     63  C   UNL A   1      42.086  28.112  35.709  1.00  0.00     0.134 A 
ATOM     64  F   UNL A   1      43.254  26.488  32.684  1.00  0.00    -0.206 F 
ATOM     65  C   UNL A   1      42.665  25.591  34.756  1.00  0.00     0.040 A 
ATOM     66  C   UNL A   1      41.956  27.003  36.548  1.00  0.00     0.040 A 
ATOM     67  F   UNL A   1      41.668  29.264  36.249  1.00  0.00    -0.206 F 
ATOM     68  C   UNL A   1      42.211  25.732  36.061  1.00  0.00     0.006 A 
ENDBRANCH  47  61
BRANCH  48  69
ATOM     69  C   UNL A   1      43.171  25.073  26.439  1.00  0.00     0.057 A 
ATOM     70  C   UNL A   1      44.064  24.767  25.407  1.00  0.00     0.134 A 
ATOM     71  C   UNL A   1      42.391  24.003  26.921  1.00  0.00     0.134 A 
ATOM     72  F   UNL A   1      44.887  25.707  24.920  1.00  0.00    -0.206 F 
ATOM     73  C   UNL A   1      44.172  23.474  24.879  1.00  0.00     0.040 A 
ATOM     74  C   UNL A   1      42.479  22.712  26.396  1.00  0.00     0.040 A 
ATOM     75  F   UNL A   1      41.574  24.159  27.974  1.00  0.00    -0.206 F 
ATOM     76  C   UNL A   1      43.378  22.441  25.375  1.00  0.00     0.006 A 
ENDBRANCH  48  69
BRANCH  60  77
ATOM     77  C   UNL A   1      45.552  30.432  28.806  1.00  0.00     0.057 A 
ATOM     78  C   UNL A   1      46.867  30.632  28.359  1.00  0.00     0.134 A 
ATOM     79  C   UNL A   1      44.535  31.049  28.071  1.00  0.00     0.134 A 
ATOM     80  F   UNL A   1      47.894  29.990  28.928  1.00  0.00    -0.206 F 
ATOM     81  C   UNL A   1      47.161  31.444  27.262  1.00  0.00     0.040 A 
ATOM     82  C   UNL A   1      44.812  31.838  26.952  1.00  0.00     0.040 A 
ATOM     83  F   UNL A   1      43.249  30.847  28.396  1.00  0.00    -0.206 F 
ATOM     84  C   UNL A   1      46.130  32.046  26.549  1.00  0.00     0.006 A 
ENDBRANCH  60  77
ENDBRANCH  34  35
ENDBRANCH  27  29
ENDBRANCH  26  27
ENDBRANCH  25  26
ENDBRANCH   1  25
TORSDOF 15
ENDMDL
MODEL 2
REMARK VINA RESULT:     -11.2      1.263      2.104
REMARK SMILES CCn1cc(C)c(C(=O)OCCOC(=O)c2ccc(-c3c4nc(c(-c5c(F)cccc5F)c5ccc([nH]5)c(-c5c(F)cccc5F)c5nc(c(-c6c(F)cccc6F)c6ccc3[nH]6)C=C5)C=C4)cc2)c1CC(=O)N1CCc2ccccc21
REMARK SMILES IDX 11 1 10 2 8 3 9 4 7 5 3 6 4 7 70 8 5 9 6 10 2 11 1 12 71 13
REMARK SMILES IDX 72 14 73 15 74 16 75 17 82 18 76 19 77 20 81 21 78 22 80 23
REMARK SMILES IDX 79 24 12 25 13 26 14 27 15 28 16 29 17 30 69 31 18 32 68 33
REMARK SMILES IDX 19 34 20 35 21 36 62 37 22 38 67 39 61 40 63 41 23 42 66 43
REMARK SMILES IDX 60 44 59 45 24 47 50 48 33 49 49 50 34 51 37 52 48 53 64 54
REMARK SMILES IDX 35 55 36 56 47 58 65 59 38 60 25 61 26 62 31 63 27 64 28 65
REMARK SMILES IDX 30 66 32 67 29 68 51 69 52 70 57 71 53 72 54 73 56 74 58 75
REMARK SMILES IDX 55 76 39 77 40 78 45 79 41 80 42 81 44 82 46 83 43 84
REMARK H PARENT 63 46 37 57
REMARK Flexibility Score: inf
ROOT
ATOM      1  C   UNL A   1      32.552  29.930  26.338  1.00  0.00     0.275 C 
ENDROOT
BRANCH   1   2
ATOM      2  O   UNL A   1      33.476  29.052  25.675  1.00  0.00    -0.458 OA
BRANCH   2   3
ATOM      3  C   UNL A   1      33.030  28.501  24.520  1.00  0.00     0.340 C 
ATOM      4  O   UNL A   1      33.375  28.912  23.411  1.00  0.00    -0.246 OA
BRANCH   3   5
ATOM      5  C   UNL A   1      32.154  27.325  24.672  1.00  0.00     0.084 A 
ATOM      6  N   UNL A   1      31.170  25.455  25.385  1.00  0.00    -0.350 N 
ATOM      7  C   UNL A   1      30.196  26.176  24.759  1.00  0.00     0.090 A 
ATOM      8  C   UNL A   1      32.421  26.028  25.156  1.00  0.00     0.042 A 
ATOM      9  C   UNL A   1      30.751  27.345  24.300  1.00  0.00    -0.019 A 
ATOM     10  C   UNL A   1      29.979  28.401  23.582  1.00  0.00     0.047 C 
BRANCH   6  11
ATOM     11  C   UNL A   1      30.861  24.365  26.303  1.00  0.00     0.118 C 
ATOM     12  C   UNL A   1      30.848  22.988  25.661  1.00  0.00     0.027 C 
ENDBRANCH   6  11
BRANCH   8  13
ATOM     13  C   UNL A   1      33.654  25.245  25.576  1.00  0.00     0.155 C 
BRANCH  13  14
ATOM     14  C   UNL A   1      34.338  24.359  24.554  1.00  0.00     0.232 C 
ATOM     15  O   UNL A   1      34.478  24.795  23.405  1.00  0.00    -0.274 OA
BRANCH  14  16
ATOM     16  N   UNL A   1      34.812  23.127  24.978  1.00  0.00    -0.311 N 
ATOM     17  C   UNL A   1      34.174  21.807  24.820  1.00  0.00     0.130 C 
ATOM     18  C   UNL A   1      36.114  22.911  25.474  1.00  0.00     0.047 A 
ATOM     19  C   UNL A   1      35.295  20.756  24.854  1.00  0.00     0.059 C 
ATOM     20  C   UNL A   1      36.457  21.565  25.339  1.00  0.00    -0.022 A 
ATOM     21  C   UNL A   1      37.041  23.840  25.917  1.00  0.00     0.026 A 
ATOM     22  C   UNL A   1      37.766  21.143  25.521  1.00  0.00     0.006 A 
ATOM     23  C   UNL A   1      38.353  23.420  26.139  1.00  0.00     0.002 A 
ATOM     24  C   UNL A   1      38.721  22.086  25.910  1.00  0.00     0.000 A 
ENDBRANCH  14  16
ENDBRANCH  13  14
ENDBRANCH   8  13
ENDBRANCH   3   5
ENDBRANCH   2   3
ENDBRANCH   1   2
BRANCH   1  25
ATOM     25  C   UNL A   1      33.197  30.724  27.470  1.00  0.00     0.275 C 
BRANCH  25  26
ATOM     26  O   UNL A   1      34.548  31.125  27.234  1.00  0.00    -0.458 OA
BRANCH  26  27
ATOM     27  C   UNL A   1      35.086  31.809  28.267  1.00  0.00     0.338 C 
ATOM     28  O   UNL A   1      34.854  32.944  28.639  1.00  0.00    -0.246 OA
BRANCH  27  29
ATOM     29  C   UNL A   1      36.246  31.106  28.784  1.00  0.00     0.060 A 
ATOM     30  C   UNL A   1      37.318  31.871  29.246  1.00  0.00     0.016 A 
ATOM     31  C   UNL A   1      36.358  29.737  28.515  1.00  0.00     0.016 A 
ATOM     32  C   UNL A   1      38.543  31.262  29.397  1.00  0.00     0.010 A 
ATOM     33  C   UNL A   1      37.582  29.131  28.667  1.00  0.00     0.010 A 
ATOM     34  C   UNL A   1      38.673  29.907  29.068  1.00  0.00    -0.014 A 
BRANCH  34  35
ATOM     35  C   UNL A   1      39.965  29.286  29.288  1.00  0.00     0.031 A 
ATOM     36  C   UNL A   1      40.284  29.036  30.723  1.00  0.00     0.074 A 
ATOM     37  C   UNL A   1      40.710  28.807  28.277  1.00  0.00     0.049 A 
ATOM     38  N   UNL A   1      41.336  29.377  31.393  1.00  0.00    -0.248 NA
ATOM     39  C   UNL A   1      39.230  28.405  31.539  1.00  0.00     0.031 C 
ATOM     40  C   UNL A   1      40.355  28.709  26.858  1.00  0.00     0.029 A 
ATOM     41  N   UNL A   1      41.909  28.174  28.342  1.00  0.00    -0.354 N 
ATOM     42  C   UNL A   1      41.152  28.858  32.674  1.00  0.00     0.074 A 
ATOM     43  C   UNL A   1      39.793  28.391  32.744  1.00  0.00     0.031 C 
ATOM     44  C   UNL A   1      41.203  27.851  26.252  1.00  0.00     0.029 A 
ATOM     45  C   UNL A   1      42.220  27.447  27.208  1.00  0.00     0.049 A 
ATOM     46  H   UNL A   1      42.503  28.229  29.125  1.00  0.00     0.167 HD
ATOM     47  C   UNL A   1      42.190  28.652  33.527  1.00  0.00     0.037 A 
ATOM     48  C   UNL A   1      43.186  26.504  27.106  1.00  0.00     0.037 A 
ATOM     49  C   UNL A   1      43.327  29.463  33.191  1.00  0.00     0.049 A 
ATOM     50  C   UNL A   1      44.128  26.692  28.237  1.00  0.00     0.074 A 
ATOM     51  C   UNL A   1      43.559  30.822  33.106  1.00  0.00     0.029 A 
ATOM     52  N   UNL A   1      44.385  28.868  32.550  1.00  0.00    -0.354 N 
ATOM     53  N   UNL A   1      44.914  27.725  28.373  1.00  0.00    -0.248 NA
ATOM     54  C   UNL A   1      43.890  25.931  29.457  1.00  0.00     0.031 C 
ATOM     55  C   UNL A   1      44.465  30.976  32.015  1.00  0.00     0.029 A 
ATOM     56  C   UNL A   1      44.743  29.700  31.522  1.00  0.00     0.049 A 
ATOM     57  H   UNL A   1      44.805  28.009  32.785  1.00  0.00     0.167 HD
ATOM     58  C   UNL A   1      44.943  27.980  29.737  1.00  0.00     0.074 A 
ATOM     59  C   UNL A   1      44.379  26.786  30.359  1.00  0.00     0.031 C 
ATOM     60  C   UNL A   1      45.162  29.238  30.220  1.00  0.00     0.037 A 
BRANCH  47  61
ATOM     61  C   UNL A   1      42.285  27.455  34.440  1.00  0.00     0.057 A 
ATOM     62  C   UNL A   1      41.900  27.582  35.787  1.00  0.00     0.134 A 
ATOM     63  C   UNL A   1      43.014  26.287  34.133  1.00  0.00     0.134 A 
ATOM     64  F   UNL A   1      41.214  28.654  36.209  1.00  0.00    -0.206 F 
ATOM     65  C   UNL A   1      42.283  26.656  36.765  1.00  0.00     0.040 A 
ATOM     66  C   UNL A   1      43.356  25.331  35.092  1.00  0.00     0.040 A 
ATOM     67  F   UNL A   1      43.521  26.054  32.916  1.00  0.00    -0.206 F 
ATOM     68  C   UNL A   1      43.022  25.532  36.421  1.00  0.00     0.006 A 
ENDBRANCH  47  61
BRANCH  48  69
ATOM     69  C   UNL A   1      43.134  25.277  26.284  1.00  0.00     0.057 A 
ATOM     70  C   UNL A   1      44.080  25.022  25.284  1.00  0.00     0.134 A 
ATOM     71  C   UNL A   1      42.274  24.210  26.609  1.00  0.00     0.134 A 
ATOM     72  F   UNL A   1      44.977  25.959  24.945  1.00  0.00    -0.206 F 
ATOM     73  C   UNL A   1      44.161  23.782  24.639  1.00  0.00     0.040 A 
ATOM     74  C   UNL A   1      42.336  22.971  25.966  1.00  0.00     0.040 A 
ATOM     75  F   UNL A   1      41.397  24.308  27.619  1.00  0.00    -0.206 F 
ATOM     76  C   UNL A   1      43.288  22.751  24.981  1.00  0.00     0.006 A 
ENDBRANCH  48  69
BRANCH  60  77
ATOM     77  C   UNL A   1      45.593  30.295  29.244  1.00  0.00     0.057 A 
ATOM     78  C   UNL A   1      44.689  31.088  28.522  1.00  0.00     0.134 A 
ATOM     79  C   UNL A   1      46.945  30.642  29.160  1.00  0.00     0.134 A 
ATOM     80  F   UNL A   1      43.369  30.904  28.632  1.00  0.00    -0.206 F 
ATOM     81  C   UNL A   1      45.114  32.148  27.716  1.00  0.00     0.040 A 
ATOM     82  C   UNL A   1      47.380  31.719  28.384  1.00  0.00     0.040 A 
ATOM     83  F   UNL A   1      47.860  29.974  29.878  1.00  0.00    -0.206 F 
ATOM     84  C   UNL A   1      46.464  32.470  27.650  1.00  0.00     0.006 A 
ENDBRANCH  60  77
ENDBRANCH  34  35
ENDBRANCH  27  29
ENDBRANCH  26  27
ENDBRANCH  25  26
ENDBRANCH   1  25
TORSDOF 15
ENDMDL
MODEL 3
REMARK VINA RESULT:     -11.2      2.808      7.650
REMARK SMILES CCn1cc(C)c(C(=O)OCCOC(=O)c2ccc(-c3c4nc(c(-c5c(F)cccc5F)c5ccc([nH]5)c(-c5c(F)cccc5F)c5nc(c(-c6c(F)cccc6F)c6ccc3[nH]6)C=C5)C=C4)cc2)c1CC(=O)N1CCc2ccccc21
REMARK SMILES IDX 11 1 10 2 8 3 9 4 7 5 3 6 4 7 70 8 5 9 6 10 2 11 1 12 71 13
REMARK SMILES IDX 72 14 73 15 74 16 75 17 82 18 76 19 77 20 81 21 78 22 80 23
REMARK SMILES IDX 79 24 12 25 13 26 14 27 15 28 16 29 17 30 69 31 18 32 68 33
REMARK SMILES IDX 19 34 20 35 21 36 62 37 22 38 67 39 61 40 63 41 23 42 66 43
REMARK SMILES IDX 60 44 59 45 24 47 50 48 33 49 49 50 34 51 37 52 48 53 64 54
REMARK SMILES IDX 35 55 36 56 47 58 65 59 38 60 25 61 26 62 31 63 27 64 28 65
REMARK SMILES IDX 30 66 32 67 29 68 51 69 52 70 57 71 53 72 54 73 56 74 58 75
REMARK SMILES IDX 55 76 39 77 40 78 45 79 41 80 42 81 44 82 46 83 43 84
REMARK H PARENT 63 46 37 57
REMARK Flexibility Score: inf
ROOT
ATOM      1  C   UNL A   1      37.252  21.672  24.554  1.00  0.00     0.275 C 
ENDROOT
BRANCH   1   2
ATOM      2  O   UNL A   1      36.841  23.008  24.222  1.00  0.00    -0.458 OA
BRANCH   2   3
ATOM      3  C   UNL A   1      35.761  23.470  24.900  1.00  0.00     0.340 C 
ATOM      4  O   UNL A   1      35.803  24.475  25.611  1.00  0.00    -0.246 OA
BRANCH   3   5
ATOM      5  C   UNL A   1      34.505  22.731  24.676  1.00  0.00     0.084 A 
ATOM      6  N   UNL A   1      32.835  21.549  23.790  1.00  0.00    -0.350 N 
ATOM      7  C   UNL A   1      32.859  21.228  25.115  1.00  0.00     0.090 A 
ATOM      8  C   UNL A   1      33.682  22.627  23.535  1.00  0.00     0.042 A 
ATOM      9  C   UNL A   1      33.877  21.931  25.711  1.00  0.00    -0.019 A 
ATOM     10  C   UNL A   1      34.223  21.817  27.158  1.00  0.00     0.047 C 
BRANCH   6  11
ATOM     11  C   UNL A   1      32.149  20.722  22.804  1.00  0.00     0.118 C 
ATOM     12  C   UNL A   1      32.181  19.233  23.102  1.00  0.00     0.027 C 
ENDBRANCH   6  11
BRANCH   8  13
ATOM     13  C   UNL A   1      33.618  23.279  22.165  1.00  0.00     0.155 C 
BRANCH  13  14
ATOM     14  C   UNL A   1      33.012  24.663  22.043  1.00  0.00     0.232 C 
ATOM     15  O   UNL A   1      33.301  25.341  21.049  1.00  0.00    -0.274 OA
BRANCH  14  16
ATOM     16  N   UNL A   1      32.129  25.072  23.029  1.00  0.00    -0.311 N 
ATOM     17  C   UNL A   1      30.774  24.558  23.305  1.00  0.00     0.130 C 
ATOM     18  C   UNL A   1      32.471  25.945  24.082  1.00  0.00     0.047 A 
ATOM     19  C   UNL A   1      30.476  24.839  24.786  1.00  0.00     0.059 C 
ATOM     20  C   UNL A   1      31.587  25.775  25.148  1.00  0.00    -0.022 A 
ATOM     21  C   UNL A   1      33.573  26.777  24.198  1.00  0.00     0.026 A 
ATOM     22  C   UNL A   1      31.854  26.332  26.390  1.00  0.00     0.006 A 
ATOM     23  C   UNL A   1      33.833  27.373  25.433  1.00  0.00     0.002 A 
ATOM     24  C   UNL A   1      32.997  27.124  26.532  1.00  0.00     0.000 A 
ENDBRANCH  14  16
ENDBRANCH  13  14
ENDBRANCH   8  13
ENDBRANCH   3   5
ENDBRANCH   2   3
ENDBRANCH   1   2
BRANCH   1  25
ATOM     25  C   UNL A   1      38.417  21.638  25.539  1.00  0.00     0.275 C 
BRANCH  25  26
ATOM     26  O   UNL A   1      38.664  22.866  26.227  1.00  0.00    -0.458 OA
BRANCH  26  27
ATOM     27  C   UNL A   1      39.853  22.886  26.866  1.00  0.00     0.338 C 
ATOM     28  O   UNL A   1      40.508  21.955  27.296  1.00  0.00    -0.246 OA
BRANCH  27  29
ATOM     29  C   UNL A   1      40.190  24.243  27.257  1.00  0.00     0.060 A 
ATOM     30  C   UNL A   1      41.350  24.435  28.009  1.00  0.00     0.016 A 
ATOM     31  C   UNL A   1      39.202  25.227  27.130  1.00  0.00     0.016 A 
ATOM     32  C   UNL A   1      41.502  25.622  28.690  1.00  0.00     0.010 A 
ATOM     33  C   UNL A   1      39.358  26.411  27.811  1.00  0.00     0.010 A 
ATOM     34  C   UNL A   1      40.487  26.582  28.616  1.00  0.00    -0.014 A 
BRANCH  34  35
ATOM     35  C   UNL A   1      40.705  27.840  29.304  1.00  0.00     0.031 A 
ATOM     36  C   UNL A   1      41.786  28.679  28.712  1.00  0.00     0.074 A 
ATOM     37  C   UNL A   1      39.874  28.285  30.262  1.00  0.00     0.049 A 
ATOM     38  N   UNL A   1      42.810  29.214  29.292  1.00  0.00    -0.248 NA
ATOM     39  C   UNL A   1      41.764  28.855  27.248  1.00  0.00     0.031 C 
ATOM     40  C   UNL A   1      38.604  27.699  30.704  1.00  0.00     0.029 A 
ATOM     41  N   UNL A   1      39.936  29.450  30.956  1.00  0.00    -0.354 N 
ATOM     42  C   UNL A   1      43.474  29.933  28.299  1.00  0.00     0.074 A 
ATOM     43  C   UNL A   1      42.868  29.570  27.046  1.00  0.00     0.031 C 
ATOM     44  C   UNL A   1      37.914  28.625  31.403  1.00  0.00     0.029 A 
ATOM     45  C   UNL A   1      38.744  29.807  31.559  1.00  0.00     0.049 A 
ATOM     46  H   UNL A   1      40.756  29.991  31.024  1.00  0.00     0.167 HD
ATOM     47  C   UNL A   1      44.338  30.941  28.591  1.00  0.00     0.037 A 
ATOM     48  C   UNL A   1      38.437  31.028  32.056  1.00  0.00     0.037 A 
ATOM     49  C   UNL A   1      44.857  30.829  29.925  1.00  0.00     0.049 A 
ATOM     50  C   UNL A   1      39.706  31.771  32.256  1.00  0.00     0.074 A 
ATOM     51  C   UNL A   1      45.603  29.883  30.601  1.00  0.00     0.029 A 
ATOM     52  N   UNL A   1      44.346  31.656  30.894  1.00  0.00    -0.354 N 
ATOM     53  N   UNL A   1      40.611  31.453  33.140  1.00  0.00    -0.248 NA
ATOM     54  C   UNL A   1      40.173  32.627  31.173  1.00  0.00     0.031 C 
ATOM     55  C   UNL A   1      45.104  29.903  31.937  1.00  0.00     0.029 A 
ATOM     56  C   UNL A   1      44.104  30.874  31.993  1.00  0.00     0.049 A 
ATOM     57  H   UNL A   1      44.186  32.624  30.815  1.00  0.00     0.167 HD
ATOM     58  C   UNL A   1      41.826  31.721  32.525  1.00  0.00     0.074 A 
ATOM     59  C   UNL A   1      41.491  32.534  31.361  1.00  0.00     0.031 C 
ATOM     60  C   UNL A   1      42.958  31.032  32.857  1.00  0.00     0.037 A 
BRANCH  47  61
ATOM     61  C   UNL A   1      44.426  32.214  27.787  1.00  0.00     0.057 A 
ATOM     62  C   UNL A   1      43.546  33.273  28.072  1.00  0.00     0.134 A 
ATOM     63  C   UNL A   1      45.121  32.326  26.564  1.00  0.00     0.134 A 
ATOM     64  F   UNL A   1      42.817  33.278  29.198  1.00  0.00    -0.206 F 
ATOM     65  C   UNL A   1      43.318  34.320  27.172  1.00  0.00     0.040 A 
ATOM     66  C   UNL A   1      44.939  33.394  25.683  1.00  0.00     0.040 A 
ATOM     67  F   UNL A   1      45.936  31.366  26.109  1.00  0.00    -0.206 F 
ATOM     68  C   UNL A   1      44.008  34.378  25.967  1.00  0.00     0.006 A 
ENDBRANCH  47  61
BRANCH  48  69
ATOM     69  C   UNL A   1      37.107  31.674  32.045  1.00  0.00     0.057 A 
ATOM     70  C   UNL A   1      36.491  32.105  33.224  1.00  0.00     0.134 A 
ATOM     71  C   UNL A   1      36.499  32.083  30.842  1.00  0.00     0.134 A 
ATOM     72  F   UNL A   1      37.027  31.810  34.417  1.00  0.00    -0.206 F 
ATOM     73  C   UNL A   1      35.332  32.892  33.210  1.00  0.00     0.040 A 
ATOM     74  C   UNL A   1      35.337  32.858  30.813  1.00  0.00     0.040 A 
ATOM     75  F   UNL A   1      37.059  31.813  29.654  1.00  0.00    -0.206 F 
ATOM     76  C   UNL A   1      34.752  33.272  32.001  1.00  0.00     0.006 A 
ENDBRANCH  48  69
BRANCH  60  77
ATOM     77  C   UNL A   1      42.901  30.134  34.060  1.00  0.00     0.057 A 
ATOM     78  C   UNL A   1      43.112  30.589  35.370  1.00  0.00     0.134 A 
ATOM     79  C   UNL A   1      42.451  28.818  33.913  1.00  0.00     0.134 A 
ATOM     80  F   UNL A   1      43.431  31.865  35.614  1.00  0.00    -0.206 F 
ATOM     81  C   UNL A   1      42.930  29.761  36.479  1.00  0.00     0.040 A 
ATOM     82  C   UNL A   1      42.234  27.989  35.016  1.00  0.00     0.040 A 
ATOM     83  F   UNL A   1      42.160  28.335  32.695  1.00  0.00    -0.206 F 
ATOM     84  C   UNL A   1      42.483  28.456  36.305  1.00  0.00     0.006 A 
ENDBRANCH  60  77
ENDBRANCH  34  35
ENDBRANCH  27  29
ENDBRANCH  26  27
ENDBRANCH  25  26
ENDBRANCH   1  25
TORSDOF 15
ENDMDL
