MODEL 1
REMARK VINA RESULT:     -11.2      0.000      0.000
REMARK SMILES CC(C)[C@@H](NC(=O)[C@@H]1CC[C@H]2CCCC[C@@H]2[NH2+]1)C(=O)OCCOC(=O)c1ccc(-c2c3nc(c(-c4c(F)cccc4F)c4ccc([nH]4)c(-c4c(F)cccc4F)c4nc(c(-c5c(F)cccc5F)c5ccc2[nH]5)C=C4)C=C3)cc1
REMARK SMILES IDX 21 1 20 2 18 3 19 4 4 5 2 6 1 7 3 8 5 9 6 10 7 12 8 13 9 14
REMARK SMILES IDX 17 15 10 16 16 17 11 20 15 21 12 22 14 23 13 24 22 25 23 26
REMARK SMILES IDX 24 27 25 28 26 29 27 30 79 31 28 32 78 33 29 34 30 35 31 36
REMARK SMILES IDX 72 37 32 38 77 39 71 40 73 41 33 42 76 43 70 44 69 45 34 47
REMARK SMILES IDX 60 48 43 49 59 50 44 51 47 52 58 53 74 54 45 55 46 56 57 58
REMARK SMILES IDX 75 59 48 60 35 61 36 62 41 63 37 64 38 65 40 66 42 67 39 68
REMARK SMILES IDX 61 69 62 70 67 71 63 72 64 73 66 74 68 75 65 76 49 77 50 78
REMARK SMILES IDX 55 79 51 80 52 81 54 82 56 83 53 84
REMARK H PARENT 5 11 17 18 17 19 73 46 47 57
REMARK Flexibility Score: inf
ROOT
ATOM      1  C   UNL A   1      42.004  19.231  26.570  1.00  0.00     0.274 C 
ENDROOT
BRANCH   1   2
ATOM      2  O   UNL A   1      41.332  20.236  25.769  1.00  0.00    -0.461 OA
BRANCH   2   3
ATOM      3  C   UNL A   1      39.971  20.225  25.790  1.00  0.00     0.329 C 
ATOM      4  O   UNL A   1      39.287  19.288  25.387  1.00  0.00    -0.250 OA
BRANCH   3   5
ATOM      5  C   UNL A   1      39.353  21.590  26.176  1.00  0.00     0.195 C 
BRANCH   5   6
ATOM      6  C   UNL A   1      40.202  22.686  26.874  1.00  0.00     0.017 C 
ATOM      7  C   UNL A   1      39.313  23.879  27.271  1.00  0.00     0.010 C 
ATOM      8  C   UNL A   1      40.921  22.211  28.139  1.00  0.00     0.010 C 
ENDBRANCH   5   6
BRANCH   5   9
ATOM      9  N   UNL A   1      38.550  22.118  25.054  1.00  0.00    -0.337 N 
ATOM     10  C   UNL A   1      37.242  21.905  24.701  1.00  0.00     0.278 C 
ATOM     11  H   UNL A   1      39.038  22.729  24.456  1.00  0.00     0.164 HD
ATOM     12  O   UNL A   1      36.898  22.262  23.572  1.00  0.00    -0.268 OA
BRANCH  10  13
ATOM     13  C   UNL A   1      36.271  21.250  25.717  1.00  0.00     0.272 C 
ATOM     14  C   UNL A   1      35.419  20.177  25.016  1.00  0.00     0.076 C 
ATOM     15  N   UNL A   1      35.616  22.271  26.543  1.00  0.00    -0.333 N 
ATOM     16  C   UNL A   1      33.924  20.387  25.138  1.00  0.00     0.016 C 
ATOM     17  C   UNL A   1      34.219  22.559  26.273  1.00  0.00     0.186 C 
ATOM     18  H   UNL A   1      36.135  23.142  26.421  1.00  0.00     0.347 HD
ATOM     19  H   UNL A   1      35.625  21.887  27.487  1.00  0.00     0.347 HD
ATOM     20  C   UNL A   1      33.678  21.879  25.011  1.00  0.00     0.048 C 
ATOM     21  C   UNL A   1      34.044  24.076  26.205  1.00  0.00     0.065 C 
ATOM     22  C   UNL A   1      32.209  22.213  24.801  1.00  0.00     0.010 C 
ATOM     23  C   UNL A   1      32.598  24.455  25.895  1.00  0.00     0.006 C 
ATOM     24  C   UNL A   1      32.058  23.726  24.666  1.00  0.00     0.001 C 
ENDBRANCH  10  13
ENDBRANCH   5   9
ENDBRANCH   3   5
ENDBRANCH   2   3
ENDBRANCH   1   2
BRANCH   1  25
ATOM     25  C   UNL A   1      43.095  18.514  25.786  1.00  0.00     0.275 C 
BRANCH  25  26
ATOM     26  O   UNL A   1      43.388  19.258  24.599  1.00  0.00    -0.458 OA
BRANCH  26  27
ATOM     27  C   UNL A   1      44.708  19.507  24.404  1.00  0.00     0.338 C 
ATOM     28  O   UNL A   1      45.538  18.798  23.885  1.00  0.00    -0.246 OA
BRANCH  27  29
ATOM     29  C   UNL A   1      44.905  20.925  24.714  1.00  0.00     0.060 A 
ATOM     30  C   UNL A   1      44.600  21.866  23.727  1.00  0.00     0.016 A 
ATOM     31  C   UNL A   1      45.316  21.317  25.981  1.00  0.00     0.016 A 
ATOM     32  C   UNL A   1      44.619  23.218  24.012  1.00  0.00     0.010 A 
ATOM     33  C   UNL A   1      45.389  22.675  26.259  1.00  0.00     0.010 A 
ATOM     34  C   UNL A   1      45.022  23.618  25.281  1.00  0.00    -0.014 A 
BRANCH  34  35
ATOM     35  C   UNL A   1      45.164  25.045  25.579  1.00  0.00     0.031 A 
ATOM     36  C   UNL A   1      46.523  25.643  25.461  1.00  0.00     0.074 A 
ATOM     37  C   UNL A   1      44.097  25.742  25.998  1.00  0.00     0.049 A 
ATOM     38  N   UNL A   1      46.970  26.771  25.934  1.00  0.00    -0.248 NA
ATOM     39  C   UNL A   1      47.520  24.849  24.724  1.00  0.00     0.031 C 
ATOM     40  C   UNL A   1      42.722  25.242  26.040  1.00  0.00     0.029 A 
ATOM     41  N   UNL A   1      44.016  27.008  26.509  1.00  0.00    -0.354 N 
ATOM     42  C   UNL A   1      48.311  26.807  25.589  1.00  0.00     0.074 A 
ATOM     43  C   UNL A   1      48.608  25.591  24.866  1.00  0.00     0.031 C 
ATOM     44  C   UNL A   1      41.937  26.179  26.598  1.00  0.00     0.029 A 
ATOM     45  C   UNL A   1      42.771  27.305  27.007  1.00  0.00     0.049 A 
ATOM     46  H   UNL A   1      44.770  27.640  26.518  1.00  0.00     0.167 HD
ATOM     47  C   UNL A   1      49.209  27.775  25.877  1.00  0.00     0.037 A 
ATOM     48  C   UNL A   1      42.383  28.342  27.770  1.00  0.00     0.037 A 
ATOM     49  C   UNL A   1      48.865  28.962  26.612  1.00  0.00     0.049 A 
ATOM     50  C   UNL A   1      43.422  29.357  28.163  1.00  0.00     0.074 A 
ATOM     51  C   UNL A   1      49.674  30.024  26.967  1.00  0.00     0.029 A 
ATOM     52  N   UNL A   1      47.597  29.234  27.112  1.00  0.00    -0.354 N 
ATOM     53  N   UNL A   1      44.698  29.397  27.854  1.00  0.00    -0.248 NA
ATOM     54  C   UNL A   1      42.977  30.460  29.023  1.00  0.00     0.031 C 
ATOM     55  C   UNL A   1      48.909  30.910  27.732  1.00  0.00     0.029 A 
ATOM     56  C   UNL A   1      47.608  30.430  27.804  1.00  0.00     0.049 A 
ATOM     57  H   UNL A   1      46.807  28.658  26.992  1.00  0.00     0.167 HD
ATOM     58  C   UNL A   1      45.205  30.535  28.463  1.00  0.00     0.074 A 
ATOM     59  C   UNL A   1      44.090  31.168  29.145  1.00  0.00     0.031 C 
ATOM     60  C   UNL A   1      46.471  31.020  28.467  1.00  0.00     0.037 A 
BRANCH  47  61
ATOM     61  C   UNL A   1      50.628  27.550  25.454  1.00  0.00     0.057 A 
ATOM     62  C   UNL A   1      51.611  27.097  26.343  1.00  0.00     0.134 A 
ATOM     63  C   UNL A   1      51.019  27.797  24.132  1.00  0.00     0.134 A 
ATOM     64  F   UNL A   1      51.310  26.870  27.631  1.00  0.00    -0.206 F 
ATOM     65  C   UNL A   1      52.934  26.915  25.937  1.00  0.00     0.040 A 
ATOM     66  C   UNL A   1      52.332  27.592  23.708  1.00  0.00     0.040 A 
ATOM     67  F   UNL A   1      50.131  28.242  23.230  1.00  0.00    -0.206 F 
ATOM     68  C   UNL A   1      53.296  27.156  24.614  1.00  0.00     0.006 A 
ENDBRANCH  47  61
BRANCH  48  69
ATOM     69  C   UNL A   1      40.981  28.435  28.251  1.00  0.00     0.057 A 
ATOM     70  C   UNL A   1      40.635  28.030  29.544  1.00  0.00     0.134 A 
ATOM     71  C   UNL A   1      39.953  28.928  27.435  1.00  0.00     0.134 A 
ATOM     72  F   UNL A   1      41.569  27.531  30.366  1.00  0.00    -0.206 F 
ATOM     73  C   UNL A   1      39.318  28.096  30.004  1.00  0.00     0.040 A 
ATOM     74  C   UNL A   1      38.638  29.026  27.891  1.00  0.00     0.040 A 
ATOM     75  F   UNL A   1      40.217  29.336  26.184  1.00  0.00    -0.206 F 
ATOM     76  C   UNL A   1      38.316  28.602  29.178  1.00  0.00     0.006 A 
ENDBRANCH  48  69
BRANCH  60  77
ATOM     77  C   UNL A   1      46.705  32.301  29.212  1.00  0.00     0.057 A 
ATOM     78  C   UNL A   1      46.529  33.549  28.603  1.00  0.00     0.134 A 
ATOM     79  C   UNL A   1      47.050  32.280  30.569  1.00  0.00     0.134 A 
ATOM     80  F   UNL A   1      46.211  33.632  27.302  1.00  0.00    -0.206 F 
ATOM     81  C   UNL A   1      46.704  34.735  29.315  1.00  0.00     0.040 A 
ATOM     82  C   UNL A   1      47.197  33.459  31.299  1.00  0.00     0.040 A 
ATOM     83  F   UNL A   1      47.223  31.116  31.212  1.00  0.00    -0.206 F 
ATOM     84  C   UNL A   1      47.029  34.691  30.670  1.00  0.00     0.006 A 
ENDBRANCH  60  77
ENDBRANCH  34  35
ENDBRANCH  27  29
ENDBRANCH  26  27
ENDBRANCH  25  26
ENDBRANCH   1  25
TORSDOF 14
ENDMDL
MODEL 2
REMARK VINA RESULT:     -11.2      5.367      9.540
REMARK SMILES CC(C)[C@@H](NC(=O)[C@@H]1CC[C@H]2CCCC[C@@H]2[NH2+]1)C(=O)OCCOC(=O)c1ccc(-c2c3nc(c(-c4c(F)cccc4F)c4ccc([nH]4)c(-c4c(F)cccc4F)c4nc(c(-c5c(F)cccc5F)c5ccc2[nH]5)C=C4)C=C3)cc1
REMARK SMILES IDX 21 1 20 2 18 3 19 4 4 5 2 6 1 7 3 8 5 9 6 10 7 12 8 13 9 14
REMARK SMILES IDX 17 15 10 16 16 17 11 20 15 21 12 22 14 23 13 24 22 25 23 26
REMARK SMILES IDX 24 27 25 28 26 29 27 30 79 31 28 32 78 33 29 34 30 35 31 36
REMARK SMILES IDX 72 37 32 38 77 39 71 40 73 41 33 42 76 43 70 44 69 45 34 47
REMARK SMILES IDX 60 48 43 49 59 50 44 51 47 52 58 53 74 54 45 55 46 56 57 58
REMARK SMILES IDX 75 59 48 60 35 61 36 62 41 63 37 64 38 65 40 66 42 67 39 68
REMARK SMILES IDX 61 69 62 70 67 71 63 72 64 73 66 74 68 75 65 76 49 77 50 78
REMARK SMILES IDX 55 79 51 80 52 81 54 82 56 83 53 84
REMARK H PARENT 5 11 17 18 17 19 73 46 47 57
REMARK Flexibility Score: inf
ROOT
ATOM      1  C   UNL A   1      31.786  28.897  24.971  1.00  0.00     0.274 C 
ENDROOT
BRANCH   1   2
ATOM      2  O   UNL A   1      30.920  29.040  23.817  1.00  0.00    -0.461 OA
BRANCH   2   3
ATOM      3  C   UNL A   1      30.846  27.977  22.971  1.00  0.00     0.329 C 
ATOM      4  O   UNL A   1      30.533  28.064  21.787  1.00  0.00    -0.250 OA
BRANCH   3   5
ATOM      5  C   UNL A   1      30.991  26.613  23.687  1.00  0.00     0.195 C 
BRANCH   5   6
ATOM      6  C   UNL A   1      29.753  25.878  24.268  1.00  0.00     0.017 C 
ATOM      7  C   UNL A   1      29.856  25.788  25.802  1.00  0.00     0.010 C 
ATOM      8  C   UNL A   1      28.416  26.544  23.937  1.00  0.00     0.010 C 
ENDBRANCH   5   6
BRANCH   5   9
ATOM      9  N   UNL A   1      31.871  25.720  22.904  1.00  0.00    -0.337 N 
ATOM     10  C   UNL A   1      32.984  25.006  23.266  1.00  0.00     0.278 C 
ATOM     11  H   UNL A   1      31.613  25.621  21.959  1.00  0.00     0.164 HD
ATOM     12  O   UNL A   1      33.680  24.550  22.355  1.00  0.00    -0.268 OA
BRANCH  10  13
ATOM     13  C   UNL A   1      33.307  24.797  24.768  1.00  0.00     0.272 C 
ATOM     14  C   UNL A   1      34.830  24.821  24.989  1.00  0.00     0.076 C 
ATOM     15  N   UNL A   1      32.510  23.697  25.322  1.00  0.00    -0.333 N 
ATOM     16  C   UNL A   1      35.384  23.578  25.653  1.00  0.00     0.016 C 
ATOM     17  C   UNL A   1      33.192  22.446  25.598  1.00  0.00     0.186 C 
ATOM     18  H   UNL A   1      31.762  23.497  24.658  1.00  0.00     0.347 HD
ATOM     19  H   UNL A   1      32.204  24.033  26.235  1.00  0.00     0.347 HD
ATOM     20  C   UNL A   1      34.632  22.396  25.074  1.00  0.00     0.048 C 
ATOM     21  C   UNL A   1      32.353  21.304  25.025  1.00  0.00     0.065 C 
ATOM     22  C   UNL A   1      35.286  21.064  25.410  1.00  0.00     0.010 C 
ATOM     23  C   UNL A   1      33.025  19.952  25.252  1.00  0.00     0.006 C 
ATOM     24  C   UNL A   1      34.476  19.938  24.774  1.00  0.00     0.001 C 
ENDBRANCH  10  13
ENDBRANCH   5   9
ENDBRANCH   3   5
ENDBRANCH   2   3
ENDBRANCH   1   2
BRANCH   1  25
ATOM     25  C   UNL A   1      31.855  30.176  25.794  1.00  0.00     0.275 C 
BRANCH  25  26
ATOM     26  O   UNL A   1      33.120  30.240  26.461  1.00  0.00    -0.458 OA
BRANCH  26  27
ATOM     27  C   UNL A   1      33.366  31.418  27.086  1.00  0.00     0.338 C 
ATOM     28  O   UNL A   1      32.635  32.374  27.204  1.00  0.00    -0.246 OA
BRANCH  27  29
ATOM     29  C   UNL A   1      34.614  31.232  27.831  1.00  0.00     0.060 A 
ATOM     30  C   UNL A   1      34.889  29.966  28.355  1.00  0.00     0.016 A 
ATOM     31  C   UNL A   1      35.526  32.273  27.946  1.00  0.00     0.016 A 
ATOM     32  C   UNL A   1      36.114  29.693  28.931  1.00  0.00     0.010 A 
ATOM     33  C   UNL A   1      36.738  32.020  28.571  1.00  0.00     0.010 A 
ATOM     34  C   UNL A   1      37.036  30.727  29.043  1.00  0.00    -0.014 A 
BRANCH  34  35
ATOM     35  C   UNL A   1      38.297  30.500  29.751  1.00  0.00     0.031 A 
ATOM     36  C   UNL A   1      39.290  29.588  29.117  1.00  0.00     0.074 A 
ATOM     37  C   UNL A   1      38.491  31.062  30.953  1.00  0.00     0.049 A 
ATOM     38  N   UNL A   1      40.324  29.001  29.648  1.00  0.00    -0.248 NA
ATOM     39  C   UNL A   1      39.075  29.282  27.693  1.00  0.00     0.031 C 
ATOM     40  C   UNL A   1      37.603  32.041  31.583  1.00  0.00     0.029 A 
ATOM     41  N   UNL A   1      39.478  30.854  31.876  1.00  0.00    -0.354 N 
ATOM     42  C   UNL A   1      40.862  28.222  28.636  1.00  0.00     0.074 A 
ATOM     43  C   UNL A   1      40.044  28.410  27.459  1.00  0.00     0.031 C 
ATOM     44  C   UNL A   1      38.063  32.313  32.815  1.00  0.00     0.029 A 
ATOM     45  C   UNL A   1      39.231  31.477  33.074  1.00  0.00     0.049 A 
ATOM     46  H   UNL A   1      40.282  30.315  31.699  1.00  0.00     0.167 HD
ATOM     47  C   UNL A   1      41.940  27.410  28.708  1.00  0.00     0.037 A 
ATOM     48  C   UNL A   1      39.847  31.322  34.259  1.00  0.00     0.037 A 
ATOM     49  C   UNL A   1      42.713  27.247  29.908  1.00  0.00     0.049 A 
ATOM     50  C   UNL A   1      40.981  30.336  34.342  1.00  0.00     0.074 A 
ATOM     51  C   UNL A   1      43.830  26.462  30.118  1.00  0.00     0.029 A 
ATOM     52  N   UNL A   1      42.435  27.885  31.112  1.00  0.00    -0.354 N 
ATOM     53  N   UNL A   1      41.493  29.583  33.395  1.00  0.00    -0.248 NA
ATOM     54  C   UNL A   1      41.613  30.163  35.655  1.00  0.00     0.031 C 
ATOM     55  C   UNL A   1      44.193  26.581  31.463  1.00  0.00     0.029 A 
ATOM     56  C   UNL A   1      43.338  27.484  32.079  1.00  0.00     0.049 A 
ATOM     57  H   UNL A   1      41.702  28.527  31.255  1.00  0.00     0.167 HD
ATOM     58  C   UNL A   1      42.517  28.862  33.990  1.00  0.00     0.074 A 
ATOM     59  C   UNL A   1      42.565  29.283  35.378  1.00  0.00     0.031 C 
ATOM     60  C   UNL A   1      43.345  27.933  33.450  1.00  0.00     0.037 A 
BRANCH  47  61
ATOM     61  C   UNL A   1      42.285  26.610  27.490  1.00  0.00     0.057 A 
ATOM     62  C   UNL A   1      41.801  25.312  27.284  1.00  0.00     0.134 A 
ATOM     63  C   UNL A   1      43.123  27.149  26.505  1.00  0.00     0.134 A 
ATOM     64  F   UNL A   1      41.017  24.725  28.202  1.00  0.00    -0.206 F 
ATOM     65  C   UNL A   1      42.152  24.572  26.154  1.00  0.00     0.040 A 
ATOM     66  C   UNL A   1      43.459  26.430  25.357  1.00  0.00     0.040 A 
ATOM     67  F   UNL A   1      43.631  28.383  26.642  1.00  0.00    -0.206 F 
ATOM     68  C   UNL A   1      42.978  25.134  25.182  1.00  0.00     0.006 A 
ENDBRANCH  47  61
BRANCH  48  69
ATOM     69  C   UNL A   1      39.371  32.063  35.455  1.00  0.00     0.057 A 
ATOM     70  C   UNL A   1      39.850  33.343  35.745  1.00  0.00     0.134 A 
ATOM     71  C   UNL A   1      38.430  31.512  36.336  1.00  0.00     0.134 A 
ATOM     72  F   UNL A   1      40.766  33.917  34.952  1.00  0.00    -0.206 F 
ATOM     73  C   UNL A   1      39.425  34.046  36.876  1.00  0.00     0.040 A 
ATOM     74  C   UNL A   1      37.975  32.213  37.454  1.00  0.00     0.040 A 
ATOM     75  F   UNL A   1      37.928  30.288  36.115  1.00  0.00    -0.206 F 
ATOM     76  C   UNL A   1      38.479  33.482  37.730  1.00  0.00     0.006 A 
ENDBRANCH  48  69
BRANCH  60  77
ATOM     77  C   UNL A   1      44.378  27.335  34.357  1.00  0.00     0.057 A 
ATOM     78  C   UNL A   1      45.611  27.959  34.580  1.00  0.00     0.134 A 
ATOM     79  C   UNL A   1      44.108  26.155  35.061  1.00  0.00     0.134 A 
ATOM     80  F   UNL A   1      45.933  29.085  33.924  1.00  0.00    -0.206 F 
ATOM     81  C   UNL A   1      46.549  27.420  35.461  1.00  0.00     0.040 A 
ATOM     82  C   UNL A   1      45.024  25.624  35.968  1.00  0.00     0.040 A 
ATOM     83  F   UNL A   1      42.940  25.517  34.899  1.00  0.00    -0.206 F 
ATOM     84  C   UNL A   1      46.251  26.254  36.165  1.00  0.00     0.006 A 
ENDBRANCH  60  77
ENDBRANCH  34  35
ENDBRANCH  27  29
ENDBRANCH  26  27
ENDBRANCH  25  26
ENDBRANCH   1  25
TORSDOF 14
ENDMDL
MODEL 3
REMARK VINA RESULT:     -11.1      5.444      9.514
REMARK SMILES CC(C)[C@@H](NC(=O)[C@@H]1CC[C@H]2CCCC[C@@H]2[NH2+]1)C(=O)OCCOC(=O)c1ccc(-c2c3nc(c(-c4c(F)cccc4F)c4ccc([nH]4)c(-c4c(F)cccc4F)c4nc(c(-c5c(F)cccc5F)c5ccc2[nH]5)C=C4)C=C3)cc1
REMARK SMILES IDX 21 1 20 2 18 3 19 4 4 5 2 6 1 7 3 8 5 9 6 10 7 12 8 13 9 14
REMARK SMILES IDX 17 15 10 16 16 17 11 20 15 21 12 22 14 23 13 24 22 25 23 26
REMARK SMILES IDX 24 27 25 28 26 29 27 30 79 31 28 32 78 33 29 34 30 35 31 36
REMARK SMILES IDX 72 37 32 38 77 39 71 40 73 41 33 42 76 43 70 44 69 45 34 47
REMARK SMILES IDX 60 48 43 49 59 50 44 51 47 52 58 53 74 54 45 55 46 56 57 58
REMARK SMILES IDX 75 59 48 60 35 61 36 62 41 63 37 64 38 65 40 66 42 67 39 68
REMARK SMILES IDX 61 69 62 70 67 71 63 72 64 73 66 74 68 75 65 76 49 77 50 78
REMARK SMILES IDX 55 79 51 80 52 81 54 82 56 83 53 84
REMARK H PARENT 5 11 17 18 17 19 73 46 47 57
REMARK Flexibility Score: inf
ROOT
ATOM      1  C   UNL A   1      33.114  28.874  24.892  1.00  0.00     0.274 C 
ENDROOT
BRANCH   1   2
ATOM      2  O   UNL A   1      33.252  29.245  23.497  1.00  0.00    -0.461 OA
BRANCH   2   3
ATOM      3  C   UNL A   1      33.295  28.228  22.594  1.00  0.00     0.329 C 
ATOM      4  O   UNL A   1      34.051  28.203  21.626  1.00  0.00    -0.250 OA
BRANCH   3   5
ATOM      5  C   UNL A   1      32.156  27.197  22.777  1.00  0.00     0.195 C 
BRANCH   5   6
ATOM      6  C   UNL A   1      30.678  27.577  22.496  1.00  0.00     0.017 C 
ATOM      7  C   UNL A   1      29.792  27.209  23.701  1.00  0.00     0.010 C 
ATOM      8  C   UNL A   1      30.458  29.063  22.203  1.00  0.00     0.010 C 
ENDBRANCH   5   6
BRANCH   5   9
ATOM      9  N   UNL A   1      32.540  25.905  22.169  1.00  0.00    -0.337 N 
ATOM     10  C   UNL A   1      33.170  24.810  22.701  1.00  0.00     0.278 C 
ATOM     11  H   UNL A   1      32.302  25.816  21.218  1.00  0.00     0.164 HD
ATOM     12  O   UNL A   1      33.602  23.970  21.908  1.00  0.00    -0.268 OA
BRANCH  10  13
ATOM     13  C   UNL A   1      33.298  24.671  24.240  1.00  0.00     0.272 C 
ATOM     14  C   UNL A   1      34.782  24.643  24.646  1.00  0.00     0.076 C 
ATOM     15  N   UNL A   1      32.388  23.637  24.746  1.00  0.00    -0.333 N 
ATOM     16  C   UNL A   1      35.192  23.417  25.434  1.00  0.00     0.016 C 
ATOM     17  C   UNL A   1      32.971  22.375  25.165  1.00  0.00     0.186 C 
ATOM     18  H   UNL A   1      31.717  23.431  24.005  1.00  0.00     0.347 HD
ATOM     19  H   UNL A   1      31.990  24.034  25.596  1.00  0.00     0.347 HD
ATOM     20  C   UNL A   1      34.460  22.237  24.826  1.00  0.00     0.048 C 
ATOM     21  C   UNL A   1      32.154  21.239  24.550  1.00  0.00     0.065 C 
ATOM     22  C   UNL A   1      35.004  20.900  25.306  1.00  0.00     0.010 C 
ATOM     23  C   UNL A   1      32.728  19.875  24.925  1.00  0.00     0.006 C 
ATOM     24  C   UNL A   1      34.224  19.775  24.631  1.00  0.00     0.001 C 
ENDBRANCH  10  13
ENDBRANCH   5   9
ENDBRANCH   3   5
ENDBRANCH   2   3
ENDBRANCH   1   2
BRANCH   1  25
ATOM     25  C   UNL A   1      32.078  29.727  25.609  1.00  0.00     0.275 C 
BRANCH  25  26
ATOM     26  O   UNL A   1      32.526  29.992  26.942  1.00  0.00    -0.458 OA
BRANCH  26  27
ATOM     27  C   UNL A   1      33.068  31.223  27.118  1.00  0.00     0.338 C 
ATOM     28  O   UNL A   1      32.542  32.303  26.980  1.00  0.00    -0.246 OA
BRANCH  27  29
ATOM     29  C   UNL A   1      34.365  31.009  27.765  1.00  0.00     0.060 A 
ATOM     30  C   UNL A   1      35.197  32.115  27.961  1.00  0.00     0.016 A 
ATOM     31  C   UNL A   1      34.718  29.750  28.232  1.00  0.00     0.016 A 
ATOM     32  C   UNL A   1      36.359  32.001  28.700  1.00  0.00     0.010 A 
ATOM     33  C   UNL A   1      35.910  29.618  28.930  1.00  0.00     0.010 A 
ATOM     34  C   UNL A   1      36.715  30.746  29.178  1.00  0.00    -0.014 A 
BRANCH  34  35
ATOM     35  C   UNL A   1      37.996  30.569  29.865  1.00  0.00     0.031 A 
ATOM     36  C   UNL A   1      39.004  29.676  29.229  1.00  0.00     0.074 A 
ATOM     37  C   UNL A   1      38.195  31.160  31.053  1.00  0.00     0.049 A 
ATOM     38  N   UNL A   1      40.066  29.131  29.750  1.00  0.00    -0.248 NA
ATOM     39  C   UNL A   1      38.771  29.337  27.815  1.00  0.00     0.031 C 
ATOM     40  C   UNL A   1      37.290  32.123  31.683  1.00  0.00     0.029 A 
ATOM     41  N   UNL A   1      39.206  30.998  31.960  1.00  0.00    -0.354 N 
ATOM     42  C   UNL A   1      40.607  28.349  28.741  1.00  0.00     0.074 A 
ATOM     43  C   UNL A   1      39.761  28.491  27.578  1.00  0.00     0.031 C 
ATOM     44  C   UNL A   1      37.765  32.431  32.901  1.00  0.00     0.029 A 
ATOM     45  C   UNL A   1      38.963  31.636  33.151  1.00  0.00     0.049 A 
ATOM     46  H   UNL A   1      40.023  30.480  31.777  1.00  0.00     0.167 HD
ATOM     47  C   UNL A   1      41.710  27.571  28.807  1.00  0.00     0.037 A 
ATOM     48  C   UNL A   1      39.606  31.521  34.327  1.00  0.00     0.037 A 
ATOM     49  C   UNL A   1      42.512  27.454  29.994  1.00  0.00     0.049 A 
ATOM     50  C   UNL A   1      40.772  30.572  34.404  1.00  0.00     0.074 A 
ATOM     51  C   UNL A   1      43.656  26.708  30.196  1.00  0.00     0.029 A 
ATOM     52  N   UNL A   1      42.237  28.106  31.191  1.00  0.00    -0.354 N 
ATOM     53  N   UNL A   1      41.288  29.817  33.461  1.00  0.00    -0.248 NA
ATOM     54  C   UNL A   1      41.433  30.442  35.708  1.00  0.00     0.031 C 
ATOM     55  C   UNL A   1      44.040  26.862  31.531  1.00  0.00     0.029 A 
ATOM     56  C   UNL A   1      43.170  27.750  32.147  1.00  0.00     0.049 A 
ATOM     57  H   UNL A   1      41.488  28.728  31.337  1.00  0.00     0.167 HD
ATOM     58  C   UNL A   1      42.345  29.138  34.049  1.00  0.00     0.074 A 
ATOM     59  C   UNL A   1      42.407  29.587  35.428  1.00  0.00     0.031 C 
ATOM     60  C   UNL A   1      43.190  28.225  33.509  1.00  0.00     0.037 A 
BRANCH  47  61
ATOM     61  C   UNL A   1      42.056  26.760  27.596  1.00  0.00     0.057 A 
ATOM     62  C   UNL A   1      41.620  25.439  27.431  1.00  0.00     0.134 A 
ATOM     63  C   UNL A   1      42.846  27.310  26.579  1.00  0.00     0.134 A 
ATOM     64  F   UNL A   1      40.884  24.842  28.380  1.00  0.00    -0.206 F 
ATOM     65  C   UNL A   1      41.971  24.690  26.306  1.00  0.00     0.040 A 
ATOM     66  C   UNL A   1      43.182  26.580  25.438  1.00  0.00     0.040 A 
ATOM     67  F   UNL A   1      43.308  28.566  26.678  1.00  0.00    -0.206 F 
ATOM     68  C   UNL A   1      42.749  25.263  25.302  1.00  0.00     0.006 A 
ENDBRANCH  47  61
BRANCH  48  69
ATOM     69  C   UNL A   1      39.131  32.270  35.518  1.00  0.00     0.057 A 
ATOM     70  C   UNL A   1      38.238  31.690  36.424  1.00  0.00     0.134 A 
ATOM     71  C   UNL A   1      39.553  33.580  35.781  1.00  0.00     0.134 A 
ATOM     72  F   UNL A   1      37.781  30.446  36.218  1.00  0.00    -0.206 F 
ATOM     73  C   UNL A   1      37.769  32.388  37.539  1.00  0.00     0.040 A 
ATOM     74  C   UNL A   1      39.114  34.280  36.906  1.00  0.00     0.040 A 
ATOM     75  F   UNL A   1      40.411  34.196  34.953  1.00  0.00    -0.206 F 
ATOM     76  C   UNL A   1      38.213  33.686  37.786  1.00  0.00     0.006 A 
ENDBRANCH  48  69
BRANCH  60  77
ATOM     77  C   UNL A   1      44.258  27.676  34.407  1.00  0.00     0.057 A 
ATOM     78  C   UNL A   1      45.483  28.331  34.580  1.00  0.00     0.134 A 
ATOM     79  C   UNL A   1      44.030  26.512  35.152  1.00  0.00     0.134 A 
ATOM     80  F   UNL A   1      45.764  29.443  33.883  1.00  0.00    -0.206 F 
ATOM     81  C   UNL A   1      46.453  27.837  35.452  1.00  0.00     0.040 A 
ATOM     82  C   UNL A   1      44.980  26.026  36.050  1.00  0.00     0.040 A 
ATOM     83  F   UNL A   1      42.872  25.845  35.038  1.00  0.00    -0.206 F 
ATOM     84  C   UNL A   1      46.198  26.687  36.197  1.00  0.00     0.006 A 
ENDBRANCH  60  77
ENDBRANCH  34  35
ENDBRANCH  27  29
ENDBRANCH  26  27
ENDBRANCH  25  26
ENDBRANCH   1  25
TORSDOF 14
ENDMDL
