MODEL 1
REMARK VINA RESULT:     -12.3      0.000      0.000
REMARK SMILES CC1=C(C(=O)OCCOC(=O)c2ccc(-c3c4nc(c(-c5c(F)cccc5F)c5ccc([nH]5)c(-c5c(F)cccc5F)c5nc(c(-c6c(F)cccc6F)c6ccc3[nH]6)C=C5)C=C4)cc2)N2C(=O)[C@H](NC(=O)c3c(Cl)c(C(F)(F)F)nn3C)[C@@H]2SC1
REMARK SMILES IDX 7 1 6 2 4 3 5 4 3 5 1 6 2 7 86 8 66 9 85 10 67 11 84 12
REMARK SMILES IDX 68 13 69 14 70 15 71 16 72 18 73 19 74 20 82 21 75 22 76 23
REMARK SMILES IDX 81 24 83 25 77 26 78 27 79 28 80 29 8 30 9 31 10 32 11 33
REMARK SMILES IDX 12 34 13 35 65 36 14 37 64 38 15 39 16 40 17 41 58 42 18 43
REMARK SMILES IDX 63 44 57 45 59 46 19 47 62 48 56 49 55 50 20 52 46 53 29 54
REMARK SMILES IDX 45 55 30 56 33 57 44 58 60 59 31 60 32 61 43 63 61 64 34 65
REMARK SMILES IDX 21 66 22 67 27 68 23 69 24 70 26 71 28 72 25 73 47 74 48 75
REMARK SMILES IDX 53 76 49 77 50 78 52 79 54 80 51 81 35 82 36 83 41 84 37 85
REMARK SMILES IDX 38 86 40 87 42 88 39 89
REMARK H PARENT 70 17 59 51 33 62
REMARK Flexibility Score: inf
ROOT
ATOM      1  C   UNL A   1      32.434  30.952  26.746  1.00  0.00     0.275 C 
ENDROOT
BRANCH   1   2
ATOM      2  O   UNL A   1      31.771  30.168  25.731  1.00  0.00    -0.457 OA
BRANCH   2   3
ATOM      3  C   UNL A   1      31.579  28.845  25.988  1.00  0.00     0.355 C 
ATOM      4  O   UNL A   1      31.363  28.385  27.096  1.00  0.00    -0.244 OA
BRANCH   3   5
ATOM      5  C   UNL A   1      31.547  28.029  24.708  1.00  0.00     0.131 C 
ATOM      6  C   UNL A   1      29.789  29.481  23.596  1.00  0.00     0.043 C 
ATOM      7  C   UNL A   1      30.749  28.314  23.641  1.00  0.00    -0.032 C 
ATOM      8  C   UNL A   1      30.742  27.527  22.332  1.00  0.00     0.105 C 
ATOM      9  N   UNL A   1      32.352  26.923  24.645  1.00  0.00    -0.289 N 
ATOM     10  S   UNL A   1      32.142  26.384  22.103  1.00  0.00    -0.129 SA
ATOM     11  C   UNL A   1      33.414  26.365  25.271  1.00  0.00     0.253 C 
ATOM     12  C   UNL A   1      32.038  25.795  23.796  1.00  0.00     0.181 C 
ATOM     13  O   UNL A   1      34.169  26.717  26.140  1.00  0.00    -0.272 OA
ATOM     14  C   UNL A   1      33.244  25.061  24.427  1.00  0.00     0.206 C 
BRANCH  14  15
ATOM     15  N   UNL A   1      34.389  24.651  23.587  1.00  0.00    -0.336 N 
ATOM     16  C   UNL A   1      34.860  23.376  23.350  1.00  0.00     0.271 C 
ATOM     17  H   UNL A   1      34.877  25.379  23.142  1.00  0.00     0.164 HD
ATOM     18  O   UNL A   1      35.977  23.276  22.846  1.00  0.00    -0.267 OA
BRANCH  16  19
ATOM     19  C   UNL A   1      34.050  22.228  23.683  1.00  0.00     0.145 A 
ATOM     20  C   UNL A   1      34.378  21.146  24.486  1.00  0.00     0.104 A 
ATOM     21  N   UNL A   1      32.846  21.872  23.132  1.00  0.00    -0.261 N 
ATOM     22  Cl  UNL A   1      35.821  20.893  25.341  1.00  0.00    -0.079 Cl
ATOM     23  C   UNL A   1      33.273  20.256  24.447  1.00  0.00     0.185 A 
ATOM     24  N   UNL A   1      32.301  20.766  23.663  1.00  0.00    -0.166 NA
ATOM     25  C   UNL A   1      32.153  22.470  22.016  1.00  0.00     0.174 C 
BRANCH  23  26
ATOM     26  C   UNL A   1      33.154  18.921  25.130  1.00  0.00     0.436 C 
ATOM     27  F   UNL A   1      32.132  18.181  24.618  1.00  0.00    -0.164 F 
ATOM     28  F   UNL A   1      34.282  18.187  24.996  1.00  0.00    -0.164 F 
ATOM     29  F   UNL A   1      32.909  19.030  26.464  1.00  0.00    -0.164 F 
ENDBRANCH  23  26
ENDBRANCH  16  19
ENDBRANCH  14  15
ENDBRANCH   3   5
ENDBRANCH   2   3
ENDBRANCH   1   2
BRANCH   1  30
ATOM     30  C   UNL A   1      31.756  32.316  26.919  1.00  0.00     0.275 C 
BRANCH  30  31
ATOM     31  O   UNL A   1      32.716  33.389  26.853  1.00  0.00    -0.458 OA
BRANCH  31  32
ATOM     32  C   UNL A   1      33.153  33.829  28.055  1.00  0.00     0.338 C 
ATOM     33  O   UNL A   1      32.527  34.482  28.875  1.00  0.00    -0.246 OA
BRANCH  32  34
ATOM     34  C   UNL A   1      34.446  33.207  28.382  1.00  0.00     0.060 A 
ATOM     35  C   UNL A   1      34.366  31.988  29.044  1.00  0.00     0.016 A 
ATOM     36  C   UNL A   1      35.689  33.801  28.164  1.00  0.00     0.016 A 
ATOM     37  C   UNL A   1      35.513  31.351  29.495  1.00  0.00     0.010 A 
ATOM     38  C   UNL A   1      36.851  33.157  28.630  1.00  0.00     0.010 A 
ATOM     39  C   UNL A   1      36.768  31.928  29.312  1.00  0.00    -0.014 A 
BRANCH  39  40
ATOM     40  C   UNL A   1      37.920  31.268  29.986  1.00  0.00     0.031 A 
ATOM     41  C   UNL A   1      38.161  31.528  31.447  1.00  0.00     0.074 A 
ATOM     42  C   UNL A   1      38.642  30.319  29.354  1.00  0.00     0.049 A 
ATOM     43  N   UNL A   1      39.100  31.063  32.230  1.00  0.00    -0.248 NA
ATOM     44  C   UNL A   1      37.204  32.417  32.121  1.00  0.00     0.031 C 
ATOM     45  C   UNL A   1      38.422  29.864  27.980  1.00  0.00     0.029 A 
ATOM     46  N   UNL A   1      39.688  29.545  29.794  1.00  0.00    -0.354 N 
ATOM     47  C   UNL A   1      38.863  31.618  33.482  1.00  0.00     0.074 A 
ATOM     48  C   UNL A   1      37.702  32.472  33.347  1.00  0.00     0.031 C 
ATOM     49  C   UNL A   1      39.308  28.896  27.692  1.00  0.00     0.029 A 
ATOM     50  C   UNL A   1      40.196  28.700  28.835  1.00  0.00     0.049 A 
ATOM     51  H   UNL A   1      40.043  29.590  30.712  1.00  0.00     0.167 HD
ATOM     52  C   UNL A   1      39.551  31.434  34.634  1.00  0.00     0.037 A 
ATOM     53  C   UNL A   1      41.266  27.878  28.863  1.00  0.00     0.037 A 
ATOM     54  C   UNL A   1      40.698  30.570  34.770  1.00  0.00     0.049 A 
ATOM     55  C   UNL A   1      42.085  27.773  30.125  1.00  0.00     0.074 A 
ATOM     56  C   UNL A   1      41.467  30.329  35.895  1.00  0.00     0.029 A 
ATOM     57  N   UNL A   1      41.240  29.803  33.747  1.00  0.00    -0.354 N 
ATOM     58  N   UNL A   1      41.912  28.377  31.276  1.00  0.00    -0.248 NA
ATOM     59  C   UNL A   1      43.241  26.868  30.097  1.00  0.00     0.031 C 
ATOM     60  C   UNL A   1      42.509  29.467  35.538  1.00  0.00     0.029 A 
ATOM     61  C   UNL A   1      42.347  29.107  34.210  1.00  0.00     0.049 A 
ATOM     62  H   UNL A   1      40.889  29.758  32.828  1.00  0.00     0.167 HD
ATOM     63  C   UNL A   1      42.897  27.886  32.123  1.00  0.00     0.074 A 
ATOM     64  C   UNL A   1      43.670  26.936  31.349  1.00  0.00     0.031 C 
ATOM     65  C   UNL A   1      43.130  28.183  33.425  1.00  0.00     0.037 A 
BRANCH  52  66
ATOM     66  C   UNL A   1      39.122  32.244  35.825  1.00  0.00     0.057 A 
ATOM     67  C   UNL A   1      38.247  31.751  36.803  1.00  0.00     0.134 A 
ATOM     68  C   UNL A   1      39.601  33.550  35.993  1.00  0.00     0.134 A 
ATOM     69  F   UNL A   1      37.731  30.517  36.695  1.00  0.00    -0.206 F 
ATOM     70  C   UNL A   1      37.840  32.538  37.882  1.00  0.00     0.040 A 
ATOM     71  C   UNL A   1      39.227  34.335  37.085  1.00  0.00     0.040 A 
ATOM     72  F   UNL A   1      40.444  34.088  35.098  1.00  0.00    -0.206 F 
ATOM     73  C   UNL A   1      38.334  33.832  38.029  1.00  0.00     0.006 A 
ENDBRANCH  52  66
BRANCH  53  74
ATOM     74  C   UNL A   1      41.651  27.104  27.649  1.00  0.00     0.057 A 
ATOM     75  C   UNL A   1      42.416  27.670  26.620  1.00  0.00     0.134 A 
ATOM     76  C   UNL A   1      41.227  25.781  27.471  1.00  0.00     0.134 A 
ATOM     77  F   UNL A   1      42.808  28.949  26.691  1.00  0.00    -0.206 F 
ATOM     78  C   UNL A   1      42.734  26.957  25.462  1.00  0.00     0.040 A 
ATOM     79  C   UNL A   1      41.561  25.046  26.332  1.00  0.00     0.040 A 
ATOM     80  F   UNL A   1      40.478  25.177  28.406  1.00  0.00    -0.206 F 
ATOM     81  C   UNL A   1      42.312  25.637  25.319  1.00  0.00     0.006 A 
ENDBRANCH  53  74
BRANCH  65  82
ATOM     82  C   UNL A   1      44.261  27.456  34.101  1.00  0.00     0.057 A 
ATOM     83  C   UNL A   1      44.090  26.196  34.692  1.00  0.00     0.134 A 
ATOM     84  C   UNL A   1      45.543  28.020  34.156  1.00  0.00     0.134 A 
ATOM     85  F   UNL A   1      42.888  25.599  34.684  1.00  0.00    -0.206 F 
ATOM     86  C   UNL A   1      45.136  25.548  35.349  1.00  0.00     0.040 A 
ATOM     87  C   UNL A   1      46.606  27.365  34.779  1.00  0.00     0.040 A 
ATOM     88  F   UNL A   1      45.787  29.217  33.600  1.00  0.00    -0.206 F 
ATOM     89  C   UNL A   1      46.401  26.130  35.390  1.00  0.00     0.006 A 
ENDBRANCH  65  82
ENDBRANCH  39  40
ENDBRANCH  32  34
ENDBRANCH  31  32
ENDBRANCH  30  31
ENDBRANCH   1  30
TORSDOF 14
ENDMDL
MODEL 2
REMARK VINA RESULT:     -12.3      4.601      9.616
REMARK SMILES CC1=C(C(=O)OCCOC(=O)c2ccc(-c3c4nc(c(-c5c(F)cccc5F)c5ccc([nH]5)c(-c5c(F)cccc5F)c5nc(c(-c6c(F)cccc6F)c6ccc3[nH]6)C=C5)C=C4)cc2)N2C(=O)[C@H](NC(=O)c3c(Cl)c(C(F)(F)F)nn3C)[C@@H]2SC1
REMARK SMILES IDX 7 1 6 2 4 3 5 4 3 5 1 6 2 7 86 8 66 9 85 10 67 11 84 12
REMARK SMILES IDX 68 13 69 14 70 15 71 16 72 18 73 19 74 20 82 21 75 22 76 23
REMARK SMILES IDX 81 24 83 25 77 26 78 27 79 28 80 29 8 30 9 31 10 32 11 33
REMARK SMILES IDX 12 34 13 35 65 36 14 37 64 38 15 39 16 40 17 41 58 42 18 43
REMARK SMILES IDX 63 44 57 45 59 46 19 47 62 48 56 49 55 50 20 52 46 53 29 54
REMARK SMILES IDX 45 55 30 56 33 57 44 58 60 59 31 60 32 61 43 63 61 64 34 65
REMARK SMILES IDX 21 66 22 67 27 68 23 69 24 70 26 71 28 72 25 73 47 74 48 75
REMARK SMILES IDX 53 76 49 77 50 78 52 79 54 80 51 81 35 82 36 83 41 84 37 85
REMARK SMILES IDX 38 86 40 87 42 88 39 89
REMARK H PARENT 70 17 59 51 33 62
REMARK Flexibility Score: inf
ROOT
ATOM      1  C   UNL A   1      36.831  19.659  24.874  1.00  0.00     0.275 C 
ENDROOT
BRANCH   1   2
ATOM      2  O   UNL A   1      36.259  20.874  25.404  1.00  0.00    -0.457 OA
BRANCH   2   3
ATOM      3  C   UNL A   1      35.694  21.739  24.519  1.00  0.00     0.355 C 
ATOM      4  O   UNL A   1      36.260  22.180  23.533  1.00  0.00    -0.244 OA
BRANCH   3   5
ATOM      5  C   UNL A   1      34.232  21.992  24.842  1.00  0.00     0.131 C 
ATOM      6  C   UNL A   1      33.542  19.571  24.523  1.00  0.00     0.043 C 
ATOM      7  C   UNL A   1      33.273  21.024  24.846  1.00  0.00    -0.032 C 
ATOM      8  C   UNL A   1      31.810  21.258  25.215  1.00  0.00     0.105 C 
ATOM      9  N   UNL A   1      33.862  23.280  25.118  1.00  0.00    -0.289 N 
ATOM     10  S   UNL A   1      31.457  22.848  26.031  1.00  0.00    -0.129 SA
ATOM     11  C   UNL A   1      34.401  24.477  25.446  1.00  0.00     0.253 C 
ATOM     12  C   UNL A   1      32.513  23.753  24.893  1.00  0.00     0.181 C 
ATOM     13  O   UNL A   1      35.505  24.860  25.735  1.00  0.00    -0.272 OA
ATOM     14  C   UNL A   1      33.010  25.168  25.271  1.00  0.00     0.206 C 
BRANCH  14  15
ATOM     15  N   UNL A   1      32.453  25.864  26.450  1.00  0.00    -0.336 N 
ATOM     16  C   UNL A   1      31.632  26.972  26.478  1.00  0.00     0.271 C 
ATOM     17  H   UNL A   1      32.699  25.489  27.325  1.00  0.00     0.164 HD
ATOM     18  O   UNL A   1      31.505  27.548  27.556  1.00  0.00    -0.267 OA
BRANCH  16  19
ATOM     19  C   UNL A   1      30.957  27.407  25.277  1.00  0.00     0.145 A 
ATOM     20  C   UNL A   1      31.053  28.630  24.630  1.00  0.00     0.104 A 
ATOM     21  N   UNL A   1      29.939  26.768  24.618  1.00  0.00    -0.261 N 
ATOM     22  Cl  UNL A   1      32.031  29.949  25.053  1.00  0.00    -0.079 Cl
ATOM     23  C   UNL A   1      30.148  28.588  23.538  1.00  0.00     0.185 A 
ATOM     24  N   UNL A   1      29.525  27.392  23.503  1.00  0.00    -0.166 NA
ATOM     25  C   UNL A   1      29.211  25.586  25.012  1.00  0.00     0.174 C 
BRANCH  23  26
ATOM     26  C   UNL A   1      29.860  29.688  22.552  1.00  0.00     0.436 C 
ATOM     27  F   UNL A   1      28.802  29.382  21.751  1.00  0.00    -0.164 F 
ATOM     28  F   UNL A   1      29.566  30.853  23.171  1.00  0.00    -0.164 F 
ATOM     29  F   UNL A   1      30.906  29.935  21.717  1.00  0.00    -0.164 F 
ENDBRANCH  23  26
ENDBRANCH  16  19
ENDBRANCH  14  15
ENDBRANCH   3   5
ENDBRANCH   2   3
ENDBRANCH   1   2
BRANCH   1  30
ATOM     30  C   UNL A   1      38.360  19.678  24.978  1.00  0.00     0.275 C 
BRANCH  30  31
ATOM     31  O   UNL A   1      38.821  20.836  25.703  1.00  0.00    -0.458 OA
BRANCH  31  32
ATOM     32  C   UNL A   1      39.953  20.640  26.416  1.00  0.00     0.338 C 
ATOM     33  O   UNL A   1      40.658  19.643  26.426  1.00  0.00    -0.246 OA
BRANCH  32  34
ATOM     34  C   UNL A   1      40.393  21.906  27.026  1.00  0.00     0.060 A 
ATOM     35  C   UNL A   1      39.826  23.053  26.485  1.00  0.00     0.016 A 
ATOM     36  C   UNL A   1      41.380  22.013  28.004  1.00  0.00     0.016 A 
ATOM     37  C   UNL A   1      40.233  24.310  26.906  1.00  0.00     0.010 A 
ATOM     38  C   UNL A   1      41.799  23.290  28.425  1.00  0.00     0.010 A 
ATOM     39  C   UNL A   1      41.233  24.451  27.866  1.00  0.00    -0.014 A 
BRANCH  39  40
ATOM     40  C   UNL A   1      41.733  25.830  28.123  1.00  0.00     0.031 A 
ATOM     41  C   UNL A   1      43.068  26.241  27.566  1.00  0.00     0.074 A 
ATOM     42  C   UNL A   1      40.940  26.759  28.697  1.00  0.00     0.049 A 
ATOM     43  N   UNL A   1      43.695  27.384  27.669  1.00  0.00    -0.248 NA
ATOM     44  C   UNL A   1      43.784  25.233  26.771  1.00  0.00     0.031 C 
ATOM     45  C   UNL A   1      39.568  26.534  29.155  1.00  0.00     0.029 A 
ATOM     46  N   UNL A   1      41.165  28.088  28.968  1.00  0.00    -0.354 N 
ATOM     47  C   UNL A   1      44.887  27.230  26.973  1.00  0.00     0.074 A 
ATOM     48  C   UNL A   1      44.904  25.873  26.470  1.00  0.00     0.031 C 
ATOM     49  C   UNL A   1      39.078  27.683  29.650  1.00  0.00     0.029 A 
ATOM     50  C   UNL A   1      40.115  28.710  29.603  1.00  0.00     0.049 A 
ATOM     51  H   UNL A   1      42.000  28.552  28.731  1.00  0.00     0.167 HD
ATOM     52  C   UNL A   1      45.876  28.135  26.774  1.00  0.00     0.037 A 
ATOM     53  C   UNL A   1      40.006  29.957  30.108  1.00  0.00     0.037 A 
ATOM     54  C   UNL A   1      45.849  29.491  27.262  1.00  0.00     0.049 A 
ATOM     55  C   UNL A   1      41.164  30.913  29.973  1.00  0.00     0.074 A 
ATOM     56  C   UNL A   1      46.810  30.477  27.120  1.00  0.00     0.029 A 
ATOM     57  N   UNL A   1      44.806  30.055  27.984  1.00  0.00    -0.354 N 
ATOM     58  N   UNL A   1      42.328  30.727  29.399  1.00  0.00    -0.248 NA
ATOM     59  C   UNL A   1      40.993  32.254  30.546  1.00  0.00     0.031 C 
ATOM     60  C   UNL A   1      46.376  31.615  27.808  1.00  0.00     0.029 A 
ATOM     61  C   UNL A   1      45.111  31.368  28.314  1.00  0.00     0.049 A 
ATOM     62  H   UNL A   1      43.971  29.592  28.226  1.00  0.00     0.167 HD
ATOM     63  C   UNL A   1      43.003  31.937  29.490  1.00  0.00     0.074 A 
ATOM     64  C   UNL A   1      42.119  32.851  30.182  1.00  0.00     0.031 C 
ATOM     65  C   UNL A   1      44.236  32.265  29.030  1.00  0.00     0.037 A 
BRANCH  52  66
ATOM     66  C   UNL A   1      47.107  27.658  26.056  1.00  0.00     0.057 A 
ATOM     67  C   UNL A   1      47.236  27.701  24.660  1.00  0.00     0.134 A 
ATOM     68  C   UNL A   1      48.187  27.143  26.784  1.00  0.00     0.134 A 
ATOM     69  F   UNL A   1      46.231  28.160  23.898  1.00  0.00    -0.206 F 
ATOM     70  C   UNL A   1      48.378  27.221  24.018  1.00  0.00     0.040 A 
ATOM     71  C   UNL A   1      49.348  26.690  26.155  1.00  0.00     0.040 A 
ATOM     72  F   UNL A   1      48.136  27.073  28.123  1.00  0.00    -0.206 F 
ATOM     73  C   UNL A   1      49.442  26.719  24.765  1.00  0.00     0.006 A 
ENDBRANCH  52  66
BRANCH  53  74
ATOM     74  C   UNL A   1      38.764  30.373  30.819  1.00  0.00     0.057 A 
ATOM     75  C   UNL A   1      38.567  30.114  32.182  1.00  0.00     0.134 A 
ATOM     76  C   UNL A   1      37.721  31.012  30.137  1.00  0.00     0.134 A 
ATOM     77  F   UNL A   1      39.495  29.455  32.888  1.00  0.00    -0.206 F 
ATOM     78  C   UNL A   1      37.383  30.463  32.834  1.00  0.00     0.040 A 
ATOM     79  C   UNL A   1      36.542  31.392  30.781  1.00  0.00     0.040 A 
ATOM     80  F   UNL A   1      37.831  31.279  28.827  1.00  0.00    -0.206 F 
ATOM     81  C   UNL A   1      36.368  31.112  32.134  1.00  0.00     0.006 A 
ENDBRANCH  53  74
BRANCH  65  82
ATOM     82  C   UNL A   1      44.693  33.681  29.247  1.00  0.00     0.057 A 
ATOM     83  C   UNL A   1      45.427  34.064  30.378  1.00  0.00     0.134 A 
ATOM     84  C   UNL A   1      44.400  34.679  28.306  1.00  0.00     0.134 A 
ATOM     85  F   UNL A   1      45.737  33.164  31.325  1.00  0.00    -0.206 F 
ATOM     86  C   UNL A   1      45.812  35.389  30.587  1.00  0.00     0.040 A 
ATOM     87  C   UNL A   1      44.811  36.001  28.487  1.00  0.00     0.040 A 
ATOM     88  F   UNL A   1      43.713  34.386  27.191  1.00  0.00    -0.206 F 
ATOM     89  C   UNL A   1      45.508  36.362  29.637  1.00  0.00     0.006 A 
ENDBRANCH  65  82
ENDBRANCH  39  40
ENDBRANCH  32  34
ENDBRANCH  31  32
ENDBRANCH  30  31
ENDBRANCH   1  30
TORSDOF 14
ENDMDL
MODEL 3
REMARK VINA RESULT:     -12.2      4.447      9.221
REMARK SMILES CC1=C(C(=O)OCCOC(=O)c2ccc(-c3c4nc(c(-c5c(F)cccc5F)c5ccc([nH]5)c(-c5c(F)cccc5F)c5nc(c(-c6c(F)cccc6F)c6ccc3[nH]6)C=C5)C=C4)cc2)N2C(=O)[C@H](NC(=O)c3c(Cl)c(C(F)(F)F)nn3C)[C@@H]2SC1
REMARK SMILES IDX 7 1 6 2 4 3 5 4 3 5 1 6 2 7 86 8 66 9 85 10 67 11 84 12
REMARK SMILES IDX 68 13 69 14 70 15 71 16 72 18 73 19 74 20 82 21 75 22 76 23
REMARK SMILES IDX 81 24 83 25 77 26 78 27 79 28 80 29 8 30 9 31 10 32 11 33
REMARK SMILES IDX 12 34 13 35 65 36 14 37 64 38 15 39 16 40 17 41 58 42 18 43
REMARK SMILES IDX 63 44 57 45 59 46 19 47 62 48 56 49 55 50 20 52 46 53 29 54
REMARK SMILES IDX 45 55 30 56 33 57 44 58 60 59 31 60 32 61 43 63 61 64 34 65
REMARK SMILES IDX 21 66 22 67 27 68 23 69 24 70 26 71 28 72 25 73 47 74 48 75
REMARK SMILES IDX 53 76 49 77 50 78 52 79 54 80 51 81 35 82 36 83 41 84 37 85
REMARK SMILES IDX 38 86 40 87 42 88 39 89
REMARK H PARENT 70 17 59 51 33 62
REMARK Flexibility Score: inf
ROOT
ATOM      1  C   UNL A   1      38.104  21.406  25.526  1.00  0.00     0.275 C 
ENDROOT
BRANCH   1   2
ATOM      2  O   UNL A   1      36.689  21.157  25.388  1.00  0.00    -0.457 OA
BRANCH   2   3
ATOM      3  C   UNL A   1      36.015  21.876  24.450  1.00  0.00     0.355 C 
ATOM      4  O   UNL A   1      36.505  22.272  23.406  1.00  0.00    -0.244 OA
BRANCH   3   5
ATOM      5  C   UNL A   1      34.547  22.021  24.807  1.00  0.00     0.131 C 
ATOM      6  C   UNL A   1      34.034  19.553  24.521  1.00  0.00     0.043 C 
ATOM      7  C   UNL A   1      33.664  20.983  24.840  1.00  0.00    -0.032 C 
ATOM      8  C   UNL A   1      32.197  21.110  25.243  1.00  0.00     0.105 C 
ATOM      9  N   UNL A   1      34.086  23.280  25.083  1.00  0.00    -0.289 N 
ATOM     10  S   UNL A   1      31.744  22.676  26.056  1.00  0.00    -0.129 SA
ATOM     11  C   UNL A   1      34.541  24.517  25.390  1.00  0.00     0.253 C 
ATOM     12  C   UNL A   1      32.701  23.648  24.888  1.00  0.00     0.181 C 
ATOM     13  O   UNL A   1      35.620  24.985  25.649  1.00  0.00    -0.272 OA
ATOM     14  C   UNL A   1      33.099  25.099  25.244  1.00  0.00     0.206 C 
BRANCH  14  15
ATOM     15  N   UNL A   1      32.518  25.761  26.431  1.00  0.00    -0.336 N 
ATOM     16  C   UNL A   1      31.678  26.854  26.473  1.00  0.00     0.271 C 
ATOM     17  H   UNL A   1      32.762  25.372  27.301  1.00  0.00     0.164 HD
ATOM     18  O   UNL A   1      31.531  27.406  27.561  1.00  0.00    -0.267 OA
BRANCH  16  19
ATOM     19  C   UNL A   1      31.008  27.303  25.275  1.00  0.00     0.145 A 
ATOM     20  C   UNL A   1      31.072  28.547  24.666  1.00  0.00     0.104 A 
ATOM     21  N   UNL A   1      30.020  26.651  24.581  1.00  0.00    -0.261 N 
ATOM     22  Cl  UNL A   1      32.001  29.884  25.142  1.00  0.00    -0.079 Cl
ATOM     23  C   UNL A   1      30.186  28.508  23.558  1.00  0.00     0.185 A 
ATOM     24  N   UNL A   1      29.603  27.294  23.479  1.00  0.00    -0.166 NA
ATOM     25  C   UNL A   1      29.326  25.435  24.930  1.00  0.00     0.174 C 
BRANCH  23  26
ATOM     26  C   UNL A   1      29.877  29.626  22.600  1.00  0.00     0.436 C 
ATOM     27  F   UNL A   1      28.818  29.325  21.798  1.00  0.00    -0.164 F 
ATOM     28  F   UNL A   1      29.571  30.773  23.248  1.00  0.00    -0.164 F 
ATOM     29  F   UNL A   1      30.914  29.907  21.765  1.00  0.00    -0.164 F 
ENDBRANCH  23  26
ENDBRANCH  16  19
ENDBRANCH  14  15
ENDBRANCH   3   5
ENDBRANCH   2   3
ENDBRANCH   1   2
BRANCH   1  30
ATOM     30  C   UNL A   1      38.922  20.162  25.158  1.00  0.00     0.275 C 
BRANCH  30  31
ATOM     31  O   UNL A   1      39.665  19.672  26.291  1.00  0.00    -0.458 OA
BRANCH  31  32
ATOM     32  C   UNL A   1      41.007  19.653  26.119  1.00  0.00     0.338 C 
ATOM     33  O   UNL A   1      41.662  18.827  25.503  1.00  0.00    -0.246 OA
BRANCH  32  34
ATOM     34  C   UNL A   1      41.593  20.923  26.576  1.00  0.00     0.060 A 
ATOM     35  C   UNL A   1      41.364  21.236  27.911  1.00  0.00     0.016 A 
ATOM     36  C   UNL A   1      42.249  21.836  25.751  1.00  0.00     0.016 A 
ATOM     37  C   UNL A   1      41.779  22.450  28.434  1.00  0.00     0.010 A 
ATOM     38  C   UNL A   1      42.663  23.073  26.283  1.00  0.00     0.010 A 
ATOM     39  C   UNL A   1      42.418  23.393  27.631  1.00  0.00    -0.014 A 
BRANCH  39  40
ATOM     40  C   UNL A   1      42.663  24.735  28.228  1.00  0.00     0.031 A 
ATOM     41  C   UNL A   1      44.069  25.134  28.583  1.00  0.00     0.074 A 
ATOM     42  C   UNL A   1      41.677  25.653  28.296  1.00  0.00     0.049 A 
ATOM     43  N   UNL A   1      44.509  26.246  29.112  1.00  0.00    -0.248 NA
ATOM     44  C   UNL A   1      45.123  24.153  28.286  1.00  0.00     0.031 C 
ATOM     45  C   UNL A   1      40.297  25.448  27.851  1.00  0.00     0.029 A 
ATOM     46  N   UNL A   1      41.690  26.954  28.739  1.00  0.00    -0.354 N 
ATOM     47  C   UNL A   1      45.885  26.094  29.232  1.00  0.00     0.074 A 
ATOM     48  C   UNL A   1      46.203  24.771  28.740  1.00  0.00     0.031 C 
ATOM     49  C   UNL A   1      39.601  26.580  28.047  1.00  0.00     0.029 A 
ATOM     50  C   UNL A   1      40.462  27.572  28.685  1.00  0.00     0.049 A 
ATOM     51  H   UNL A   1      42.503  27.404  29.067  1.00  0.00     0.167 HD
ATOM     52  C   UNL A   1      46.796  26.976  29.710  1.00  0.00     0.037 A 
ATOM     53  C   UNL A   1      40.068  28.788  29.119  1.00  0.00     0.037 A 
ATOM     54  C   UNL A   1      46.478  28.299  30.185  1.00  0.00     0.049 A 
ATOM     55  C   UNL A   1      41.080  29.710  29.751  1.00  0.00     0.074 A 
ATOM     56  C   UNL A   1      47.333  29.258  30.699  1.00  0.00     0.029 A 
ATOM     57  N   UNL A   1      45.205  28.853  30.202  1.00  0.00    -0.354 N 
ATOM     58  N   UNL A   1      42.361  29.520  29.951  1.00  0.00    -0.248 NA
ATOM     59  C   UNL A   1      40.595  31.018  30.210  1.00  0.00     0.031 C 
ATOM     60  C   UNL A   1      46.570  30.366  31.084  1.00  0.00     0.029 A 
ATOM     61  C   UNL A   1      45.249  30.131  30.739  1.00  0.00     0.049 A 
ATOM     62  H   UNL A   1      44.390  28.405  29.879  1.00  0.00     0.167 HD
ATOM     63  C   UNL A   1      42.847  30.698  30.503  1.00  0.00     0.074 A 
ATOM     64  C   UNL A   1      41.717  31.598  30.613  1.00  0.00     0.031 C 
ATOM     65  C   UNL A   1      44.114  31.012  30.873  1.00  0.00     0.037 A 
BRANCH  52  66
ATOM     66  C   UNL A   1      48.219  26.502  29.813  1.00  0.00     0.057 A 
ATOM     67  C   UNL A   1      49.167  26.726  28.805  1.00  0.00     0.134 A 
ATOM     68  C   UNL A   1      48.645  25.804  30.950  1.00  0.00     0.134 A 
ATOM     69  F   UNL A   1      48.823  27.367  27.677  1.00  0.00    -0.206 F 
ATOM     70  C   UNL A   1      50.474  26.246  28.912  1.00  0.00     0.040 A 
ATOM     71  C   UNL A   1      49.957  25.348  31.084  1.00  0.00     0.040 A 
ATOM     72  F   UNL A   1      47.792  25.555  31.956  1.00  0.00    -0.206 F 
ATOM     73  C   UNL A   1      50.874  25.560  30.057  1.00  0.00     0.006 A 
ENDBRANCH  52  66
BRANCH  53  74
ATOM     74  C   UNL A   1      38.642  29.202  29.000  1.00  0.00     0.057 A 
ATOM     75  C   UNL A   1      37.753  29.122  30.081  1.00  0.00     0.134 A 
ATOM     76  C   UNL A   1      38.120  29.656  27.782  1.00  0.00     0.134 A 
ATOM     77  F   UNL A   1      38.164  28.642  31.262  1.00  0.00    -0.206 F 
ATOM     78  C   UNL A   1      36.406  29.465  29.954  1.00  0.00     0.040 A 
ATOM     79  C   UNL A   1      36.782  30.029  27.646  1.00  0.00     0.040 A 
ATOM     80  F   UNL A   1      38.907  29.744  26.699  1.00  0.00    -0.206 F 
ATOM     81  C   UNL A   1      35.918  29.929  28.734  1.00  0.00     0.006 A 
ENDBRANCH  53  74
BRANCH  65  82
ATOM     82  C   UNL A   1      44.346  32.396  31.413  1.00  0.00     0.057 A 
ATOM     83  C   UNL A   1      44.289  32.680  32.785  1.00  0.00     0.134 A 
ATOM     84  C   UNL A   1      44.639  33.461  30.550  1.00  0.00     0.134 A 
ATOM     85  F   UNL A   1      44.005  31.711  33.669  1.00  0.00    -0.206 F 
ATOM     86  C   UNL A   1      44.468  33.976  33.272  1.00  0.00     0.040 A 
ATOM     87  C   UNL A   1      44.856  34.754  31.029  1.00  0.00     0.040 A 
ATOM     88  F   UNL A   1      44.725  33.264  29.226  1.00  0.00    -0.206 F 
ATOM     89  C   UNL A   1      44.758  35.017  32.393  1.00  0.00     0.006 A 
ENDBRANCH  65  82
ENDBRANCH  39  40
ENDBRANCH  32  34
ENDBRANCH  31  32
ENDBRANCH  30  31
ENDBRANCH   1  30
TORSDOF 14
ENDMDL
