MODEL 1
REMARK VINA RESULT:     -11.4      0.000      0.000
REMARK SMILES CCOC(=O)c1ccc(-c2cc(F)cc(C(=O)OCCOC(=O)c3ccc(-c4c5nc(c(-c6c(F)cccc6F)c6ccc([nH]6)c(-c6c(F)cccc6F)c6nc(c(-c7c(F)cccc7F)c7ccc4[nH]7)C=C6)C=C5)cc3)c2)cc1
REMARK SMILES IDX 19 1 18 2 16 3 17 4 15 5 10 6 11 7 78 8 12 9 13 10 14 11
REMARK SMILES IDX 9 12 6 13 7 14 80 15 8 16 79 17 4 18 5 19 3 20 2 21 1 22
REMARK SMILES IDX 20 23 21 24 22 25 23 26 24 27 25 28 77 29 26 30 76 31 27 32
REMARK SMILES IDX 28 33 29 34 70 35 30 36 75 37 69 38 71 39 31 40 74 41 68 42
REMARK SMILES IDX 67 43 32 45 58 46 41 47 57 48 42 49 45 50 56 51 72 52 43 53
REMARK SMILES IDX 44 54 55 56 73 57 46 58 33 59 34 60 39 61 35 62 36 63 38 64
REMARK SMILES IDX 40 65 37 66 59 67 60 68 65 69 61 70 62 71 64 72 66 73 63 74
REMARK SMILES IDX 47 75 48 76 53 77 49 78 50 79 52 80 54 81 51 82
REMARK H PARENT 71 44 45 55
REMARK Flexibility Score: inf
ROOT
ATOM      1  C   UNL A   1      34.030  35.699  28.791  1.00  0.00     0.275 C 
ENDROOT
BRANCH   1   2
ATOM      2  O   UNL A   1      34.024  34.279  29.046  1.00  0.00    -0.458 OA
BRANCH   2   3
ATOM      3  C   UNL A   1      33.332  33.512  28.169  1.00  0.00     0.338 C 
ATOM      4  O   UNL A   1      32.325  33.830  27.558  1.00  0.00    -0.246 OA
BRANCH   3   5
ATOM      5  C   UNL A   1      34.030  32.222  27.947  1.00  0.00     0.063 A 
ATOM      6  C   UNL A   1      34.012  29.831  27.471  1.00  0.00    -0.015 A 
ATOM      7  C   UNL A   1      35.408  29.815  27.591  1.00  0.00     0.048 A 
ATOM      8  C   UNL A   1      33.327  31.041  27.689  1.00  0.00     0.024 A 
ATOM      9  C   UNL A   1      36.098  30.995  27.837  1.00  0.00     0.124 A 
ATOM     10  F   UNL A   1      37.434  30.974  27.920  1.00  0.00    -0.207 F 
ATOM     11  C   UNL A   1      35.427  32.200  27.973  1.00  0.00     0.055 A 
BRANCH   6  12
ATOM     12  C   UNL A   1      33.284  28.630  27.051  1.00  0.00    -0.018 A 
ATOM     13  C   UNL A   1      31.949  26.289  26.259  1.00  0.00     0.060 A 
ATOM     14  C   UNL A   1      31.261  27.283  26.961  1.00  0.00     0.016 A 
ATOM     15  C   UNL A   1      33.300  26.457  25.946  1.00  0.00     0.016 A 
ATOM     16  C   UNL A   1      31.929  28.443  27.364  1.00  0.00     0.009 A 
ATOM     17  C   UNL A   1      33.957  27.622  26.338  1.00  0.00     0.009 A 
BRANCH  13  18
ATOM     18  C   UNL A   1      31.215  25.084  25.825  1.00  0.00     0.338 C 
ATOM     19  O   UNL A   1      30.494  24.432  26.560  1.00  0.00    -0.246 OA
BRANCH  18  20
ATOM     20  O   UNL A   1      31.520  24.820  24.532  1.00  0.00    -0.462 OA
BRANCH  20  21
ATOM     21  C   UNL A   1      30.443  24.971  23.596  1.00  0.00     0.230 C 
ATOM     22  C   UNL A   1      29.517  26.108  23.991  1.00  0.00     0.049 C 
ENDBRANCH  20  21
ENDBRANCH  18  20
ENDBRANCH  13  18
ENDBRANCH   6  12
ENDBRANCH   3   5
ENDBRANCH   2   3
ENDBRANCH   1   2
BRANCH   1  23
ATOM     23  C   UNL A   1      32.913  36.400  29.564  1.00  0.00     0.275 C 
BRANCH  23  24
ATOM     24  O   UNL A   1      32.400  35.539  30.598  1.00  0.00    -0.458 OA
BRANCH  24  25
ATOM     25  C   UNL A   1      32.599  35.966  31.865  1.00  0.00     0.338 C 
ATOM     26  O   UNL A   1      31.981  36.821  32.474  1.00  0.00    -0.246 OA
BRANCH  25  27
ATOM     27  C   UNL A   1      33.674  35.175  32.478  1.00  0.00     0.060 A 
ATOM     28  C   UNL A   1      34.954  35.717  32.511  1.00  0.00     0.016 A 
ATOM     29  C   UNL A   1      33.452  33.865  32.894  1.00  0.00     0.016 A 
ATOM     30  C   UNL A   1      36.043  34.937  32.888  1.00  0.00     0.010 A 
ATOM     31  C   UNL A   1      34.535  33.106  33.351  1.00  0.00     0.010 A 
ATOM     32  C   UNL A   1      35.846  33.623  33.325  1.00  0.00    -0.014 A 
BRANCH  32  33
ATOM     33  C   UNL A   1      36.998  32.766  33.713  1.00  0.00     0.031 A 
ATOM     34  C   UNL A   1      37.675  32.990  35.038  1.00  0.00     0.074 A 
ATOM     35  C   UNL A   1      37.448  31.797  32.892  1.00  0.00     0.049 A 
ATOM     36  N   UNL A   1      38.839  32.566  35.456  1.00  0.00    -0.248 NA
ATOM     37  C   UNL A   1      36.946  33.813  36.016  1.00  0.00     0.031 C 
ATOM     38  C   UNL A   1      36.841  31.407  31.620  1.00  0.00     0.029 A 
ATOM     39  N   UNL A   1      38.537  30.966  33.007  1.00  0.00    -0.354 N 
ATOM     40  C   UNL A   1      39.010  33.119  36.719  1.00  0.00     0.074 A 
ATOM     41  C   UNL A   1      37.827  33.903  37.002  1.00  0.00     0.031 C 
ATOM     42  C   UNL A   1      37.555  30.407  31.078  1.00  0.00     0.029 A 
ATOM     43  C   UNL A   1      38.721  30.150  31.917  1.00  0.00     0.049 A 
ATOM     44  H   UNL A   1      39.129  30.957  33.795  1.00  0.00     0.167 HD
ATOM     45  C   UNL A   1      40.065  32.989  37.559  1.00  0.00     0.037 A 
ATOM     46  C   UNL A   1      39.741  29.333  31.597  1.00  0.00     0.037 A 
ATOM     47  C   UNL A   1      41.214  32.165  37.289  1.00  0.00     0.049 A 
ATOM     48  C   UNL A   1      40.927  29.246  32.516  1.00  0.00     0.074 A 
ATOM     49  C   UNL A   1      42.348  31.982  38.063  1.00  0.00     0.029 A 
ATOM     50  N   UNL A   1      41.363  31.368  36.165  1.00  0.00    -0.354 N 
ATOM     51  N   UNL A   1      41.129  29.847  33.662  1.00  0.00    -0.248 NA
ATOM     52  C   UNL A   1      42.040  28.387  32.085  1.00  0.00     0.031 C 
ATOM     53  C   UNL A   1      43.193  31.090  37.395  1.00  0.00     0.029 A 
ATOM     54  C   UNL A   1      42.568  30.689  36.225  1.00  0.00     0.049 A 
ATOM     55  H   UNL A   1      40.709  31.295  35.433  1.00  0.00     0.167 HD
ATOM     56  C   UNL A   1      42.374  29.420  34.103  1.00  0.00     0.074 A 
ATOM     57  C   UNL A   1      42.882  28.505  33.102  1.00  0.00     0.031 C 
ATOM     58  C   UNL A   1      43.039  29.758  35.233  1.00  0.00     0.037 A 
BRANCH  45  59
ATOM     59  C   UNL A   1      40.042  33.780  38.833  1.00  0.00     0.057 A 
ATOM     60  C   UNL A   1      39.403  33.315  39.989  1.00  0.00     0.134 A 
ATOM     61  C   UNL A   1      40.709  35.011  38.913  1.00  0.00     0.134 A 
ATOM     62  F   UNL A   1      38.735  32.153  39.974  1.00  0.00    -0.206 F 
ATOM     63  C   UNL A   1      39.414  34.055  41.173  1.00  0.00     0.040 A 
ATOM     64  C   UNL A   1      40.746  35.746  40.097  1.00  0.00     0.040 A 
ATOM     65  F   UNL A   1      41.346  35.510  37.843  1.00  0.00    -0.206 F 
ATOM     66  C   UNL A   1      40.093  35.270  41.232  1.00  0.00     0.006 A 
ENDBRANCH  45  59
BRANCH  46  67
ATOM     67  C   UNL A   1      39.713  28.571  30.322  1.00  0.00     0.057 A 
ATOM     68  C   UNL A   1      40.258  29.104  29.150  1.00  0.00     0.134 A 
ATOM     69  C   UNL A   1      39.135  27.297  30.244  1.00  0.00     0.134 A 
ATOM     70  F   UNL A   1      40.802  30.330  29.154  1.00  0.00    -0.206 F 
ATOM     71  C   UNL A   1      40.223  28.402  27.943  1.00  0.00     0.040 A 
ATOM     72  C   UNL A   1      39.118  26.573  29.052  1.00  0.00     0.040 A 
ATOM     73  F   UNL A   1      38.594  26.730  31.334  1.00  0.00    -0.206 F 
ATOM     74  C   UNL A   1      39.657  27.129  27.894  1.00  0.00     0.006 A 
ENDBRANCH  46  67
BRANCH  58  75
ATOM     75  C   UNL A   1      44.354  29.086  35.483  1.00  0.00     0.057 A 
ATOM     76  C   UNL A   1      44.442  27.856  36.144  1.00  0.00     0.134 A 
ATOM     77  C   UNL A   1      45.540  29.655  35.004  1.00  0.00     0.134 A 
ATOM     78  F   UNL A   1      43.342  27.267  36.637  1.00  0.00    -0.206 F 
ATOM     79  C   UNL A   1      45.670  27.219  36.329  1.00  0.00     0.040 A 
ATOM     80  C   UNL A   1      46.770  29.019  35.165  1.00  0.00     0.040 A 
ATOM     81  F   UNL A   1      45.518  30.831  34.357  1.00  0.00    -0.206 F 
ATOM     82  C   UNL A   1      46.837  27.797  35.833  1.00  0.00     0.006 A 
ENDBRANCH  58  75
ENDBRANCH  32  33
ENDBRANCH  25  27
ENDBRANCH  24  25
ENDBRANCH  23  24
ENDBRANCH   1  23
TORSDOF 15
ENDMDL
MODEL 2
REMARK VINA RESULT:     -11.3      4.069      9.361
REMARK SMILES CCOC(=O)c1ccc(-c2cc(F)cc(C(=O)OCCOC(=O)c3ccc(-c4c5nc(c(-c6c(F)cccc6F)c6ccc([nH]6)c(-c6c(F)cccc6F)c6nc(c(-c7c(F)cccc7F)c7ccc4[nH]7)C=C6)C=C5)cc3)c2)cc1
REMARK SMILES IDX 19 1 18 2 16 3 17 4 15 5 10 6 11 7 78 8 12 9 13 10 14 11
REMARK SMILES IDX 9 12 6 13 7 14 80 15 8 16 79 17 4 18 5 19 3 20 2 21 1 22
REMARK SMILES IDX 20 23 21 24 22 25 23 26 24 27 25 28 77 29 26 30 76 31 27 32
REMARK SMILES IDX 28 33 29 34 70 35 30 36 75 37 69 38 71 39 31 40 74 41 68 42
REMARK SMILES IDX 67 43 32 45 58 46 41 47 57 48 42 49 45 50 56 51 72 52 43 53
REMARK SMILES IDX 44 54 55 56 73 57 46 58 33 59 34 60 39 61 35 62 36 63 38 64
REMARK SMILES IDX 40 65 37 66 59 67 60 68 65 69 61 70 62 71 64 72 66 73 63 74
REMARK SMILES IDX 47 75 48 76 53 77 49 78 50 79 52 80 54 81 51 82
REMARK H PARENT 71 44 45 55
REMARK Flexibility Score: inf
ROOT
ATOM      1  C   UNL A   1      42.647  20.126  25.962  1.00  0.00     0.275 C 
ENDROOT
BRANCH   1   2
ATOM      2  O   UNL A   1      41.452  20.615  26.606  1.00  0.00    -0.458 OA
BRANCH   2   3
ATOM      3  C   UNL A   1      40.274  20.255  26.044  1.00  0.00     0.338 C 
ATOM      4  O   UNL A   1      39.944  19.132  25.696  1.00  0.00    -0.246 OA
BRANCH   3   5
ATOM      5  C   UNL A   1      39.349  21.414  25.993  1.00  0.00     0.063 A 
ATOM      6  C   UNL A   1      37.269  22.464  25.277  1.00  0.00    -0.015 A 
ATOM      7  C   UNL A   1      37.678  23.653  25.896  1.00  0.00     0.048 A 
ATOM      8  C   UNL A   1      38.135  21.355  25.301  1.00  0.00     0.024 A 
ATOM      9  C   UNL A   1      38.881  23.698  26.590  1.00  0.00     0.124 A 
ATOM     10  F   UNL A   1      39.247  24.830  27.203  1.00  0.00    -0.207 F 
ATOM     11  C   UNL A   1      39.695  22.581  26.679  1.00  0.00     0.055 A 
BRANCH   6  12
ATOM     12  C   UNL A   1      35.934  22.352  24.683  1.00  0.00    -0.018 A 
ATOM     13  C   UNL A   1      33.348  22.120  23.611  1.00  0.00     0.060 A 
ATOM     14  C   UNL A   1      34.227  23.088  23.115  1.00  0.00     0.016 A 
ATOM     15  C   UNL A   1      33.753  21.263  24.637  1.00  0.00     0.016 A 
ATOM     16  C   UNL A   1      35.510  23.209  23.657  1.00  0.00     0.009 A 
ATOM     17  C   UNL A   1      35.038  21.379  25.163  1.00  0.00     0.009 A 
BRANCH  13  18
ATOM     18  C   UNL A   1      32.007  21.998  23.006  1.00  0.00     0.338 C 
ATOM     19  O   UNL A   1      31.785  21.393  21.971  1.00  0.00    -0.246 OA
BRANCH  18  20
ATOM     20  O   UNL A   1      31.118  22.697  23.752  1.00  0.00    -0.462 OA
BRANCH  20  21
ATOM     21  C   UNL A   1      30.644  23.920  23.171  1.00  0.00     0.230 C 
ATOM     22  C   UNL A   1      30.774  25.083  24.139  1.00  0.00     0.049 C 
ENDBRANCH  20  21
ENDBRANCH  18  20
ENDBRANCH  13  18
ENDBRANCH   6  12
ENDBRANCH   3   5
ENDBRANCH   2   3
ENDBRANCH   1   2
BRANCH   1  23
ATOM     23  C   UNL A   1      43.556  21.281  25.543  1.00  0.00     0.275 C 
BRANCH  23  24
ATOM     24  O   UNL A   1      42.781  22.467  25.293  1.00  0.00    -0.458 OA
BRANCH  24  25
ATOM     25  C   UNL A   1      43.482  23.621  25.236  1.00  0.00     0.338 C 
ATOM     26  O   UNL A   1      44.398  23.906  24.485  1.00  0.00    -0.246 OA
BRANCH  25  27
ATOM     27  C   UNL A   1      42.923  24.574  26.204  1.00  0.00     0.060 A 
ATOM     28  C   UNL A   1      42.939  25.927  25.881  1.00  0.00     0.016 A 
ATOM     29  C   UNL A   1      42.510  24.156  27.466  1.00  0.00     0.016 A 
ATOM     30  C   UNL A   1      42.618  26.886  26.835  1.00  0.00     0.010 A 
ATOM     31  C   UNL A   1      42.108  25.116  28.401  1.00  0.00     0.010 A 
ATOM     32  C   UNL A   1      42.185  26.492  28.106  1.00  0.00    -0.014 A 
BRANCH  32  33
ATOM     33  C   UNL A   1      41.855  27.502  29.148  1.00  0.00     0.031 A 
ATOM     34  C   UNL A   1      42.686  27.572  30.400  1.00  0.00     0.074 A 
ATOM     35  C   UNL A   1      40.820  28.350  28.989  1.00  0.00     0.049 A 
ATOM     36  N   UNL A   1      42.424  28.163  31.537  1.00  0.00    -0.248 NA
ATOM     37  C   UNL A   1      43.980  26.870  30.369  1.00  0.00     0.031 C 
ATOM     38  C   UNL A   1      39.982  28.458  27.795  1.00  0.00     0.029 A 
ATOM     39  N   UNL A   1      40.290  29.280  29.850  1.00  0.00    -0.354 N 
ATOM     40  C   UNL A   1      43.488  27.855  32.375  1.00  0.00     0.074 A 
ATOM     41  C   UNL A   1      44.403  27.031  31.615  1.00  0.00     0.031 C 
ATOM     42  C   UNL A   1      39.053  29.408  27.992  1.00  0.00     0.029 A 
ATOM     43  C   UNL A   1      39.171  29.908  29.358  1.00  0.00     0.049 A 
ATOM     44  H   UNL A   1      40.675  29.478  30.735  1.00  0.00     0.167 HD
ATOM     45  C   UNL A   1      43.676  28.222  33.666  1.00  0.00     0.037 A 
ATOM     46  C   UNL A   1      38.302  30.744  29.954  1.00  0.00     0.037 A 
ATOM     47  C   UNL A   1      42.784  29.084  34.397  1.00  0.00     0.049 A 
ATOM     48  C   UNL A   1      38.497  31.093  31.402  1.00  0.00     0.074 A 
ATOM     49  C   UNL A   1      42.870  29.498  35.716  1.00  0.00     0.029 A 
ATOM     50  N   UNL A   1      41.656  29.684  33.861  1.00  0.00    -0.354 N 
ATOM     51  N   UNL A   1      39.450  30.720  32.221  1.00  0.00    -0.248 NA
ATOM     52  C   UNL A   1      37.482  31.959  32.020  1.00  0.00     0.031 C 
ATOM     53  C   UNL A   1      41.780  30.331  35.984  1.00  0.00     0.029 A 
ATOM     54  C   UNL A   1      41.037  30.466  34.821  1.00  0.00     0.049 A 
ATOM     55  H   UNL A   1      41.341  29.571  32.935  1.00  0.00     0.167 HD
ATOM     56  C   UNL A   1      39.167  31.325  33.438  1.00  0.00     0.074 A 
ATOM     57  C   UNL A   1      37.954  32.094  33.251  1.00  0.00     0.031 C 
ATOM     58  C   UNL A   1      39.849  31.249  34.605  1.00  0.00     0.037 A 
BRANCH  45  59
ATOM     59  C   UNL A   1      44.871  27.664  34.382  1.00  0.00     0.057 A 
ATOM     60  C   UNL A   1      46.091  28.348  34.439  1.00  0.00     0.134 A 
ATOM     61  C   UNL A   1      44.781  26.441  35.060  1.00  0.00     0.134 A 
ATOM     62  F   UNL A   1      46.246  29.516  33.799  1.00  0.00    -0.206 F 
ATOM     63  C   UNL A   1      47.185  27.825  35.131  1.00  0.00     0.040 A 
ATOM     64  C   UNL A   1      45.861  25.921  35.774  1.00  0.00     0.040 A 
ATOM     65  F   UNL A   1      43.639  25.738  35.049  1.00  0.00    -0.206 F 
ATOM     66  C   UNL A   1      47.070  26.612  35.807  1.00  0.00     0.006 A 
ENDBRANCH  45  59
BRANCH  46  67
ATOM     67  C   UNL A   1      37.135  31.267  29.199  1.00  0.00     0.057 A 
ATOM     68  C   UNL A   1      36.004  30.475  28.976  1.00  0.00     0.134 A 
ATOM     69  C   UNL A   1      37.125  32.567  28.677  1.00  0.00     0.134 A 
ATOM     70  F   UNL A   1      35.964  29.213  29.428  1.00  0.00    -0.206 F 
ATOM     71  C   UNL A   1      34.908  30.953  28.255  1.00  0.00     0.040 A 
ATOM     72  C   UNL A   1      36.025  33.067  27.978  1.00  0.00     0.040 A 
ATOM     73  F   UNL A   1      38.179  33.378  28.856  1.00  0.00    -0.206 F 
ATOM     74  C   UNL A   1      34.915  32.255  27.759  1.00  0.00     0.006 A 
ENDBRANCH  46  67
BRANCH  58  75
ATOM     75  C   UNL A   1      39.340  32.068  35.752  1.00  0.00     0.057 A 
ATOM     76  C   UNL A   1      39.749  33.390  35.955  1.00  0.00     0.134 A 
ATOM     77  C   UNL A   1      38.385  31.538  36.628  1.00  0.00     0.134 A 
ATOM     78  F   UNL A   1      40.670  33.948  35.156  1.00  0.00    -0.206 F 
ATOM     79  C   UNL A   1      39.232  34.156  37.001  1.00  0.00     0.040 A 
ATOM     80  C   UNL A   1      37.847  32.300  37.665  1.00  0.00     0.040 A 
ATOM     81  F   UNL A   1      37.950  30.277  36.480  1.00  0.00    -0.206 F 
ATOM     82  C   UNL A   1      38.273  33.613  37.855  1.00  0.00     0.006 A 
ENDBRANCH  58  75
ENDBRANCH  32  33
ENDBRANCH  25  27
ENDBRANCH  24  25
ENDBRANCH  23  24
ENDBRANCH   1  23
TORSDOF 15
ENDMDL
MODEL 3
REMARK VINA RESULT:     -11.3      4.056      9.151
REMARK SMILES CCOC(=O)c1ccc(-c2cc(F)cc(C(=O)OCCOC(=O)c3ccc(-c4c5nc(c(-c6c(F)cccc6F)c6ccc([nH]6)c(-c6c(F)cccc6F)c6nc(c(-c7c(F)cccc7F)c7ccc4[nH]7)C=C6)C=C5)cc3)c2)cc1
REMARK SMILES IDX 19 1 18 2 16 3 17 4 15 5 10 6 11 7 78 8 12 9 13 10 14 11
REMARK SMILES IDX 9 12 6 13 7 14 80 15 8 16 79 17 4 18 5 19 3 20 2 21 1 22
REMARK SMILES IDX 20 23 21 24 22 25 23 26 24 27 25 28 77 29 26 30 76 31 27 32
REMARK SMILES IDX 28 33 29 34 70 35 30 36 75 37 69 38 71 39 31 40 74 41 68 42
REMARK SMILES IDX 67 43 32 45 58 46 41 47 57 48 42 49 45 50 56 51 72 52 43 53
REMARK SMILES IDX 44 54 55 56 73 57 46 58 33 59 34 60 39 61 35 62 36 63 38 64
REMARK SMILES IDX 40 65 37 66 59 67 60 68 65 69 61 70 62 71 64 72 66 73 63 74
REMARK SMILES IDX 47 75 48 76 53 77 49 78 50 79 52 80 54 81 51 82
REMARK H PARENT 71 44 45 55
REMARK Flexibility Score: inf
ROOT
ATOM      1  C   UNL A   1      43.001  20.649  25.959  1.00  0.00     0.275 C 
ENDROOT
BRANCH   1   2
ATOM      2  O   UNL A   1      41.596  20.860  25.709  1.00  0.00    -0.458 OA
BRANCH   2   3
ATOM      3  C   UNL A   1      40.786  20.876  26.795  1.00  0.00     0.338 C 
ATOM      4  O   UNL A   1      40.794  20.083  27.723  1.00  0.00    -0.246 OA
BRANCH   3   5
ATOM      5  C   UNL A   1      39.921  22.081  26.777  1.00  0.00     0.063 A 
ATOM      6  C   UNL A   1      38.036  23.351  25.894  1.00  0.00    -0.015 A 
ATOM      7  C   UNL A   1      38.361  24.402  26.763  1.00  0.00     0.048 A 
ATOM      8  C   UNL A   1      38.851  22.203  25.884  1.00  0.00     0.024 A 
ATOM      9  C   UNL A   1      39.420  24.266  27.652  1.00  0.00     0.124 A 
ATOM     10  F   UNL A   1      39.703  25.264  28.498  1.00  0.00    -0.207 F 
ATOM     11  C   UNL A   1      40.172  23.103  27.696  1.00  0.00     0.055 A 
BRANCH   6  12
ATOM     12  C   UNL A   1      36.828  23.412  25.067  1.00  0.00    -0.018 A 
ATOM     13  C   UNL A   1      34.499  23.596  23.507  1.00  0.00     0.060 A 
ATOM     14  C   UNL A   1      35.619  22.919  23.015  1.00  0.00     0.016 A 
ATOM     15  C   UNL A   1      34.532  24.179  24.776  1.00  0.00     0.016 A 
ATOM     16  C   UNL A   1      36.781  22.837  23.788  1.00  0.00     0.009 A 
ATOM     17  C   UNL A   1      35.688  24.082  25.548  1.00  0.00     0.009 A 
BRANCH  13  18
ATOM     18  C   UNL A   1      33.277  23.648  22.680  1.00  0.00     0.338 C 
ATOM     19  O   UNL A   1      32.242  23.075  22.968  1.00  0.00    -0.246 OA
BRANCH  18  20
ATOM     20  O   UNL A   1      33.527  24.376  21.565  1.00  0.00    -0.462 OA
BRANCH  20  21
ATOM     21  C   UNL A   1      32.713  25.545  21.390  1.00  0.00     0.230 C 
ATOM     22  C   UNL A   1      33.344  26.765  22.038  1.00  0.00     0.049 C 
ENDBRANCH  20  21
ENDBRANCH  18  20
ENDBRANCH  13  18
ENDBRANCH   6  12
ENDBRANCH   3   5
ENDBRANCH   2   3
ENDBRANCH   1   2
BRANCH   1  23
ATOM     23  C   UNL A   1      43.847  21.728  25.282  1.00  0.00     0.275 C 
BRANCH  23  24
ATOM     24  O   UNL A   1      43.076  22.930  25.099  1.00  0.00    -0.458 OA
BRANCH  24  25
ATOM     25  C   UNL A   1      43.772  24.086  25.177  1.00  0.00     0.338 C 
ATOM     26  O   UNL A   1      44.705  24.449  24.482  1.00  0.00    -0.246 OA
BRANCH  25  27
ATOM     27  C   UNL A   1      43.184  24.934  26.222  1.00  0.00     0.060 A 
ATOM     28  C   UNL A   1      42.618  26.148  25.845  1.00  0.00     0.016 A 
ATOM     29  C   UNL A   1      43.306  24.602  27.568  1.00  0.00     0.016 A 
ATOM     30  C   UNL A   1      42.236  27.079  26.805  1.00  0.00     0.010 A 
ATOM     31  C   UNL A   1      42.846  25.504  28.534  1.00  0.00     0.010 A 
ATOM     32  C   UNL A   1      42.333  26.764  28.164  1.00  0.00    -0.014 A 
BRANCH  32  33
ATOM     33  C   UNL A   1      41.949  27.753  29.207  1.00  0.00     0.031 A 
ATOM     34  C   UNL A   1      42.759  27.849  30.471  1.00  0.00     0.074 A 
ATOM     35  C   UNL A   1      40.883  28.559  29.039  1.00  0.00     0.049 A 
ATOM     36  N   UNL A   1      42.458  28.421  31.607  1.00  0.00    -0.248 NA
ATOM     37  C   UNL A   1      44.081  27.200  30.454  1.00  0.00     0.031 C 
ATOM     38  C   UNL A   1      40.057  28.640  27.834  1.00  0.00     0.029 A 
ATOM     39  N   UNL A   1      40.304  29.462  29.898  1.00  0.00    -0.354 N 
ATOM     40  C   UNL A   1      43.523  28.152  32.459  1.00  0.00     0.074 A 
ATOM     41  C   UNL A   1      44.480  27.370  31.706  1.00  0.00     0.031 C 
ATOM     42  C   UNL A   1      39.088  29.551  28.024  1.00  0.00     0.029 A 
ATOM     43  C   UNL A   1      39.167  30.046  29.394  1.00  0.00     0.049 A 
ATOM     44  H   UNL A   1      40.668  29.670  30.789  1.00  0.00     0.167 HD
ATOM     45  C   UNL A   1      43.678  28.518  33.754  1.00  0.00     0.037 A 
ATOM     46  C   UNL A   1      38.257  30.843  29.983  1.00  0.00     0.037 A 
ATOM     47  C   UNL A   1      42.742  29.338  34.478  1.00  0.00     0.049 A 
ATOM     48  C   UNL A   1      38.418  31.191  31.436  1.00  0.00     0.074 A 
ATOM     49  C   UNL A   1      42.793  29.747  35.800  1.00  0.00     0.029 A 
ATOM     50  N   UNL A   1      41.598  29.895  33.930  1.00  0.00    -0.354 N 
ATOM     51  N   UNL A   1      39.374  30.852  32.265  1.00  0.00    -0.248 NA
ATOM     52  C   UNL A   1      37.360  32.012  32.044  1.00  0.00     0.031 C 
ATOM     53  C   UNL A   1      41.667  30.534  36.057  1.00  0.00     0.029 A 
ATOM     54  C   UNL A   1      40.935  30.646  34.885  1.00  0.00     0.049 A 
ATOM     55  H   UNL A   1      41.300  29.776  32.999  1.00  0.00     0.167 HD
ATOM     56  C   UNL A   1      39.050  31.438  33.481  1.00  0.00     0.074 A 
ATOM     57  C   UNL A   1      37.810  32.157  33.283  1.00  0.00     0.031 C 
ATOM     58  C   UNL A   1      39.719  31.382  34.657  1.00  0.00     0.037 A 
BRANCH  45  59
ATOM     59  C   UNL A   1      44.884  28.005  34.483  1.00  0.00     0.057 A 
ATOM     60  C   UNL A   1      44.916  26.735  35.072  1.00  0.00     0.134 A 
ATOM     61  C   UNL A   1      46.048  28.783  34.559  1.00  0.00     0.134 A 
ATOM     62  F   UNL A   1      43.830  25.948  35.047  1.00  0.00    -0.206 F 
ATOM     63  C   UNL A   1      46.056  26.265  35.725  1.00  0.00     0.040 A 
ATOM     64  C   UNL A   1      47.201  28.313  35.189  1.00  0.00     0.040 A 
ATOM     65  F   UNL A   1      46.086  30.006  34.010  1.00  0.00    -0.206 F 
ATOM     66  C   UNL A   1      47.205  27.051  35.778  1.00  0.00     0.006 A 
ENDBRANCH  45  59
BRANCH  46  67
ATOM     67  C   UNL A   1      37.080  31.323  29.215  1.00  0.00     0.057 A 
ATOM     68  C   UNL A   1      35.970  30.499  29.001  1.00  0.00     0.134 A 
ATOM     69  C   UNL A   1      37.038  32.614  28.671  1.00  0.00     0.134 A 
ATOM     70  F   UNL A   1      35.961  29.244  29.474  1.00  0.00    -0.206 F 
ATOM     71  C   UNL A   1      34.865  30.936  28.268  1.00  0.00     0.040 A 
ATOM     72  C   UNL A   1      35.929  33.073  27.960  1.00  0.00     0.040 A 
ATOM     73  F   UNL A   1      38.071  33.454  28.840  1.00  0.00    -0.206 F 
ATOM     74  C   UNL A   1      34.841  32.230  27.750  1.00  0.00     0.006 A 
ENDBRANCH  46  67
BRANCH  58  75
ATOM     75  C   UNL A   1      39.162  32.172  35.802  1.00  0.00     0.057 A 
ATOM     76  C   UNL A   1      38.277  31.610  36.728  1.00  0.00     0.134 A 
ATOM     77  C   UNL A   1      39.566  33.497  36.007  1.00  0.00     0.134 A 
ATOM     78  F   UNL A   1      37.845  30.349  36.577  1.00  0.00    -0.206 F 
ATOM     79  C   UNL A   1      37.803  32.344  37.816  1.00  0.00     0.040 A 
ATOM     80  C   UNL A   1      39.115  34.234  37.101  1.00  0.00     0.040 A 
ATOM     81  F   UNL A   1      40.418  34.088  35.156  1.00  0.00    -0.206 F 
ATOM     82  C   UNL A   1      38.227  33.658  38.008  1.00  0.00     0.006 A 
ENDBRANCH  58  75
ENDBRANCH  32  33
ENDBRANCH  25  27
ENDBRANCH  24  25
ENDBRANCH  23  24
ENDBRANCH   1  23
TORSDOF 15
ENDMDL
