MODEL 1
REMARK VINA RESULT:     -12.9      0.000      0.000
REMARK SMILES O=C(OCCOC(=O)[C@@H]1C[N@@H+](C2CCN(C(=O)c3ccccc3)CC2)C[C@H]1C1CC1)c1ccc(-c2c3nc(c(-c4c(F)cccc4F)c4ccc([nH]4)c(-c4c(F)cccc4F)c4nc(c(-c5c(F)cccc5F)c5ccc2[nH]5)C=C4)C=C3)cc1
REMARK SMILES IDX 4 1 3 2 2 3 1 4 31 5 32 6 84 7 33 8 83 9 34 10 35 11 36 12
REMARK SMILES IDX 77 13 37 14 82 15 76 16 78 17 38 18 81 19 75 20 74 21 39 23
REMARK SMILES IDX 65 24 48 25 64 26 49 27 52 28 63 29 79 30 50 31 51 32 62 34
REMARK SMILES IDX 80 35 53 36 40 37 41 38 46 39 42 40 43 41 45 42 47 43 44 44
REMARK SMILES IDX 66 45 67 46 72 47 68 48 69 49 71 50 73 51 70 52 54 53 55 54
REMARK SMILES IDX 60 55 56 56 57 57 59 58 61 59 58 60 5 61 6 62 7 63 8 64 9 65
REMARK SMILES IDX 10 66 27 67 11 68 26 69 28 71 29 72 30 73 12 74 13 75 25 76
REMARK SMILES IDX 14 77 24 78 15 79 16 80 17 81 18 82 19 83 23 84 20 85 22 86
REMARK SMILES IDX 21 87
REMARK H PARENT 78 22 52 33 11 70
REMARK Flexibility Score: inf
ROOT
ATOM      1  C   UNL A   1      31.923  33.211  26.751  1.00  0.00     0.275 C 
ENDROOT
BRANCH   1   2
ATOM      2  O   UNL A   1      32.305  33.830  27.981  1.00  0.00    -0.458 OA
BRANCH   2   3
ATOM      3  C   UNL A   1      33.511  34.319  28.331  1.00  0.00     0.338 C 
ATOM      4  O   UNL A   1      33.599  35.534  28.506  1.00  0.00    -0.246 OA
BRANCH   3   5
ATOM      5  C   UNL A   1      34.767  33.493  28.475  1.00  0.00     0.060 A 
ATOM      6  C   UNL A   1      36.102  33.911  28.376  1.00  0.00     0.016 A 
ATOM      7  C   UNL A   1      34.550  32.183  28.908  1.00  0.00     0.016 A 
ATOM      8  C   UNL A   1      37.168  33.120  28.858  1.00  0.00     0.010 A 
ATOM      9  C   UNL A   1      35.595  31.432  29.457  1.00  0.00     0.010 A 
ATOM     10  C   UNL A   1      36.924  31.896  29.473  1.00  0.00    -0.014 A 
BRANCH  10  11
ATOM     11  C   UNL A   1      37.991  31.061  30.123  1.00  0.00     0.031 A 
ATOM     12  C   UNL A   1      38.394  31.421  31.534  1.00  0.00     0.074 A 
ATOM     13  C   UNL A   1      38.721  30.131  29.458  1.00  0.00     0.049 A 
ATOM     14  N   UNL A   1      39.435  31.038  32.225  1.00  0.00    -0.248 NA
ATOM     15  C   UNL A   1      37.556  32.418  32.229  1.00  0.00     0.031 C 
ATOM     16  C   UNL A   1      38.554  29.721  28.059  1.00  0.00     0.029 A 
ATOM     17  N   UNL A   1      39.840  29.424  29.855  1.00  0.00    -0.354 N 
ATOM     18  C   UNL A   1      39.362  31.760  33.407  1.00  0.00     0.074 A 
ATOM     19  C   UNL A   1      38.335  32.757  33.241  1.00  0.00     0.031 C 
ATOM     20  C   UNL A   1      39.579  28.927  27.693  1.00  0.00     0.029 A 
ATOM     21  C   UNL A   1      40.456  28.720  28.838  1.00  0.00     0.049 A 
ATOM     22  H   UNL A   1      40.171  29.423  30.782  1.00  0.00     0.167 HD
ATOM     23  C   UNL A   1      39.968  31.521  34.591  1.00  0.00     0.037 A 
ATOM     24  C   UNL A   1      41.594  27.993  28.833  1.00  0.00     0.037 A 
ATOM     25  C   UNL A   1      40.883  30.445  34.805  1.00  0.00     0.049 A 
ATOM     26  C   UNL A   1      42.314  27.762  30.140  1.00  0.00     0.074 A 
ATOM     27  C   UNL A   1      41.402  29.976  35.995  1.00  0.00     0.029 A 
ATOM     28  N   UNL A   1      41.408  29.664  33.791  1.00  0.00    -0.354 N 
ATOM     29  N   UNL A   1      42.064  28.273  31.321  1.00  0.00    -0.248 NA
ATOM     30  C   UNL A   1      43.433  26.804  30.133  1.00  0.00     0.031 C 
ATOM     31  C   UNL A   1      42.280  28.931  35.696  1.00  0.00     0.029 A 
ATOM     32  C   UNL A   1      42.278  28.734  34.323  1.00  0.00     0.049 A 
ATOM     33  H   UNL A   1      41.193  29.757  32.834  1.00  0.00     0.167 HD
ATOM     34  C   UNL A   1      42.932  27.640  32.203  1.00  0.00     0.074 A 
ATOM     35  C   UNL A   1      43.732  26.724  31.422  1.00  0.00     0.031 C 
ATOM     36  C   UNL A   1      43.035  27.791  33.545  1.00  0.00     0.037 A 
BRANCH  23  37
ATOM     37  C   UNL A   1      39.534  32.363  35.752  1.00  0.00     0.057 A 
ATOM     38  C   UNL A   1      38.431  31.996  36.541  1.00  0.00     0.134 A 
ATOM     39  C   UNL A   1      40.188  33.555  36.068  1.00  0.00     0.134 A 
ATOM     40  F   UNL A   1      37.751  30.868  36.279  1.00  0.00    -0.206 F 
ATOM     41  C   UNL A   1      37.958  32.815  37.563  1.00  0.00     0.040 A 
ATOM     42  C   UNL A   1      39.747  34.365  37.115  1.00  0.00     0.040 A 
ATOM     43  F   UNL A   1      41.253  33.958  35.359  1.00  0.00    -0.206 F 
ATOM     44  C   UNL A   1      38.620  34.004  37.855  1.00  0.00     0.006 A 
ENDBRANCH  23  37
BRANCH  24  45
ATOM     45  C   UNL A   1      42.109  27.340  27.595  1.00  0.00     0.057 A 
ATOM     46  C   UNL A   1      42.898  28.052  26.680  1.00  0.00     0.134 A 
ATOM     47  C   UNL A   1      41.729  26.042  27.232  1.00  0.00     0.134 A 
ATOM     48  F   UNL A   1      43.270  29.312  26.953  1.00  0.00    -0.206 F 
ATOM     49  C   UNL A   1      43.249  27.522  25.436  1.00  0.00     0.040 A 
ATOM     50  C   UNL A   1      42.092  25.489  25.997  1.00  0.00     0.040 A 
ATOM     51  F   UNL A   1      40.969  25.302  28.052  1.00  0.00    -0.206 F 
ATOM     52  C   UNL A   1      42.841  26.236  25.089  1.00  0.00     0.006 A 
ENDBRANCH  24  45
BRANCH  36  53
ATOM     53  C   UNL A   1      43.994  26.911  34.285  1.00  0.00     0.057 A 
ATOM     54  C   UNL A   1      45.332  27.272  34.472  1.00  0.00     0.134 A 
ATOM     55  C   UNL A   1      43.537  25.747  34.918  1.00  0.00     0.134 A 
ATOM     56  F   UNL A   1      45.831  28.368  33.880  1.00  0.00    -0.206 F 
ATOM     57  C   UNL A   1      46.185  26.507  35.269  1.00  0.00     0.040 A 
ATOM     58  C   UNL A   1      44.371  24.991  35.740  1.00  0.00     0.040 A 
ATOM     59  F   UNL A   1      42.261  25.354  34.783  1.00  0.00    -0.206 F 
ATOM     60  C   UNL A   1      45.699  25.372  35.919  1.00  0.00     0.006 A 
ENDBRANCH  36  53
ENDBRANCH  10  11
ENDBRANCH   3   5
ENDBRANCH   2   3
ENDBRANCH   1   2
BRANCH   1  61
ATOM     61  C   UNL A   1      31.489  31.744  26.870  1.00  0.00     0.274 C 
BRANCH  61  62
ATOM     62  O   UNL A   1      31.108  31.111  25.623  1.00  0.00    -0.462 OA
BRANCH  62  63
ATOM     63  C   UNL A   1      31.749  29.945  25.325  1.00  0.00     0.315 C 
ATOM     64  O   UNL A   1      32.963  29.800  25.443  1.00  0.00    -0.252 OA
BRANCH  63  65
ATOM     65  C   UNL A   1      30.895  28.890  24.632  1.00  0.00     0.163 C 
ATOM     66  C   UNL A   1      31.763  27.646  24.465  1.00  0.00     0.278 C 
ATOM     67  C   UNL A   1      30.270  29.060  23.262  1.00  0.00     0.067 C 
ATOM     68  N   UNL A   1      31.117  26.775  23.492  1.00  0.00    -0.331 N 
ATOM     69  C   UNL A   1      30.406  27.677  22.582  1.00  0.00     0.267 C 
ATOM     70  H   UNL A   1      31.873  26.226  23.081  1.00  0.00     0.348 HD
BRANCH  67  71
ATOM     71  C   UNL A   1      28.822  29.483  23.093  1.00  0.00    -0.001 C 
ATOM     72  C   UNL A   1      28.362  30.920  23.027  1.00  0.00     0.004 C 
ATOM     73  C   UNL A   1      28.179  30.016  21.842  1.00  0.00     0.004 C 
ENDBRANCH  67  71
BRANCH  68  74
ATOM     74  C   UNL A   1      30.253  25.666  23.926  1.00  0.00     0.187 C 
ATOM     75  C   UNL A   1      30.050  25.458  25.428  1.00  0.00     0.086 C 
ATOM     76  C   UNL A   1      30.574  24.314  23.283  1.00  0.00     0.086 C 
ATOM     77  C   UNL A   1      31.213  24.770  26.105  1.00  0.00     0.126 C 
ATOM     78  C   UNL A   1      31.679  23.526  23.969  1.00  0.00     0.126 C 
ATOM     79  N   UNL A   1      31.680  23.577  25.437  1.00  0.00    -0.338 N 
ATOM     80  C   UNL A   1      32.486  22.760  26.230  1.00  0.00     0.253 C 
ATOM     81  O   UNL A   1      32.713  22.955  27.426  1.00  0.00    -0.269 OA
BRANCH  80  82
ATOM     82  C   UNL A   1      33.049  21.554  25.626  1.00  0.00     0.040 A 
ATOM     83  C   UNL A   1      34.432  21.524  25.452  1.00  0.00     0.014 A 
ATOM     84  C   UNL A   1      32.237  20.483  25.251  1.00  0.00     0.014 A 
ATOM     85  C   UNL A   1      35.021  20.382  24.927  1.00  0.00     0.001 A 
ATOM     86  C   UNL A   1      32.836  19.339  24.733  1.00  0.00     0.001 A 
ATOM     87  C   UNL A   1      34.225  19.289  24.578  1.00  0.00     0.000 A 
ENDBRANCH  80  82
ENDBRANCH  68  74
ENDBRANCH  63  65
ENDBRANCH  62  63
ENDBRANCH  61  62
ENDBRANCH   1  61
TORSDOF 14
ENDMDL
MODEL 2
REMARK VINA RESULT:     -12.7      0.898      6.145
REMARK SMILES O=C(OCCOC(=O)[C@@H]1C[N@@H+](C2CCN(C(=O)c3ccccc3)CC2)C[C@H]1C1CC1)c1ccc(-c2c3nc(c(-c4c(F)cccc4F)c4ccc([nH]4)c(-c4c(F)cccc4F)c4nc(c(-c5c(F)cccc5F)c5ccc2[nH]5)C=C4)C=C3)cc1
REMARK SMILES IDX 4 1 3 2 2 3 1 4 31 5 32 6 84 7 33 8 83 9 34 10 35 11 36 12
REMARK SMILES IDX 77 13 37 14 82 15 76 16 78 17 38 18 81 19 75 20 74 21 39 23
REMARK SMILES IDX 65 24 48 25 64 26 49 27 52 28 63 29 79 30 50 31 51 32 62 34
REMARK SMILES IDX 80 35 53 36 40 37 41 38 46 39 42 40 43 41 45 42 47 43 44 44
REMARK SMILES IDX 66 45 67 46 72 47 68 48 69 49 71 50 73 51 70 52 54 53 55 54
REMARK SMILES IDX 60 55 56 56 57 57 59 58 61 59 58 60 5 61 6 62 7 63 8 64 9 65
REMARK SMILES IDX 10 66 27 67 11 68 26 69 28 71 29 72 30 73 12 74 13 75 25 76
REMARK SMILES IDX 14 77 24 78 15 79 16 80 17 81 18 82 19 83 23 84 20 85 22 86
REMARK SMILES IDX 21 87
REMARK H PARENT 78 22 52 33 11 70
REMARK Flexibility Score: inf
ROOT
ATOM      1  C   UNL A   1      32.012  32.905  26.484  1.00  0.00     0.275 C 
ENDROOT
BRANCH   1   2
ATOM      2  O   UNL A   1      31.918  33.755  27.630  1.00  0.00    -0.458 OA
BRANCH   2   3
ATOM      3  C   UNL A   1      32.917  34.340  28.320  1.00  0.00     0.338 C 
ATOM      4  O   UNL A   1      32.722  35.482  28.736  1.00  0.00    -0.246 OA
BRANCH   3   5
ATOM      5  C   UNL A   1      34.269  33.718  28.574  1.00  0.00     0.060 A 
ATOM      6  C   UNL A   1      35.538  34.287  28.399  1.00  0.00     0.016 A 
ATOM      7  C   UNL A   1      34.221  32.471  29.204  1.00  0.00     0.016 A 
ATOM      8  C   UNL A   1      36.694  33.724  28.985  1.00  0.00     0.010 A 
ATOM      9  C   UNL A   1      35.349  31.956  29.850  1.00  0.00     0.010 A 
ATOM     10  C   UNL A   1      36.606  32.586  29.781  1.00  0.00    -0.014 A 
BRANCH  10  11
ATOM     11  C   UNL A   1      37.766  32.007  30.540  1.00  0.00     0.031 A 
ATOM     12  C   UNL A   1      38.463  30.809  29.938  1.00  0.00     0.074 A 
ATOM     13  C   UNL A   1      38.102  32.387  31.798  1.00  0.00     0.049 A 
ATOM     14  N   UNL A   1      39.310  29.977  30.486  1.00  0.00    -0.248 NA
ATOM     15  C   UNL A   1      38.087  30.446  28.557  1.00  0.00     0.031 C 
ATOM     16  C   UNL A   1      37.474  33.452  32.589  1.00  0.00     0.029 A 
ATOM     17  N   UNL A   1      39.006  31.836  32.686  1.00  0.00    -0.354 N 
ATOM     18  C   UNL A   1      39.538  29.011  29.517  1.00  0.00     0.074 A 
ATOM     19  C   UNL A   1      38.577  29.224  28.464  1.00  0.00     0.031 C 
ATOM     20  C   UNL A   1      37.934  33.409  33.855  1.00  0.00     0.029 A 
ATOM     21  C   UNL A   1      38.930  32.351  33.966  1.00  0.00     0.049 A 
ATOM     22  H   UNL A   1      39.648  31.136  32.429  1.00  0.00     0.167 HD
ATOM     23  C   UNL A   1      40.554  28.128  29.415  1.00  0.00     0.037 A 
ATOM     24  C   UNL A   1      39.588  32.009  35.094  1.00  0.00     0.037 A 
ATOM     25  C   UNL A   1      41.594  28.008  30.388  1.00  0.00     0.049 A 
ATOM     26  C   UNL A   1      40.691  30.981  35.009  1.00  0.00     0.074 A 
ATOM     27  C   UNL A   1      42.779  27.303  30.304  1.00  0.00     0.029 A 
ATOM     28  N   UNL A   1      41.568  28.623  31.627  1.00  0.00    -0.354 N 
ATOM     29  N   UNL A   1      41.057  30.248  33.987  1.00  0.00    -0.248 NA
ATOM     30  C   UNL A   1      41.518  30.779  36.211  1.00  0.00     0.031 C 
ATOM     31  C   UNL A   1      43.455  27.459  31.517  1.00  0.00     0.029 A 
ATOM     32  C   UNL A   1      42.702  28.285  32.338  1.00  0.00     0.049 A 
ATOM     33  H   UNL A   1      40.849  29.212  31.953  1.00  0.00     0.167 HD
ATOM     34  C   UNL A   1      42.198  29.566  34.394  1.00  0.00     0.074 A 
ATOM     35  C   UNL A   1      42.453  29.953  35.763  1.00  0.00     0.031 C 
ATOM     36  C   UNL A   1      42.975  28.715  33.683  1.00  0.00     0.037 A 
BRANCH  23  37
ATOM     37  C   UNL A   1      40.641  27.343  28.142  1.00  0.00     0.057 A 
ATOM     38  C   UNL A   1      40.006  26.097  28.014  1.00  0.00     0.134 A 
ATOM     39  C   UNL A   1      41.382  27.808  27.053  1.00  0.00     0.134 A 
ATOM     40  F   UNL A   1      39.291  25.589  29.031  1.00  0.00    -0.206 F 
ATOM     41  C   UNL A   1      40.156  25.313  26.872  1.00  0.00     0.040 A 
ATOM     42  C   UNL A   1      41.508  27.048  25.889  1.00  0.00     0.040 A 
ATOM     43  F   UNL A   1      42.006  28.994  27.107  1.00  0.00    -0.206 F 
ATOM     44  C   UNL A   1      40.907  25.792  25.803  1.00  0.00     0.006 A 
ENDBRANCH  23  37
BRANCH  24  45
ATOM     45  C   UNL A   1      39.317  32.677  36.400  1.00  0.00     0.057 A 
ATOM     46  C   UNL A   1      38.373  32.154  37.295  1.00  0.00     0.134 A 
ATOM     47  C   UNL A   1      39.894  33.909  36.732  1.00  0.00     0.134 A 
ATOM     48  F   UNL A   1      37.760  30.993  37.021  1.00  0.00    -0.206 F 
ATOM     49  C   UNL A   1      37.977  32.848  38.441  1.00  0.00     0.040 A 
ATOM     50  C   UNL A   1      39.523  34.606  37.889  1.00  0.00     0.040 A 
ATOM     51  F   UNL A   1      40.800  34.476  35.923  1.00  0.00    -0.206 F 
ATOM     52  C   UNL A   1      38.549  34.082  38.739  1.00  0.00     0.006 A 
ENDBRANCH  24  45
BRANCH  36  53
ATOM     53  C   UNL A   1      44.217  28.184  34.328  1.00  0.00     0.057 A 
ATOM     54  C   UNL A   1      44.225  26.971  35.025  1.00  0.00     0.134 A 
ATOM     55  C   UNL A   1      45.442  28.839  34.144  1.00  0.00     0.134 A 
ATOM     56  F   UNL A   1      43.082  26.304  35.245  1.00  0.00    -0.206 F 
ATOM     57  C   UNL A   1      45.412  26.424  35.514  1.00  0.00     0.040 A 
ATOM     58  C   UNL A   1      46.638  28.288  34.602  1.00  0.00     0.040 A 
ATOM     59  F   UNL A   1      45.500  30.001  33.476  1.00  0.00    -0.206 F 
ATOM     60  C   UNL A   1      46.624  27.076  35.288  1.00  0.00     0.006 A 
ENDBRANCH  36  53
ENDBRANCH  10  11
ENDBRANCH   3   5
ENDBRANCH   2   3
ENDBRANCH   1   2
BRANCH   1  61
ATOM     61  C   UNL A   1      31.022  31.733  26.464  1.00  0.00     0.274 C 
BRANCH  61  62
ATOM     62  O   UNL A   1      31.593  30.439  26.782  1.00  0.00    -0.462 OA
BRANCH  62  63
ATOM     63  C   UNL A   1      32.179  29.774  25.747  1.00  0.00     0.315 C 
ATOM     64  O   UNL A   1      33.329  29.993  25.376  1.00  0.00    -0.252 OA
BRANCH  63  65
ATOM     65  C   UNL A   1      31.248  28.884  24.932  1.00  0.00     0.163 C 
ATOM     66  C   UNL A   1      32.024  27.618  24.583  1.00  0.00     0.278 C 
ATOM     67  C   UNL A   1      30.624  29.282  23.609  1.00  0.00     0.067 C 
ATOM     68  N   UNL A   1      31.311  26.935  23.512  1.00  0.00    -0.331 N 
ATOM     69  C   UNL A   1      30.657  27.998  22.746  1.00  0.00     0.267 C 
ATOM     70  H   UNL A   1      32.022  26.396  23.016  1.00  0.00     0.348 HD
BRANCH  67  71
ATOM     71  C   UNL A   1      29.208  29.822  23.525  1.00  0.00    -0.001 C 
ATOM     72  C   UNL A   1      28.865  31.291  23.457  1.00  0.00     0.004 C 
ATOM     73  C   UNL A   1      28.530  30.387  22.308  1.00  0.00     0.004 C 
ENDBRANCH  67  71
BRANCH  68  74
ATOM     74  C   UNL A   1      30.374  25.838  23.807  1.00  0.00     0.187 C 
ATOM     75  C   UNL A   1      30.003  25.584  25.270  1.00  0.00     0.086 C 
ATOM     76  C   UNL A   1      30.727  24.501  23.151  1.00  0.00     0.086 C 
ATOM     77  C   UNL A   1      31.065  24.838  26.041  1.00  0.00     0.126 C 
ATOM     78  C   UNL A   1      31.728  23.655  23.923  1.00  0.00     0.126 C 
ATOM     79  N   UNL A   1      31.571  23.655  25.382  1.00  0.00    -0.338 N 
ATOM     80  C   UNL A   1      32.262  22.785  26.226  1.00  0.00     0.253 C 
ATOM     81  O   UNL A   1      32.362  22.931  27.446  1.00  0.00    -0.269 OA
BRANCH  80  82
ATOM     82  C   UNL A   1      32.855  21.584  25.642  1.00  0.00     0.040 A 
ATOM     83  C   UNL A   1      34.244  21.559  25.528  1.00  0.00     0.014 A 
ATOM     84  C   UNL A   1      32.063  20.513  25.225  1.00  0.00     0.014 A 
ATOM     85  C   UNL A   1      34.859  20.422  25.024  1.00  0.00     0.001 A 
ATOM     86  C   UNL A   1      32.688  19.373  24.728  1.00  0.00     0.001 A 
ATOM     87  C   UNL A   1      34.083  19.328  24.633  1.00  0.00     0.000 A 
ENDBRANCH  80  82
ENDBRANCH  68  74
ENDBRANCH  63  65
ENDBRANCH  62  63
ENDBRANCH  61  62
ENDBRANCH   1  61
TORSDOF 14
ENDMDL
MODEL 3
REMARK VINA RESULT:     -12.6      4.378      9.039
REMARK SMILES O=C(OCCOC(=O)[C@@H]1C[N@@H+](C2CCN(C(=O)c3ccccc3)CC2)C[C@H]1C1CC1)c1ccc(-c2c3nc(c(-c4c(F)cccc4F)c4ccc([nH]4)c(-c4c(F)cccc4F)c4nc(c(-c5c(F)cccc5F)c5ccc2[nH]5)C=C4)C=C3)cc1
REMARK SMILES IDX 4 1 3 2 2 3 1 4 31 5 32 6 84 7 33 8 83 9 34 10 35 11 36 12
REMARK SMILES IDX 77 13 37 14 82 15 76 16 78 17 38 18 81 19 75 20 74 21 39 23
REMARK SMILES IDX 65 24 48 25 64 26 49 27 52 28 63 29 79 30 50 31 51 32 62 34
REMARK SMILES IDX 80 35 53 36 40 37 41 38 46 39 42 40 43 41 45 42 47 43 44 44
REMARK SMILES IDX 66 45 67 46 72 47 68 48 69 49 71 50 73 51 70 52 54 53 55 54
REMARK SMILES IDX 60 55 56 56 57 57 59 58 61 59 58 60 5 61 6 62 7 63 8 64 9 65
REMARK SMILES IDX 10 66 27 67 11 68 26 69 28 71 29 72 30 73 12 74 13 75 25 76
REMARK SMILES IDX 14 77 24 78 15 79 16 80 17 81 18 82 19 83 23 84 20 85 22 86
REMARK SMILES IDX 21 87
REMARK H PARENT 78 22 52 33 11 70
REMARK Flexibility Score: inf
ROOT
ATOM      1  C   UNL A   1      38.892  19.077  25.754  1.00  0.00     0.275 C 
ENDROOT
BRANCH   1   2
ATOM      2  O   UNL A   1      40.280  18.984  25.425  1.00  0.00    -0.458 OA
BRANCH   2   3
ATOM      3  C   UNL A   1      41.339  19.406  26.144  1.00  0.00     0.338 C 
ATOM      4  O   UNL A   1      42.239  18.592  26.355  1.00  0.00    -0.246 OA
BRANCH   3   5
ATOM      5  C   UNL A   1      41.477  20.783  26.748  1.00  0.00     0.060 A 
ATOM      6  C   UNL A   1      41.878  21.130  28.046  1.00  0.00     0.016 A 
ATOM      7  C   UNL A   1      41.328  21.831  25.836  1.00  0.00     0.016 A 
ATOM      8  C   UNL A   1      42.284  22.441  28.375  1.00  0.00     0.010 A 
ATOM      9  C   UNL A   1      41.803  23.110  26.138  1.00  0.00     0.010 A 
ATOM     10  C   UNL A   1      42.321  23.439  27.405  1.00  0.00    -0.014 A 
BRANCH  10  11
ATOM     11  C   UNL A   1      42.862  24.819  27.648  1.00  0.00     0.031 A 
ATOM     12  C   UNL A   1      41.885  25.882  28.094  1.00  0.00     0.074 A 
ATOM     13  C   UNL A   1      44.125  25.195  27.323  1.00  0.00     0.049 A 
ATOM     14  N   UNL A   1      42.029  27.181  28.133  1.00  0.00    -0.248 NA
ATOM     15  C   UNL A   1      40.531  25.425  28.463  1.00  0.00     0.031 C 
ATOM     16  C   UNL A   1      45.182  24.337  26.776  1.00  0.00     0.029 A 
ATOM     17  N   UNL A   1      44.707  26.448  27.311  1.00  0.00    -0.354 N 
ATOM     18  C   UNL A   1      40.786  27.665  28.513  1.00  0.00     0.074 A 
ATOM     19  C   UNL A   1      39.859  26.562  28.459  1.00  0.00     0.031 C 
ATOM     20  C   UNL A   1      46.229  25.094  26.394  1.00  0.00     0.029 A 
ATOM     21  C   UNL A   1      45.952  26.489  26.712  1.00  0.00     0.049 A 
ATOM     22  H   UNL A   1      44.273  27.244  27.694  1.00  0.00     0.167 HD
ATOM     23  C   UNL A   1      40.462  28.871  29.027  1.00  0.00     0.037 A 
ATOM     24  C   UNL A   1      46.771  27.530  26.452  1.00  0.00     0.037 A 
ATOM     25  C   UNL A   1      41.406  29.926  29.218  1.00  0.00     0.049 A 
ATOM     26  C   UNL A   1      46.396  28.898  26.971  1.00  0.00     0.074 A 
ATOM     27  C   UNL A   1      41.250  31.111  29.909  1.00  0.00     0.029 A 
ATOM     28  N   UNL A   1      42.695  29.910  28.714  1.00  0.00    -0.354 N 
ATOM     29  N   UNL A   1      45.293  29.279  27.567  1.00  0.00    -0.248 NA
ATOM     30  C   UNL A   1      47.402  29.966  26.845  1.00  0.00     0.031 C 
ATOM     31  C   UNL A   1      42.438  31.836  29.788  1.00  0.00     0.029 A 
ATOM     32  C   UNL A   1      43.339  31.085  29.048  1.00  0.00     0.049 A 
ATOM     33  H   UNL A   1      43.092  29.173  28.196  1.00  0.00     0.167 HD
ATOM     34  C   UNL A   1      45.505  30.596  27.957  1.00  0.00     0.074 A 
ATOM     35  C   UNL A   1      46.831  30.959  27.513  1.00  0.00     0.031 C 
ATOM     36  C   UNL A   1      44.678  31.419  28.645  1.00  0.00     0.037 A 
BRANCH  23  37
ATOM     37  C   UNL A   1      39.062  29.033  29.537  1.00  0.00     0.057 A 
ATOM     38  C   UNL A   1      38.037  29.507  28.702  1.00  0.00     0.134 A 
ATOM     39  C   UNL A   1      38.737  28.750  30.865  1.00  0.00     0.134 A 
ATOM     40  F   UNL A   1      38.289  29.810  27.418  1.00  0.00    -0.206 F 
ATOM     41  C   UNL A   1      36.754  29.752  29.185  1.00  0.00     0.040 A 
ATOM     42  C   UNL A   1      37.445  28.955  31.351  1.00  0.00     0.040 A 
ATOM     43  F   UNL A   1      39.667  28.287  31.712  1.00  0.00    -0.206 F 
ATOM     44  C   UNL A   1      36.454  29.472  30.515  1.00  0.00     0.006 A 
ENDBRANCH  23  37
BRANCH  24  45
ATOM     45  C   UNL A   1      48.073  27.354  25.745  1.00  0.00     0.057 A 
ATOM     46  C   UNL A   1      48.157  27.463  24.350  1.00  0.00     0.134 A 
ATOM     47  C   UNL A   1      49.232  26.953  26.423  1.00  0.00     0.134 A 
ATOM     48  F   UNL A   1      47.075  27.812  23.639  1.00  0.00    -0.206 F 
ATOM     49  C   UNL A   1      49.321  27.135  23.651  1.00  0.00     0.040 A 
ATOM     50  C   UNL A   1      50.413  26.642  25.737  1.00  0.00     0.040 A 
ATOM     51  F   UNL A   1      49.228  26.820  27.757  1.00  0.00    -0.206 F 
ATOM     52  C   UNL A   1      50.454  26.718  24.345  1.00  0.00     0.006 A 
ENDBRANCH  24  45
BRANCH  36  53
ATOM     53  C   UNL A   1      45.186  32.774  29.030  1.00  0.00     0.057 A 
ATOM     54  C   UNL A   1      44.918  33.909  28.257  1.00  0.00     0.134 A 
ATOM     55  C   UNL A   1      45.850  32.957  30.250  1.00  0.00     0.134 A 
ATOM     56  F   UNL A   1      44.299  33.795  27.073  1.00  0.00    -0.206 F 
ATOM     57  C   UNL A   1      45.289  35.183  28.689  1.00  0.00     0.040 A 
ATOM     58  C   UNL A   1      46.199  34.227  30.705  1.00  0.00     0.040 A 
ATOM     59  F   UNL A   1      46.127  31.908  31.039  1.00  0.00    -0.206 F 
ATOM     60  C   UNL A   1      45.915  35.345  29.924  1.00  0.00     0.006 A 
ENDBRANCH  36  53
ENDBRANCH  10  11
ENDBRANCH   3   5
ENDBRANCH   2   3
ENDBRANCH   1   2
BRANCH   1  61
ATOM     61  C   UNL A   1      38.108  20.134  24.966  1.00  0.00     0.274 C 
BRANCH  61  62
ATOM     62  O   UNL A   1      36.672  19.939  24.935  1.00  0.00    -0.462 OA
BRANCH  62  63
ATOM     63  C   UNL A   1      35.916  21.023  25.270  1.00  0.00     0.315 C 
ATOM     64  O   UNL A   1      36.243  21.824  26.141  1.00  0.00    -0.252 OA
BRANCH  63  65
ATOM     65  C   UNL A   1      34.526  21.067  24.644  1.00  0.00     0.163 C 
ATOM     66  C   UNL A   1      33.944  22.447  24.936  1.00  0.00     0.278 C 
ATOM     67  C   UNL A   1      33.392  20.130  25.011  1.00  0.00     0.067 C 
ATOM     68  N   UNL A   1      32.510  22.391  24.689  1.00  0.00    -0.331 N 
ATOM     69  C   UNL A   1      32.121  21.012  24.996  1.00  0.00     0.267 C 
ATOM     70  H   UNL A   1      32.106  23.115  25.285  1.00  0.00     0.348 HD
BRANCH  67  71
ATOM     71  C   UNL A   1      33.074  18.901  24.181  1.00  0.00    -0.001 C 
ATOM     72  C   UNL A   1      34.021  17.740  23.988  1.00  0.00     0.004 C 
ATOM     73  C   UNL A   1      32.714  17.534  24.697  1.00  0.00     0.004 C 
ENDBRANCH  67  71
BRANCH  68  74
ATOM     74  C   UNL A   1      31.946  22.829  23.402  1.00  0.00     0.187 C 
ATOM     75  C   UNL A   1      32.910  23.353  22.336  1.00  0.00     0.086 C 
ATOM     76  C   UNL A   1      30.766  23.798  23.516  1.00  0.00     0.086 C 
ATOM     77  C   UNL A   1      33.365  24.773  22.580  1.00  0.00     0.126 C 
ATOM     78  C   UNL A   1      31.154  25.261  23.675  1.00  0.00     0.126 C 
ATOM     79  N   UNL A   1      32.302  25.706  22.874  1.00  0.00    -0.338 N 
ATOM     80  C   UNL A   1      32.666  27.046  22.739  1.00  0.00     0.253 C 
ATOM     81  O   UNL A   1      33.756  27.431  22.311  1.00  0.00    -0.269 OA
BRANCH  80  82
ATOM     82  C   UNL A   1      31.673  28.066  23.064  1.00  0.00     0.040 A 
ATOM     83  C   UNL A   1      30.598  28.199  22.187  1.00  0.00     0.014 A 
ATOM     84  C   UNL A   1      31.794  28.861  24.204  1.00  0.00     0.014 A 
ATOM     85  C   UNL A   1      29.601  29.121  22.476  1.00  0.00     0.001 A 
ATOM     86  C   UNL A   1      30.787  29.778  24.491  1.00  0.00     0.001 A 
ATOM     87  C   UNL A   1      29.692  29.902  23.631  1.00  0.00     0.000 A 
ENDBRANCH  80  82
ENDBRANCH  68  74
ENDBRANCH  63  65
ENDBRANCH  62  63
ENDBRANCH  61  62
ENDBRANCH   1  61
TORSDOF 14
ENDMDL
