MODEL 1
REMARK VINA RESULT:     -11.2      0.000      0.000
REMARK SMILES CCOC(=O)c1cccc(NC(=O)CCC(=O)OCCOC(=O)c2ccc(-c3c4nc(c(-c5c(F)cccc5F)c5ccc([nH]5)c(-c5c(F)cccc5F)c5nc(c(-c6c(F)cccc6F)c6ccc3[nH]6)C=C5)C=C4)cc2)c1
REMARK SMILES IDX 16 1 17 2 15 3 14 4 12 5 11 6 13 8 10 9 6 10 7 11 78 12 8 13
REMARK SMILES IDX 9 14 4 15 5 16 3 17 2 18 1 19 18 20 19 21 20 22 21 23 22 24
REMARK SMILES IDX 23 25 24 26 25 27 77 28 26 29 76 30 27 31 28 32 29 33 70 34
REMARK SMILES IDX 30 35 75 36 69 37 71 38 31 39 74 40 68 41 67 42 32 44 58 45
REMARK SMILES IDX 41 46 57 47 42 48 45 49 56 50 72 51 43 52 44 53 55 55 73 56
REMARK SMILES IDX 46 57 33 58 34 59 39 60 35 61 36 62 38 63 40 64 37 65 59 66
REMARK SMILES IDX 60 67 65 68 61 69 62 70 64 71 66 72 63 73 47 74 48 75 53 76
REMARK SMILES IDX 49 77 50 78 52 79 54 80 51 81
REMARK H PARENT 11 7 71 43 45 54
REMARK Flexibility Score: inf
ROOT
ATOM      1  C   UNL A   1      31.268  29.541  24.662  1.00  0.00     0.306 C 
ATOM      2  O   UNL A   1      30.547  28.926  23.888  1.00  0.00    -0.252 OA
ENDROOT
BRANCH   1   3
ATOM      3  C   UNL A   1      32.737  29.190  24.897  1.00  0.00     0.132 C 
BRANCH   3   4
ATOM      4  C   UNL A   1      33.121  27.885  25.620  1.00  0.00     0.112 C 
BRANCH   4   5
ATOM      5  C   UNL A   1      32.355  27.513  26.870  1.00  0.00     0.224 C 
ATOM      6  N   UNL A   1      31.485  26.460  26.919  1.00  0.00    -0.326 N 
ATOM      7  H   UNL A   1      30.874  26.459  27.690  1.00  0.00     0.169 HD
ATOM      8  O   UNL A   1      32.510  28.180  27.899  1.00  0.00    -0.275 OA
BRANCH   6   9
ATOM      9  C   UNL A   1      31.331  25.377  26.035  1.00  0.00     0.042 A 
ATOM     10  C   UNL A   1      32.842  22.925  24.814  1.00  0.00     0.062 A 
ATOM     11  C   UNL A   1      31.816  23.004  23.347  1.00  0.00     0.016 A 
ATOM     12  C   UNL A   1      32.586  24.087  26.164  1.00  0.00     0.041 A 
ATOM     13  C   UNL A   1      30.557  24.274  23.183  1.00  0.00     0.003 A 
ATOM     14  C   UNL A   1      30.285  25.429  24.554  1.00  0.00     0.026 A 
BRANCH  10  15
ATOM     15  C   UNL A   1      33.851  21.862  24.843  1.00  0.00     0.338 C 
ATOM     16  O   UNL A   1      34.868  21.915  24.177  1.00  0.00    -0.246 OA
BRANCH  15  17
ATOM     17  O   UNL A   1      33.380  20.823  25.564  1.00  0.00    -0.462 OA
BRANCH  17  18
ATOM     18  C   UNL A   1      33.601  19.536  24.959  1.00  0.00     0.230 C 
ATOM     19  C   UNL A   1      32.553  19.249  23.894  1.00  0.00     0.049 C 
ENDBRANCH  17  18
ENDBRANCH  15  17
ENDBRANCH  10  15
ENDBRANCH   6   9
ENDBRANCH   4   5
ENDBRANCH   3   4
ENDBRANCH   1   3
BRANCH   1  20
ATOM     20  O   UNL A   1      30.912  30.684  25.299  1.00  0.00    -0.462 OA
BRANCH  20  21
ATOM     21  C   UNL A   1      31.761  31.294  26.561  1.00  0.00     0.274 C 
BRANCH  21  22
ATOM     22  C   UNL A   1      32.204  33.405  26.959  1.00  0.00     0.275 C 
BRANCH  22  23
ATOM     23  O   UNL A   1      32.463  34.114  28.386  1.00  0.00    -0.458 OA
BRANCH  23  24
ATOM     24  C   UNL A   1      33.534  34.914  28.623  1.00  0.00     0.338 C 
ATOM     25  O   UNL A   1      33.541  36.115  28.822  1.00  0.00    -0.246 OA
BRANCH  24  26
ATOM     26  C   UNL A   1      34.625  33.994  29.021  1.00  0.00     0.060 A 
ATOM     27  C   UNL A   1      34.284  32.769  29.619  1.00  0.00     0.016 A 
ATOM     28  C   UNL A   1      35.954  34.282  28.711  1.00  0.00     0.016 A 
ATOM     29  C   UNL A   1      35.265  31.825  29.904  1.00  0.00     0.010 A 
ATOM     30  C   UNL A   1      36.944  33.356  29.041  1.00  0.00     0.010 A 
ATOM     31  C   UNL A   1      36.603  32.137  29.660  1.00  0.00    -0.014 A 
BRANCH  31  32
ATOM     32  C   UNL A   1      37.661  31.317  30.286  1.00  0.00     0.031 A 
ATOM     33  C   UNL A   1      37.935  31.553  31.744  1.00  0.00     0.074 A 
ATOM     34  C   UNL A   1      38.341  30.392  29.587  1.00  0.00     0.049 A 
ATOM     35  N   UNL A   1      38.901  31.098  32.495  1.00  0.00    -0.248 NA
ATOM     36  C   UNL A   1      36.991  32.440  32.449  1.00  0.00     0.031 C 
ATOM     37  C   UNL A   1      38.098  30.036  28.191  1.00  0.00     0.029 A 
ATOM     38  N   UNL A   1      39.396  29.599  29.960  1.00  0.00    -0.354 N 
ATOM     39  C   UNL A   1      38.701  31.670  33.746  1.00  0.00     0.074 A 
ATOM     40  C   UNL A   1      37.531  32.513  33.654  1.00  0.00     0.031 C 
ATOM     41  C   UNL A   1      39.003  29.116  27.812  1.00  0.00     0.029 A 
ATOM     42  C   UNL A   1      39.914  28.858  28.925  1.00  0.00     0.049 A 
ATOM     43  H   UNL A   1      39.747  29.563  30.879  1.00  0.00     0.167 HD
ATOM     44  C   UNL A   1      39.437  31.506  34.867  1.00  0.00     0.037 A 
ATOM     45  C   UNL A   1      41.026  28.098  28.882  1.00  0.00     0.037 A 
ATOM     46  C   UNL A   1      40.589  30.647  34.936  1.00  0.00     0.049 A 
ATOM     47  C   UNL A   1      41.865  27.977  30.129  1.00  0.00     0.074 A 
ATOM     48  C   UNL A   1      41.403  30.383  36.020  1.00  0.00     0.029 A 
ATOM     49  N   UNL A   1      41.088  29.918  33.866  1.00  0.00    -0.354 N 
ATOM     50  N   UNL A   1      41.675  28.519  31.310  1.00  0.00    -0.248 NA
ATOM     51  C   UNL A   1      43.072  27.145  30.041  1.00  0.00     0.031 C 
ATOM     52  C   UNL A   1      42.430  29.536  35.592  1.00  0.00     0.029 A 
ATOM     53  C   UNL A   1      42.218  29.223  34.258  1.00  0.00     0.049 A 
ATOM     54  H   UNL A   1      40.695  29.897  32.963  1.00  0.00     0.167 HD
ATOM     55  C   UNL A   1      42.721  28.074  32.109  1.00  0.00     0.074 A 
ATOM     56  C   UNL A   1      43.531  27.203  31.282  1.00  0.00     0.031 C 
ATOM     57  C   UNL A   1      42.994  28.358  33.407  1.00  0.00     0.037 A 
BRANCH  44  58
ATOM     58  C   UNL A   1      39.050  32.294  36.083  1.00  0.00     0.057 A 
ATOM     59  C   UNL A   1      38.195  31.782  37.067  1.00  0.00     0.134 A 
ATOM     60  C   UNL A   1      39.571  33.579  36.286  1.00  0.00     0.134 A 
ATOM     61  F   UNL A   1      37.642  30.569  36.925  1.00  0.00    -0.206 F 
ATOM     62  C   UNL A   1      37.864  32.524  38.204  1.00  0.00     0.040 A 
ATOM     63  C   UNL A   1      39.269  34.318  37.430  1.00  0.00     0.040 A 
ATOM     64  F   UNL A   1      40.391  34.132  35.380  1.00  0.00    -0.206 F 
ATOM     65  C   UNL A   1      38.410  33.793  38.392  1.00  0.00     0.006 A 
ENDBRANCH  44  58
BRANCH  45  66
ATOM     66  C   UNL A   1      41.439  27.438  27.614  1.00  0.00     0.057 A 
ATOM     67  C   UNL A   1      42.168  28.123  26.636  1.00  0.00     0.134 A 
ATOM     68  C   UNL A   1      41.088  26.110  27.337  1.00  0.00     0.134 A 
ATOM     69  F   UNL A   1      42.514  29.405  26.825  1.00  0.00    -0.206 F 
ATOM     70  C   UNL A   1      42.516  27.522  25.423  1.00  0.00     0.040 A 
ATOM     71  C   UNL A   1      41.455  25.486  26.143  1.00  0.00     0.040 A 
ATOM     72  F   UNL A   1      40.388  25.393  28.229  1.00  0.00    -0.206 F 
ATOM     73  C   UNL A   1      42.164  26.196  25.176  1.00  0.00     0.006 A 
ENDBRANCH  45  66
BRANCH  57  74
ATOM     74  C   UNL A   1      44.194  27.691  34.015  1.00  0.00     0.057 A 
ATOM     75  C   UNL A   1      45.443  28.320  34.067  1.00  0.00     0.134 A 
ATOM     76  C   UNL A   1      44.079  26.423  34.599  1.00  0.00     0.134 A 
ATOM     77  F   UNL A   1      45.619  29.531  33.517  1.00  0.00    -0.206 F 
ATOM     78  C   UNL A   1      46.545  27.698  34.655  1.00  0.00     0.040 A 
ATOM     79  C   UNL A   1      45.165  25.806  35.218  1.00  0.00     0.040 A 
ATOM     80  F   UNL A   1      42.905  25.773  34.596  1.00  0.00    -0.206 F 
ATOM     81  C   UNL A   1      46.405  26.441  35.240  1.00  0.00     0.006 A 
ENDBRANCH  57  74
ENDBRANCH  31  32
ENDBRANCH  24  26
ENDBRANCH  23  24
ENDBRANCH  22  23
ENDBRANCH  21  22
ENDBRANCH  20  21
ENDBRANCH   1  20
TORSDOF 17
ENDMDL
MODEL 2
REMARK VINA RESULT:     -11.2      1.632      6.626
REMARK SMILES CCOC(=O)c1cccc(NC(=O)CCC(=O)OCCOC(=O)c2ccc(-c3c4nc(c(-c5c(F)cccc5F)c5ccc([nH]5)c(-c5c(F)cccc5F)c5nc(c(-c6c(F)cccc6F)c6ccc3[nH]6)C=C5)C=C4)cc2)c1
REMARK SMILES IDX 16 1 17 2 15 3 14 4 12 5 11 6 13 8 10 9 6 10 7 11 78 12 8 13
REMARK SMILES IDX 9 14 4 15 5 16 3 17 2 18 1 19 18 20 19 21 20 22 21 23 22 24
REMARK SMILES IDX 23 25 24 26 25 27 77 28 26 29 76 30 27 31 28 32 29 33 70 34
REMARK SMILES IDX 30 35 75 36 69 37 71 38 31 39 74 40 68 41 67 42 32 44 58 45
REMARK SMILES IDX 41 46 57 47 42 48 45 49 56 50 72 51 43 52 44 53 55 55 73 56
REMARK SMILES IDX 46 57 33 58 34 59 39 60 35 61 36 62 38 63 40 64 37 65 59 66
REMARK SMILES IDX 60 67 65 68 61 69 62 70 64 71 66 72 63 73 47 74 48 75 53 76
REMARK SMILES IDX 49 77 50 78 52 79 54 80 51 81
REMARK H PARENT 11 7 71 43 45 54
REMARK Flexibility Score: inf
ROOT
ATOM      1  C   UNL A   1      33.828  29.250  26.507  1.00  0.00     0.306 C 
ATOM      2  O   UNL A   1      34.651  29.767  27.251  1.00  0.00    -0.252 OA
ENDROOT
BRANCH   1   3
ATOM      3  C   UNL A   1      33.640  27.738  26.386  1.00  0.00     0.132 C 
BRANCH   3   4
ATOM      4  C   UNL A   1      32.230  27.121  26.436  1.00  0.00     0.112 C 
BRANCH   4   5
ATOM      5  C   UNL A   1      31.509  26.886  25.128  1.00  0.00     0.224 C 
ATOM      6  N   UNL A   1      31.742  25.793  24.342  1.00  0.00    -0.326 N 
ATOM      7  H   UNL A   1      31.406  25.863  23.419  1.00  0.00     0.169 HD
ATOM      8  O   UNL A   1      30.671  27.707  24.740  1.00  0.00    -0.275 OA
BRANCH   6   9
ATOM      9  C   UNL A   1      32.389  24.583  24.649  1.00  0.00     0.042 A 
ATOM     10  C   UNL A   1      34.906  22.858  23.958  1.00  0.00     0.062 A 
ATOM     11  C   UNL A   1      34.018  21.362  24.389  1.00  0.00     0.016 A 
ATOM     12  C   UNL A   1      34.107  24.463  24.111  1.00  0.00     0.041 A 
ATOM     13  C   UNL A   1      32.307  21.441  24.929  1.00  0.00     0.003 A 
ATOM     14  C   UNL A   1      31.512  23.062  25.104  1.00  0.00     0.026 A 
BRANCH  10  15
ATOM     15  C   UNL A   1      36.291  22.684  23.514  1.00  0.00     0.338 C 
ATOM     16  O   UNL A   1      36.649  22.954  22.383  1.00  0.00    -0.246 OA
BRANCH  15  17
ATOM     17  O   UNL A   1      36.992  22.054  24.482  1.00  0.00    -0.462 OA
BRANCH  17  18
ATOM     18  C   UNL A   1      37.726  22.937  25.349  1.00  0.00     0.230 C 
ATOM     19  C   UNL A   1      38.790  22.176  26.126  1.00  0.00     0.049 C 
ENDBRANCH  17  18
ENDBRANCH  15  17
ENDBRANCH  10  15
ENDBRANCH   6   9
ENDBRANCH   4   5
ENDBRANCH   3   4
ENDBRANCH   1   3
BRANCH   1  20
ATOM     20  O   UNL A   1      32.889  29.935  25.807  1.00  0.00    -0.462 OA
BRANCH  20  21
ATOM     21  C   UNL A   1      31.856  30.992  26.514  1.00  0.00     0.274 C 
BRANCH  21  22
ATOM     22  C   UNL A   1      32.194  33.129  26.876  1.00  0.00     0.275 C 
BRANCH  22  23
ATOM     23  O   UNL A   1      32.073  33.931  28.272  1.00  0.00    -0.458 OA
BRANCH  23  24
ATOM     24  C   UNL A   1      32.902  34.955  28.603  1.00  0.00     0.338 C 
ATOM     25  O   UNL A   1      32.610  36.121  28.796  1.00  0.00    -0.246 OA
BRANCH  24  26
ATOM     26  C   UNL A   1      34.137  34.307  29.104  1.00  0.00     0.060 A 
ATOM     27  C   UNL A   1      34.028  33.369  30.144  1.00  0.00     0.016 A 
ATOM     28  C   UNL A   1      35.367  34.537  28.487  1.00  0.00     0.016 A 
ATOM     29  C   UNL A   1      35.141  32.652  30.569  1.00  0.00     0.010 A 
ATOM     30  C   UNL A   1      36.493  33.853  28.945  1.00  0.00     0.010 A 
ATOM     31  C   UNL A   1      36.386  32.929  30.002  1.00  0.00    -0.014 A 
BRANCH  31  32
ATOM     32  C   UNL A   1      37.609  32.455  30.683  1.00  0.00     0.031 A 
ATOM     33  C   UNL A   1      38.307  31.267  30.083  1.00  0.00     0.074 A 
ATOM     34  C   UNL A   1      38.085  33.063  31.783  1.00  0.00     0.049 A 
ATOM     35  N   UNL A   1      39.292  30.553  30.555  1.00  0.00    -0.248 NA
ATOM     36  C   UNL A   1      37.812  30.816  28.769  1.00  0.00     0.031 C 
ATOM     37  C   UNL A   1      37.524  34.266  32.396  1.00  0.00     0.029 A 
ATOM     38  N   UNL A   1      39.142  32.733  32.592  1.00  0.00    -0.354 N 
ATOM     39  C   UNL A   1      39.509  29.551  29.617  1.00  0.00     0.074 A 
ATOM     40  C   UNL A   1      38.550  29.739  28.554  1.00  0.00     0.031 C 
ATOM     41  C   UNL A   1      38.224  34.554  33.508  1.00  0.00     0.029 A 
ATOM     42  C   UNL A   1      39.247  33.530  33.706  1.00  0.00     0.049 A 
ATOM     43  H   UNL A   1      39.765  31.997  32.393  1.00  0.00     0.167 HD
ATOM     44  C   UNL A   1      40.427  28.559  29.650  1.00  0.00     0.037 A 
ATOM     45  C   UNL A   1      40.051  33.407  34.780  1.00  0.00     0.037 A 
ATOM     46  C   UNL A   1      41.382  28.404  30.714  1.00  0.00     0.049 A 
ATOM     47  C   UNL A   1      41.027  32.259  34.822  1.00  0.00     0.074 A 
ATOM     48  C   UNL A   1      42.374  27.452  30.849  1.00  0.00     0.029 A 
ATOM     49  N   UNL A   1      41.454  29.227  31.829  1.00  0.00    -0.354 N 
ATOM     50  N   UNL A   1      41.230  31.312  33.934  1.00  0.00    -0.248 NA
ATOM     51  C   UNL A   1      41.883  32.157  36.011  1.00  0.00     0.031 C 
ATOM     52  C   UNL A   1      43.012  27.664  32.075  1.00  0.00     0.029 A 
ATOM     53  C   UNL A   1      42.458  28.786  32.673  1.00  0.00     0.049 A 
ATOM     54  H   UNL A   1      40.877  30.006  31.995  1.00  0.00     0.167 HD
ATOM     55  C   UNL A   1      42.250  30.520  34.445  1.00  0.00     0.074 A 
ATOM     56  C   UNL A   1      42.637  31.109  35.712  1.00  0.00     0.031 C 
ATOM     57  C   UNL A   1      42.819  29.405  33.923  1.00  0.00     0.037 A 
BRANCH  44  58
ATOM     58  C   UNL A   1      40.413  27.553  28.538  1.00  0.00     0.057 A 
ATOM     59  C   UNL A   1      41.159  27.723  27.364  1.00  0.00     0.134 A 
ATOM     60  C   UNL A   1      39.664  26.375  28.661  1.00  0.00     0.134 A 
ATOM     61  F   UNL A   1      41.879  28.837  27.171  1.00  0.00    -0.206 F 
ATOM     62  C   UNL A   1      41.150  26.763  26.349  1.00  0.00     0.040 A 
ATOM     63  C   UNL A   1      39.669  25.397  27.666  1.00  0.00     0.040 A 
ATOM     64  F   UNL A   1      38.922  26.151  29.756  1.00  0.00    -0.206 F 
ATOM     65  C   UNL A   1      40.411  25.592  26.504  1.00  0.00     0.006 A 
ENDBRANCH  44  58
BRANCH  45  66
ATOM     66  C   UNL A   1      39.938  34.358  35.918  1.00  0.00     0.057 A 
ATOM     67  C   UNL A   1      40.663  35.555  35.947  1.00  0.00     0.134 A 
ATOM     68  C   UNL A   1      39.122  34.080  37.023  1.00  0.00     0.134 A 
ATOM     69  F   UNL A   1      41.484  35.872  34.934  1.00  0.00    -0.206 F 
ATOM     70  C   UNL A   1      40.597  36.429  37.036  1.00  0.00     0.040 A 
ATOM     71  C   UNL A   1      39.022  34.957  38.105  1.00  0.00     0.040 A 
ATOM     72  F   UNL A   1      38.399  32.950  37.064  1.00  0.00    -0.206 F 
ATOM     73  C   UNL A   1      39.769  36.132  38.117  1.00  0.00     0.006 A 
ENDBRANCH  45  66
BRANCH  57  74
ATOM     74  C   UNL A   1      43.938  28.778  34.702  1.00  0.00     0.057 A 
ATOM     75  C   UNL A   1      43.713  27.751  35.626  1.00  0.00     0.134 A 
ATOM     76  C   UNL A   1      45.263  29.177  34.485  1.00  0.00     0.134 A 
ATOM     77  F   UNL A   1      42.465  27.331  35.885  1.00  0.00    -0.206 F 
ATOM     78  C   UNL A   1      44.764  27.161  36.328  1.00  0.00     0.040 A 
ATOM     79  C   UNL A   1      46.325  28.573  35.156  1.00  0.00     0.040 A 
ATOM     80  F   UNL A   1      45.548  30.146  33.601  1.00  0.00    -0.206 F 
ATOM     81  C   UNL A   1      46.076  27.567  36.087  1.00  0.00     0.006 A 
ENDBRANCH  57  74
ENDBRANCH  31  32
ENDBRANCH  24  26
ENDBRANCH  23  24
ENDBRANCH  22  23
ENDBRANCH  21  22
ENDBRANCH  20  21
ENDBRANCH   1  20
TORSDOF 17
ENDMDL
MODEL 3
REMARK VINA RESULT:     -11.1      1.138      2.333
REMARK SMILES CCOC(=O)c1cccc(NC(=O)CCC(=O)OCCOC(=O)c2ccc(-c3c4nc(c(-c5c(F)cccc5F)c5ccc([nH]5)c(-c5c(F)cccc5F)c5nc(c(-c6c(F)cccc6F)c6ccc3[nH]6)C=C5)C=C4)cc2)c1
REMARK SMILES IDX 16 1 17 2 15 3 14 4 12 5 11 6 13 8 10 9 6 10 7 11 78 12 8 13
REMARK SMILES IDX 9 14 4 15 5 16 3 17 2 18 1 19 18 20 19 21 20 22 21 23 22 24
REMARK SMILES IDX 23 25 24 26 25 27 77 28 26 29 76 30 27 31 28 32 29 33 70 34
REMARK SMILES IDX 30 35 75 36 69 37 71 38 31 39 74 40 68 41 67 42 32 44 58 45
REMARK SMILES IDX 41 46 57 47 42 48 45 49 56 50 72 51 43 52 44 53 55 55 73 56
REMARK SMILES IDX 46 57 33 58 34 59 39 60 35 61 36 62 38 63 40 64 37 65 59 66
REMARK SMILES IDX 60 67 65 68 61 69 62 70 64 71 66 72 63 73 47 74 48 75 53 76
REMARK SMILES IDX 49 77 50 78 52 79 54 80 51 81
REMARK H PARENT 11 7 71 43 45 54
REMARK Flexibility Score: inf
ROOT
ATOM      1  C   UNL A   1      33.161  29.602  26.899  1.00  0.00     0.306 C 
ATOM      2  O   UNL A   1      34.174  30.207  27.224  1.00  0.00    -0.252 OA
ENDROOT
BRANCH   1   3
ATOM      3  C   UNL A   1      33.179  28.189  26.317  1.00  0.00     0.132 C 
BRANCH   3   4
ATOM      4  C   UNL A   1      33.316  27.973  24.798  1.00  0.00     0.112 C 
BRANCH   4   5
ATOM      5  C   UNL A   1      32.113  28.259  23.928  1.00  0.00     0.224 C 
ATOM      6  N   UNL A   1      31.521  27.306  23.148  1.00  0.00    -0.326 N 
ATOM      7  H   UNL A   1      30.914  27.653  22.455  1.00  0.00     0.169 HD
ATOM      8  O   UNL A   1      31.633  29.398  23.911  1.00  0.00    -0.275 OA
BRANCH   6   9
ATOM      9  C   UNL A   1      31.646  25.907  23.184  1.00  0.00     0.042 A 
ATOM     10  C   UNL A   1      31.536  23.446  25.112  1.00  0.00     0.062 A 
ATOM     11  C   UNL A   1      32.656  22.541  24.046  1.00  0.00     0.016 A 
ATOM     12  C   UNL A   1      31.011  25.110  24.673  1.00  0.00     0.041 A 
ATOM     13  C   UNL A   1      33.308  23.300  22.555  1.00  0.00     0.003 A 
ATOM     14  C   UNL A   1      32.760  24.969  22.103  1.00  0.00     0.026 A 
BRANCH  10  15
ATOM     15  C   UNL A   1      31.073  22.743  26.312  1.00  0.00     0.338 C 
ATOM     16  O   UNL A   1      30.092  22.022  26.305  1.00  0.00    -0.246 OA
BRANCH  15  17
ATOM     17  O   UNL A   1      31.794  23.158  27.376  1.00  0.00    -0.462 OA
BRANCH  17  18
ATOM     18  C   UNL A   1      32.870  22.275  27.741  1.00  0.00     0.230 C 
ATOM     19  C   UNL A   1      34.218  22.885  27.386  1.00  0.00     0.049 C 
ENDBRANCH  17  18
ENDBRANCH  15  17
ENDBRANCH  10  15
ENDBRANCH   6   9
ENDBRANCH   4   5
ENDBRANCH   3   4
ENDBRANCH   1   3
BRANCH   1  20
ATOM     20  O   UNL A   1      31.898  30.035  27.139  1.00  0.00    -0.462 OA
BRANCH  20  21
ATOM     21  C   UNL A   1      31.396  31.547  26.759  1.00  0.00     0.274 C 
BRANCH  21  22
ATOM     22  C   UNL A   1      32.481  33.424  27.095  1.00  0.00     0.275 C 
BRANCH  22  23
ATOM     23  O   UNL A   1      32.460  34.361  28.409  1.00  0.00    -0.458 OA
BRANCH  23  24
ATOM     24  C   UNL A   1      33.516  35.132  28.776  1.00  0.00     0.338 C 
ATOM     25  O   UNL A   1      33.511  36.311  29.082  1.00  0.00    -0.246 OA
BRANCH  24  26
ATOM     26  C   UNL A   1      34.583  34.174  29.151  1.00  0.00     0.060 A 
ATOM     27  C   UNL A   1      34.227  33.023  29.872  1.00  0.00     0.016 A 
ATOM     28  C   UNL A   1      35.892  34.351  28.705  1.00  0.00     0.016 A 
ATOM     29  C   UNL A   1      35.172  32.040  30.147  1.00  0.00     0.010 A 
ATOM     30  C   UNL A   1      36.852  33.388  29.021  1.00  0.00     0.010 A 
ATOM     31  C   UNL A   1      36.498  32.245  29.763  1.00  0.00    -0.014 A 
BRANCH  31  32
ATOM     32  C   UNL A   1      37.558  31.405  30.359  1.00  0.00     0.031 A 
ATOM     33  C   UNL A   1      37.869  31.626  31.812  1.00  0.00     0.074 A 
ATOM     34  C   UNL A   1      38.211  30.478  29.638  1.00  0.00     0.049 A 
ATOM     35  N   UNL A   1      38.844  31.152  32.538  1.00  0.00    -0.248 NA
ATOM     36  C   UNL A   1      36.952  32.519  32.545  1.00  0.00     0.031 C 
ATOM     37  C   UNL A   1      37.932  30.136  28.245  1.00  0.00     0.029 A 
ATOM     38  N   UNL A   1      39.263  29.667  29.980  1.00  0.00    -0.354 N 
ATOM     39  C   UNL A   1      38.680  31.717  33.797  1.00  0.00     0.074 A 
ATOM     40  C   UNL A   1      37.520  32.575  33.738  1.00  0.00     0.031 C 
ATOM     41  C   UNL A   1      38.816  29.207  27.839  1.00  0.00     0.029 A 
ATOM     42  C   UNL A   1      39.748  28.929  28.929  1.00  0.00     0.049 A 
ATOM     43  H   UNL A   1      39.634  29.620  30.891  1.00  0.00     0.167 HD
ATOM     44  C   UNL A   1      39.439  31.534  34.900  1.00  0.00     0.037 A 
ATOM     45  C   UNL A   1      40.849  28.155  28.855  1.00  0.00     0.037 A 
ATOM     46  C   UNL A   1      40.580  30.660  34.937  1.00  0.00     0.049 A 
ATOM     47  C   UNL A   1      41.714  28.012  30.082  1.00  0.00     0.074 A 
ATOM     48  C   UNL A   1      41.415  30.377  36.000  1.00  0.00     0.029 A 
ATOM     49  N   UNL A   1      41.045  29.933  33.850  1.00  0.00    -0.354 N 
ATOM     50  N   UNL A   1      41.557  28.547  31.271  1.00  0.00    -0.248 NA
ATOM     51  C   UNL A   1      42.907  27.165  29.960  1.00  0.00     0.031 C 
ATOM     52  C   UNL A   1      42.421  29.520  35.543  1.00  0.00     0.029 A 
ATOM     53  C   UNL A   1      42.175  29.220  34.211  1.00  0.00     0.049 A 
ATOM     54  H   UNL A   1      40.633  29.925  32.957  1.00  0.00     0.167 HD
ATOM     55  C   UNL A   1      42.614  28.082  32.043  1.00  0.00     0.074 A 
ATOM     56  C   UNL A   1      43.395  27.207  31.191  1.00  0.00     0.031 C 
ATOM     57  C   UNL A   1      42.920  28.352  33.336  1.00  0.00     0.037 A 
BRANCH  44  58
ATOM     58  C   UNL A   1      39.089  32.318  36.131  1.00  0.00     0.057 A 
ATOM     59  C   UNL A   1      39.615  33.591  36.384  1.00  0.00     0.134 A 
ATOM     60  C   UNL A   1      38.181  31.799  37.063  1.00  0.00     0.134 A 
ATOM     61  F   UNL A   1      40.507  34.138  35.545  1.00  0.00    -0.206 F 
ATOM     62  C   UNL A   1      39.258  34.314  37.525  1.00  0.00     0.040 A 
ATOM     63  C   UNL A   1      37.796  32.522  38.192  1.00  0.00     0.040 A 
ATOM     64  F   UNL A   1      37.644  30.582  36.886  1.00  0.00    -0.206 F 
ATOM     65  C   UNL A   1      38.339  33.783  38.427  1.00  0.00     0.006 A 
ENDBRANCH  44  58
BRANCH  45  66
ATOM     66  C   UNL A   1      41.224  27.499  27.573  1.00  0.00     0.057 A 
ATOM     67  C   UNL A   1      40.848  26.182  27.287  1.00  0.00     0.134 A 
ATOM     68  C   UNL A   1      41.996  28.166  26.612  1.00  0.00     0.134 A 
ATOM     69  F   UNL A   1      40.131  25.477  28.175  1.00  0.00    -0.206 F 
ATOM     70  C   UNL A   1      41.240  25.546  26.106  1.00  0.00     0.040 A 
ATOM     71  C   UNL A   1      42.369  27.555  25.413  1.00  0.00     0.040 A 
ATOM     72  F   UNL A   1      42.394  29.431  26.821  1.00  0.00    -0.206 F 
ATOM     73  C   UNL A   1      41.998  26.236  25.161  1.00  0.00     0.006 A 
ENDBRANCH  45  66
BRANCH  57  74
ATOM     74  C   UNL A   1      44.124  27.665  33.912  1.00  0.00     0.057 A 
ATOM     75  C   UNL A   1      44.046  26.391  34.487  1.00  0.00     0.134 A 
ATOM     76  C   UNL A   1      45.386  28.270  33.843  1.00  0.00     0.134 A 
ATOM     77  F   UNL A   1      42.864  25.763  34.591  1.00  0.00    -0.206 F 
ATOM     78  C   UNL A   1      45.176  25.753  34.999  1.00  0.00     0.040 A 
ATOM     79  C   UNL A   1      46.528  27.629  34.322  1.00  0.00     0.040 A 
ATOM     80  F   UNL A   1      45.531  29.484  33.291  1.00  0.00    -0.206 F 
ATOM     81  C   UNL A   1      46.423  26.370  34.909  1.00  0.00     0.006 A 
ENDBRANCH  57  74
ENDBRANCH  31  32
ENDBRANCH  24  26
ENDBRANCH  23  24
ENDBRANCH  22  23
ENDBRANCH  21  22
ENDBRANCH  20  21
ENDBRANCH   1  20
TORSDOF 17
ENDMDL
