MODEL 1
REMARK VINA RESULT:     -11.9      0.000      0.000
REMARK SMILES Cc1cc(Nc2ccc(C(=O)OCCOC(=O)c3ccc(-c4c5nc(c(-c6c(F)cccc6F)c6ccc([nH]6)c(-c6c(F)cccc6F)c6nc(c(-c7c(F)cccc7F)c7ccc4[nH]7)C=C6)C=C5)cc3)cc2)nc(C(C)C)n1
REMARK SMILES IDX 13 1 12 2 10 3 11 4 9 5 6 6 7 7 73 8 8 9 72 10 5 11 4 13
REMARK SMILES IDX 1 14 2 15 3 16 79 17 75 18 74 19 76 20 77 21 78 22 14 23
REMARK SMILES IDX 15 24 16 25 17 26 18 27 19 28 71 29 20 30 70 31 21 32 22 33
REMARK SMILES IDX 23 34 64 35 24 36 69 37 63 38 65 39 25 40 68 41 62 42 61 43
REMARK SMILES IDX 26 45 52 46 35 47 51 48 36 49 39 50 50 51 66 52 37 53 38 54
REMARK SMILES IDX 49 56 67 57 40 58 27 59 28 60 33 61 29 62 30 63 32 64 34 65
REMARK SMILES IDX 31 66 53 67 54 68 59 69 55 70 56 71 58 72 60 73 57 74 41 75
REMARK SMILES IDX 42 76 47 77 43 78 44 79 46 80 48 81 45 82
REMARK H PARENT 5 12 65 44 39 55
REMARK Flexibility Score: inf
ROOT
ATOM      1  C   UNL A   1      41.655  20.271  26.483  1.00  0.00     0.275 C 
ENDROOT
BRANCH   1   2
ATOM      2  O   UNL A   1      40.372  20.923  26.574  1.00  0.00    -0.458 OA
BRANCH   2   3
ATOM      3  C   UNL A   1      39.390  20.389  25.809  1.00  0.00     0.338 C 
ATOM      4  O   UNL A   1      39.342  19.246  25.379  1.00  0.00    -0.246 OA
BRANCH   3   5
ATOM      5  C   UNL A   1      38.292  21.361  25.609  1.00  0.00     0.060 A 
ATOM      6  C   UNL A   1      36.253  23.191  24.991  1.00  0.00     0.040 A 
ATOM      7  C   UNL A   1      36.141  21.857  24.597  1.00  0.00     0.027 A 
ATOM      8  C   UNL A   1      37.385  23.593  25.716  1.00  0.00     0.027 A 
ATOM      9  C   UNL A   1      37.169  20.960  24.875  1.00  0.00     0.018 A 
ATOM     10  C   UNL A   1      38.392  22.681  26.049  1.00  0.00     0.018 A 
BRANCH   6  11
ATOM     11  N   UNL A   1      35.343  24.133  24.468  1.00  0.00    -0.340 N 
ATOM     12  H   UNL A   1      35.517  24.504  23.574  1.00  0.00     0.168 HD
BRANCH  11  13
ATOM     13  C   UNL A   1      34.196  24.568  25.166  1.00  0.00     0.134 A 
ATOM     14  C   UNL A   1      31.124  23.183  26.799  1.00  0.00     0.067 C 
ATOM     15  C   UNL A   1      32.170  24.117  26.271  1.00  0.00     0.043 A 
ATOM     16  C   UNL A   1      33.290  23.634  25.623  1.00  0.00     0.070 A 
ATOM     17  N   UNL A   1      31.969  25.433  26.487  1.00  0.00    -0.238 NA
ATOM     18  C   UNL A   1      32.912  26.273  26.028  1.00  0.00     0.133 A 
ATOM     19  N   UNL A   1      34.018  25.881  25.383  1.00  0.00    -0.216 NA
BRANCH  18  20
ATOM     20  C   UNL A   1      32.765  27.756  26.272  1.00  0.00     0.051 C 
ATOM     21  C   UNL A   1      31.885  28.041  27.486  1.00  0.00     0.016 C 
ATOM     22  C   UNL A   1      34.137  28.414  26.406  1.00  0.00     0.016 C 
ENDBRANCH  18  20
ENDBRANCH  11  13
ENDBRANCH   6  11
ENDBRANCH   3   5
ENDBRANCH   2   3
ENDBRANCH   1   2
BRANCH   1  23
ATOM     23  C   UNL A   1      42.699  21.192  25.851  1.00  0.00     0.275 C 
BRANCH  23  24
ATOM     24  O   UNL A   1      42.081  22.400  25.372  1.00  0.00    -0.458 OA
BRANCH  24  25
ATOM     25  C   UNL A   1      42.900  23.471  25.262  1.00  0.00     0.338 C 
ATOM     26  O   UNL A   1      43.868  23.602  24.532  1.00  0.00    -0.246 OA
BRANCH  25  27
ATOM     27  C   UNL A   1      42.447  24.532  26.172  1.00  0.00     0.060 A 
ATOM     28  C   UNL A   1      43.010  25.799  26.067  1.00  0.00     0.016 A 
ATOM     29  C   UNL A   1      41.573  24.237  27.214  1.00  0.00     0.016 A 
ATOM     30  C   UNL A   1      42.793  26.750  27.059  1.00  0.00     0.010 A 
ATOM     31  C   UNL A   1      41.262  25.233  28.146  1.00  0.00     0.010 A 
ATOM     32  C   UNL A   1      41.895  26.490  28.100  1.00  0.00    -0.014 A 
BRANCH  32  33
ATOM     33  C   UNL A   1      41.615  27.513  29.146  1.00  0.00     0.031 A 
ATOM     34  C   UNL A   1      42.409  27.520  30.424  1.00  0.00     0.074 A 
ATOM     35  C   UNL A   1      40.626  28.413  28.977  1.00  0.00     0.049 A 
ATOM     36  N   UNL A   1      42.157  28.127  31.555  1.00  0.00    -0.248 NA
ATOM     37  C   UNL A   1      43.641  26.717  30.434  1.00  0.00     0.031 C 
ATOM     38  C   UNL A   1      39.804  28.559  27.774  1.00  0.00     0.029 A 
ATOM     39  N   UNL A   1      40.130  29.366  29.834  1.00  0.00    -0.354 N 
ATOM     40  C   UNL A   1      43.155  27.723  32.433  1.00  0.00     0.074 A 
ATOM     41  C   UNL A   1      44.022  26.826  31.699  1.00  0.00     0.031 C 
ATOM     42  C   UNL A   1      38.915  29.543  27.964  1.00  0.00     0.029 A 
ATOM     43  C   UNL A   1      39.038  30.032  29.332  1.00  0.00     0.049 A 
ATOM     44  H   UNL A   1      40.519  29.554  30.718  1.00  0.00     0.167 HD
ATOM     45  C   UNL A   1      43.323  28.063  33.733  1.00  0.00     0.037 A 
ATOM     46  C   UNL A   1      38.182  30.888  29.921  1.00  0.00     0.037 A 
ATOM     47  C   UNL A   1      42.487  29.000  34.438  1.00  0.00     0.049 A 
ATOM     48  C   UNL A   1      38.371  31.240  31.365  1.00  0.00     0.074 A 
ATOM     49  C   UNL A   1      42.593  29.439  35.747  1.00  0.00     0.029 A 
ATOM     50  N   UNL A   1      41.394  29.653  33.886  1.00  0.00    -0.354 N 
ATOM     51  N   UNL A   1      39.284  30.814  32.203  1.00  0.00    -0.248 NA
ATOM     52  C   UNL A   1      37.401  32.174  31.952  1.00  0.00     0.031 C 
ATOM     53  C   UNL A   1      41.543  30.330  35.996  1.00  0.00     0.029 A 
ATOM     54  C   UNL A   1      40.809  30.479  34.831  1.00  0.00     0.049 A 
ATOM     55  H   UNL A   1      41.081  29.545  32.959  1.00  0.00     0.167 HD
ATOM     56  C   UNL A   1      39.008  31.433  33.414  1.00  0.00     0.074 A 
ATOM     57  C   UNL A   1      37.848  32.276  33.198  1.00  0.00     0.031 C 
ATOM     58  C   UNL A   1      39.656  31.312  34.598  1.00  0.00     0.037 A 
BRANCH  45  59
ATOM     59  C   UNL A   1      44.424  27.377  34.489  1.00  0.00     0.057 A 
ATOM     60  C   UNL A   1      44.249  26.134  35.110  1.00  0.00     0.134 A 
ATOM     61  C   UNL A   1      45.688  27.974  34.589  1.00  0.00     0.134 A 
ATOM     62  F   UNL A   1      43.061  25.513  35.066  1.00  0.00    -0.206 F 
ATOM     63  C   UNL A   1      45.280  25.526  35.831  1.00  0.00     0.040 A 
ATOM     64  C   UNL A   1      46.735  27.365  35.283  1.00  0.00     0.040 A 
ATOM     65  F   UNL A   1      45.927  29.162  34.012  1.00  0.00    -0.206 F 
ATOM     66  C   UNL A   1      46.528  26.141  35.915  1.00  0.00     0.006 A 
ENDBRANCH  45  59
BRANCH  46  67
ATOM     67  C   UNL A   1      37.035  31.415  29.140  1.00  0.00     0.057 A 
ATOM     68  C   UNL A   1      35.882  30.651  28.939  1.00  0.00     0.134 A 
ATOM     69  C   UNL A   1      37.044  32.720  28.629  1.00  0.00     0.134 A 
ATOM     70  F   UNL A   1      35.823  29.389  29.388  1.00  0.00    -0.206 F 
ATOM     71  C   UNL A   1      34.775  31.166  28.263  1.00  0.00     0.040 A 
ATOM     72  C   UNL A   1      35.935  33.257  27.975  1.00  0.00     0.040 A 
ATOM     73  F   UNL A   1      38.119  33.505  28.796  1.00  0.00    -0.206 F 
ATOM     74  C   UNL A   1      34.796  32.477  27.790  1.00  0.00     0.006 A 
ENDBRANCH  46  67
BRANCH  58  75
ATOM     75  C   UNL A   1      39.142  32.132  35.743  1.00  0.00     0.057 A 
ATOM     76  C   UNL A   1      38.265  31.600  36.696  1.00  0.00     0.134 A 
ATOM     77  C   UNL A   1      39.562  33.457  35.913  1.00  0.00     0.134 A 
ATOM     78  F   UNL A   1      37.816  30.342  36.579  1.00  0.00    -0.206 F 
ATOM     79  C   UNL A   1      37.813  32.364  37.773  1.00  0.00     0.040 A 
ATOM     80  C   UNL A   1      39.134  34.223  36.996  1.00  0.00     0.040 A 
ATOM     81  F   UNL A   1      40.406  34.022  35.035  1.00  0.00    -0.206 F 
ATOM     82  C   UNL A   1      38.254  33.677  37.929  1.00  0.00     0.006 A 
ENDBRANCH  58  75
ENDBRANCH  32  33
ENDBRANCH  25  27
ENDBRANCH  24  25
ENDBRANCH  23  24
ENDBRANCH   1  23
TORSDOF 14
ENDMDL
MODEL 2
REMARK VINA RESULT:     -11.6      4.866     10.497
REMARK SMILES Cc1cc(Nc2ccc(C(=O)OCCOC(=O)c3ccc(-c4c5nc(c(-c6c(F)cccc6F)c6ccc([nH]6)c(-c6c(F)cccc6F)c6nc(c(-c7c(F)cccc7F)c7ccc4[nH]7)C=C6)C=C5)cc3)cc2)nc(C(C)C)n1
REMARK SMILES IDX 13 1 12 2 10 3 11 4 9 5 6 6 7 7 73 8 8 9 72 10 5 11 4 13
REMARK SMILES IDX 1 14 2 15 3 16 79 17 75 18 74 19 76 20 77 21 78 22 14 23
REMARK SMILES IDX 15 24 16 25 17 26 18 27 19 28 71 29 20 30 70 31 21 32 22 33
REMARK SMILES IDX 23 34 64 35 24 36 69 37 63 38 65 39 25 40 68 41 62 42 61 43
REMARK SMILES IDX 26 45 52 46 35 47 51 48 36 49 39 50 50 51 66 52 37 53 38 54
REMARK SMILES IDX 49 56 67 57 40 58 27 59 28 60 33 61 29 62 30 63 32 64 34 65
REMARK SMILES IDX 31 66 53 67 54 68 59 69 55 70 56 71 58 72 60 73 57 74 41 75
REMARK SMILES IDX 42 76 47 77 43 78 44 79 46 80 48 81 45 82
REMARK H PARENT 5 12 65 44 39 55
REMARK Flexibility Score: inf
ROOT
ATOM      1  C   UNL A   1      32.801  36.784  30.235  1.00  0.00     0.275 C 
ENDROOT
BRANCH   1   2
ATOM      2  O   UNL A   1      33.682  36.512  31.343  1.00  0.00    -0.458 OA
BRANCH   2   3
ATOM      3  C   UNL A   1      33.258  35.557  32.206  1.00  0.00     0.338 C 
ATOM      4  O   UNL A   1      32.099  35.294  32.489  1.00  0.00    -0.246 OA
BRANCH   3   5
ATOM      5  C   UNL A   1      34.402  34.776  32.729  1.00  0.00     0.060 A 
ATOM      6  C   UNL A   1      36.459  33.293  33.937  1.00  0.00     0.040 A 
ATOM      7  C   UNL A   1      35.192  32.732  33.775  1.00  0.00     0.027 A 
ATOM      8  C   UNL A   1      36.690  34.596  33.469  1.00  0.00     0.027 A 
ATOM      9  C   UNL A   1      34.165  33.481  33.206  1.00  0.00     0.018 A 
ATOM     10  C   UNL A   1      35.677  35.330  32.843  1.00  0.00     0.018 A 
BRANCH   6  11
ATOM     11  N   UNL A   1      37.398  32.629  34.752  1.00  0.00    -0.340 N 
ATOM     12  H   UNL A   1      37.552  32.970  35.662  1.00  0.00     0.168 HD
BRANCH  11  13
ATOM     13  C   UNL A   1      38.126  31.497  34.326  1.00  0.00     0.134 A 
ATOM     14  C   UNL A   1      37.833  28.611  31.959  1.00  0.00     0.067 C 
ATOM     15  C   UNL A   1      38.331  29.566  33.001  1.00  0.00     0.043 A 
ATOM     16  C   UNL A   1      37.590  30.676  33.356  1.00  0.00     0.070 A 
ATOM     17  N   UNL A   1      39.538  29.297  33.539  1.00  0.00    -0.238 NA
ATOM     18  C   UNL A   1      39.994  30.160  34.462  1.00  0.00     0.133 A 
ATOM     19  N   UNL A   1      39.331  31.251  34.865  1.00  0.00    -0.216 NA
BRANCH  18  20
ATOM     20  C   UNL A   1      41.356  29.935  35.077  1.00  0.00     0.051 C 
ATOM     21  C   UNL A   1      41.656  30.960  36.168  1.00  0.00     0.016 C 
ATOM     22  C   UNL A   1      41.476  28.506  35.601  1.00  0.00     0.016 C 
ENDBRANCH  18  20
ENDBRANCH  11  13
ENDBRANCH   6  11
ENDBRANCH   3   5
ENDBRANCH   2   3
ENDBRANCH   1   2
BRANCH   1  23
ATOM     23  C   UNL A   1      33.154  35.921  29.024  1.00  0.00     0.275 C 
BRANCH  23  24
ATOM     24  O   UNL A   1      32.575  34.611  29.152  1.00  0.00    -0.458 OA
BRANCH  24  25
ATOM     25  C   UNL A   1      33.127  33.649  28.377  1.00  0.00     0.338 C 
ATOM     26  O   UNL A   1      32.633  33.088  27.414  1.00  0.00    -0.246 OA
BRANCH  25  27
ATOM     27  C   UNL A   1      34.486  33.355  28.852  1.00  0.00     0.060 A 
ATOM     28  C   UNL A   1      35.571  33.916  28.189  1.00  0.00     0.016 A 
ATOM     29  C   UNL A   1      34.689  32.416  29.859  1.00  0.00     0.016 A 
ATOM     30  C   UNL A   1      36.863  33.469  28.449  1.00  0.00     0.010 A 
ATOM     31  C   UNL A   1      35.997  32.054  30.202  1.00  0.00     0.010 A 
ATOM     32  C   UNL A   1      37.097  32.550  29.477  1.00  0.00    -0.014 A 
BRANCH  32  33
ATOM     33  C   UNL A   1      38.479  32.093  29.800  1.00  0.00     0.031 A 
ATOM     34  C   UNL A   1      38.977  30.775  29.275  1.00  0.00     0.074 A 
ATOM     35  C   UNL A   1      39.277  32.835  30.593  1.00  0.00     0.049 A 
ATOM     36  N   UNL A   1      40.016  30.072  29.648  1.00  0.00    -0.248 NA
ATOM     37  C   UNL A   1      38.186  30.155  28.201  1.00  0.00     0.031 C 
ATOM     38  C   UNL A   1      38.950  34.154  31.136  1.00  0.00     0.029 A 
ATOM     39  N   UNL A   1      40.527  32.570  31.098  1.00  0.00    -0.354 N 
ATOM     40  C   UNL A   1      39.963  28.896  28.909  1.00  0.00     0.074 A 
ATOM     41  C   UNL A   1      38.795  28.986  28.059  1.00  0.00     0.031 C 
ATOM     42  C   UNL A   1      39.970  34.586  31.890  1.00  0.00     0.029 A 
ATOM     43  C   UNL A   1      40.980  33.537  31.962  1.00  0.00     0.049 A 
ATOM     44  H   UNL A   1      41.047  31.768  30.864  1.00  0.00     0.167 HD
ATOM     45  C   UNL A   1      40.807  27.837  28.947  1.00  0.00     0.037 A 
ATOM     46  C   UNL A   1      42.049  33.557  32.779  1.00  0.00     0.037 A 
ATOM     47  C   UNL A   1      41.998  27.782  29.756  1.00  0.00     0.049 A 
ATOM     48  C   UNL A   1      42.964  32.370  32.823  1.00  0.00     0.074 A 
ATOM     49  C   UNL A   1      42.938  26.770  29.840  1.00  0.00     0.029 A 
ATOM     50  N   UNL A   1      42.417  28.789  30.612  1.00  0.00    -0.354 N 
ATOM     51  N   UNL A   1      42.879  31.242  32.162  1.00  0.00    -0.248 NA
ATOM     52  C   UNL A   1      44.109  32.450  33.739  1.00  0.00     0.031 C 
ATOM     53  C   UNL A   1      43.908  27.150  30.775  1.00  0.00     0.029 A 
ATOM     54  C   UNL A   1      43.594  28.417  31.240  1.00  0.00     0.049 A 
ATOM     55  H   UNL A   1      41.948  29.643  30.753  1.00  0.00     0.167 HD
ATOM     56  C   UNL A   1      43.963  30.479  32.572  1.00  0.00     0.074 A 
ATOM     57  C   UNL A   1      44.699  31.280  33.531  1.00  0.00     0.031 C 
ATOM     58  C   UNL A   1      44.314  29.227  32.191  1.00  0.00     0.037 A 
BRANCH  45  59
ATOM     59  C   UNL A   1      40.442  26.634  28.127  1.00  0.00     0.057 A 
ATOM     60  C   UNL A   1      39.498  25.692  28.552  1.00  0.00     0.134 A 
ATOM     61  C   UNL A   1      41.047  26.422  26.880  1.00  0.00     0.134 A 
ATOM     62  F   UNL A   1      38.891  25.827  29.741  1.00  0.00    -0.206 F 
ATOM     63  C   UNL A   1      39.193  24.565  27.784  1.00  0.00     0.040 A 
ATOM     64  C   UNL A   1      40.732  25.314  26.091  1.00  0.00     0.040 A 
ATOM     65  F   UNL A   1      41.956  27.289  26.408  1.00  0.00    -0.206 F 
ATOM     66  C   UNL A   1      39.809  24.377  26.547  1.00  0.00     0.006 A 
ENDBRANCH  45  59
BRANCH  46  67
ATOM     67  C   UNL A   1      42.263  34.731  33.663  1.00  0.00     0.057 A 
ATOM     68  C   UNL A   1      43.099  35.783  33.281  1.00  0.00     0.134 A 
ATOM     69  C   UNL A   1      41.586  34.852  34.884  1.00  0.00     0.134 A 
ATOM     70  F   UNL A   1      43.788  35.715  32.133  1.00  0.00    -0.206 F 
ATOM     71  C   UNL A   1      43.251  36.919  34.078  1.00  0.00     0.040 A 
ATOM     72  C   UNL A   1      41.708  35.992  35.678  1.00  0.00     0.040 A 
ATOM     73  F   UNL A   1      40.764  33.877  35.302  1.00  0.00    -0.206 F 
ATOM     74  C   UNL A   1      42.544  37.030  35.274  1.00  0.00     0.006 A 
ENDBRANCH  46  67
BRANCH  58  75
ATOM     75  C   UNL A   1      45.565  28.658  32.788  1.00  0.00     0.057 A 
ATOM     76  C   UNL A   1      45.540  27.882  33.953  1.00  0.00     0.134 A 
ATOM     77  C   UNL A   1      46.805  28.859  32.168  1.00  0.00     0.134 A 
ATOM     78  F   UNL A   1      44.385  27.667  34.602  1.00  0.00    -0.206 F 
ATOM     79  C   UNL A   1      46.707  27.335  34.488  1.00  0.00     0.040 A 
ATOM     80  C   UNL A   1      47.974  28.300  32.681  1.00  0.00     0.040 A 
ATOM     81  F   UNL A   1      46.895  29.590  31.046  1.00  0.00    -0.206 F 
ATOM     82  C   UNL A   1      47.928  27.537  33.847  1.00  0.00     0.006 A 
ENDBRANCH  58  75
ENDBRANCH  32  33
ENDBRANCH  25  27
ENDBRANCH  24  25
ENDBRANCH  23  24
ENDBRANCH   1  23
TORSDOF 14
ENDMDL
MODEL 3
REMARK VINA RESULT:     -11.5      5.068      9.866
REMARK SMILES Cc1cc(Nc2ccc(C(=O)OCCOC(=O)c3ccc(-c4c5nc(c(-c6c(F)cccc6F)c6ccc([nH]6)c(-c6c(F)cccc6F)c6nc(c(-c7c(F)cccc7F)c7ccc4[nH]7)C=C6)C=C5)cc3)cc2)nc(C(C)C)n1
REMARK SMILES IDX 13 1 12 2 10 3 11 4 9 5 6 6 7 7 73 8 8 9 72 10 5 11 4 13
REMARK SMILES IDX 1 14 2 15 3 16 79 17 75 18 74 19 76 20 77 21 78 22 14 23
REMARK SMILES IDX 15 24 16 25 17 26 18 27 19 28 71 29 20 30 70 31 21 32 22 33
REMARK SMILES IDX 23 34 64 35 24 36 69 37 63 38 65 39 25 40 68 41 62 42 61 43
REMARK SMILES IDX 26 45 52 46 35 47 51 48 36 49 39 50 50 51 66 52 37 53 38 54
REMARK SMILES IDX 49 56 67 57 40 58 27 59 28 60 33 61 29 62 30 63 32 64 34 65
REMARK SMILES IDX 31 66 53 67 54 68 59 69 55 70 56 71 58 72 60 73 57 74 41 75
REMARK SMILES IDX 42 76 47 77 43 78 44 79 46 80 48 81 45 82
REMARK H PARENT 5 12 65 44 39 55
REMARK Flexibility Score: inf
ROOT
ATOM      1  C   UNL A   1      33.938  33.935  28.577  1.00  0.00     0.275 C 
ENDROOT
BRANCH   1   2
ATOM      2  O   UNL A   1      33.990  32.656  27.912  1.00  0.00    -0.458 OA
BRANCH   2   3
ATOM      3  C   UNL A   1      32.823  32.231  27.372  1.00  0.00     0.338 C 
ATOM      4  O   UNL A   1      31.823  32.905  27.176  1.00  0.00    -0.246 OA
BRANCH   3   5
ATOM      5  C   UNL A   1      32.924  30.816  26.948  1.00  0.00     0.060 A 
ATOM      6  C   UNL A   1      32.972  28.076  26.332  1.00  0.00     0.040 A 
ATOM      7  C   UNL A   1      31.786  28.801  26.212  1.00  0.00     0.027 A 
ATOM      8  C   UNL A   1      34.138  28.743  26.742  1.00  0.00     0.027 A 
ATOM      9  C   UNL A   1      31.758  30.151  26.551  1.00  0.00     0.018 A 
ATOM     10  C   UNL A   1      34.126  30.112  27.026  1.00  0.00     0.018 A 
BRANCH   6  11
ATOM     11  N   UNL A   1      32.921  26.670  26.251  1.00  0.00    -0.340 N 
ATOM     12  H   UNL A   1      32.539  26.171  27.008  1.00  0.00     0.168 HD
BRANCH  11  13
ATOM     13  C   UNL A   1      33.391  25.943  25.136  1.00  0.00     0.134 A 
ATOM     14  C   UNL A   1      32.976  25.792  21.418  1.00  0.00     0.067 C 
ATOM     15  C   UNL A   1      33.409  25.512  22.824  1.00  0.00     0.043 A 
ATOM     16  C   UNL A   1      32.941  26.276  23.875  1.00  0.00     0.070 A 
ATOM     17  N   UNL A   1      34.290  24.505  22.996  1.00  0.00    -0.238 NA
ATOM     18  C   UNL A   1      34.693  24.262  24.255  1.00  0.00     0.133 A 
ATOM     19  N   UNL A   1      34.277  24.952  25.324  1.00  0.00    -0.216 NA
BRANCH  18  20
ATOM     20  C   UNL A   1      35.707  23.172  24.510  1.00  0.00     0.051 C 
ATOM     21  C   UNL A   1      36.645  22.987  23.319  1.00  0.00     0.016 C 
ATOM     22  C   UNL A   1      36.482  23.453  25.795  1.00  0.00     0.016 C 
ENDBRANCH  18  20
ENDBRANCH  11  13
ENDBRANCH   6  11
ENDBRANCH   3   5
ENDBRANCH   2   3
ENDBRANCH   1   2
BRANCH   1  23
ATOM     23  C   UNL A   1      34.095  33.778  30.089  1.00  0.00     0.275 C 
BRANCH  23  24
ATOM     24  O   UNL A   1      34.386  32.410  30.427  1.00  0.00    -0.458 OA
BRANCH  24  25
ATOM     25  C   UNL A   1      35.240  32.233  31.461  1.00  0.00     0.338 C 
ATOM     26  O   UNL A   1      35.096  32.583  32.619  1.00  0.00    -0.246 OA
BRANCH  25  27
ATOM     27  C   UNL A   1      36.430  31.507  30.996  1.00  0.00     0.060 A 
ATOM     28  C   UNL A   1      37.252  30.887  31.931  1.00  0.00     0.016 A 
ATOM     29  C   UNL A   1      36.806  31.559  29.657  1.00  0.00     0.016 A 
ATOM     30  C   UNL A   1      38.505  30.410  31.559  1.00  0.00     0.010 A 
ATOM     31  C   UNL A   1      38.014  30.973  29.264  1.00  0.00     0.010 A 
ATOM     32  C   UNL A   1      38.894  30.422  30.216  1.00  0.00    -0.014 A 
BRANCH  32  33
ATOM     33  C   UNL A   1      40.213  29.874  29.792  1.00  0.00     0.031 A 
ATOM     34  C   UNL A   1      41.409  30.782  29.695  1.00  0.00     0.074 A 
ATOM     35  C   UNL A   1      40.339  28.575  29.456  1.00  0.00     0.049 A 
ATOM     36  N   UNL A   1      42.557  30.582  29.100  1.00  0.00    -0.248 NA
ATOM     37  C   UNL A   1      41.286  32.099  30.337  1.00  0.00     0.031 C 
ATOM     38  C   UNL A   1      39.283  27.566  29.546  1.00  0.00     0.029 A 
ATOM     39  N   UNL A   1      41.414  27.884  28.949  1.00  0.00    -0.354 N 
ATOM     40  C   UNL A   1      43.263  31.771  29.230  1.00  0.00     0.074 A 
ATOM     41  C   UNL A   1      42.418  32.684  29.971  1.00  0.00     0.031 C 
ATOM     42  C   UNL A   1      39.759  26.389  29.118  1.00  0.00     0.029 A 
ATOM     43  C   UNL A   1      41.121  26.580  28.634  1.00  0.00     0.049 A 
ATOM     44  H   UNL A   1      42.304  28.285  28.825  1.00  0.00     0.167 HD
ATOM     45  C   UNL A   1      44.499  32.074  28.764  1.00  0.00     0.037 A 
ATOM     46  C   UNL A   1      41.835  25.654  27.967  1.00  0.00     0.037 A 
ATOM     47  C   UNL A   1      45.354  31.141  28.077  1.00  0.00     0.049 A 
ATOM     48  C   UNL A   1      43.193  26.010  27.442  1.00  0.00     0.074 A 
ATOM     49  C   UNL A   1      46.637  31.337  27.596  1.00  0.00     0.029 A 
ATOM     50  N   UNL A   1      45.015  29.828  27.785  1.00  0.00    -0.354 N 
ATOM     51  N   UNL A   1      43.833  27.151  27.523  1.00  0.00    -0.248 NA
ATOM     52  C   UNL A   1      43.920  24.959  26.718  1.00  0.00     0.031 C 
ATOM     53  C   UNL A   1      47.060  30.154  26.980  1.00  0.00     0.029 A 
ATOM     54  C   UNL A   1      46.058  29.207  27.117  1.00  0.00     0.049 A 
ATOM     55  H   UNL A   1      44.160  29.400  28.018  1.00  0.00     0.167 HD
ATOM     56  C   UNL A   1      45.041  26.956  26.870  1.00  0.00     0.074 A 
ATOM     57  C   UNL A   1      45.051  25.581  26.409  1.00  0.00     0.031 C 
ATOM     58  C   UNL A   1      46.050  27.837  26.667  1.00  0.00     0.037 A 
BRANCH  45  59
ATOM     59  C   UNL A   1      44.976  33.486  28.939  1.00  0.00     0.057 A 
ATOM     60  C   UNL A   1      44.683  34.499  28.017  1.00  0.00     0.134 A 
ATOM     61  C   UNL A   1      45.739  33.838  30.062  1.00  0.00     0.134 A 
ATOM     62  F   UNL A   1      43.969  34.228  26.915  1.00  0.00    -0.206 F 
ATOM     63  C   UNL A   1      45.160  35.802  28.187  1.00  0.00     0.040 A 
ATOM     64  C   UNL A   1      46.199  35.142  30.257  1.00  0.00     0.040 A 
ATOM     65  F   UNL A   1      46.051  32.919  30.988  1.00  0.00    -0.206 F 
ATOM     66  C   UNL A   1      45.917  36.125  29.312  1.00  0.00     0.006 A 
ENDBRANCH  45  59
BRANCH  46  67
ATOM     67  C   UNL A   1      41.233  24.320  27.714  1.00  0.00     0.057 A 
ATOM     68  C   UNL A   1      40.287  24.133  26.703  1.00  0.00     0.134 A 
ATOM     69  C   UNL A   1      41.638  23.193  28.440  1.00  0.00     0.134 A 
ATOM     70  F   UNL A   1      39.847  25.178  25.988  1.00  0.00    -0.206 F 
ATOM     71  C   UNL A   1      39.768  22.869  26.417  1.00  0.00     0.040 A 
ATOM     72  C   UNL A   1      41.147  21.920  28.148  1.00  0.00     0.040 A 
ATOM     73  F   UNL A   1      42.548  23.309  29.419  1.00  0.00    -0.206 F 
ATOM     74  C   UNL A   1      40.208  21.757  27.133  1.00  0.00     0.006 A 
ENDBRANCH  46  67
BRANCH  58  75
ATOM     75  C   UNL A   1      47.261  27.333  25.941  1.00  0.00     0.057 A 
ATOM     76  C   UNL A   1      48.318  26.709  26.615  1.00  0.00     0.134 A 
ATOM     77  C   UNL A   1      47.350  27.441  24.547  1.00  0.00     0.134 A 
ATOM     78  F   UNL A   1      48.297  26.590  27.950  1.00  0.00    -0.206 F 
ATOM     79  C   UNL A   1      49.429  26.219  25.927  1.00  0.00     0.040 A 
ATOM     80  C   UNL A   1      48.446  26.936  23.848  1.00  0.00     0.040 A 
ATOM     81  F   UNL A   1      46.368  28.025  23.845  1.00  0.00    -0.206 F 
ATOM     82  C   UNL A   1      49.492  26.326  24.538  1.00  0.00     0.006 A 
ENDBRANCH  58  75
ENDBRANCH  32  33
ENDBRANCH  25  27
ENDBRANCH  24  25
ENDBRANCH  23  24
ENDBRANCH   1  23
TORSDOF 14
ENDMDL
