MODEL 1
REMARK VINA RESULT:     -10.3      0.000      0.000
REMARK SMILES CC[C@@H]([NH3+])C(=O)N1CC[C@H](C(=O)OCCOC(=O)c2ccc(-c3c4nc(c(-c5c(F)cccc5F)c5ccc([nH]5)c(-c5c(F)cccc5F)c5nc(c(-c6c(F)cccc6F)c6ccc3[nH]6)C=C5)C=C4)cc2)[C@@H]1C
REMARK SMILES IDX 14 1 13 2 11 3 12 4 10 5 7 6 8 7 73 8 9 9 74 10 5 11 6 12
REMARK SMILES IDX 3 13 2 14 1 15 4 16 15 20 16 21 17 22 18 23 19 24 20 25
REMARK SMILES IDX 72 26 21 27 71 28 22 29 23 30 24 31 65 32 25 33 70 34 64 35
REMARK SMILES IDX 66 36 26 37 69 38 63 39 62 40 27 42 53 43 36 44 52 45 37 46
REMARK SMILES IDX 40 47 51 48 67 49 38 50 39 51 50 53 68 54 41 55 28 56 29 57
REMARK SMILES IDX 34 58 30 59 31 60 33 61 35 62 32 63 54 64 55 65 60 66 56 67
REMARK SMILES IDX 57 68 59 69 61 70 58 71 42 72 43 73 48 74 44 75 45 76 47 77
REMARK SMILES IDX 49 78 46 79
REMARK H PARENT 4 17 4 18 4 19 66 41 40 52
REMARK Flexibility Score: inf
ROOT
ATOM      1  C   UNL A   1      34.385  20.874  25.434  1.00  0.00     0.274 C 
ENDROOT
BRANCH   1   2
ATOM      2  O   UNL A   1      34.308  21.431  26.769  1.00  0.00    -0.462 OA
BRANCH   2   3
ATOM      3  C   UNL A   1      33.192  22.170  27.028  1.00  0.00     0.311 C 
ATOM      4  O   UNL A   1      32.768  22.400  28.154  1.00  0.00    -0.252 OA
BRANCH   3   5
ATOM      5  C   UNL A   1      32.508  22.635  25.739  1.00  0.00     0.123 C 
ATOM      6  N   UNL A   1      31.424  24.753  26.047  1.00  0.00    -0.334 N 
ATOM      7  C   UNL A   1      30.585  23.720  26.640  1.00  0.00     0.121 C 
ATOM      8  C   UNL A   1      32.602  24.147  25.395  1.00  0.00     0.096 C 
ATOM      9  C   UNL A   1      30.998  22.445  25.914  1.00  0.00     0.039 C 
ATOM     10  C   UNL A   1      33.952  24.760  25.754  1.00  0.00     0.032 C 
BRANCH   6  11
ATOM     11  C   UNL A   1      30.859  26.011  25.944  1.00  0.00     0.280 C 
ATOM     12  O   UNL A   1      30.703  26.690  26.970  1.00  0.00    -0.268 OA
BRANCH  11  13
ATOM     13  C   UNL A   1      30.246  26.548  24.624  1.00  0.00     0.270 C 
BRANCH  13  14
ATOM     14  C   UNL A   1      31.197  27.189  23.621  1.00  0.00     0.072 C 
ATOM     15  C   UNL A   1      30.482  27.817  22.431  1.00  0.00     0.011 C 
ENDBRANCH  13  14
BRANCH  13  16
ATOM     16  N   UNL A   1      29.412  25.491  24.009  1.00  0.00    -0.347 N 
ATOM     17  H   UNL A   1      29.086  24.850  24.734  1.00  0.00     0.345 HD
ATOM     18  H   UNL A   1      29.964  24.977  23.323  1.00  0.00     0.345 HD
ATOM     19  H   UNL A   1      28.608  25.918  23.548  1.00  0.00     0.345 HD
ENDBRANCH  13  16
ENDBRANCH  11  13
ENDBRANCH   6  11
ENDBRANCH   3   5
ENDBRANCH   2   3
ENDBRANCH   1   2
BRANCH   1  20
ATOM     20  C   UNL A   1      35.837  20.701  24.987  1.00  0.00     0.275 C 
BRANCH  20  21
ATOM     21  O   UNL A   1      36.691  21.438  25.874  1.00  0.00    -0.458 OA
BRANCH  21  22
ATOM     22  C   UNL A   1      38.022  21.238  25.718  1.00  0.00     0.338 C 
ATOM     23  O   UNL A   1      38.545  20.299  25.145  1.00  0.00    -0.246 OA
BRANCH  22  24
ATOM     24  C   UNL A   1      38.772  22.398  26.279  1.00  0.00     0.060 A 
ATOM     25  C   UNL A   1      38.301  23.703  26.131  1.00  0.00     0.016 A 
ATOM     26  C   UNL A   1      40.013  22.191  26.889  1.00  0.00     0.016 A 
ATOM     27  C   UNL A   1      39.094  24.787  26.499  1.00  0.00     0.010 A 
ATOM     28  C   UNL A   1      40.765  23.284  27.348  1.00  0.00     0.010 A 
ATOM     29  C   UNL A   1      40.326  24.603  27.137  1.00  0.00    -0.014 A 
BRANCH  29  30
ATOM     30  C   UNL A   1      41.135  25.781  27.572  1.00  0.00     0.031 A 
ATOM     31  C   UNL A   1      40.562  26.809  28.515  1.00  0.00     0.074 A 
ATOM     32  C   UNL A   1      42.405  25.934  27.144  1.00  0.00     0.049 A 
ATOM     33  N   UNL A   1      41.033  27.986  28.842  1.00  0.00    -0.248 NA
ATOM     34  C   UNL A   1      39.284  26.477  29.164  1.00  0.00     0.031 C 
ATOM     35  C   UNL A   1      43.128  25.006  26.273  1.00  0.00     0.029 A 
ATOM     36  N   UNL A   1      43.325  26.923  27.401  1.00  0.00    -0.354 N 
ATOM     37  C   UNL A   1      40.081  28.564  29.671  1.00  0.00     0.074 A 
ATOM     38  C   UNL A   1      39.009  27.601  29.813  1.00  0.00     0.031 C 
ATOM     39  C   UNL A   1      44.392  25.428  26.126  1.00  0.00     0.029 A 
ATOM     40  C   UNL A   1      44.543  26.712  26.800  1.00  0.00     0.049 A 
ATOM     41  H   UNL A   1      43.129  27.708  27.961  1.00  0.00     0.167 HD
ATOM     42  C   UNL A   1      40.095  29.789  30.250  1.00  0.00     0.037 A 
ATOM     43  C   UNL A   1      45.649  27.477  26.751  1.00  0.00     0.037 A 
ATOM     44  C   UNL A   1      41.191  30.721  30.173  1.00  0.00     0.049 A 
ATOM     45  C   UNL A   1      45.640  28.829  27.398  1.00  0.00     0.074 A 
ATOM     46  C   UNL A   1      41.295  31.982  30.737  1.00  0.00     0.029 A 
ATOM     47  N   UNL A   1      42.387  30.483  29.512  1.00  0.00    -0.354 N 
ATOM     48  N   UNL A   1      44.690  29.407  28.090  1.00  0.00    -0.248 NA
ATOM     49  C   UNL A   1      46.847  29.651  27.226  1.00  0.00     0.031 C 
ATOM     50  C   UNL A   1      42.544  32.516  30.399  1.00  0.00     0.029 A 
ATOM     51  C   UNL A   1      43.230  31.574  29.651  1.00  0.00     0.049 A 
ATOM     52  H   UNL A   1      42.604  29.661  29.016  1.00  0.00     0.167 HD
ATOM     53  C   UNL A   1      45.177  30.662  28.425  1.00  0.00     0.074 A 
ATOM     54  C   UNL A   1      46.520  30.750  27.891  1.00  0.00     0.031 C 
ATOM     55  C   UNL A   1      44.557  31.658  29.102  1.00  0.00     0.037 A 
BRANCH  42  56
ATOM     56  C   UNL A   1      38.865  30.220  30.994  1.00  0.00     0.057 A 
ATOM     57  C   UNL A   1      38.671  29.928  32.348  1.00  0.00     0.134 A 
ATOM     58  C   UNL A   1      37.886  30.989  30.350  1.00  0.00     0.134 A 
ATOM     59  F   UNL A   1      39.563  29.185  33.019  1.00  0.00    -0.206 F 
ATOM     60  C   UNL A   1      37.538  30.375  33.034  1.00  0.00     0.040 A 
ATOM     61  C   UNL A   1      36.761  31.458  31.028  1.00  0.00     0.040 A 
ATOM     62  F   UNL A   1      38.016  31.308  29.053  1.00  0.00    -0.206 F 
ATOM     63  C   UNL A   1      36.583  31.149  32.374  1.00  0.00     0.006 A 
ENDBRANCH  42  56
BRANCH  43  64
ATOM     64  C   UNL A   1      46.842  27.000  26.009  1.00  0.00     0.057 A 
ATOM     65  C   UNL A   1      47.032  27.330  24.662  1.00  0.00     0.134 A 
ATOM     66  C   UNL A   1      47.824  26.218  26.630  1.00  0.00     0.134 A 
ATOM     67  F   UNL A   1      46.111  28.049  24.006  1.00  0.00    -0.206 F 
ATOM     68  C   UNL A   1      48.159  26.899  23.960  1.00  0.00     0.040 A 
ATOM     69  C   UNL A   1      48.967  25.804  25.946  1.00  0.00     0.040 A 
ATOM     70  F   UNL A   1      47.696  25.867  27.918  1.00  0.00    -0.206 F 
ATOM     71  C   UNL A   1      49.136  26.142  24.606  1.00  0.00     0.006 A 
ENDBRANCH  43  64
BRANCH  55  72
ATOM     72  C   UNL A   1      45.334  32.924  29.299  1.00  0.00     0.057 A 
ATOM     73  C   UNL A   1      46.179  33.099  30.403  1.00  0.00     0.134 A 
ATOM     74  C   UNL A   1      45.239  33.975  28.380  1.00  0.00     0.134 A 
ATOM     75  F   UNL A   1      46.299  32.133  31.326  1.00  0.00    -0.206 F 
ATOM     76  C   UNL A   1      46.886  34.286  30.597  1.00  0.00     0.040 A 
ATOM     77  C   UNL A   1      45.956  35.159  28.553  1.00  0.00     0.040 A 
ATOM     78  F   UNL A   1      44.449  33.868  27.301  1.00  0.00    -0.206 F 
ATOM     79  C   UNL A   1      46.777  35.320  29.667  1.00  0.00     0.006 A 
ENDBRANCH  55  72
ENDBRANCH  29  30
ENDBRANCH  22  24
ENDBRANCH  21  22
ENDBRANCH  20  21
ENDBRANCH   1  20
TORSDOF 15
ENDMDL
MODEL 2
REMARK VINA RESULT:     -10.3      4.039      8.894
REMARK SMILES CC[C@@H]([NH3+])C(=O)N1CC[C@H](C(=O)OCCOC(=O)c2ccc(-c3c4nc(c(-c5c(F)cccc5F)c5ccc([nH]5)c(-c5c(F)cccc5F)c5nc(c(-c6c(F)cccc6F)c6ccc3[nH]6)C=C5)C=C4)cc2)[C@@H]1C
REMARK SMILES IDX 14 1 13 2 11 3 12 4 10 5 7 6 8 7 73 8 9 9 74 10 5 11 6 12
REMARK SMILES IDX 3 13 2 14 1 15 4 16 15 20 16 21 17 22 18 23 19 24 20 25
REMARK SMILES IDX 72 26 21 27 71 28 22 29 23 30 24 31 65 32 25 33 70 34 64 35
REMARK SMILES IDX 66 36 26 37 69 38 63 39 62 40 27 42 53 43 36 44 52 45 37 46
REMARK SMILES IDX 40 47 51 48 67 49 38 50 39 51 50 53 68 54 41 55 28 56 29 57
REMARK SMILES IDX 34 58 30 59 31 60 33 61 35 62 32 63 54 64 55 65 60 66 56 67
REMARK SMILES IDX 57 68 59 69 61 70 58 71 42 72 43 73 48 74 44 75 45 76 47 77
REMARK SMILES IDX 49 78 46 79
REMARK H PARENT 4 17 4 18 4 19 66 41 40 52
REMARK Flexibility Score: inf
ROOT
ATOM      1  C   UNL A   1      32.072  28.943  25.017  1.00  0.00     0.274 C 
ENDROOT
BRANCH   1   2
ATOM      2  O   UNL A   1      31.024  27.943  25.031  1.00  0.00    -0.462 OA
BRANCH   2   3
ATOM      3  C   UNL A   1      31.091  27.043  26.054  1.00  0.00     0.311 C 
ATOM      4  O   UNL A   1      31.171  27.354  27.236  1.00  0.00    -0.252 OA
BRANCH   3   5
ATOM      5  C   UNL A   1      31.104  25.601  25.540  1.00  0.00     0.123 C 
ATOM      6  N   UNL A   1      32.467  25.392  23.576  1.00  0.00    -0.334 N 
ATOM      7  C   UNL A   1      31.193  25.984  23.188  1.00  0.00     0.121 C 
ATOM      8  C   UNL A   1      32.457  25.050  25.013  1.00  0.00     0.096 C 
ATOM      9  C   UNL A   1      30.230  25.543  24.283  1.00  0.00     0.039 C 
ATOM     10  C   UNL A   1      33.657  25.536  25.822  1.00  0.00     0.032 C 
BRANCH   6  11
ATOM     11  C   UNL A   1      33.298  25.002  22.542  1.00  0.00     0.280 C 
ATOM     12  O   UNL A   1      33.623  25.833  21.681  1.00  0.00    -0.268 OA
BRANCH  11  13
ATOM     13  C   UNL A   1      33.704  23.524  22.306  1.00  0.00     0.270 C 
BRANCH  13  14
ATOM     14  C   UNL A   1      34.817  22.957  23.179  1.00  0.00     0.072 C 
ATOM     15  C   UNL A   1      34.311  21.996  24.249  1.00  0.00     0.011 C 
ENDBRANCH  13  14
BRANCH  13  16
ATOM     16  N   UNL A   1      32.491  22.676  22.323  1.00  0.00    -0.347 N 
ATOM     17  H   UNL A   1      32.703  21.771  21.901  1.00  0.00     0.345 HD
ATOM     18  H   UNL A   1      31.749  23.133  21.793  1.00  0.00     0.345 HD
ATOM     19  H   UNL A   1      32.186  22.538  23.286  1.00  0.00     0.345 HD
ENDBRANCH  13  16
ENDBRANCH  11  13
ENDBRANCH   6  11
ENDBRANCH   3   5
ENDBRANCH   2   3
ENDBRANCH   1   2
BRANCH   1  20
ATOM     20  C   UNL A   1      31.527  30.325  25.381  1.00  0.00     0.275 C 
BRANCH  20  21
ATOM     21  O   UNL A   1      31.779  30.576  26.771  1.00  0.00    -0.458 OA
BRANCH  21  22
ATOM     22  C   UNL A   1      32.434  31.727  27.057  1.00  0.00     0.338 C 
ATOM     23  O   UNL A   1      32.000  32.856  26.906  1.00  0.00    -0.246 OA
BRANCH  22  24
ATOM     24  C   UNL A   1      33.752  31.414  27.676  1.00  0.00     0.060 A 
ATOM     25  C   UNL A   1      34.170  30.095  27.857  1.00  0.00     0.016 A 
ATOM     26  C   UNL A   1      34.551  32.450  28.169  1.00  0.00     0.016 A 
ATOM     27  C   UNL A   1      35.316  29.811  28.595  1.00  0.00     0.010 A 
ATOM     28  C   UNL A   1      35.757  32.161  28.826  1.00  0.00     0.010 A 
ATOM     29  C   UNL A   1      36.145  30.833  29.072  1.00  0.00    -0.014 A 
BRANCH  29  30
ATOM     30  C   UNL A   1      37.399  30.504  29.815  1.00  0.00     0.031 A 
ATOM     31  C   UNL A   1      38.512  29.733  29.153  1.00  0.00     0.074 A 
ATOM     32  C   UNL A   1      37.565  30.912  31.090  1.00  0.00     0.049 A 
ATOM     33  N   UNL A   1      39.575  29.188  29.690  1.00  0.00    -0.248 NA
ATOM     34  C   UNL A   1      38.412  29.535  27.699  1.00  0.00     0.031 C 
ATOM     35  C   UNL A   1      36.610  31.711  31.860  1.00  0.00     0.029 A 
ATOM     36  N   UNL A   1      38.612  30.727  31.962  1.00  0.00    -0.354 N 
ATOM     37  C   UNL A   1      40.228  28.522  28.660  1.00  0.00     0.074 A 
ATOM     38  C   UNL A   1      39.452  28.746  27.459  1.00  0.00     0.031 C 
ATOM     39  C   UNL A   1      37.140  32.006  33.056  1.00  0.00     0.029 A 
ATOM     40  C   UNL A   1      38.424  31.329  33.183  1.00  0.00     0.049 A 
ATOM     41  H   UNL A   1      39.418  30.210  31.734  1.00  0.00     0.167 HD
ATOM     42  C   UNL A   1      41.363  27.785  28.715  1.00  0.00     0.037 A 
ATOM     43  C   UNL A   1      39.172  31.309  34.303  1.00  0.00     0.037 A 
ATOM     44  C   UNL A   1      42.179  27.621  29.891  1.00  0.00     0.049 A 
ATOM     45  C   UNL A   1      40.423  30.484  34.340  1.00  0.00     0.074 A 
ATOM     46  C   UNL A   1      43.353  26.898  30.036  1.00  0.00     0.029 A 
ATOM     47  N   UNL A   1      41.924  28.210  31.120  1.00  0.00    -0.354 N 
ATOM     48  N   UNL A   1      40.972  29.773  33.387  1.00  0.00    -0.248 NA
ATOM     49  C   UNL A   1      41.140  30.431  35.622  1.00  0.00     0.031 C 
ATOM     50  C   UNL A   1      43.794  27.032  31.357  1.00  0.00     0.029 A 
ATOM     51  C   UNL A   1      42.914  27.865  32.027  1.00  0.00     0.049 A 
ATOM     52  H   UNL A   1      41.153  28.789  31.320  1.00  0.00     0.167 HD
ATOM     53  C   UNL A   1      42.089  29.178  33.954  1.00  0.00     0.074 A 
ATOM     54  C   UNL A   1      42.161  29.639  35.326  1.00  0.00     0.031 C 
ATOM     55  C   UNL A   1      42.968  28.315  33.392  1.00  0.00     0.037 A 
BRANCH  42  56
ATOM     56  C   UNL A   1      41.779  27.056  27.471  1.00  0.00     0.057 A 
ATOM     57  C   UNL A   1      42.585  27.649  26.493  1.00  0.00     0.134 A 
ATOM     58  C   UNL A   1      41.407  25.718  27.282  1.00  0.00     0.134 A 
ATOM     59  F   UNL A   1      42.964  28.930  26.608  1.00  0.00    -0.206 F 
ATOM     60  C   UNL A   1      42.997  26.939  25.362  1.00  0.00     0.040 A 
ATOM     61  C   UNL A   1      41.829  24.993  26.167  1.00  0.00     0.040 A 
ATOM     62  F   UNL A   1      40.640  25.090  28.186  1.00  0.00    -0.206 F 
ATOM     63  C   UNL A   1      42.625  25.604  25.201  1.00  0.00     0.006 A 
ENDBRANCH  42  56
BRANCH  43  64
ATOM     64  C   UNL A   1      38.719  32.053  35.503  1.00  0.00     0.057 A 
ATOM     65  C   UNL A   1      38.085  31.395  36.563  1.00  0.00     0.134 A 
ATOM     66  C   UNL A   1      38.922  33.434  35.625  1.00  0.00     0.134 A 
ATOM     67  F   UNL A   1      37.836  30.080  36.490  1.00  0.00    -0.206 F 
ATOM     68  C   UNL A   1      37.670  32.085  37.704  1.00  0.00     0.040 A 
ATOM     69  C   UNL A   1      38.535  34.130  36.771  1.00  0.00     0.040 A 
ATOM     70  F   UNL A   1      39.520  34.120  34.641  1.00  0.00    -0.206 F 
ATOM     71  C   UNL A   1      37.905  33.455  37.814  1.00  0.00     0.006 A 
ENDBRANCH  43  64
BRANCH  55  72
ATOM     72  C   UNL A   1      44.079  27.818  34.266  1.00  0.00     0.057 A 
ATOM     73  C   UNL A   1      45.284  28.521  34.385  1.00  0.00     0.134 A 
ATOM     74  C   UNL A   1      43.942  26.631  34.995  1.00  0.00     0.134 A 
ATOM     75  F   UNL A   1      45.480  29.656  33.698  1.00  0.00    -0.206 F 
ATOM     76  C   UNL A   1      46.326  28.046  35.182  1.00  0.00     0.040 A 
ATOM     77  C   UNL A   1      44.970  26.158  35.811  1.00  0.00     0.040 A 
ATOM     78  F   UNL A   1      42.810  25.914  34.926  1.00  0.00    -0.206 F 
ATOM     79  C   UNL A   1      46.169  26.862  35.901  1.00  0.00     0.006 A 
ENDBRANCH  55  72
ENDBRANCH  29  30
ENDBRANCH  22  24
ENDBRANCH  21  22
ENDBRANCH  20  21
ENDBRANCH   1  20
TORSDOF 15
ENDMDL
MODEL 3
REMARK VINA RESULT:     -10.3      4.301      9.515
REMARK SMILES CC[C@@H]([NH3+])C(=O)N1CC[C@H](C(=O)OCCOC(=O)c2ccc(-c3c4nc(c(-c5c(F)cccc5F)c5ccc([nH]5)c(-c5c(F)cccc5F)c5nc(c(-c6c(F)cccc6F)c6ccc3[nH]6)C=C5)C=C4)cc2)[C@@H]1C
REMARK SMILES IDX 14 1 13 2 11 3 12 4 10 5 7 6 8 7 73 8 9 9 74 10 5 11 6 12
REMARK SMILES IDX 3 13 2 14 1 15 4 16 15 20 16 21 17 22 18 23 19 24 20 25
REMARK SMILES IDX 72 26 21 27 71 28 22 29 23 30 24 31 65 32 25 33 70 34 64 35
REMARK SMILES IDX 66 36 26 37 69 38 63 39 62 40 27 42 53 43 36 44 52 45 37 46
REMARK SMILES IDX 40 47 51 48 67 49 38 50 39 51 50 53 68 54 41 55 28 56 29 57
REMARK SMILES IDX 34 58 30 59 31 60 33 61 35 62 32 63 54 64 55 65 60 66 56 67
REMARK SMILES IDX 57 68 59 69 61 70 58 71 42 72 43 73 48 74 44 75 45 76 47 77
REMARK SMILES IDX 49 78 46 79
REMARK H PARENT 4 17 4 18 4 19 66 41 40 52
REMARK Flexibility Score: inf
ROOT
ATOM      1  C   UNL A   1      42.273  19.977  26.751  1.00  0.00     0.274 C 
ENDROOT
BRANCH   1   2
ATOM      2  O   UNL A   1      42.787  20.703  25.608  1.00  0.00    -0.462 OA
BRANCH   2   3
ATOM      3  C   UNL A   1      43.421  21.875  25.900  1.00  0.00     0.311 C 
ATOM      4  O   UNL A   1      43.756  22.210  27.030  1.00  0.00    -0.252 OA
BRANCH   3   5
ATOM      5  C   UNL A   1      43.619  22.739  24.652  1.00  0.00     0.123 C 
ATOM      6  N   UNL A   1      45.572  24.119  24.852  1.00  0.00    -0.334 N 
ATOM      7  C   UNL A   1      44.503  24.722  25.638  1.00  0.00     0.121 C 
ATOM      8  C   UNL A   1      45.074  22.923  24.143  1.00  0.00     0.096 C 
ATOM      9  C   UNL A   1      43.226  24.176  25.010  1.00  0.00     0.039 C 
ATOM     10  C   UNL A   1      45.922  21.663  24.286  1.00  0.00     0.032 C 
BRANCH   6  11
ATOM     11  C   UNL A   1      46.708  24.887  24.678  1.00  0.00     0.280 C 
ATOM     12  O   UNL A   1      47.552  24.538  23.839  1.00  0.00    -0.268 OA
BRANCH  11  13
ATOM     13  C   UNL A   1      47.067  26.073  25.611  1.00  0.00     0.270 C 
BRANCH  13  14
ATOM     14  C   UNL A   1      48.072  25.807  26.725  1.00  0.00     0.072 C 
ATOM     15  C   UNL A   1      47.424  25.308  28.012  1.00  0.00     0.011 C 
ENDBRANCH  13  14
BRANCH  13  16
ATOM     16  N   UNL A   1      47.440  27.245  24.787  1.00  0.00    -0.347 N 
ATOM     17  H   UNL A   1      46.694  27.444  24.121  1.00  0.00     0.345 HD
ATOM     18  H   UNL A   1      48.303  27.045  24.282  1.00  0.00     0.345 HD
ATOM     19  H   UNL A   1      47.580  28.055  25.392  1.00  0.00     0.345 HD
ENDBRANCH  13  16
ENDBRANCH  11  13
ENDBRANCH   6  11
ENDBRANCH   3   5
ENDBRANCH   2   3
ENDBRANCH   1   2
BRANCH   1  20
ATOM     20  C   UNL A   1      40.750  20.083  26.838  1.00  0.00     0.275 C 
BRANCH  20  21
ATOM     21  O   UNL A   1      40.403  21.308  27.500  1.00  0.00    -0.458 OA
BRANCH  21  22
ATOM     22  C   UNL A   1      39.727  22.215  26.754  1.00  0.00     0.338 C 
ATOM     23  O   UNL A   1      38.821  21.972  25.976  1.00  0.00    -0.246 OA
BRANCH  22  24
ATOM     24  C   UNL A   1      40.194  23.589  27.090  1.00  0.00     0.060 A 
ATOM     25  C   UNL A   1      41.026  23.822  28.186  1.00  0.00     0.016 A 
ATOM     26  C   UNL A   1      39.725  24.681  26.353  1.00  0.00     0.016 A 
ATOM     27  C   UNL A   1      41.310  25.122  28.596  1.00  0.00     0.010 A 
ATOM     28  C   UNL A   1      40.095  25.987  26.711  1.00  0.00     0.010 A 
ATOM     29  C   UNL A   1      40.875  26.228  27.855  1.00  0.00    -0.014 A 
BRANCH  29  30
ATOM     30  C   UNL A   1      41.237  27.613  28.284  1.00  0.00     0.031 A 
ATOM     31  C   UNL A   1      42.662  28.100  28.206  1.00  0.00     0.074 A 
ATOM     32  C   UNL A   1      40.287  28.462  28.728  1.00  0.00     0.049 A 
ATOM     33  N   UNL A   1      43.195  29.184  28.712  1.00  0.00    -0.248 NA
ATOM     34  C   UNL A   1      43.617  27.251  27.478  1.00  0.00     0.031 C 
ATOM     35  C   UNL A   1      38.856  28.168  28.816  1.00  0.00     0.029 A 
ATOM     36  N   UNL A   1      40.381  29.759  29.174  1.00  0.00    -0.354 N 
ATOM     37  C   UNL A   1      44.553  29.113  28.430  1.00  0.00     0.074 A 
ATOM     38  C   UNL A   1      44.763  27.885  27.691  1.00  0.00     0.031 C 
ATOM     39  C   UNL A   1      38.201  29.267  29.216  1.00  0.00     0.029 A 
ATOM     40  C   UNL A   1      39.171  30.312  29.518  1.00  0.00     0.049 A 
ATOM     41  H   UNL A   1      41.235  30.245  29.241  1.00  0.00     0.167 HD
ATOM     42  C   UNL A   1      45.534  29.984  28.766  1.00  0.00     0.037 A 
ATOM     43  C   UNL A   1      38.867  31.506  30.059  1.00  0.00     0.037 A 
ATOM     44  C   UNL A   1      45.320  31.242  29.435  1.00  0.00     0.049 A 
ATOM     45  C   UNL A   1      39.970  32.454  30.424  1.00  0.00     0.074 A 
ATOM     46  C   UNL A   1      46.256  32.194  29.808  1.00  0.00     0.029 A 
ATOM     47  N   UNL A   1      44.081  31.739  29.809  1.00  0.00    -0.354 N 
ATOM     48  N   UNL A   1      41.261  32.325  30.248  1.00  0.00    -0.248 NA
ATOM     49  C   UNL A   1      39.573  33.698  31.098  1.00  0.00     0.031 C 
ATOM     50  C   UNL A   1      45.586  33.255  30.426  1.00  0.00     0.029 A 
ATOM     51  C   UNL A   1      44.229  32.980  30.409  1.00  0.00     0.049 A 
ATOM     52  H   UNL A   1      43.222  31.279  29.669  1.00  0.00     0.167 HD
ATOM     53  C   UNL A   1      41.833  33.462  30.797  1.00  0.00     0.074 A 
ATOM     54  C   UNL A   1      40.747  34.288  31.283  1.00  0.00     0.031 C 
ATOM     55  C   UNL A   1      43.144  33.785  30.904  1.00  0.00     0.037 A 
BRANCH  42  56
ATOM     56  C   UNL A   1      46.948  29.594  28.452  1.00  0.00     0.057 A 
ATOM     57  C   UNL A   1      47.584  29.981  27.268  1.00  0.00     0.134 A 
ATOM     58  C   UNL A   1      47.699  28.861  29.382  1.00  0.00     0.134 A 
ATOM     59  F   UNL A   1      46.918  30.672  26.332  1.00  0.00    -0.206 F 
ATOM     60  C   UNL A   1      48.916  29.643  27.013  1.00  0.00     0.040 A 
ATOM     61  C   UNL A   1      49.035  28.534  29.148  1.00  0.00     0.040 A 
ATOM     62  F   UNL A   1      47.149  28.463  30.539  1.00  0.00    -0.206 F 
ATOM     63  C   UNL A   1      49.647  28.924  27.959  1.00  0.00     0.006 A 
ENDBRANCH  42  56
BRANCH  43  64
ATOM     64  C   UNL A   1      37.451  31.846  30.343  1.00  0.00     0.057 A 
ATOM     65  C   UNL A   1      36.859  31.509  31.565  1.00  0.00     0.134 A 
ATOM     66  C   UNL A   1      36.663  32.528  29.407  1.00  0.00     0.134 A 
ATOM     67  F   UNL A   1      37.554  30.828  32.488  1.00  0.00    -0.206 F 
ATOM     68  C   UNL A   1      35.531  31.839  31.847  1.00  0.00     0.040 A 
ATOM     69  C   UNL A   1      35.344  32.887  29.687  1.00  0.00     0.040 A 
ATOM     70  F   UNL A   1      37.173  32.876  28.217  1.00  0.00    -0.206 F 
ATOM     71  C   UNL A   1      34.774  32.540  30.909  1.00  0.00     0.006 A 
ENDBRANCH  43  64
BRANCH  55  72
ATOM     72  C   UNL A   1      43.466  35.088  31.571  1.00  0.00     0.057 A 
ATOM     73  C   UNL A   1      43.676  36.256  30.828  1.00  0.00     0.134 A 
ATOM     74  C   UNL A   1      43.565  35.175  32.964  1.00  0.00     0.134 A 
ATOM     75  F   UNL A   1      43.610  36.231  29.488  1.00  0.00    -0.206 F 
ATOM     76  C   UNL A   1      43.997  37.464  31.448  1.00  0.00     0.040 A 
ATOM     77  C   UNL A   1      43.865  36.382  33.596  1.00  0.00     0.040 A 
ATOM     78  F   UNL A   1      43.371  34.092  33.731  1.00  0.00    -0.206 F 
ATOM     79  C   UNL A   1      44.089  37.529  32.838  1.00  0.00     0.006 A 
ENDBRANCH  55  72
ENDBRANCH  29  30
ENDBRANCH  22  24
ENDBRANCH  21  22
ENDBRANCH  20  21
ENDBRANCH   1  20
TORSDOF 15
ENDMDL
