MODEL 1
REMARK VINA RESULT:     -12.5      0.000      0.000
REMARK SMILES Cc1ccc(OCC(=O)NNC(=O)[C@H]2CCCC[C@@H]2C(=O)OCCOC(=O)c2ccc(-c3c4nc(c(-c5c(F)cccc5F)c5ccc([nH]5)c(-c5c(F)cccc5F)c5nc(c(-c6c(F)cccc6F)c6ccc3[nH]6)C=C5)C=C4)cc2)cc1
REMARK SMILES IDX 22 1 20 2 21 3 19 4 14 5 15 6 16 7 18 8 17 9 12 10 11 11
REMARK SMILES IDX 13 13 10 14 8 15 9 16 7 18 6 19 5 20 1 21 2 22 3 23 83 24
REMARK SMILES IDX 4 25 82 26 23 27 24 28 25 29 26 30 27 31 28 32 29 33 81 34
REMARK SMILES IDX 30 35 80 36 31 37 32 38 33 39 74 40 34 41 79 42 73 43 75 44
REMARK SMILES IDX 35 45 78 46 72 47 71 48 36 50 62 51 45 52 61 53 46 54 49 55
REMARK SMILES IDX 60 56 76 57 47 58 48 59 59 61 77 62 50 63 37 64 38 65 43 66
REMARK SMILES IDX 39 67 40 68 42 69 44 70 41 71 63 72 64 73 69 74 65 75 66 76
REMARK SMILES IDX 68 77 70 78 67 79 51 80 52 81 57 82 53 83 54 84 56 85 58 86
REMARK SMILES IDX 55 87
REMARK H PARENT 11 12 10 17 75 49 49 60
REMARK Flexibility Score: inf
ROOT
ATOM      1  O   UNL A   1      32.615  30.010  25.497  1.00  0.00    -0.462 OA
ENDROOT
BRANCH   1   2
ATOM      2  C   UNL A   1      32.699  28.653  25.366  1.00  0.00     0.309 C 
ATOM      3  O   UNL A   1      33.760  28.039  25.358  1.00  0.00    -0.252 OA
BRANCH   2   4
ATOM      4  C   UNL A   1      31.346  27.997  25.130  1.00  0.00     0.111 C 
ATOM      5  C   UNL A   1      31.468  26.493  24.806  1.00  0.00     0.094 C 
ATOM      6  C   UNL A   1      32.108  26.231  23.427  1.00  0.00     0.014 C 
ATOM      7  C   UNL A   1      31.522  27.066  22.287  1.00  0.00     0.001 C 
ATOM      8  C   UNL A   1      30.654  28.762  23.994  1.00  0.00     0.016 C 
ATOM      9  C   UNL A   1      31.310  28.536  22.629  1.00  0.00     0.001 C 
BRANCH   5  10
ATOM     10  C   UNL A   1      30.094  25.813  24.860  1.00  0.00     0.242 C 
ATOM     11  N   UNL A   1      29.821  24.873  25.811  1.00  0.00    -0.267 N 
ATOM     12  H   UNL A   1      28.948  24.422  25.748  1.00  0.00     0.191 HD
ATOM     13  O   UNL A   1      29.188  26.087  24.071  1.00  0.00    -0.273 OA
BRANCH  11  14
ATOM     14  N   UNL A   1      30.645  24.489  26.852  1.00  0.00    -0.265 N 
ATOM     15  C   UNL A   1      31.293  23.273  26.876  1.00  0.00     0.276 C 
ATOM     16  O   UNL A   1      32.092  23.025  27.780  1.00  0.00    -0.269 OA
ATOM     17  H   UNL A   1      30.775  25.108  27.607  1.00  0.00     0.191 HD
BRANCH  15  18
ATOM     18  C   UNL A   1      31.059  22.291  25.718  1.00  0.00     0.331 C 
BRANCH  18  19
ATOM     19  O   UNL A   1      31.810  22.521  24.537  1.00  0.00    -0.484 OA
BRANCH  19  20
ATOM     20  C   UNL A   1      33.165  22.359  24.601  1.00  0.00     0.120 A 
ATOM     21  C   UNL A   1      37.369  21.397  24.739  1.00  0.00     0.044 C 
ATOM     22  C   UNL A   1      35.909  21.737  24.713  1.00  0.00    -0.051 A 
ATOM     23  C   UNL A   1      34.950  20.720  24.761  1.00  0.00     0.007 A 
ATOM     24  C   UNL A   1      35.482  23.065  24.613  1.00  0.00     0.007 A 
ATOM     25  C   UNL A   1      33.590  21.032  24.707  1.00  0.00     0.047 A 
ATOM     26  C   UNL A   1      34.119  23.375  24.559  1.00  0.00     0.047 A 
ENDBRANCH  19  20
ENDBRANCH  18  19
ENDBRANCH  15  18
ENDBRANCH  11  14
ENDBRANCH   5  10
ENDBRANCH   2   4
ENDBRANCH   1   2
BRANCH   1  27
ATOM     27  C   UNL A   1      32.438  30.432  26.860  1.00  0.00     0.274 C 
BRANCH  27  28
ATOM     28  C   UNL A   1      33.664  31.137  27.447  1.00  0.00     0.275 C 
BRANCH  28  29
ATOM     29  O   UNL A   1      34.747  30.311  27.950  1.00  0.00    -0.458 OA
BRANCH  29  30
ATOM     30  C   UNL A   1      35.747  30.652  28.795  1.00  0.00     0.338 C 
ATOM     31  O   UNL A   1      35.625  31.514  29.654  1.00  0.00    -0.246 OA
BRANCH  30  32
ATOM     32  C   UNL A   1      36.981  29.867  28.729  1.00  0.00     0.060 A 
ATOM     33  C   UNL A   1      37.818  30.058  27.623  1.00  0.00     0.016 A 
ATOM     34  C   UNL A   1      37.331  29.005  29.768  1.00  0.00     0.016 A 
ATOM     35  C   UNL A   1      39.080  29.472  27.613  1.00  0.00     0.010 A 
ATOM     36  C   UNL A   1      38.600  28.452  29.772  1.00  0.00     0.010 A 
ATOM     37  C   UNL A   1      39.482  28.704  28.710  1.00  0.00    -0.014 A 
BRANCH  37  38
ATOM     38  C   UNL A   1      40.714  27.924  28.686  1.00  0.00     0.031 A 
ATOM     39  C   UNL A   1      40.790  26.492  28.320  1.00  0.00     0.074 A 
ATOM     40  C   UNL A   1      41.794  28.576  29.157  1.00  0.00     0.049 A 
ATOM     41  N   UNL A   1      41.635  25.671  28.854  1.00  0.00    -0.248 NA
ATOM     42  C   UNL A   1      39.900  25.850  27.355  1.00  0.00     0.031 C 
ATOM     43  C   UNL A   1      43.186  28.160  29.175  1.00  0.00     0.029 A 
ATOM     44  N   UNL A   1      41.744  29.704  29.990  1.00  0.00    -0.354 N 
ATOM     45  C   UNL A   1      41.555  24.481  28.168  1.00  0.00     0.074 A 
ATOM     46  C   UNL A   1      40.400  24.605  27.309  1.00  0.00     0.031 C 
ATOM     47  C   UNL A   1      43.810  28.832  30.159  1.00  0.00     0.029 A 
ATOM     48  C   UNL A   1      42.782  29.547  30.911  1.00  0.00     0.049 A 
ATOM     49  H   UNL A   1      41.108  30.453  29.935  1.00  0.00     0.167 HD
ATOM     50  C   UNL A   1      42.550  23.557  28.272  1.00  0.00     0.037 A 
ATOM     51  C   UNL A   1      42.513  29.377  32.239  1.00  0.00     0.037 A 
ATOM     52  C   UNL A   1      43.639  24.027  29.111  1.00  0.00     0.049 A 
ATOM     53  C   UNL A   1      43.139  28.140  32.826  1.00  0.00     0.074 A 
ATOM     54  C   UNL A   1      44.802  24.718  28.819  1.00  0.00     0.029 A 
ATOM     55  N   UNL A   1      43.472  24.101  30.480  1.00  0.00    -0.354 N 
ATOM     56  N   UNL A   1      43.439  27.080  32.131  1.00  0.00    -0.248 NA
ATOM     57  C   UNL A   1      43.408  27.976  34.254  1.00  0.00     0.031 C 
ATOM     58  C   UNL A   1      45.346  25.204  30.032  1.00  0.00     0.029 A 
ATOM     59  C   UNL A   1      44.514  24.801  31.057  1.00  0.00     0.049 A 
ATOM     60  H   UNL A   1      42.717  23.709  30.977  1.00  0.00     0.167 HD
ATOM     61  C   UNL A   1      44.010  26.154  32.961  1.00  0.00     0.074 A 
ATOM     62  C   UNL A   1      43.911  26.731  34.287  1.00  0.00     0.031 C 
ATOM     63  C   UNL A   1      44.542  24.993  32.491  1.00  0.00     0.037 A 
BRANCH  50  64
ATOM     64  C   UNL A   1      42.659  22.363  27.365  1.00  0.00     0.057 A 
ATOM     65  C   UNL A   1      41.806  21.254  27.518  1.00  0.00     0.134 A 
ATOM     66  C   UNL A   1      43.604  22.253  26.333  1.00  0.00     0.134 A 
ATOM     67  F   UNL A   1      40.826  21.240  28.430  1.00  0.00    -0.206 F 
ATOM     68  C   UNL A   1      41.935  20.087  26.757  1.00  0.00     0.040 A 
ATOM     69  C   UNL A   1      43.761  21.079  25.579  1.00  0.00     0.040 A 
ATOM     70  F   UNL A   1      44.407  23.282  26.020  1.00  0.00    -0.206 F 
ATOM     71  C   UNL A   1      42.932  19.984  25.799  1.00  0.00     0.006 A 
ENDBRANCH  50  64
BRANCH  51  72
ATOM     72  C   UNL A   1      41.224  29.946  32.731  1.00  0.00     0.057 A 
ATOM     73  C   UNL A   1      41.064  31.338  32.864  1.00  0.00     0.134 A 
ATOM     74  C   UNL A   1      40.071  29.168  32.881  1.00  0.00     0.134 A 
ATOM     75  F   UNL A   1      42.122  32.157  32.741  1.00  0.00    -0.206 F 
ATOM     76  C   UNL A   1      39.812  31.928  33.062  1.00  0.00     0.040 A 
ATOM     77  C   UNL A   1      38.814  29.745  33.097  1.00  0.00     0.040 A 
ATOM     78  F   UNL A   1      40.122  27.834  32.761  1.00  0.00    -0.206 F 
ATOM     79  C   UNL A   1      38.678  31.129  33.165  1.00  0.00     0.006 A 
ENDBRANCH  51  72
BRANCH  63  80
ATOM     80  C   UNL A   1      45.208  23.959  33.340  1.00  0.00     0.057 A 
ATOM     81  C   UNL A   1      44.541  22.844  33.858  1.00  0.00     0.134 A 
ATOM     82  C   UNL A   1      46.535  24.146  33.772  1.00  0.00     0.134 A 
ATOM     83  F   UNL A   1      43.249  22.619  33.581  1.00  0.00    -0.206 F 
ATOM     84  C   UNL A   1      45.174  21.935  34.713  1.00  0.00     0.040 A 
ATOM     85  C   UNL A   1      47.162  23.273  34.662  1.00  0.00     0.040 A 
ATOM     86  F   UNL A   1      47.274  25.179  33.339  1.00  0.00    -0.206 F 
ATOM     87  C   UNL A   1      46.486  22.153  35.124  1.00  0.00     0.006 A 
ENDBRANCH  63  80
ENDBRANCH  37  38
ENDBRANCH  30  32
ENDBRANCH  29  30
ENDBRANCH  28  29
ENDBRANCH  27  28
ENDBRANCH   1  27
TORSDOF 16
ENDMDL
MODEL 2
REMARK VINA RESULT:     -12.4      1.589      2.357
REMARK SMILES Cc1ccc(OCC(=O)NNC(=O)[C@H]2CCCC[C@@H]2C(=O)OCCOC(=O)c2ccc(-c3c4nc(c(-c5c(F)cccc5F)c5ccc([nH]5)c(-c5c(F)cccc5F)c5nc(c(-c6c(F)cccc6F)c6ccc3[nH]6)C=C5)C=C4)cc2)cc1
REMARK SMILES IDX 22 1 20 2 21 3 19 4 14 5 15 6 16 7 18 8 17 9 12 10 11 11
REMARK SMILES IDX 13 13 10 14 8 15 9 16 7 18 6 19 5 20 1 21 2 22 3 23 83 24
REMARK SMILES IDX 4 25 82 26 23 27 24 28 25 29 26 30 27 31 28 32 29 33 81 34
REMARK SMILES IDX 30 35 80 36 31 37 32 38 33 39 74 40 34 41 79 42 73 43 75 44
REMARK SMILES IDX 35 45 78 46 72 47 71 48 36 50 62 51 45 52 61 53 46 54 49 55
REMARK SMILES IDX 60 56 76 57 47 58 48 59 59 61 77 62 50 63 37 64 38 65 43 66
REMARK SMILES IDX 39 67 40 68 42 69 44 70 41 71 63 72 64 73 69 74 65 75 66 76
REMARK SMILES IDX 68 77 70 78 67 79 51 80 52 81 57 82 53 83 54 84 56 85 58 86
REMARK SMILES IDX 55 87
REMARK H PARENT 11 12 10 17 75 49 49 60
REMARK Flexibility Score: inf
ROOT
ATOM      1  O   UNL A   1      33.321  27.822  25.994  1.00  0.00    -0.462 OA
ENDROOT
BRANCH   1   2
ATOM      2  C   UNL A   1      32.068  27.554  25.523  1.00  0.00     0.309 C 
ATOM      3  O   UNL A   1      31.473  28.278  24.733  1.00  0.00    -0.252 OA
BRANCH   2   4
ATOM      4  C   UNL A   1      31.451  26.315  26.158  1.00  0.00     0.111 C 
ATOM      5  C   UNL A   1      32.336  25.063  25.990  1.00  0.00     0.094 C 
ATOM      6  C   UNL A   1      32.409  24.576  24.528  1.00  0.00     0.014 C 
ATOM      7  C   UNL A   1      31.053  24.476  23.825  1.00  0.00     0.001 C 
ATOM      8  C   UNL A   1      30.067  26.114  25.525  1.00  0.00     0.016 C 
ATOM      9  C   UNL A   1      30.134  25.669  24.062  1.00  0.00     0.001 C 
BRANCH   5  10
ATOM     10  C   UNL A   1      31.830  23.918  26.877  1.00  0.00     0.242 C 
ATOM     11  N   UNL A   1      32.681  22.938  27.299  1.00  0.00    -0.267 N 
ATOM     12  H   UNL A   1      32.281  22.193  27.804  1.00  0.00     0.191 HD
ATOM     13  O   UNL A   1      30.659  23.839  27.251  1.00  0.00    -0.273 OA
BRANCH  11  14
ATOM     14  N   UNL A   1      34.046  22.883  27.088  1.00  0.00    -0.265 N 
ATOM     15  C   UNL A   1      34.621  22.040  26.162  1.00  0.00     0.276 C 
ATOM     16  O   UNL A   1      35.831  22.104  25.947  1.00  0.00    -0.269 OA
ATOM     17  H   UNL A   1      34.631  23.469  27.621  1.00  0.00     0.191 HD
BRANCH  15  18
ATOM     18  C   UNL A   1      33.711  21.098  25.359  1.00  0.00     0.331 C 
BRANCH  18  19
ATOM     19  O   UNL A   1      34.363  20.172  24.505  1.00  0.00    -0.484 OA
BRANCH  19  20
ATOM     20  C   UNL A   1      34.096  18.843  24.684  1.00  0.00     0.120 A 
ATOM     21  C   UNL A   1      32.833  14.776  25.377  1.00  0.00     0.044 C 
ATOM     22  C   UNL A   1      33.286  16.188  25.153  1.00  0.00    -0.051 A 
ATOM     23  C   UNL A   1      32.497  17.257  25.591  1.00  0.00     0.007 A 
ATOM     24  C   UNL A   1      34.484  16.460  24.485  1.00  0.00     0.007 A 
ATOM     25  C   UNL A   1      32.903  18.573  25.358  1.00  0.00     0.047 A 
ATOM     26  C   UNL A   1      34.888  17.780  24.252  1.00  0.00     0.047 A 
ENDBRANCH  19  20
ENDBRANCH  18  19
ENDBRANCH  15  18
ENDBRANCH  11  14
ENDBRANCH   5  10
ENDBRANCH   2   4
ENDBRANCH   1   2
BRANCH   1  27
ATOM     27  C   UNL A   1      33.313  28.523  27.249  1.00  0.00     0.274 C 
BRANCH  27  28
ATOM     28  C   UNL A   1      33.555  30.029  27.112  1.00  0.00     0.275 C 
BRANCH  28  29
ATOM     29  O   UNL A   1      34.919  30.511  27.231  1.00  0.00    -0.458 OA
BRANCH  29  30
ATOM     30  C   UNL A   1      35.704  30.563  28.331  1.00  0.00     0.338 C 
ATOM     31  O   UNL A   1      35.382  31.160  29.349  1.00  0.00    -0.246 OA
BRANCH  30  32
ATOM     32  C   UNL A   1      36.937  29.774  28.316  1.00  0.00     0.060 A 
ATOM     33  C   UNL A   1      37.793  29.920  27.218  1.00  0.00     0.016 A 
ATOM     34  C   UNL A   1      37.268  28.953  29.393  1.00  0.00     0.016 A 
ATOM     35  C   UNL A   1      39.053  29.333  27.251  1.00  0.00     0.010 A 
ATOM     36  C   UNL A   1      38.536  28.398  29.440  1.00  0.00     0.010 A 
ATOM     37  C   UNL A   1      39.436  28.607  28.383  1.00  0.00    -0.014 A 
BRANCH  37  38
ATOM     38  C   UNL A   1      40.666  27.825  28.410  1.00  0.00     0.031 A 
ATOM     39  C   UNL A   1      40.749  26.386  28.079  1.00  0.00     0.074 A 
ATOM     40  C   UNL A   1      41.735  28.487  28.896  1.00  0.00     0.049 A 
ATOM     41  N   UNL A   1      41.577  25.575  28.654  1.00  0.00    -0.248 NA
ATOM     42  C   UNL A   1      39.884  25.723  27.105  1.00  0.00     0.031 C 
ATOM     43  C   UNL A   1      43.125  28.068  28.960  1.00  0.00     0.029 A 
ATOM     44  N   UNL A   1      41.665  29.632  29.701  1.00  0.00    -0.354 N 
ATOM     45  C   UNL A   1      41.513  24.370  27.993  1.00  0.00     0.074 A 
ATOM     46  C   UNL A   1      40.383  24.477  27.100  1.00  0.00     0.031 C 
ATOM     47  C   UNL A   1      43.723  28.761  29.945  1.00  0.00     0.029 A 
ATOM     48  C   UNL A   1      42.678  29.495  30.653  1.00  0.00     0.049 A 
ATOM     49  H   UNL A   1      41.032  30.381  29.612  1.00  0.00     0.167 HD
ATOM     50  C   UNL A   1      42.504  23.448  28.144  1.00  0.00     0.037 A 
ATOM     51  C   UNL A   1      42.372  29.355  31.976  1.00  0.00     0.037 A 
ATOM     52  C   UNL A   1      43.570  23.934  29.001  1.00  0.00     0.049 A 
ATOM     53  C   UNL A   1      42.980  28.130  32.608  1.00  0.00     0.074 A 
ATOM     54  C   UNL A   1      44.743  24.617  28.724  1.00  0.00     0.029 A 
ATOM     55  N   UNL A   1      43.367  24.039  30.363  1.00  0.00    -0.354 N 
ATOM     56  N   UNL A   1      43.296  27.054  31.945  1.00  0.00    -0.248 NA
ATOM     57  C   UNL A   1      43.210  27.999  34.046  1.00  0.00     0.031 C 
ATOM     58  C   UNL A   1      45.255  25.129  29.941  1.00  0.00     0.029 A 
ATOM     59  C   UNL A   1      44.395  24.751  30.952  1.00  0.00     0.049 A 
ATOM     60  H   UNL A   1      42.598  23.660  30.848  1.00  0.00     0.167 HD
ATOM     61  C   UNL A   1      43.842  26.147  32.811  1.00  0.00     0.074 A 
ATOM     62  C   UNL A   1      43.709  26.754  34.120  1.00  0.00     0.031 C 
ATOM     63  C   UNL A   1      44.385  24.975  32.382  1.00  0.00     0.037 A 
BRANCH  50  64
ATOM     64  C   UNL A   1      42.634  22.233  27.267  1.00  0.00     0.057 A 
ATOM     65  C   UNL A   1      41.810  21.107  27.456  1.00  0.00     0.134 A 
ATOM     66  C   UNL A   1      43.572  22.120  26.229  1.00  0.00     0.134 A 
ATOM     67  F   UNL A   1      40.839  21.093  28.378  1.00  0.00    -0.206 F 
ATOM     68  C   UNL A   1      41.962  19.925  26.725  1.00  0.00     0.040 A 
ATOM     69  C   UNL A   1      43.752  20.930  25.505  1.00  0.00     0.040 A 
ATOM     70  F   UNL A   1      44.347  23.160  25.883  1.00  0.00    -0.206 F 
ATOM     71  C   UNL A   1      42.953  19.822  25.761  1.00  0.00     0.006 A 
ENDBRANCH  50  64
BRANCH  51  72
ATOM     72  C   UNL A   1      41.072  29.937  32.421  1.00  0.00     0.057 A 
ATOM     73  C   UNL A   1      39.953  29.109  32.623  1.00  0.00     0.134 A 
ATOM     74  C   UNL A   1      40.954  31.264  32.851  1.00  0.00     0.134 A 
ATOM     75  F   UNL A   1      39.981  27.824  32.234  1.00  0.00    -0.206 F 
ATOM     76  C   UNL A   1      38.805  29.556  33.285  1.00  0.00     0.040 A 
ATOM     77  C   UNL A   1      39.803  31.729  33.499  1.00  0.00     0.040 A 
ATOM     78  F   UNL A   1      41.970  32.125  32.710  1.00  0.00    -0.206 F 
ATOM     79  C   UNL A   1      38.734  30.870  33.738  1.00  0.00     0.006 A 
ENDBRANCH  51  72
BRANCH  63  80
ATOM     80  C   UNL A   1      45.025  23.960  33.271  1.00  0.00     0.057 A 
ATOM     81  C   UNL A   1      44.355  22.833  33.759  1.00  0.00     0.134 A 
ATOM     82  C   UNL A   1      46.323  24.176  33.773  1.00  0.00     0.134 A 
ATOM     83  F   UNL A   1      43.084  22.579  33.414  1.00  0.00    -0.206 F 
ATOM     84  C   UNL A   1      44.960  21.942  34.652  1.00  0.00     0.040 A 
ATOM     85  C   UNL A   1      46.919  23.321  34.700  1.00  0.00     0.040 A 
ATOM     86  F   UNL A   1      47.062  25.222  33.374  1.00  0.00    -0.206 F 
ATOM     87  C   UNL A   1      46.242  22.189  35.131  1.00  0.00     0.006 A 
ENDBRANCH  63  80
ENDBRANCH  37  38
ENDBRANCH  30  32
ENDBRANCH  29  30
ENDBRANCH  28  29
ENDBRANCH  27  28
ENDBRANCH   1  27
TORSDOF 16
ENDMDL
MODEL 3
REMARK VINA RESULT:     -12.1      3.705      9.192
REMARK SMILES Cc1ccc(OCC(=O)NNC(=O)[C@H]2CCCC[C@@H]2C(=O)OCCOC(=O)c2ccc(-c3c4nc(c(-c5c(F)cccc5F)c5ccc([nH]5)c(-c5c(F)cccc5F)c5nc(c(-c6c(F)cccc6F)c6ccc3[nH]6)C=C5)C=C4)cc2)cc1
REMARK SMILES IDX 22 1 20 2 21 3 19 4 14 5 15 6 16 7 18 8 17 9 12 10 11 11
REMARK SMILES IDX 13 13 10 14 8 15 9 16 7 18 6 19 5 20 1 21 2 22 3 23 83 24
REMARK SMILES IDX 4 25 82 26 23 27 24 28 25 29 26 30 27 31 28 32 29 33 81 34
REMARK SMILES IDX 30 35 80 36 31 37 32 38 33 39 74 40 34 41 79 42 73 43 75 44
REMARK SMILES IDX 35 45 78 46 72 47 71 48 36 50 62 51 45 52 61 53 46 54 49 55
REMARK SMILES IDX 60 56 76 57 47 58 48 59 59 61 77 62 50 63 37 64 38 65 43 66
REMARK SMILES IDX 39 67 40 68 42 69 44 70 41 71 63 72 64 73 69 74 65 75 66 76
REMARK SMILES IDX 68 77 70 78 67 79 51 80 52 81 57 82 53 83 54 84 56 85 58 86
REMARK SMILES IDX 55 87
REMARK H PARENT 11 12 10 17 75 49 49 60
REMARK Flexibility Score: inf
ROOT
ATOM      1  O   UNL A   1      35.717  22.451  24.333  1.00  0.00    -0.462 OA
ENDROOT
BRANCH   1   2
ATOM      2  C   UNL A   1      34.911  21.402  24.673  1.00  0.00     0.309 C 
ATOM      3  O   UNL A   1      35.338  20.306  25.019  1.00  0.00    -0.252 OA
BRANCH   2   4
ATOM      4  C   UNL A   1      33.431  21.707  24.485  1.00  0.00     0.111 C 
ATOM      5  C   UNL A   1      33.159  23.215  24.299  1.00  0.00     0.094 C 
ATOM      6  C   UNL A   1      33.413  24.030  25.583  1.00  0.00     0.014 C 
ATOM      7  C   UNL A   1      32.783  23.437  26.845  1.00  0.00     0.001 C 
ATOM      8  C   UNL A   1      32.687  21.149  25.705  1.00  0.00     0.016 C 
ATOM      9  C   UNL A   1      32.967  21.931  26.991  1.00  0.00     0.001 C 
BRANCH   5  10
ATOM     10  C   UNL A   1      31.718  23.451  23.829  1.00  0.00     0.242 C 
ATOM     11  N   UNL A   1      31.463  24.209  22.723  1.00  0.00    -0.267 N 
ATOM     12  H   UNL A   1      30.516  24.384  22.516  1.00  0.00     0.191 HD
ATOM     13  O   UNL A   1      30.745  22.969  24.411  1.00  0.00    -0.273 OA
BRANCH  11  14
ATOM     14  N   UNL A   1      32.398  24.757  21.865  1.00  0.00    -0.265 N 
ATOM     15  C   UNL A   1      32.672  26.107  21.830  1.00  0.00     0.276 C 
ATOM     16  O   UNL A   1      33.583  26.527  21.116  1.00  0.00    -0.269 OA
ATOM     17  H   UNL A   1      32.887  24.160  21.254  1.00  0.00     0.191 HD
BRANCH  15  18
ATOM     18  C   UNL A   1      31.879  27.044  22.755  1.00  0.00     0.331 C 
BRANCH  18  19
ATOM     19  O   UNL A   1      31.975  26.783  24.145  1.00  0.00    -0.484 OA
BRANCH  19  20
ATOM     20  C   UNL A   1      32.457  27.777  24.949  1.00  0.00     0.120 A 
ATOM     21  C   UNL A   1      33.564  31.111  27.455  1.00  0.00     0.044 C 
ATOM     22  C   UNL A   1      33.194  29.960  26.568  1.00  0.00    -0.051 A 
ATOM     23  C   UNL A   1      31.997  29.987  25.844  1.00  0.00     0.007 A 
ATOM     24  C   UNL A   1      34.019  28.835  26.469  1.00  0.00     0.007 A 
ATOM     25  C   UNL A   1      31.636  28.903  25.041  1.00  0.00     0.047 A 
ATOM     26  C   UNL A   1      33.654  27.750  25.664  1.00  0.00     0.047 A 
ENDBRANCH  19  20
ENDBRANCH  18  19
ENDBRANCH  15  18
ENDBRANCH  11  14
ENDBRANCH   5  10
ENDBRANCH   2   4
ENDBRANCH   1   2
BRANCH   1  27
ATOM     27  C   UNL A   1      37.111  22.185  24.557  1.00  0.00     0.274 C 
BRANCH  27  28
ATOM     28  C   UNL A   1      37.660  22.826  25.834  1.00  0.00     0.275 C 
BRANCH  28  29
ATOM     29  O   UNL A   1      38.853  23.646  25.725  1.00  0.00    -0.458 OA
BRANCH  29  30
ATOM     30  C   UNL A   1      39.782  23.916  26.671  1.00  0.00     0.338 C 
ATOM     31  O   UNL A   1      40.747  23.193  26.879  1.00  0.00    -0.246 OA
BRANCH  30  32
ATOM     32  C   UNL A   1      39.664  25.187  27.387  1.00  0.00     0.060 A 
ATOM     33  C   UNL A   1      39.107  25.165  28.671  1.00  0.00     0.016 A 
ATOM     34  C   UNL A   1      40.149  26.367  26.823  1.00  0.00     0.016 A 
ATOM     35  C   UNL A   1      39.146  26.315  29.452  1.00  0.00     0.010 A 
ATOM     36  C   UNL A   1      40.217  27.501  27.615  1.00  0.00     0.010 A 
ATOM     37  C   UNL A   1      39.740  27.469  28.934  1.00  0.00    -0.014 A 
BRANCH  37  38
ATOM     38  C   UNL A   1      39.658  28.749  29.629  1.00  0.00     0.031 A 
ATOM     39  C   UNL A   1      38.605  29.761  29.395  1.00  0.00     0.074 A 
ATOM     40  C   UNL A   1      40.708  29.015  30.431  1.00  0.00     0.049 A 
ATOM     41  N   UNL A   1      38.819  31.034  29.477  1.00  0.00    -0.248 NA
ATOM     42  C   UNL A   1      37.233  29.435  29.009  1.00  0.00     0.031 C 
ATOM     43  C   UNL A   1      40.906  30.121  31.351  1.00  0.00     0.029 A 
ATOM     44  N   UNL A   1      41.964  28.399  30.330  1.00  0.00    -0.354 N 
ATOM     45  C   UNL A   1      37.603  31.671  29.377  1.00  0.00     0.074 A 
ATOM     46  C   UNL A   1      36.659  30.648  28.994  1.00  0.00     0.031 C 
ATOM     47  C   UNL A   1      42.230  30.281  31.531  1.00  0.00     0.029 A 
ATOM     48  C   UNL A   1      42.904  29.402  30.580  1.00  0.00     0.049 A 
ATOM     49  H   UNL A   1      42.145  27.453  30.125  1.00  0.00     0.167 HD
ATOM     50  C   UNL A   1      37.470  32.968  29.772  1.00  0.00     0.037 A 
ATOM     51  C   UNL A   1      43.763  29.808  29.599  1.00  0.00     0.037 A 
ATOM     52  C   UNL A   1      38.707  33.496  30.320  1.00  0.00     0.049 A 
ATOM     53  C   UNL A   1      43.722  31.292  29.342  1.00  0.00     0.074 A 
ATOM     54  C   UNL A   1      39.209  33.532  31.610  1.00  0.00     0.029 A 
ATOM     55  N   UNL A   1      39.764  33.790  29.480  1.00  0.00    -0.354 N 
ATOM     56  N   UNL A   1      42.685  32.042  29.585  1.00  0.00    -0.248 NA
ATOM     57  C   UNL A   1      44.823  32.030  28.725  1.00  0.00     0.031 C 
ATOM     58  C   UNL A   1      40.584  33.863  31.542  1.00  0.00     0.029 A 
ATOM     59  C   UNL A   1      40.911  34.032  30.211  1.00  0.00     0.049 A 
ATOM     60  H   UNL A   1      39.709  33.822  28.497  1.00  0.00     0.167 HD
ATOM     61  C   UNL A   1      42.990  33.335  29.261  1.00  0.00     0.074 A 
ATOM     62  C   UNL A   1      44.311  33.270  28.669  1.00  0.00     0.031 C 
ATOM     63  C   UNL A   1      42.141  34.366  29.526  1.00  0.00     0.037 A 
BRANCH  50  64
ATOM     64  C   UNL A   1      36.137  33.643  29.936  1.00  0.00     0.057 A 
ATOM     65  C   UNL A   1      35.403  34.084  28.818  1.00  0.00     0.134 A 
ATOM     66  C   UNL A   1      35.541  33.897  31.181  1.00  0.00     0.134 A 
ATOM     67  F   UNL A   1      35.827  33.866  27.567  1.00  0.00    -0.206 F 
ATOM     68  C   UNL A   1      34.205  34.798  28.930  1.00  0.00     0.040 A 
ATOM     69  C   UNL A   1      34.352  34.635  31.309  1.00  0.00     0.040 A 
ATOM     70  F   UNL A   1      36.091  33.438  32.316  1.00  0.00    -0.206 F 
ATOM     71  C   UNL A   1      33.686  35.100  30.180  1.00  0.00     0.006 A 
ENDBRANCH  50  64
BRANCH  51  72
ATOM     72  C   UNL A   1      44.076  28.809  28.536  1.00  0.00     0.057 A 
ATOM     73  C   UNL A   1      43.467  28.900  27.271  1.00  0.00     0.134 A 
ATOM     74  C   UNL A   1      45.116  27.882  28.664  1.00  0.00     0.134 A 
ATOM     75  F   UNL A   1      42.456  29.760  27.065  1.00  0.00    -0.206 F 
ATOM     76  C   UNL A   1      43.918  28.161  26.173  1.00  0.00     0.040 A 
ATOM     77  C   UNL A   1      45.565  27.123  27.576  1.00  0.00     0.040 A 
ATOM     78  F   UNL A   1      45.764  27.732  29.827  1.00  0.00    -0.206 F 
ATOM     79  C   UNL A   1      44.982  27.278  26.321  1.00  0.00     0.006 A 
ENDBRANCH  51  72
BRANCH  63  80
ATOM     80  C   UNL A   1      42.429  35.801  29.229  1.00  0.00     0.057 A 
ATOM     81  C   UNL A   1      41.933  36.467  28.103  1.00  0.00     0.134 A 
ATOM     82  C   UNL A   1      43.345  36.519  30.021  1.00  0.00     0.134 A 
ATOM     83  F   UNL A   1      41.122  35.848  27.233  1.00  0.00    -0.206 F 
ATOM     84  C   UNL A   1      42.283  37.790  27.812  1.00  0.00     0.040 A 
ATOM     85  C   UNL A   1      43.739  37.822  29.716  1.00  0.00     0.040 A 
ATOM     86  F   UNL A   1      43.884  35.983  31.127  1.00  0.00    -0.206 F 
ATOM     87  C   UNL A   1      43.195  38.468  28.615  1.00  0.00     0.006 A 
ENDBRANCH  63  80
ENDBRANCH  37  38
ENDBRANCH  30  32
ENDBRANCH  29  30
ENDBRANCH  28  29
ENDBRANCH  27  28
ENDBRANCH   1  27
TORSDOF 16
ENDMDL
