MODEL 1
REMARK VINA RESULT:     -10.6      0.000      0.000
REMARK SMILES O=C(OCCOC(=O)c1c(F)ccc(F)c1Br)c1ccc(-c2c3nc(c(-c4c(F)cccc4F)c4ccc([nH]4)c(-c4c(F)cccc4F)c4nc(c(-c5c(F)cccc5F)c5ccc2[nH]5)C=C4)C=C3)cc1
REMARK SMILES IDX 4 1 3 2 2 3 1 4 18 5 19 6 71 7 20 8 70 9 21 10 22 11 23 12
REMARK SMILES IDX 64 13 24 14 69 15 63 16 65 17 25 18 68 19 62 20 61 21 26 23
REMARK SMILES IDX 52 24 35 25 51 26 36 27 39 28 50 29 66 30 37 31 38 32 49 34
REMARK SMILES IDX 67 35 40 36 27 37 28 38 33 39 29 40 30 41 32 42 34 43 31 44
REMARK SMILES IDX 53 45 54 46 59 47 55 48 56 49 58 50 60 51 57 52 41 53 42 54
REMARK SMILES IDX 47 55 43 56 44 57 46 58 48 59 45 60 5 61 6 62 7 63 8 64 9 65
REMARK SMILES IDX 10 66 16 67 11 68 12 69 14 70 17 71 13 72 15 73
REMARK H PARENT 65 22 39 33
REMARK Flexibility Score: inf
ROOT
ATOM      1  C   UNL A   1      43.824  22.145  24.987  1.00  0.00     0.275 C 
ENDROOT
BRANCH   1   2
ATOM      2  O   UNL A   1      43.532  23.526  24.700  1.00  0.00    -0.458 OA
BRANCH   2   3
ATOM      3  C   UNL A   1      44.155  24.647  25.135  1.00  0.00     0.338 C 
ATOM      4  O   UNL A   1      45.276  24.914  24.708  1.00  0.00    -0.246 OA
BRANCH   3   5
ATOM      5  C   UNL A   1      43.616  25.503  26.234  1.00  0.00     0.060 A 
ATOM      6  C   UNL A   1      42.555  24.963  26.982  1.00  0.00     0.016 A 
ATOM      7  C   UNL A   1      44.095  26.764  26.594  1.00  0.00     0.016 A 
ATOM      8  C   UNL A   1      41.925  25.707  27.985  1.00  0.00     0.010 A 
ATOM      9  C   UNL A   1      43.469  27.512  27.598  1.00  0.00     0.010 A 
ATOM     10  C   UNL A   1      42.368  27.001  28.290  1.00  0.00    -0.014 A 
BRANCH  10  11
ATOM     11  C   UNL A   1      41.810  27.742  29.445  1.00  0.00     0.031 A 
ATOM     12  C   UNL A   1      40.690  28.733  29.300  1.00  0.00     0.074 A 
ATOM     13  C   UNL A   1      42.381  27.545  30.647  1.00  0.00     0.049 A 
ATOM     14  N   UNL A   1      39.974  29.301  30.237  1.00  0.00    -0.248 NA
ATOM     15  C   UNL A   1      40.287  29.110  27.940  1.00  0.00     0.031 C 
ATOM     16  C   UNL A   1      43.504  26.643  30.912  1.00  0.00     0.029 A 
ATOM     17  N   UNL A   1      42.127  28.128  31.860  1.00  0.00    -0.354 N 
ATOM     18  C   UNL A   1      38.970  30.000  29.580  1.00  0.00     0.074 A 
ATOM     19  C   UNL A   1      39.196  29.835  28.162  1.00  0.00     0.031 C 
ATOM     20  C   UNL A   1      43.872  26.766  32.195  1.00  0.00     0.029 A 
ATOM     21  C   UNL A   1      43.037  27.779  32.827  1.00  0.00     0.049 A 
ATOM     22  H   UNL A   1      41.370  28.735  32.023  1.00  0.00     0.167 HD
ATOM     23  C   UNL A   1      37.962  30.728  30.116  1.00  0.00     0.037 A 
ATOM     24  C   UNL A   1      43.207  28.267  34.067  1.00  0.00     0.037 A 
ATOM     25  C   UNL A   1      37.911  31.112  31.502  1.00  0.00     0.049 A 
ATOM     26  C   UNL A   1      42.247  29.309  34.569  1.00  0.00     0.074 A 
ATOM     27  C   UNL A   1      36.993  31.926  32.141  1.00  0.00     0.029 A 
ATOM     28  N   UNL A   1      38.888  30.797  32.434  1.00  0.00    -0.354 N 
ATOM     29  N   UNL A   1      41.184  29.802  33.982  1.00  0.00    -0.248 NA
ATOM     30  C   UNL A   1      42.509  29.860  35.904  1.00  0.00     0.031 C 
ATOM     31  C   UNL A   1      37.483  32.203  33.422  1.00  0.00     0.029 A 
ATOM     32  C   UNL A   1      38.652  31.482  33.612  1.00  0.00     0.049 A 
ATOM     33  H   UNL A   1      39.637  30.178  32.281  1.00  0.00     0.167 HD
ATOM     34  C   UNL A   1      40.623  30.686  34.894  1.00  0.00     0.074 A 
ATOM     35  C   UNL A   1      41.467  30.663  36.070  1.00  0.00     0.031 C 
ATOM     36  C   UNL A   1      39.502  31.440  34.774  1.00  0.00     0.037 A 
BRANCH  23  37
ATOM     37  C   UNL A   1      36.885  31.226  29.199  1.00  0.00     0.057 A 
ATOM     38  C   UNL A   1      36.858  32.559  28.770  1.00  0.00     0.134 A 
ATOM     39  C   UNL A   1      35.822  30.400  28.813  1.00  0.00     0.134 A 
ATOM     40  F   UNL A   1      37.846  33.401  29.109  1.00  0.00    -0.206 F 
ATOM     41  C   UNL A   1      35.806  33.055  27.998  1.00  0.00     0.040 A 
ATOM     42  C   UNL A   1      34.767  30.883  28.033  1.00  0.00     0.040 A 
ATOM     43  F   UNL A   1      35.790  29.112  29.188  1.00  0.00    -0.206 F 
ATOM     44  C   UNL A   1      34.755  32.217  27.630  1.00  0.00     0.006 A 
ENDBRANCH  23  37
BRANCH  24  45
ATOM     45  C   UNL A   1      44.360  27.825  34.889  1.00  0.00     0.057 A 
ATOM     46  C   UNL A   1      45.594  28.488  34.819  1.00  0.00     0.134 A 
ATOM     47  C   UNL A   1      44.252  26.760  35.788  1.00  0.00     0.134 A 
ATOM     48  F   UNL A   1      45.766  29.513  33.971  1.00  0.00    -0.206 F 
ATOM     49  C   UNL A   1      46.676  28.109  35.613  1.00  0.00     0.040 A 
ATOM     50  C   UNL A   1      45.317  26.390  36.612  1.00  0.00     0.040 A 
ATOM     51  F   UNL A   1      43.094  26.095  35.910  1.00  0.00    -0.206 F 
ATOM     52  C   UNL A   1      46.534  27.065  36.524  1.00  0.00     0.006 A 
ENDBRANCH  24  45
BRANCH  36  53
ATOM     53  C   UNL A   1      39.096  32.257  35.962  1.00  0.00     0.057 A 
ATOM     54  C   UNL A   1      38.227  31.721  36.921  1.00  0.00     0.134 A 
ATOM     55  C   UNL A   1      39.513  33.582  36.135  1.00  0.00     0.134 A 
ATOM     56  F   UNL A   1      37.784  30.459  36.808  1.00  0.00    -0.206 F 
ATOM     57  C   UNL A   1      37.779  32.475  38.004  1.00  0.00     0.040 A 
ATOM     58  C   UNL A   1      39.098  34.338  37.231  1.00  0.00     0.040 A 
ATOM     59  F   UNL A   1      40.357  34.150  35.259  1.00  0.00    -0.206 F 
ATOM     60  C   UNL A   1      38.219  33.787  38.164  1.00  0.00     0.006 A 
ENDBRANCH  36  53
ENDBRANCH  10  11
ENDBRANCH   3   5
ENDBRANCH   2   3
ENDBRANCH   1   2
BRANCH   1  61
ATOM     61  C   UNL A   1      42.834  21.467  25.935  1.00  0.00     0.275 C 
BRANCH  61  62
ATOM     62  O   UNL A   1      41.504  21.988  25.800  1.00  0.00    -0.458 OA
BRANCH  62  63
ATOM     63  C   UNL A   1      40.613  21.605  26.755  1.00  0.00     0.342 C 
ATOM     64  O   UNL A   1      40.825  21.453  27.937  1.00  0.00    -0.246 OA
BRANCH  63  65
ATOM     65  C   UNL A   1      39.291  21.451  26.126  1.00  0.00     0.112 A 
ATOM     66  C   UNL A   1      38.944  20.201  25.612  1.00  0.00     0.139 A 
ATOM     67  C   UNL A   1      38.387  22.513  26.021  1.00  0.00     0.071 A 
ATOM     68  F   UNL A   1      39.780  19.159  25.732  1.00  0.00    -0.206 F 
ATOM     69  C   UNL A   1      37.728  20.005  24.956  1.00  0.00     0.043 A 
ATOM     70  C   UNL A   1      37.184  22.315  25.332  1.00  0.00     0.138 A 
ATOM     71  Br  UNL A   1      38.746  24.244  26.710  1.00  0.00    -0.047 Br
ATOM     72  C   UNL A   1      36.855  21.074  24.791  1.00  0.00     0.043 A 
ATOM     73  F   UNL A   1      36.326  23.328  25.146  1.00  0.00    -0.206 F 
ENDBRANCH  63  65
ENDBRANCH  62  63
ENDBRANCH  61  62
ENDBRANCH   1  61
TORSDOF 11
ENDMDL
MODEL 2
REMARK VINA RESULT:     -10.5      0.461      6.607
REMARK SMILES O=C(OCCOC(=O)c1c(F)ccc(F)c1Br)c1ccc(-c2c3nc(c(-c4c(F)cccc4F)c4ccc([nH]4)c(-c4c(F)cccc4F)c4nc(c(-c5c(F)cccc5F)c5ccc2[nH]5)C=C4)C=C3)cc1
REMARK SMILES IDX 4 1 3 2 2 3 1 4 18 5 19 6 71 7 20 8 70 9 21 10 22 11 23 12
REMARK SMILES IDX 64 13 24 14 69 15 63 16 65 17 25 18 68 19 62 20 61 21 26 23
REMARK SMILES IDX 52 24 35 25 51 26 36 27 39 28 50 29 66 30 37 31 38 32 49 34
REMARK SMILES IDX 67 35 40 36 27 37 28 38 33 39 29 40 30 41 32 42 34 43 31 44
REMARK SMILES IDX 53 45 54 46 59 47 55 48 56 49 58 50 60 51 57 52 41 53 42 54
REMARK SMILES IDX 47 55 43 56 44 57 46 58 48 59 45 60 5 61 6 62 7 63 8 64 9 65
REMARK SMILES IDX 10 66 16 67 11 68 12 69 14 70 17 71 13 72 15 73
REMARK H PARENT 65 22 39 33
REMARK Flexibility Score: inf
ROOT
ATOM      1  C   UNL A   1      43.787  21.826  25.363  1.00  0.00     0.275 C 
ENDROOT
BRANCH   1   2
ATOM      2  O   UNL A   1      43.480  23.164  24.925  1.00  0.00    -0.458 OA
BRANCH   2   3
ATOM      3  C   UNL A   1      44.120  24.327  25.194  1.00  0.00     0.338 C 
ATOM      4  O   UNL A   1      45.187  24.567  24.632  1.00  0.00    -0.246 OA
BRANCH   3   5
ATOM      5  C   UNL A   1      43.676  25.273  26.261  1.00  0.00     0.060 A 
ATOM      6  C   UNL A   1      42.758  24.769  27.198  1.00  0.00     0.016 A 
ATOM      7  C   UNL A   1      44.120  26.587  26.420  1.00  0.00     0.016 A 
ATOM      8  C   UNL A   1      42.218  25.588  28.195  1.00  0.00     0.010 A 
ATOM      9  C   UNL A   1      43.584  27.411  27.417  1.00  0.00     0.010 A 
ATOM     10  C   UNL A   1      42.616  26.928  28.302  1.00  0.00    -0.014 A 
BRANCH  10  11
ATOM     11  C   UNL A   1      42.168  27.765  29.440  1.00  0.00     0.031 A 
ATOM     12  C   UNL A   1      42.779  27.657  30.807  1.00  0.00     0.074 A 
ATOM     13  C   UNL A   1      41.136  28.602  29.228  1.00  0.00     0.049 A 
ATOM     14  N   UNL A   1      42.628  28.454  31.835  1.00  0.00    -0.248 NA
ATOM     15  C   UNL A   1      43.708  26.547  31.052  1.00  0.00     0.031 C 
ATOM     16  C   UNL A   1      40.428  28.767  27.956  1.00  0.00     0.029 A 
ATOM     17  N   UNL A   1      40.474  29.435  30.090  1.00  0.00    -0.354 N 
ATOM     18  C   UNL A   1      43.527  28.011  32.797  1.00  0.00     0.074 A 
ATOM     19  C   UNL A   1      44.184  26.842  32.257  1.00  0.00     0.031 C 
ATOM     20  C   UNL A   1      39.402  29.611  28.133  1.00  0.00     0.029 A 
ATOM     21  C   UNL A   1      39.362  30.015  29.533  1.00  0.00     0.049 A 
ATOM     22  H   UNL A   1      40.766  29.602  31.015  1.00  0.00     0.167 HD
ATOM     23  C   UNL A   1      43.767  28.527  34.026  1.00  0.00     0.037 A 
ATOM     24  C   UNL A   1      38.391  30.745  30.106  1.00  0.00     0.037 A 
ATOM     25  C   UNL A   1      42.921  29.507  34.653  1.00  0.00     0.049 A 
ATOM     26  C   UNL A   1      38.508  31.079  31.567  1.00  0.00     0.074 A 
ATOM     27  C   UNL A   1      43.006  30.034  35.929  1.00  0.00     0.029 A 
ATOM     28  N   UNL A   1      41.764  30.018  34.083  1.00  0.00    -0.354 N 
ATOM     29  N   UNL A   1      39.483  30.805  32.400  1.00  0.00    -0.248 NA
ATOM     30  C   UNL A   1      37.394  31.823  32.166  1.00  0.00     0.031 C 
ATOM     31  C   UNL A   1      41.837  30.764  36.172  1.00  0.00     0.029 A 
ATOM     32  C   UNL A   1      41.074  30.771  35.015  1.00  0.00     0.049 A 
ATOM     33  H   UNL A   1      41.478  29.867  33.154  1.00  0.00     0.167 HD
ATOM     34  C   UNL A   1      39.122  31.384  33.609  1.00  0.00     0.074 A 
ATOM     35  C   UNL A   1      37.837  32.018  33.400  1.00  0.00     0.031 C 
ATOM     36  C   UNL A   1      39.799  31.400  34.784  1.00  0.00     0.037 A 
BRANCH  23  37
ATOM     37  C   UNL A   1      44.930  27.989  34.803  1.00  0.00     0.057 A 
ATOM     38  C   UNL A   1      46.211  28.536  34.662  1.00  0.00     0.134 A 
ATOM     39  C   UNL A   1      44.794  26.865  35.629  1.00  0.00     0.134 A 
ATOM     40  F   UNL A   1      46.408  29.611  33.884  1.00  0.00    -0.206 F 
ATOM     41  C   UNL A   1      47.317  27.978  35.306  1.00  0.00     0.040 A 
ATOM     42  C   UNL A   1      45.892  26.303  36.285  1.00  0.00     0.040 A 
ATOM     43  F   UNL A   1      43.593  26.294  35.808  1.00  0.00    -0.206 F 
ATOM     44  C   UNL A   1      47.160  26.857  36.118  1.00  0.00     0.006 A 
ENDBRANCH  23  37
BRANCH  24  45
ATOM     45  C   UNL A   1      37.201  31.152  29.318  1.00  0.00     0.057 A 
ATOM     46  C   UNL A   1      37.101  32.441  28.775  1.00  0.00     0.134 A 
ATOM     47  C   UNL A   1      36.157  30.259  29.057  1.00  0.00     0.134 A 
ATOM     48  F   UNL A   1      38.065  33.347  28.995  1.00  0.00    -0.206 F 
ATOM     49  C   UNL A   1      36.008  32.826  28.001  1.00  0.00     0.040 A 
ATOM     50  C   UNL A   1      35.072  30.622  28.257  1.00  0.00     0.040 A 
ATOM     51  F   UNL A   1      36.202  29.009  29.539  1.00  0.00    -0.206 F 
ATOM     52  C   UNL A   1      34.995  31.909  27.727  1.00  0.00     0.006 A 
ENDBRANCH  24  45
BRANCH  36  53
ATOM     53  C   UNL A   1      39.190  32.171  35.915  1.00  0.00     0.057 A 
ATOM     54  C   UNL A   1      39.610  33.481  36.180  1.00  0.00     0.134 A 
ATOM     55  C   UNL A   1      38.234  31.611  36.772  1.00  0.00     0.134 A 
ATOM     56  F   UNL A   1      40.529  34.071  35.401  1.00  0.00    -0.206 F 
ATOM     57  C   UNL A   1      39.111  34.203  37.262  1.00  0.00     0.040 A 
ATOM     58  C   UNL A   1      37.703  32.334  37.840  1.00  0.00     0.040 A 
ATOM     59  F   UNL A   1      37.780  30.366  36.563  1.00  0.00    -0.206 F 
ATOM     60  C   UNL A   1      38.150  33.631  38.093  1.00  0.00     0.006 A 
ENDBRANCH  36  53
ENDBRANCH  10  11
ENDBRANCH   3   5
ENDBRANCH   2   3
ENDBRANCH   1   2
BRANCH   1  61
ATOM     61  C   UNL A   1      42.655  21.123  26.110  1.00  0.00     0.275 C 
BRANCH  61  62
ATOM     62  O   UNL A   1      41.365  21.662  25.781  1.00  0.00    -0.458 OA
BRANCH  62  63
ATOM     63  C   UNL A   1      40.384  21.466  26.703  1.00  0.00     0.342 C 
ATOM     64  O   UNL A   1      40.521  21.263  27.889  1.00  0.00    -0.246 OA
BRANCH  63  65
ATOM     65  C   UNL A   1      39.079  21.599  26.033  1.00  0.00     0.112 A 
ATOM     66  C   UNL A   1      38.557  20.485  25.375  1.00  0.00     0.139 A 
ATOM     67  C   UNL A   1      38.363  22.800  26.028  1.00  0.00     0.071 A 
ATOM     68  F   UNL A   1      39.209  19.314  25.395  1.00  0.00    -0.206 F 
ATOM     69  C   UNL A   1      37.352  20.563  24.676  1.00  0.00     0.043 A 
ATOM     70  C   UNL A   1      37.172  22.876  25.297  1.00  0.00     0.138 A 
ATOM     71  Br  UNL A   1      38.968  24.365  26.915  1.00  0.00    -0.047 Br
ATOM     72  C   UNL A   1      36.669  21.772  24.613  1.00  0.00     0.043 A 
ATOM     73  F   UNL A   1      36.496  24.031  25.207  1.00  0.00    -0.206 F 
ENDBRANCH  63  65
ENDBRANCH  62  63
ENDBRANCH  61  62
ENDBRANCH   1  61
TORSDOF 11
ENDMDL
MODEL 3
REMARK VINA RESULT:     -10.5      4.466      8.799
REMARK SMILES O=C(OCCOC(=O)c1c(F)ccc(F)c1Br)c1ccc(-c2c3nc(c(-c4c(F)cccc4F)c4ccc([nH]4)c(-c4c(F)cccc4F)c4nc(c(-c5c(F)cccc5F)c5ccc2[nH]5)C=C4)C=C3)cc1
REMARK SMILES IDX 4 1 3 2 2 3 1 4 18 5 19 6 71 7 20 8 70 9 21 10 22 11 23 12
REMARK SMILES IDX 64 13 24 14 69 15 63 16 65 17 25 18 68 19 62 20 61 21 26 23
REMARK SMILES IDX 52 24 35 25 51 26 36 27 39 28 50 29 66 30 37 31 38 32 49 34
REMARK SMILES IDX 67 35 40 36 27 37 28 38 33 39 29 40 30 41 32 42 34 43 31 44
REMARK SMILES IDX 53 45 54 46 59 47 55 48 56 49 58 50 60 51 57 52 41 53 42 54
REMARK SMILES IDX 47 55 43 56 44 57 46 58 48 59 45 60 5 61 6 62 7 63 8 64 9 65
REMARK SMILES IDX 10 66 16 67 11 68 12 69 14 70 17 71 13 72 15 73
REMARK H PARENT 65 22 39 33
REMARK Flexibility Score: inf
ROOT
ATOM      1  C   UNL A   1      31.405  32.245  26.882  1.00  0.00     0.275 C 
ENDROOT
BRANCH   1   2
ATOM      2  O   UNL A   1      32.278  33.390  26.920  1.00  0.00    -0.458 OA
BRANCH   2   3
ATOM      3  C   UNL A   1      32.917  33.951  27.974  1.00  0.00     0.338 C 
ATOM      4  O   UNL A   1      32.530  35.037  28.401  1.00  0.00    -0.246 OA
BRANCH   3   5
ATOM      5  C   UNL A   1      34.175  33.393  28.555  1.00  0.00     0.060 A 
ATOM      6  C   UNL A   1      34.027  32.551  29.670  1.00  0.00     0.016 A 
ATOM      7  C   UNL A   1      35.464  33.610  28.065  1.00  0.00     0.016 A 
ATOM      8  C   UNL A   1      35.141  32.033  30.339  1.00  0.00     0.010 A 
ATOM      9  C   UNL A   1      36.583  33.093  28.730  1.00  0.00     0.010 A 
ATOM     10  C   UNL A   1      36.435  32.316  29.882  1.00  0.00    -0.014 A 
BRANCH  10  11
ATOM     11  C   UNL A   1      37.615  31.657  30.488  1.00  0.00     0.031 A 
ATOM     12  C   UNL A   1      38.316  30.500  29.833  1.00  0.00     0.074 A 
ATOM     13  C   UNL A   1      38.020  32.091  31.696  1.00  0.00     0.049 A 
ATOM     14  N   UNL A   1      39.467  29.959  30.143  1.00  0.00    -0.248 NA
ATOM     15  C   UNL A   1      37.677  29.895  28.658  1.00  0.00     0.031 C 
ATOM     16  C   UNL A   1      37.396  33.176  32.456  1.00  0.00     0.029 A 
ATOM     17  N   UNL A   1      39.020  31.639  32.515  1.00  0.00    -0.354 N 
ATOM     18  C   UNL A   1      39.740  29.039  29.139  1.00  0.00     0.074 A 
ATOM     19  C   UNL A   1      38.612  29.051  28.235  1.00  0.00     0.031 C 
ATOM     20  C   UNL A   1      37.998  33.276  33.649  1.00  0.00     0.029 A 
ATOM     21  C   UNL A   1      39.020  32.242  33.748  1.00  0.00     0.049 A 
ATOM     22  H   UNL A   1      39.673  30.953  32.247  1.00  0.00     0.167 HD
ATOM     23  C   UNL A   1      40.828  28.246  28.998  1.00  0.00     0.037 A 
ATOM     24  C   UNL A   1      39.730  31.950  34.851  1.00  0.00     0.037 A 
ATOM     25  C   UNL A   1      41.801  28.043  30.037  1.00  0.00     0.049 A 
ATOM     26  C   UNL A   1      40.753  30.852  34.778  1.00  0.00     0.074 A 
ATOM     27  C   UNL A   1      42.892  27.192  30.047  1.00  0.00     0.029 A 
ATOM     28  N   UNL A   1      41.728  28.617  31.298  1.00  0.00    -0.354 N 
ATOM     29  N   UNL A   1      41.122  30.134  33.745  1.00  0.00    -0.248 NA
ATOM     30  C   UNL A   1      41.460  30.524  36.022  1.00  0.00     0.031 C 
ATOM     31  C   UNL A   1      43.401  27.160  31.351  1.00  0.00     0.029 A 
ATOM     32  C   UNL A   1      42.689  28.064  32.123  1.00  0.00     0.049 A 
ATOM     33  H   UNL A   1      41.088  29.316  31.564  1.00  0.00     0.167 HD
ATOM     34  C   UNL A   1      42.135  29.304  34.202  1.00  0.00     0.074 A 
ATOM     35  C   UNL A   1      42.319  29.604  35.606  1.00  0.00     0.031 C 
ATOM     36  C   UNL A   1      42.859  28.383  33.518  1.00  0.00     0.037 A 
BRANCH  23  37
ATOM     37  C   UNL A   1      40.981  27.479  27.719  1.00  0.00     0.057 A 
ATOM     38  C   UNL A   1      40.499  26.170  27.597  1.00  0.00     0.134 A 
ATOM     39  C   UNL A   1      41.689  28.012  26.634  1.00  0.00     0.134 A 
ATOM     40  F   UNL A   1      39.815  25.603  28.601  1.00  0.00    -0.206 F 
ATOM     41  C   UNL A   1      40.725  25.414  26.445  1.00  0.00     0.040 A 
ATOM     42  C   UNL A   1      41.915  27.268  25.472  1.00  0.00     0.040 A 
ATOM     43  F   UNL A   1      42.175  29.262  26.686  1.00  0.00    -0.206 F 
ATOM     44  C   UNL A   1      41.438  25.962  25.379  1.00  0.00     0.006 A 
ENDBRANCH  23  37
BRANCH  24  45
ATOM     45  C   UNL A   1      39.455  32.661  36.123  1.00  0.00     0.057 A 
ATOM     46  C   UNL A   1      38.494  32.183  37.025  1.00  0.00     0.134 A 
ATOM     47  C   UNL A   1      40.164  33.810  36.487  1.00  0.00     0.134 A 
ATOM     48  F   UNL A   1      37.773  31.090  36.732  1.00  0.00    -0.206 F 
ATOM     49  C   UNL A   1      38.251  32.818  38.242  1.00  0.00     0.040 A 
ATOM     50  C   UNL A   1      39.954  34.437  37.716  1.00  0.00     0.040 A 
ATOM     51  F   UNL A   1      41.105  34.309  35.672  1.00  0.00    -0.206 F 
ATOM     52  C   UNL A   1      38.993  33.942  38.597  1.00  0.00     0.006 A 
ENDBRANCH  24  45
BRANCH  36  53
ATOM     53  C   UNL A   1      43.949  27.675  34.264  1.00  0.00     0.057 A 
ATOM     54  C   UNL A   1      45.238  28.220  34.307  1.00  0.00     0.134 A 
ATOM     55  C   UNL A   1      43.745  26.440  34.891  1.00  0.00     0.134 A 
ATOM     56  F   UNL A   1      45.501  29.397  33.719  1.00  0.00    -0.206 F 
ATOM     57  C   UNL A   1      46.290  27.557  34.938  1.00  0.00     0.040 A 
ATOM     58  C   UNL A   1      44.781  25.781  35.553  1.00  0.00     0.040 A 
ATOM     59  F   UNL A   1      42.529  25.873  34.897  1.00  0.00    -0.206 F 
ATOM     60  C   UNL A   1      46.061  26.336  35.568  1.00  0.00     0.006 A 
ENDBRANCH  36  53
ENDBRANCH  10  11
ENDBRANCH   3   5
ENDBRANCH   2   3
ENDBRANCH   1   2
BRANCH   1  61
ATOM     61  C   UNL A   1      32.089  30.933  26.501  1.00  0.00     0.275 C 
BRANCH  61  62
ATOM     62  O   UNL A   1      31.412  30.252  25.434  1.00  0.00    -0.458 OA
BRANCH  62  63
ATOM     63  C   UNL A   1      32.106  29.250  24.830  1.00  0.00     0.342 C 
ATOM     64  O   UNL A   1      33.180  29.331  24.276  1.00  0.00    -0.246 OA
BRANCH  63  65
ATOM     65  C   UNL A   1      31.359  27.993  25.003  1.00  0.00     0.112 A 
ATOM     66  C   UNL A   1      31.741  27.133  26.034  1.00  0.00     0.139 A 
ATOM     67  C   UNL A   1      30.298  27.635  24.165  1.00  0.00     0.071 A 
ATOM     68  F   UNL A   1      32.733  27.471  26.871  1.00  0.00    -0.206 F 
ATOM     69  C   UNL A   1      31.108  25.903  26.216  1.00  0.00     0.043 A 
ATOM     70  C   UNL A   1      29.692  26.384  24.336  1.00  0.00     0.138 A 
ATOM     71  Br  UNL A   1      29.681  28.741  22.753  1.00  0.00    -0.047 Br
ATOM     72  C   UNL A   1      30.096  25.514  25.345  1.00  0.00     0.043 A 
ATOM     73  F   UNL A   1      28.722  25.975  23.505  1.00  0.00    -0.206 F 
ENDBRANCH  63  65
ENDBRANCH  62  63
ENDBRANCH  61  62
ENDBRANCH   1  61
TORSDOF 11
ENDMDL
