MODEL 1
REMARK VINA RESULT:     -11.4      0.000      0.000
REMARK SMILES CC(C)C[C@@H]([NH2+][C@H]1CCOC2(CCOCC2)C1)C(=O)OCCOC(=O)c1ccc(-c2c3nc(c(-c4c(F)cccc4F)c4ccc([nH]4)c(-c4c(F)cccc4F)c4nc(c(-c5c(F)cccc5F)c5ccc2[nH]5)C=C4)C=C3)cc1
REMARK SMILES IDX 21 1 20 2 18 3 19 4 5 5 4 6 2 7 1 8 3 9 6 10 7 13 8 14 17 15
REMARK SMILES IDX 9 16 11 17 10 18 12 19 16 20 13 21 15 22 14 23 22 24 23 25
REMARK SMILES IDX 24 26 25 27 26 28 27 29 79 30 28 31 78 32 29 33 30 34 31 35
REMARK SMILES IDX 72 36 32 37 77 38 71 39 73 40 33 41 76 42 70 43 69 44 34 46
REMARK SMILES IDX 60 47 43 48 59 49 44 50 47 51 58 52 74 53 45 54 46 55 57 57
REMARK SMILES IDX 75 58 48 59 35 60 36 61 41 62 37 63 38 64 40 65 42 66 39 67
REMARK SMILES IDX 61 68 62 69 67 70 63 71 64 72 66 73 68 74 65 75 49 76 50 77
REMARK SMILES IDX 55 78 51 79 52 80 54 81 56 82 53 83
REMARK H PARENT 6 11 6 12 73 45 47 56
REMARK Flexibility Score: inf
ROOT
ATOM      1  C   UNL A   1      31.848  27.605  26.334  1.00  0.00     0.274 C 
ENDROOT
BRANCH   1   2
ATOM      2  O   UNL A   1      30.838  26.778  26.949  1.00  0.00    -0.458 OA
BRANCH   2   3
ATOM      3  C   UNL A   1      30.420  25.752  26.163  1.00  0.00     0.364 C 
ATOM      4  O   UNL A   1      29.942  24.721  26.630  1.00  0.00    -0.245 OA
BRANCH   3   5
ATOM      5  C   UNL A   1      30.601  25.963  24.644  1.00  0.00     0.293 C 
BRANCH   5   6
ATOM      6  C   UNL A   1      30.877  24.591  23.979  1.00  0.00     0.080 C 
BRANCH   6   7
ATOM      7  C   UNL A   1      32.003  24.531  22.924  1.00  0.00    -0.011 C 
ATOM      8  C   UNL A   1      33.218  25.383  23.294  1.00  0.00     0.007 C 
ATOM      9  C   UNL A   1      32.458  23.074  22.750  1.00  0.00     0.007 C 
ENDBRANCH   6   7
ENDBRANCH   5   6
BRANCH   5  10
ATOM     10  N   UNL A   1      29.468  26.695  24.027  1.00  0.00    -0.332 N 
ATOM     11  H   UNL A   1      28.734  26.761  24.733  1.00  0.00     0.347 HD
ATOM     12  H   UNL A   1      29.250  26.151  23.193  1.00  0.00     0.347 HD
BRANCH  10  13
ATOM     13  C   UNL A   1      29.697  28.072  23.506  1.00  0.00     0.188 C 
ATOM     14  C   UNL A   1      30.969  28.306  22.686  1.00  0.00     0.093 C 
ATOM     15  C   UNL A   1      28.492  28.645  22.727  1.00  0.00     0.100 C 
ATOM     16  C   UNL A   1      31.133  29.703  22.138  1.00  0.00     0.167 C 
ATOM     17  C   UNL A   1      28.767  30.098  22.255  1.00  0.00     0.078 C 
ATOM     18  O   UNL A   1      29.961  30.112  21.456  1.00  0.00    -0.374 OA
ATOM     19  C   UNL A   1      28.871  31.096  23.429  1.00  0.00     0.064 C 
ATOM     20  C   UNL A   1      27.654  30.600  21.318  1.00  0.00     0.064 C 
ATOM     21  C   UNL A   1      29.104  32.507  22.903  1.00  0.00     0.163 C 
ATOM     22  C   UNL A   1      27.926  32.048  20.904  1.00  0.00     0.163 C 
ATOM     23  O   UNL A   1      28.028  32.896  22.051  1.00  0.00    -0.381 OA
ENDBRANCH  10  13
ENDBRANCH   5  10
ENDBRANCH   3   5
ENDBRANCH   2   3
ENDBRANCH   1   2
BRANCH   1  24
ATOM     24  C   UNL A   1      31.776  29.096  26.722  1.00  0.00     0.275 C 
BRANCH  24  25
ATOM     25  O   UNL A   1      32.860  29.896  26.199  1.00  0.00    -0.458 OA
BRANCH  25  26
ATOM     26  C   UNL A   1      33.190  30.988  26.935  1.00  0.00     0.338 C 
ATOM     27  O   UNL A   1      32.455  31.914  27.230  1.00  0.00    -0.246 OA
BRANCH  26  28
ATOM     28  C   UNL A   1      34.542  30.837  27.524  1.00  0.00     0.060 A 
ATOM     29  C   UNL A   1      35.018  29.536  27.743  1.00  0.00     0.016 A 
ATOM     30  C   UNL A   1      35.306  31.934  27.916  1.00  0.00     0.016 A 
ATOM     31  C   UNL A   1      36.262  29.317  28.330  1.00  0.00     0.010 A 
ATOM     32  C   UNL A   1      36.539  31.716  28.546  1.00  0.00     0.010 A 
ATOM     33  C   UNL A   1      37.016  30.409  28.764  1.00  0.00    -0.014 A 
BRANCH  33  34
ATOM     34  C   UNL A   1      38.237  30.190  29.572  1.00  0.00     0.031 A 
ATOM     35  C   UNL A   1      39.299  29.278  29.037  1.00  0.00     0.074 A 
ATOM     36  C   UNL A   1      38.394  30.784  30.767  1.00  0.00     0.049 A 
ATOM     37  N   UNL A   1      40.349  28.781  29.638  1.00  0.00    -0.248 NA
ATOM     38  C   UNL A   1      39.152  28.867  27.632  1.00  0.00     0.031 C 
ATOM     39  C   UNL A   1      37.475  31.756  31.355  1.00  0.00     0.029 A 
ATOM     40  N   UNL A   1      39.374  30.623  31.715  1.00  0.00    -0.354 N 
ATOM     41  C   UNL A   1      40.968  27.970  28.696  1.00  0.00     0.074 A 
ATOM     42  C   UNL A   1      40.180  28.044  27.486  1.00  0.00     0.031 C 
ATOM     43  C   UNL A   1      37.911  32.072  32.586  1.00  0.00     0.029 A 
ATOM     44  C   UNL A   1      39.106  31.286  32.887  1.00  0.00     0.049 A 
ATOM     45  H   UNL A   1      40.187  30.088  31.569  1.00  0.00     0.167 HD
ATOM     46  C   UNL A   1      42.086  27.221  28.839  1.00  0.00     0.037 A 
ATOM     47  C   UNL A   1      39.723  31.218  34.084  1.00  0.00     0.037 A 
ATOM     48  C   UNL A   1      42.865  27.159  30.047  1.00  0.00     0.049 A 
ATOM     49  C   UNL A   1      40.918  30.319  34.250  1.00  0.00     0.074 A 
ATOM     50  C   UNL A   1      44.024  26.443  30.291  1.00  0.00     0.029 A 
ATOM     51  N   UNL A   1      42.556  27.834  31.218  1.00  0.00    -0.354 N 
ATOM     52  N   UNL A   1      41.495  29.541  33.366  1.00  0.00    -0.248 NA
ATOM     53  C   UNL A   1      41.544  30.281  35.580  1.00  0.00     0.031 C 
ATOM     54  C   UNL A   1      44.387  26.646  31.627  1.00  0.00     0.029 A 
ATOM     55  C   UNL A   1      43.484  27.530  32.199  1.00  0.00     0.049 A 
ATOM     56  H   UNL A   1      41.789  28.440  31.335  1.00  0.00     0.167 HD
ATOM     57  C   UNL A   1      42.562  28.939  34.023  1.00  0.00     0.074 A 
ATOM     58  C   UNL A   1      42.554  29.445  35.379  1.00  0.00     0.031 C 
ATOM     59  C   UNL A   1      43.466  28.050  33.543  1.00  0.00     0.037 A 
BRANCH  46  60
ATOM     60  C   UNL A   1      42.489  26.364  27.676  1.00  0.00     0.057 A 
ATOM     61  C   UNL A   1      43.354  26.820  26.674  1.00  0.00     0.134 A 
ATOM     62  C   UNL A   1      41.992  25.059  27.557  1.00  0.00     0.134 A 
ATOM     63  F   UNL A   1      43.850  28.065  26.719  1.00  0.00    -0.206 F 
ATOM     64  C   UNL A   1      43.686  26.021  25.578  1.00  0.00     0.040 A 
ATOM     65  C   UNL A   1      42.338  24.242  26.480  1.00  0.00     0.040 A 
ATOM     66  F   UNL A   1      41.160  24.558  28.483  1.00  0.00    -0.206 F 
ATOM     67  C   UNL A   1      43.180  24.725  25.482  1.00  0.00     0.006 A 
ENDBRANCH  46  60
BRANCH  47  68
ATOM     68  C   UNL A   1      39.176  31.983  35.232  1.00  0.00     0.057 A 
ATOM     69  C   UNL A   1      39.472  33.338  35.412  1.00  0.00     0.134 A 
ATOM     70  C   UNL A   1      38.328  31.377  36.169  1.00  0.00     0.134 A 
ATOM     71  F   UNL A   1      40.298  33.966  34.564  1.00  0.00    -0.206 F 
ATOM     72  C   UNL A   1      38.947  34.063  36.484  1.00  0.00     0.040 A 
ATOM     73  C   UNL A   1      37.779  32.095  37.231  1.00  0.00     0.040 A 
ATOM     74  F   UNL A   1      38.009  30.079  36.052  1.00  0.00    -0.206 F 
ATOM     75  C   UNL A   1      38.090  33.443  37.392  1.00  0.00     0.006 A 
ENDBRANCH  47  68
BRANCH  59  76
ATOM     76  C   UNL A   1      44.551  27.593  34.474  1.00  0.00     0.057 A 
ATOM     77  C   UNL A   1      44.426  26.426  35.239  1.00  0.00     0.134 A 
ATOM     78  C   UNL A   1      45.765  28.289  34.546  1.00  0.00     0.134 A 
ATOM     79  F   UNL A   1      43.284  25.722  35.223  1.00  0.00    -0.206 F 
ATOM     80  C   UNL A   1      45.468  25.973  36.048  1.00  0.00     0.040 A 
ATOM     81  C   UNL A   1      46.822  27.833  35.334  1.00  0.00     0.040 A 
ATOM     82  F   UNL A   1      45.950  29.409  33.830  1.00  0.00    -0.206 F 
ATOM     83  C   UNL A   1      46.674  26.672  36.089  1.00  0.00     0.006 A 
ENDBRANCH  59  76
ENDBRANCH  33  34
ENDBRANCH  26  28
ENDBRANCH  25  26
ENDBRANCH  24  25
ENDBRANCH   1  24
TORSDOF 15
ENDMDL
MODEL 2
REMARK VINA RESULT:     -11.4      0.900      2.075
REMARK SMILES CC(C)C[C@@H]([NH2+][C@H]1CCOC2(CCOCC2)C1)C(=O)OCCOC(=O)c1ccc(-c2c3nc(c(-c4c(F)cccc4F)c4ccc([nH]4)c(-c4c(F)cccc4F)c4nc(c(-c5c(F)cccc5F)c5ccc2[nH]5)C=C4)C=C3)cc1
REMARK SMILES IDX 21 1 20 2 18 3 19 4 5 5 4 6 2 7 1 8 3 9 6 10 7 13 8 14 17 15
REMARK SMILES IDX 9 16 11 17 10 18 12 19 16 20 13 21 15 22 14 23 22 24 23 25
REMARK SMILES IDX 24 26 25 27 26 28 27 29 79 30 28 31 78 32 29 33 30 34 31 35
REMARK SMILES IDX 72 36 32 37 77 38 71 39 73 40 33 41 76 42 70 43 69 44 34 46
REMARK SMILES IDX 60 47 43 48 59 49 44 50 47 51 58 52 74 53 45 54 46 55 57 57
REMARK SMILES IDX 75 58 48 59 35 60 36 61 41 62 37 63 38 64 40 65 42 66 39 67
REMARK SMILES IDX 61 68 62 69 67 70 63 71 64 72 66 73 68 74 65 75 49 76 50 77
REMARK SMILES IDX 55 78 51 79 52 80 54 81 56 82 53 83
REMARK H PARENT 6 11 6 12 73 45 47 56
REMARK Flexibility Score: inf
ROOT
ATOM      1  C   UNL A   1      31.742  28.832  27.266  1.00  0.00     0.274 C 
ENDROOT
BRANCH   1   2
ATOM      2  O   UNL A   1      32.433  27.892  26.417  1.00  0.00    -0.458 OA
BRANCH   2   3
ATOM      3  C   UNL A   1      31.635  26.905  25.934  1.00  0.00     0.364 C 
ATOM      4  O   UNL A   1      31.095  26.079  26.667  1.00  0.00    -0.245 OA
BRANCH   3   5
ATOM      5  C   UNL A   1      31.462  26.883  24.400  1.00  0.00     0.293 C 
BRANCH   5   6
ATOM      6  C   UNL A   1      32.493  25.896  23.796  1.00  0.00     0.080 C 
BRANCH   6   7
ATOM      7  C   UNL A   1      33.297  26.376  22.569  1.00  0.00    -0.011 C 
ATOM      8  C   UNL A   1      32.760  25.825  21.247  1.00  0.00     0.007 C 
ATOM      9  C   UNL A   1      33.267  27.910  22.510  1.00  0.00     0.007 C 
ENDBRANCH   6   7
ENDBRANCH   5   6
BRANCH   5  10
ATOM     10  N   UNL A   1      30.067  26.599  23.982  1.00  0.00    -0.332 N 
ATOM     11  H   UNL A   1      29.569  26.266  24.808  1.00  0.00     0.347 HD
ATOM     12  H   UNL A   1      30.172  25.936  23.214  1.00  0.00     0.347 HD
BRANCH  10  13
ATOM     13  C   UNL A   1      29.253  27.700  23.395  1.00  0.00     0.188 C 
ATOM     14  C   UNL A   1      27.734  27.613  23.569  1.00  0.00     0.093 C 
ATOM     15  C   UNL A   1      29.721  29.109  23.820  1.00  0.00     0.100 C 
ATOM     16  C   UNL A   1      26.954  28.774  23.001  1.00  0.00     0.167 C 
ATOM     17  C   UNL A   1      28.871  30.214  23.138  1.00  0.00     0.078 C 
ATOM     18  O   UNL A   1      27.486  30.004  23.458  1.00  0.00    -0.374 OA
ATOM     19  C   UNL A   1      29.085  30.272  21.609  1.00  0.00     0.064 C 
ATOM     20  C   UNL A   1      29.205  31.605  23.705  1.00  0.00     0.064 C 
ATOM     21  C   UNL A   1      28.256  31.396  21.002  1.00  0.00     0.163 C 
ATOM     22  C   UNL A   1      28.387  32.680  22.985  1.00  0.00     0.163 C 
ATOM     23  O   UNL A   1      28.631  32.647  21.576  1.00  0.00    -0.381 OA
ENDBRANCH  10  13
ENDBRANCH   5  10
ENDBRANCH   3   5
ENDBRANCH   2   3
ENDBRANCH   1   2
BRANCH   1  24
ATOM     24  C   UNL A   1      31.753  30.285  26.750  1.00  0.00     0.275 C 
BRANCH  24  25
ATOM     25  O   UNL A   1      33.072  30.797  26.450  1.00  0.00    -0.458 OA
BRANCH  25  26
ATOM     26  C   UNL A   1      33.513  31.790  27.264  1.00  0.00     0.338 C 
ATOM     27  O   UNL A   1      32.871  32.752  27.649  1.00  0.00    -0.246 OA
BRANCH  26  28
ATOM     28  C   UNL A   1      34.854  31.471  27.806  1.00  0.00     0.060 A 
ATOM     29  C   UNL A   1      35.098  30.150  28.211  1.00  0.00     0.016 A 
ATOM     30  C   UNL A   1      35.835  32.445  27.980  1.00  0.00     0.016 A 
ATOM     31  C   UNL A   1      36.322  29.784  28.767  1.00  0.00     0.010 A 
ATOM     32  C   UNL A   1      37.051  32.089  28.580  1.00  0.00     0.010 A 
ATOM     33  C   UNL A   1      37.294  30.762  28.984  1.00  0.00    -0.014 A 
BRANCH  33  34
ATOM     34  C   UNL A   1      38.512  30.435  29.760  1.00  0.00     0.031 A 
ATOM     35  C   UNL A   1      39.506  29.483  29.168  1.00  0.00     0.074 A 
ATOM     36  C   UNL A   1      38.724  30.966  30.976  1.00  0.00     0.049 A 
ATOM     37  N   UNL A   1      40.533  28.898  29.728  1.00  0.00    -0.248 NA
ATOM     38  C   UNL A   1      39.313  29.142  27.750  1.00  0.00     0.031 C 
ATOM     39  C   UNL A   1      37.876  31.966  31.620  1.00  0.00     0.029 A 
ATOM     40  N   UNL A   1      39.707  30.705  31.898  1.00  0.00    -0.354 N 
ATOM     41  C   UNL A   1      41.086  28.091  28.742  1.00  0.00     0.074 A 
ATOM     42  C   UNL A   1      40.285  28.265  27.550  1.00  0.00     0.031 C 
ATOM     43  C   UNL A   1      38.350  32.202  32.856  1.00  0.00     0.029 A 
ATOM     44  C   UNL A   1      39.499  31.332  33.102  1.00  0.00     0.049 A 
ATOM     45  H   UNL A   1      40.483  30.128  31.715  1.00  0.00     0.167 HD
ATOM     46  C   UNL A   1      42.158  27.269  28.833  1.00  0.00     0.037 A 
ATOM     47  C   UNL A   1      40.129  31.175  34.283  1.00  0.00     0.037 A 
ATOM     48  C   UNL A   1      42.951  27.108  30.023  1.00  0.00     0.049 A 
ATOM     49  C   UNL A   1      41.269  30.199  34.389  1.00  0.00     0.074 A 
ATOM     50  C   UNL A   1      44.066  26.313  30.216  1.00  0.00     0.029 A 
ATOM     51  N   UNL A   1      42.702  27.750  31.227  1.00  0.00    -0.354 N 
ATOM     52  N   UNL A   1      41.782  29.425  33.463  1.00  0.00    -0.248 NA
ATOM     53  C   UNL A   1      41.912  30.065  35.705  1.00  0.00     0.031 C 
ATOM     54  C   UNL A   1      44.463  26.436  31.552  1.00  0.00     0.029 A 
ATOM     55  C   UNL A   1      43.625  27.348  32.177  1.00  0.00     0.049 A 
ATOM     56  H   UNL A   1      41.976  28.397  31.383  1.00  0.00     0.167 HD
ATOM     57  C   UNL A   1      42.820  28.731  34.075  1.00  0.00     0.074 A 
ATOM     58  C   UNL A   1      42.865  29.178  35.451  1.00  0.00     0.031 C 
ATOM     59  C   UNL A   1      43.660  27.810  33.542  1.00  0.00     0.037 A 
BRANCH  46  60
ATOM     60  C   UNL A   1      42.489  26.440  27.628  1.00  0.00     0.057 A 
ATOM     61  C   UNL A   1      41.985  25.146  27.449  1.00  0.00     0.134 A 
ATOM     62  C   UNL A   1      43.337  26.948  26.634  1.00  0.00     0.134 A 
ATOM     63  F   UNL A   1      41.184  24.593  28.373  1.00  0.00    -0.206 F 
ATOM     64  C   UNL A   1      42.337  24.374  26.340  1.00  0.00     0.040 A 
ATOM     65  C   UNL A   1      43.673  26.196  25.509  1.00  0.00     0.040 A 
ATOM     66  F   UNL A   1      43.852  28.181  26.743  1.00  0.00    -0.206 F 
ATOM     67  C   UNL A   1      43.181  24.901  25.363  1.00  0.00     0.006 A 
ENDBRANCH  46  60
BRANCH  47  68
ATOM     68  C   UNL A   1      39.649  31.922  35.472  1.00  0.00     0.057 A 
ATOM     69  C   UNL A   1      38.612  31.431  36.272  1.00  0.00     0.134 A 
ATOM     70  C   UNL A   1      40.231  33.141  35.845  1.00  0.00     0.134 A 
ATOM     71  F   UNL A   1      37.998  30.283  35.951  1.00  0.00    -0.206 F 
ATOM     72  C   UNL A   1      38.168  32.126  37.399  1.00  0.00     0.040 A 
ATOM     73  C   UNL A   1      39.813  33.834  36.982  1.00  0.00     0.040 A 
ATOM     74  F   UNL A   1      41.228  33.665  35.117  1.00  0.00    -0.206 F 
ATOM     75  C   UNL A   1      38.777  33.327  37.762  1.00  0.00     0.006 A 
ENDBRANCH  47  68
BRANCH  59  76
ATOM     76  C   UNL A   1      44.729  27.248  34.432  1.00  0.00     0.057 A 
ATOM     77  C   UNL A   1      45.965  27.886  34.597  1.00  0.00     0.134 A 
ATOM     78  C   UNL A   1      44.487  26.096  35.192  1.00  0.00     0.134 A 
ATOM     79  F   UNL A   1      46.262  28.986  33.889  1.00  0.00    -0.206 F 
ATOM     80  C   UNL A   1      46.925  27.393  35.481  1.00  0.00     0.040 A 
ATOM     81  C   UNL A   1      45.431  25.607  36.096  1.00  0.00     0.040 A 
ATOM     82  F   UNL A   1      43.319  25.444  35.086  1.00  0.00    -0.206 F 
ATOM     83  C   UNL A   1      46.655  26.255  36.241  1.00  0.00     0.006 A 
ENDBRANCH  59  76
ENDBRANCH  33  34
ENDBRANCH  26  28
ENDBRANCH  25  26
ENDBRANCH  24  25
ENDBRANCH   1  24
TORSDOF 15
ENDMDL
MODEL 3
REMARK VINA RESULT:     -11.3      4.450      8.909
REMARK SMILES CC(C)C[C@@H]([NH2+][C@H]1CCOC2(CCOCC2)C1)C(=O)OCCOC(=O)c1ccc(-c2c3nc(c(-c4c(F)cccc4F)c4ccc([nH]4)c(-c4c(F)cccc4F)c4nc(c(-c5c(F)cccc5F)c5ccc2[nH]5)C=C4)C=C3)cc1
REMARK SMILES IDX 21 1 20 2 18 3 19 4 5 5 4 6 2 7 1 8 3 9 6 10 7 13 8 14 17 15
REMARK SMILES IDX 9 16 11 17 10 18 12 19 16 20 13 21 15 22 14 23 22 24 23 25
REMARK SMILES IDX 24 26 25 27 26 28 27 29 79 30 28 31 78 32 29 33 30 34 31 35
REMARK SMILES IDX 72 36 32 37 77 38 71 39 73 40 33 41 76 42 70 43 69 44 34 46
REMARK SMILES IDX 60 47 43 48 59 49 44 50 47 51 58 52 74 53 45 54 46 55 57 57
REMARK SMILES IDX 75 58 48 59 35 60 36 61 41 62 37 63 38 64 40 65 42 66 39 67
REMARK SMILES IDX 61 68 62 69 67 70 63 71 64 72 66 73 68 74 65 75 49 76 50 77
REMARK SMILES IDX 55 78 51 79 52 80 54 81 56 82 53 83
REMARK H PARENT 6 11 6 12 73 45 47 56
REMARK Flexibility Score: inf
ROOT
ATOM      1  C   UNL A   1      42.287  21.234  26.084  1.00  0.00     0.274 C 
ENDROOT
BRANCH   1   2
ATOM      2  O   UNL A   1      41.207  22.173  25.895  1.00  0.00    -0.458 OA
BRANCH   2   3
ATOM      3  C   UNL A   1      40.280  22.144  26.887  1.00  0.00     0.364 C 
ATOM      4  O   UNL A   1      40.540  21.739  28.018  1.00  0.00    -0.245 OA
BRANCH   3   5
ATOM      5  C   UNL A   1      38.872  22.641  26.493  1.00  0.00     0.293 C 
BRANCH   5   6
ATOM      6  C   UNL A   1      38.936  24.169  26.240  1.00  0.00     0.080 C 
BRANCH   6   7
ATOM      7  C   UNL A   1      40.007  24.969  27.012  1.00  0.00    -0.011 C 
ATOM      8  C   UNL A   1      40.669  26.058  26.164  1.00  0.00     0.007 C 
ATOM      9  C   UNL A   1      39.362  25.628  28.240  1.00  0.00     0.007 C 
ENDBRANCH   6   7
ENDBRANCH   5   6
BRANCH   5  10
ATOM     10  N   UNL A   1      38.291  21.884  25.358  1.00  0.00    -0.332 N 
ATOM     11  H   UNL A   1      38.451  20.894  25.546  1.00  0.00     0.347 HD
ATOM     12  H   UNL A   1      38.759  22.273  24.539  1.00  0.00     0.347 HD
BRANCH  10  13
ATOM     13  C   UNL A   1      36.842  22.042  25.051  1.00  0.00     0.188 C 
ATOM     14  C   UNL A   1      36.476  22.861  23.811  1.00  0.00     0.093 C 
ATOM     15  C   UNL A   1      36.071  20.704  25.008  1.00  0.00     0.100 C 
ATOM     16  C   UNL A   1      34.999  22.953  23.513  1.00  0.00     0.167 C 
ATOM     17  C   UNL A   1      34.560  20.934  24.737  1.00  0.00     0.078 C 
ATOM     18  O   UNL A   1      34.410  21.665  23.509  1.00  0.00    -0.374 OA
ATOM     19  C   UNL A   1      33.849  21.655  25.904  1.00  0.00     0.064 C 
ATOM     20  C   UNL A   1      33.826  19.602  24.501  1.00  0.00     0.064 C 
ATOM     21  C   UNL A   1      32.366  21.819  25.598  1.00  0.00     0.163 C 
ATOM     22  C   UNL A   1      32.333  19.853  24.282  1.00  0.00     0.163 C 
ATOM     23  O   UNL A   1      31.763  20.542  25.399  1.00  0.00    -0.381 OA
ENDBRANCH  10  13
ENDBRANCH   5  10
ENDBRANCH   3   5
ENDBRANCH   2   3
ENDBRANCH   1   2
BRANCH   1  24
ATOM     24  C   UNL A   1      43.660  21.732  25.589  1.00  0.00     0.275 C 
BRANCH  24  25
ATOM     25  O   UNL A   1      44.262  22.742  26.431  1.00  0.00    -0.458 OA
BRANCH  25  26
ATOM     26  C   UNL A   1      44.273  24.000  25.920  1.00  0.00     0.338 C 
ATOM     27  O   UNL A   1      44.336  24.303  24.741  1.00  0.00    -0.246 OA
BRANCH  26  28
ATOM     28  C   UNL A   1      44.003  25.001  26.977  1.00  0.00     0.060 A 
ATOM     29  C   UNL A   1      43.299  24.577  28.115  1.00  0.00     0.016 A 
ATOM     30  C   UNL A   1      44.365  26.339  26.842  1.00  0.00     0.016 A 
ATOM     31  C   UNL A   1      42.973  25.471  29.132  1.00  0.00     0.010 A 
ATOM     32  C   UNL A   1      44.000  27.250  27.843  1.00  0.00     0.010 A 
ATOM     33  C   UNL A   1      43.295  26.821  28.985  1.00  0.00    -0.014 A 
BRANCH  33  34
ATOM     34  C   UNL A   1      42.776  27.815  29.952  1.00  0.00     0.031 A 
ATOM     35  C   UNL A   1      43.454  27.944  31.282  1.00  0.00     0.074 A 
ATOM     36  C   UNL A   1      41.712  28.581  29.657  1.00  0.00     0.049 A 
ATOM     37  N   UNL A   1      43.070  28.591  32.352  1.00  0.00    -0.248 NA
ATOM     38  C   UNL A   1      44.741  27.246  31.425  1.00  0.00     0.031 C 
ATOM     39  C   UNL A   1      41.022  28.608  28.370  1.00  0.00     0.029 A 
ATOM     40  N   UNL A   1      41.007  29.460  30.442  1.00  0.00    -0.354 N 
ATOM     41  C   UNL A   1      44.048  28.346  33.307  1.00  0.00     0.074 A 
ATOM     42  C   UNL A   1      45.044  27.497  32.689  1.00  0.00     0.031 C 
ATOM     43  C   UNL A   1      39.961  29.428  28.466  1.00  0.00     0.029 A 
ATOM     44  C   UNL A   1      39.873  29.938  29.834  1.00  0.00     0.049 A 
ATOM     45  H   UNL A   1      41.287  29.721  31.349  1.00  0.00     0.167 HD
ATOM     46  C   UNL A   1      44.099  28.781  34.588  1.00  0.00     0.037 A 
ATOM     47  C   UNL A   1      38.852  30.656  30.342  1.00  0.00     0.037 A 
ATOM     48  C   UNL A   1      43.105  29.629  35.190  1.00  0.00     0.049 A 
ATOM     49  C   UNL A   1      38.884  31.065  31.789  1.00  0.00     0.074 A 
ATOM     50  C   UNL A   1      43.070  30.139  36.476  1.00  0.00     0.029 A 
ATOM     51  N   UNL A   1      41.964  30.083  34.547  1.00  0.00    -0.354 N 
ATOM     52  N   UNL A   1      39.800  30.822  32.696  1.00  0.00    -0.248 NA
ATOM     53  C   UNL A   1      37.739  31.840  32.289  1.00  0.00     0.031 C 
ATOM     54  C   UNL A   1      41.881  30.862  36.625  1.00  0.00     0.029 A 
ATOM     55  C   UNL A   1      41.201  30.844  35.416  1.00  0.00     0.049 A 
ATOM     56  H   UNL A   1      41.730  29.892  33.610  1.00  0.00     0.167 HD
ATOM     57  C   UNL A   1      39.355  31.431  33.864  1.00  0.00     0.074 A 
ATOM     58  C   UNL A   1      38.088  32.058  33.550  1.00  0.00     0.031 C 
ATOM     59  C   UNL A   1      39.946  31.468  35.084  1.00  0.00     0.037 A 
BRANCH  46  60
ATOM     60  C   UNL A   1      45.237  28.291  35.433  1.00  0.00     0.057 A 
ATOM     61  C   UNL A   1      46.437  29.001  35.558  1.00  0.00     0.134 A 
ATOM     62  C   UNL A   1      45.128  27.078  36.127  1.00  0.00     0.134 A 
ATOM     63  F   UNL A   1      46.613  30.159  34.904  1.00  0.00    -0.206 F 
ATOM     64  C   UNL A   1      47.500  28.509  36.318  1.00  0.00     0.040 A 
ATOM     65  C   UNL A   1      46.173  26.589  36.910  1.00  0.00     0.040 A 
ATOM     66  F   UNL A   1      44.005  26.348  36.052  1.00  0.00    -0.206 F 
ATOM     67  C   UNL A   1      47.367  27.300  37.000  1.00  0.00     0.006 A 
ENDBRANCH  46  60
BRANCH  47  68
ATOM     68  C   UNL A   1      37.686  30.978  29.482  1.00  0.00     0.057 A 
ATOM     69  C   UNL A   1      37.542  32.237  28.892  1.00  0.00     0.134 A 
ATOM     70  C   UNL A   1      36.696  30.022  29.217  1.00  0.00     0.134 A 
ATOM     71  F   UNL A   1      38.443  33.201  29.129  1.00  0.00    -0.206 F 
ATOM     72  C   UNL A   1      36.452  32.538  28.071  1.00  0.00     0.040 A 
ATOM     73  C   UNL A   1      35.615  30.302  28.380  1.00  0.00     0.040 A 
ATOM     74  F   UNL A   1      36.777  28.797  29.755  1.00  0.00    -0.206 F 
ATOM     75  C   UNL A   1      35.491  31.564  27.805  1.00  0.00     0.006 A 
ENDBRANCH  47  68
BRANCH  59  76
ATOM     76  C   UNL A   1      39.254  32.244  36.166  1.00  0.00     0.057 A 
ATOM     77  C   UNL A   1      39.576  33.580  36.439  1.00  0.00     0.134 A 
ATOM     78  C   UNL A   1      38.201  31.670  36.890  1.00  0.00     0.134 A 
ATOM     79  F   UNL A   1      40.581  34.183  35.789  1.00  0.00    -0.206 F 
ATOM     80  C   UNL A   1      38.878  34.313  37.400  1.00  0.00     0.040 A 
ATOM     81  C   UNL A   1      37.482  32.400  37.836  1.00  0.00     0.040 A 
ATOM     82  F   UNL A   1      37.838  30.397  36.668  1.00  0.00    -0.206 F 
ATOM     83  C   UNL A   1      37.821  33.726  38.094  1.00  0.00     0.006 A 
ENDBRANCH  59  76
ENDBRANCH  33  34
ENDBRANCH  26  28
ENDBRANCH  25  26
ENDBRANCH  24  25
ENDBRANCH   1  24
TORSDOF 15
ENDMDL
