MODEL 1
REMARK VINA RESULT:     -12.2      0.000      0.000
REMARK SMILES Cc1nn([C@H]2CCS(=O)(=O)C2)c(C)c1/C=C(\CC(=O)OCCOC(=O)c1ccc(-c2c3nc(c(-c4c(F)cccc4F)c4ccc([nH]4)c(-c4c(F)cccc4F)c4nc(c(-c5c(F)cccc5F)c5ccc2[nH]5)C=C4)C=C3)cc1)c1nc2ccccc2s1
REMARK SMILES IDX 21 1 20 2 18 3 19 4 17 5 16 6 15 7 14 8 1 9 2 10 3 11 4 12
REMARK SMILES IDX 12 13 13 14 5 15 6 16 11 17 7 18 8 19 9 20 10 21 80 22 81 23
REMARK SMILES IDX 88 24 82 25 87 26 83 27 86 28 84 29 85 30 22 31 23 32 24 33
REMARK SMILES IDX 25 34 26 35 27 36 79 37 28 38 78 39 29 40 30 41 31 42 72 43
REMARK SMILES IDX 32 44 77 45 71 46 73 47 33 48 76 49 70 50 69 51 34 53 60 54
REMARK SMILES IDX 43 55 59 56 44 57 47 58 58 59 74 60 45 61 46 62 57 64 75 65
REMARK SMILES IDX 48 66 35 67 36 68 41 69 37 70 38 71 40 72 42 73 39 74 61 75
REMARK SMILES IDX 62 76 67 77 63 78 64 79 66 80 68 81 65 82 49 83 50 84 55 85
REMARK SMILES IDX 51 86 52 87 54 88 56 89 53 90
REMARK H PARENT 73 52 47 63
REMARK Flexibility Score: inf
ROOT
ATOM      1  C   UNL A   1      37.920  23.518  26.299  1.00  0.00     0.274 C 
ENDROOT
BRANCH   1   2
ATOM      2  O   UNL A   1      37.003  23.899  25.242  1.00  0.00    -0.462 OA
BRANCH   2   3
ATOM      3  C   UNL A   1      35.721  24.045  25.659  1.00  0.00     0.310 C 
ATOM      4  O   UNL A   1      35.204  23.342  26.530  1.00  0.00    -0.252 OA
BRANCH   3   5
ATOM      5  C   UNL A   1      34.840  24.983  24.869  1.00  0.00     0.161 C 
BRANCH   5   6
ATOM      6  C   UNL A   1      33.526  25.677  25.220  1.00  0.00    -0.000 C 
ATOM      7  C   UNL A   1      32.337  25.049  24.982  1.00  0.00     0.019 C 
BRANCH   7   8
ATOM      8  C   UNL A   1      32.159  23.810  24.280  1.00  0.00     0.019 A 
ATOM      9  C   UNL A   1      32.832  24.430  21.827  1.00  0.00     0.069 C 
ATOM     10  C   UNL A   1      32.490  23.505  22.937  1.00  0.00     0.067 A 
ATOM     11  N   UNL A   1      32.440  22.182  22.726  1.00  0.00    -0.177 NA
ATOM     12  N   UNL A   1      32.059  21.676  23.919  1.00  0.00    -0.265 N 
ATOM     13  C   UNL A   1      31.536  22.655  24.732  1.00  0.00     0.043 A 
ATOM     14  C   UNL A   1      30.607  22.418  25.873  1.00  0.00     0.067 C 
BRANCH  12  15
ATOM     15  C   UNL A   1      32.289  20.262  24.189  1.00  0.00     0.123 C 
ATOM     16  C   UNL A   1      32.322  19.405  22.898  1.00  0.00     0.044 C 
ATOM     17  C   UNL A   1      33.625  19.941  24.861  1.00  0.00     0.164 C 
ATOM     18  C   UNL A   1      32.721  17.992  23.302  1.00  0.00     0.139 C 
ATOM     19  S   UNL A   1      33.813  18.185  24.695  1.00  0.00     0.152 S 
ATOM     20  O   UNL A   1      33.181  17.565  25.855  1.00  0.00    -0.229 OA
ATOM     21  O   UNL A   1      35.158  17.887  24.300  1.00  0.00    -0.229 OA
ENDBRANCH  12  15
ENDBRANCH   7   8
BRANCH   6  22
ATOM     22  C   UNL A   1      33.536  26.909  25.992  1.00  0.00     0.121 A 
ATOM     23  N   UNL A   1      34.624  27.424  26.534  1.00  0.00    -0.236 NA
ATOM     24  S   UNL A   1      32.116  27.871  26.305  1.00  0.00    -0.114 S 
ATOM     25  C   UNL A   1      34.403  28.730  26.947  1.00  0.00     0.082 A 
ATOM     26  C   UNL A   1      33.081  29.158  26.909  1.00  0.00     0.055 A 
ATOM     27  C   UNL A   1      35.383  29.658  27.349  1.00  0.00     0.030 A 
ATOM     28  C   UNL A   1      32.718  30.464  27.289  1.00  0.00     0.021 A 
ATOM     29  C   UNL A   1      35.059  30.981  27.635  1.00  0.00     0.002 A 
ATOM     30  C   UNL A   1      33.733  31.378  27.609  1.00  0.00     0.002 A 
ENDBRANCH   6  22
ENDBRANCH   5   6
ENDBRANCH   3   5
ENDBRANCH   2   3
ENDBRANCH   1   2
BRANCH   1  31
ATOM     31  C   UNL A   1      39.206  24.351  26.340  1.00  0.00     0.275 C 
BRANCH  31  32
ATOM     32  O   UNL A   1      39.883  24.271  27.598  1.00  0.00    -0.458 OA
BRANCH  32  33
ATOM     33  C   UNL A   1      40.343  25.470  28.011  1.00  0.00     0.338 C 
ATOM     34  O   UNL A   1      41.511  25.820  28.083  1.00  0.00    -0.246 OA
BRANCH  33  35
ATOM     35  C   UNL A   1      39.266  26.285  28.561  1.00  0.00     0.060 A 
ATOM     36  C   UNL A   1      38.877  27.411  27.832  1.00  0.00     0.016 A 
ATOM     37  C   UNL A   1      39.140  26.213  29.949  1.00  0.00     0.016 A 
ATOM     38  C   UNL A   1      38.621  28.572  28.533  1.00  0.00     0.010 A 
ATOM     39  C   UNL A   1      38.922  27.381  30.640  1.00  0.00     0.010 A 
ATOM     40  C   UNL A   1      38.820  28.572  29.921  1.00  0.00    -0.014 A 
BRANCH  40  41
ATOM     41  C   UNL A   1      38.909  29.859  30.607  1.00  0.00     0.031 A 
ATOM     42  C   UNL A   1      40.271  30.441  30.580  1.00  0.00     0.074 A 
ATOM     43  C   UNL A   1      37.814  30.494  31.084  1.00  0.00     0.049 A 
ATOM     44  N   UNL A   1      40.965  30.936  31.551  1.00  0.00    -0.248 NA
ATOM     45  C   UNL A   1      41.003  30.329  29.303  1.00  0.00     0.031 C 
ATOM     46  C   UNL A   1      36.414  30.069  30.953  1.00  0.00     0.029 A 
ATOM     47  N   UNL A   1      37.693  31.733  31.649  1.00  0.00    -0.354 N 
ATOM     48  C   UNL A   1      42.148  31.372  30.961  1.00  0.00     0.074 A 
ATOM     49  C   UNL A   1      42.195  30.814  29.636  1.00  0.00     0.031 C 
ATOM     50  C   UNL A   1      35.607  31.131  31.159  1.00  0.00     0.029 A 
ATOM     51  C   UNL A   1      36.421  32.283  31.505  1.00  0.00     0.049 A 
ATOM     52  H   UNL A   1      38.432  32.191  32.111  1.00  0.00     0.167 HD
ATOM     53  C   UNL A   1      42.871  32.396  31.477  1.00  0.00     0.037 A 
ATOM     54  C   UNL A   1      36.088  33.600  31.527  1.00  0.00     0.037 A 
ATOM     55  C   UNL A   1      42.631  32.588  32.877  1.00  0.00     0.049 A 
ATOM     56  C   UNL A   1      37.223  34.341  32.132  1.00  0.00     0.074 A 
ATOM     57  C   UNL A   1      42.755  31.783  33.994  1.00  0.00     0.029 A 
ATOM     58  N   UNL A   1      41.870  33.659  33.270  1.00  0.00    -0.354 N 
ATOM     59  N   UNL A   1      37.551  34.295  33.392  1.00  0.00    -0.248 NA
ATOM     60  C   UNL A   1      38.267  34.815  31.234  1.00  0.00     0.031 C 
ATOM     61  C   UNL A   1      41.686  32.166  34.851  1.00  0.00     0.029 A 
ATOM     62  C   UNL A   1      40.998  33.204  34.226  1.00  0.00     0.049 A 
ATOM     63  H   UNL A   1      41.936  34.580  32.930  1.00  0.00     0.167 HD
ATOM     64  C   UNL A   1      38.939  34.305  33.392  1.00  0.00     0.074 A 
ATOM     65  C   UNL A   1      39.322  34.723  32.047  1.00  0.00     0.031 C 
ATOM     66  C   UNL A   1      39.651  33.697  34.385  1.00  0.00     0.037 A 
BRANCH  53  67
ATOM     67  C   UNL A   1      43.494  33.437  30.590  1.00  0.00     0.057 A 
ATOM     68  C   UNL A   1      42.694  34.185  29.719  1.00  0.00     0.134 A 
ATOM     69  C   UNL A   1      44.887  33.542  30.379  1.00  0.00     0.134 A 
ATOM     70  F   UNL A   1      41.356  34.121  29.792  1.00  0.00    -0.206 F 
ATOM     71  C   UNL A   1      43.242  34.965  28.694  1.00  0.00     0.040 A 
ATOM     72  C   UNL A   1      45.447  34.362  29.403  1.00  0.00     0.040 A 
ATOM     73  F   UNL A   1      45.770  32.778  31.039  1.00  0.00    -0.206 F 
ATOM     74  C   UNL A   1      44.622  35.060  28.538  1.00  0.00     0.006 A 
ENDBRANCH  53  67
BRANCH  54  75
ATOM     75  C   UNL A   1      35.008  34.296  30.772  1.00  0.00     0.057 A 
ATOM     76  C   UNL A   1      34.023  35.041  31.440  1.00  0.00     0.134 A 
ATOM     77  C   UNL A   1      35.043  34.459  29.374  1.00  0.00     0.134 A 
ATOM     78  F   UNL A   1      33.925  35.000  32.778  1.00  0.00    -0.206 F 
ATOM     79  C   UNL A   1      33.144  35.902  30.764  1.00  0.00     0.040 A 
ATOM     80  C   UNL A   1      34.159  35.298  28.686  1.00  0.00     0.040 A 
ATOM     81  F   UNL A   1      35.991  33.885  28.623  1.00  0.00    -0.206 F 
ATOM     82  C   UNL A   1      33.214  36.036  29.382  1.00  0.00     0.006 A 
ENDBRANCH  54  75
BRANCH  66  83
ATOM     83  C   UNL A   1      38.913  33.267  35.621  1.00  0.00     0.057 A 
ATOM     84  C   UNL A   1      38.326  32.003  35.784  1.00  0.00     0.134 A 
ATOM     85  C   UNL A   1      38.929  34.108  36.739  1.00  0.00     0.134 A 
ATOM     86  F   UNL A   1      38.357  31.089  34.804  1.00  0.00    -0.206 F 
ATOM     87  C   UNL A   1      37.739  31.616  36.993  1.00  0.00     0.040 A 
ATOM     88  C   UNL A   1      38.378  33.720  37.962  1.00  0.00     0.040 A 
ATOM     89  F   UNL A   1      39.526  35.310  36.673  1.00  0.00    -0.206 F 
ATOM     90  C   UNL A   1      37.770  32.475  38.087  1.00  0.00     0.006 A 
ENDBRANCH  66  83
ENDBRANCH  40  41
ENDBRANCH  33  35
ENDBRANCH  32  33
ENDBRANCH  31  32
ENDBRANCH   1  31
TORSDOF 15
ENDMDL
MODEL 2
REMARK VINA RESULT:     -12.0      3.080      6.263
REMARK SMILES Cc1nn([C@H]2CCS(=O)(=O)C2)c(C)c1/C=C(\CC(=O)OCCOC(=O)c1ccc(-c2c3nc(c(-c4c(F)cccc4F)c4ccc([nH]4)c(-c4c(F)cccc4F)c4nc(c(-c5c(F)cccc5F)c5ccc2[nH]5)C=C4)C=C3)cc1)c1nc2ccccc2s1
REMARK SMILES IDX 21 1 20 2 18 3 19 4 17 5 16 6 15 7 14 8 1 9 2 10 3 11 4 12
REMARK SMILES IDX 12 13 13 14 5 15 6 16 11 17 7 18 8 19 9 20 10 21 80 22 81 23
REMARK SMILES IDX 88 24 82 25 87 26 83 27 86 28 84 29 85 30 22 31 23 32 24 33
REMARK SMILES IDX 25 34 26 35 27 36 79 37 28 38 78 39 29 40 30 41 31 42 72 43
REMARK SMILES IDX 32 44 77 45 71 46 73 47 33 48 76 49 70 50 69 51 34 53 60 54
REMARK SMILES IDX 43 55 59 56 44 57 47 58 58 59 74 60 45 61 46 62 57 64 75 65
REMARK SMILES IDX 48 66 35 67 36 68 41 69 37 70 38 71 40 72 42 73 39 74 61 75
REMARK SMILES IDX 62 76 67 77 63 78 64 79 66 80 68 81 65 82 49 83 50 84 55 85
REMARK SMILES IDX 51 86 52 87 54 88 56 89 53 90
REMARK H PARENT 73 52 47 63
REMARK Flexibility Score: inf
ROOT
ATOM      1  C   UNL A   1      33.407  29.016  26.286  1.00  0.00     0.274 C 
ENDROOT
BRANCH   1   2
ATOM      2  O   UNL A   1      33.026  27.724  26.824  1.00  0.00    -0.462 OA
BRANCH   2   3
ATOM      3  C   UNL A   1      33.153  26.706  25.939  1.00  0.00     0.310 C 
ATOM      4  O   UNL A   1      34.176  26.496  25.283  1.00  0.00    -0.252 OA
BRANCH   3   5
ATOM      5  C   UNL A   1      31.905  25.924  25.603  1.00  0.00     0.161 C 
BRANCH   5   6
ATOM      6  C   UNL A   1      31.200  25.659  24.274  1.00  0.00    -0.000 C 
ATOM      7  C   UNL A   1      31.036  24.378  23.831  1.00  0.00     0.019 C 
BRANCH   7   8
ATOM      8  C   UNL A   1      31.595  23.197  24.426  1.00  0.00     0.019 A 
ATOM      9  C   UNL A   1      30.076  22.830  26.526  1.00  0.00     0.069 C 
ATOM     10  C   UNL A   1      31.107  22.452  25.526  1.00  0.00     0.067 A 
ATOM     11  N   UNL A   1      31.731  21.269  25.611  1.00  0.00    -0.177 NA
ATOM     12  N   UNL A   1      32.614  21.292  24.589  1.00  0.00    -0.265 N 
ATOM     13  C   UNL A   1      32.794  22.571  24.115  1.00  0.00     0.043 A 
ATOM     14  C   UNL A   1      33.989  23.047  23.363  1.00  0.00     0.067 C 
BRANCH  12  15
ATOM     15  C   UNL A   1      33.179  20.033  24.118  1.00  0.00     0.123 C 
ATOM     16  C   UNL A   1      34.462  19.629  24.888  1.00  0.00     0.044 C 
ATOM     17  C   UNL A   1      32.269  18.814  24.283  1.00  0.00     0.164 C 
ATOM     18  C   UNL A   1      34.857  18.238  24.411  1.00  0.00     0.139 C 
ATOM     19  S   UNL A   1      33.327  17.414  24.026  1.00  0.00     0.152 S 
ATOM     20  O   UNL A   1      33.320  17.115  22.597  1.00  0.00    -0.229 OA
ATOM     21  O   UNL A   1      33.048  16.420  25.022  1.00  0.00    -0.229 OA
ENDBRANCH  12  15
ENDBRANCH   7   8
BRANCH   6  22
ATOM     22  C   UNL A   1      30.523  26.742  23.580  1.00  0.00     0.121 A 
ATOM     23  N   UNL A   1      29.212  26.903  23.580  1.00  0.00    -0.236 NA
ATOM     24  S   UNL A   1      31.346  27.970  22.657  1.00  0.00    -0.114 S 
ATOM     25  C   UNL A   1      28.867  28.160  23.103  1.00  0.00     0.082 A 
ATOM     26  C   UNL A   1      29.903  28.896  22.541  1.00  0.00     0.055 A 
ATOM     27  C   UNL A   1      27.597  28.763  23.176  1.00  0.00     0.030 A 
ATOM     28  C   UNL A   1      29.694  30.192  22.030  1.00  0.00     0.021 A 
ATOM     29  C   UNL A   1      27.390  30.078  22.767  1.00  0.00     0.002 A 
ATOM     30  C   UNL A   1      28.433  30.784  22.193  1.00  0.00     0.002 A 
ENDBRANCH   6  22
ENDBRANCH   5   6
ENDBRANCH   3   5
ENDBRANCH   2   3
ENDBRANCH   1   2
BRANCH   1  31
ATOM     31  C   UNL A   1      32.785  30.207  27.024  1.00  0.00     0.275 C 
BRANCH  31  32
ATOM     32  O   UNL A   1      33.494  31.430  26.806  1.00  0.00    -0.458 OA
BRANCH  32  33
ATOM     33  C   UNL A   1      32.945  32.468  27.471  1.00  0.00     0.338 C 
ATOM     34  O   UNL A   1      31.825  32.927  27.314  1.00  0.00    -0.246 OA
BRANCH  33  35
ATOM     35  C   UNL A   1      33.934  33.135  28.309  1.00  0.00     0.060 A 
ATOM     36  C   UNL A   1      35.018  33.738  27.667  1.00  0.00     0.016 A 
ATOM     37  C   UNL A   1      34.020  32.636  29.609  1.00  0.00     0.016 A 
ATOM     38  C   UNL A   1      36.267  33.584  28.235  1.00  0.00     0.010 A 
ATOM     39  C   UNL A   1      35.270  32.451  30.151  1.00  0.00     0.010 A 
ATOM     40  C   UNL A   1      36.385  32.789  29.383  1.00  0.00    -0.014 A 
BRANCH  40  41
ATOM     41  C   UNL A   1      37.715  32.324  29.770  1.00  0.00     0.031 A 
ATOM     42  C   UNL A   1      37.960  30.904  29.425  1.00  0.00     0.074 A 
ATOM     43  C   UNL A   1      38.653  33.167  30.260  1.00  0.00     0.049 A 
ATOM     44  N   UNL A   1      38.443  29.959  30.162  1.00  0.00    -0.248 NA
ATOM     45  C   UNL A   1      37.471  30.460  28.105  1.00  0.00     0.031 C 
ATOM     46  C   UNL A   1      38.540  34.622  30.426  1.00  0.00     0.029 A 
ATOM     47  N   UNL A   1      39.965  32.937  30.570  1.00  0.00    -0.354 N 
ATOM     48  C   UNL A   1      38.493  28.845  29.328  1.00  0.00     0.074 A 
ATOM     49  C   UNL A   1      37.722  29.156  28.154  1.00  0.00     0.031 C 
ATOM     50  C   UNL A   1      39.777  35.154  30.525  1.00  0.00     0.029 A 
ATOM     51  C   UNL A   1      40.756  34.081  30.504  1.00  0.00     0.049 A 
ATOM     52  H   UNL A   1      40.315  32.050  30.816  1.00  0.00     0.167 HD
ATOM     53  C   UNL A   1      39.399  27.854  29.512  1.00  0.00     0.037 A 
ATOM     54  C   UNL A   1      42.098  34.142  30.303  1.00  0.00     0.037 A 
ATOM     55  C   UNL A   1      39.874  27.786  30.862  1.00  0.00     0.049 A 
ATOM     56  C   UNL A   1      42.655  32.792  30.571  1.00  0.00     0.074 A 
ATOM     57  C   UNL A   1      39.264  27.614  32.090  1.00  0.00     0.029 A 
ATOM     58  N   UNL A   1      41.141  28.238  31.134  1.00  0.00    -0.354 N 
ATOM     59  N   UNL A   1      42.749  32.250  31.751  1.00  0.00    -0.248 NA
ATOM     60  C   UNL A   1      42.721  31.862  29.451  1.00  0.00     0.031 C 
ATOM     61  C   UNL A   1      40.019  28.410  32.997  1.00  0.00     0.029 A 
ATOM     62  C   UNL A   1      41.064  28.987  32.279  1.00  0.00     0.049 A 
ATOM     63  H   UNL A   1      41.952  28.058  30.605  1.00  0.00     0.167 HD
ATOM     64  C   UNL A   1      42.445  30.911  31.546  1.00  0.00     0.074 A 
ATOM     65  C   UNL A   1      42.531  30.713  30.103  1.00  0.00     0.031 C 
ATOM     66  C   UNL A   1      41.869  30.159  32.528  1.00  0.00     0.037 A 
BRANCH  53  67
ATOM     67  C   UNL A   1      40.106  27.217  28.349  1.00  0.00     0.057 A 
ATOM     68  C   UNL A   1      40.843  28.007  27.459  1.00  0.00     0.134 A 
ATOM     69  C   UNL A   1      39.866  25.889  27.930  1.00  0.00     0.134 A 
ATOM     70  F   UNL A   1      41.086  29.298  27.729  1.00  0.00    -0.206 F 
ATOM     71  C   UNL A   1      41.292  27.515  26.228  1.00  0.00     0.040 A 
ATOM     72  C   UNL A   1      40.360  25.369  26.735  1.00  0.00     0.040 A 
ATOM     73  F   UNL A   1      39.058  25.059  28.606  1.00  0.00    -0.206 F 
ATOM     74  C   UNL A   1      41.055  26.192  25.865  1.00  0.00     0.006 A 
ENDBRANCH  53  67
BRANCH  54  75
ATOM     75  C   UNL A   1      42.882  35.187  29.587  1.00  0.00     0.057 A 
ATOM     76  C   UNL A   1      42.536  35.588  28.286  1.00  0.00     0.134 A 
ATOM     77  C   UNL A   1      43.836  35.997  30.233  1.00  0.00     0.134 A 
ATOM     78  F   UNL A   1      41.603  34.918  27.592  1.00  0.00    -0.206 F 
ATOM     79  C   UNL A   1      43.088  36.726  27.677  1.00  0.00     0.040 A 
ATOM     80  C   UNL A   1      44.410  37.122  29.629  1.00  0.00     0.040 A 
ATOM     81  F   UNL A   1      44.187  35.788  31.508  1.00  0.00    -0.206 F 
ATOM     82  C   UNL A   1      44.026  37.500  28.352  1.00  0.00     0.006 A 
ENDBRANCH  54  75
BRANCH  66  83
ATOM     83  C   UNL A   1      41.833  30.722  33.921  1.00  0.00     0.057 A 
ATOM     84  C   UNL A   1      40.852  31.614  34.381  1.00  0.00     0.134 A 
ATOM     85  C   UNL A   1      42.736  30.227  34.869  1.00  0.00     0.134 A 
ATOM     86  F   UNL A   1      39.881  32.059  33.572  1.00  0.00    -0.206 F 
ATOM     87  C   UNL A   1      40.806  32.029  35.715  1.00  0.00     0.040 A 
ATOM     88  C   UNL A   1      42.677  30.606  36.211  1.00  0.00     0.040 A 
ATOM     89  F   UNL A   1      43.665  29.325  34.512  1.00  0.00    -0.206 F 
ATOM     90  C   UNL A   1      41.717  31.520  36.635  1.00  0.00     0.006 A 
ENDBRANCH  66  83
ENDBRANCH  40  41
ENDBRANCH  33  35
ENDBRANCH  32  33
ENDBRANCH  31  32
ENDBRANCH   1  31
TORSDOF 15
ENDMDL
MODEL 3
REMARK VINA RESULT:     -11.8      4.234      9.386
REMARK SMILES Cc1nn([C@H]2CCS(=O)(=O)C2)c(C)c1/C=C(\CC(=O)OCCOC(=O)c1ccc(-c2c3nc(c(-c4c(F)cccc4F)c4ccc([nH]4)c(-c4c(F)cccc4F)c4nc(c(-c5c(F)cccc5F)c5ccc2[nH]5)C=C4)C=C3)cc1)c1nc2ccccc2s1
REMARK SMILES IDX 21 1 20 2 18 3 19 4 17 5 16 6 15 7 14 8 1 9 2 10 3 11 4 12
REMARK SMILES IDX 12 13 13 14 5 15 6 16 11 17 7 18 8 19 9 20 10 21 80 22 81 23
REMARK SMILES IDX 88 24 82 25 87 26 83 27 86 28 84 29 85 30 22 31 23 32 24 33
REMARK SMILES IDX 25 34 26 35 27 36 79 37 28 38 78 39 29 40 30 41 31 42 72 43
REMARK SMILES IDX 32 44 77 45 71 46 73 47 33 48 76 49 70 50 69 51 34 53 60 54
REMARK SMILES IDX 43 55 59 56 44 57 47 58 58 59 74 60 45 61 46 62 57 64 75 65
REMARK SMILES IDX 48 66 35 67 36 68 41 69 37 70 38 71 40 72 42 73 39 74 61 75
REMARK SMILES IDX 62 76 67 77 63 78 64 79 66 80 68 81 65 82 49 83 50 84 55 85
REMARK SMILES IDX 51 86 52 87 54 88 56 89 53 90
REMARK H PARENT 73 52 47 63
REMARK Flexibility Score: inf
ROOT
ATOM      1  C   UNL A   1      36.932  22.136  24.475  1.00  0.00     0.274 C 
ENDROOT
BRANCH   1   2
ATOM      2  O   UNL A   1      36.541  23.093  25.492  1.00  0.00    -0.462 OA
BRANCH   2   3
ATOM      3  C   UNL A   1      35.265  22.941  25.922  1.00  0.00     0.310 C 
ATOM      4  O   UNL A   1      34.947  22.897  27.113  1.00  0.00    -0.252 OA
BRANCH   3   5
ATOM      5  C   UNL A   1      34.221  22.609  24.882  1.00  0.00     0.161 C 
BRANCH   5   6
ATOM      6  C   UNL A   1      33.111  21.560  24.858  1.00  0.00    -0.000 C 
ATOM      7  C   UNL A   1      31.803  21.948  24.911  1.00  0.00     0.019 C 
BRANCH   7   8
ATOM      8  C   UNL A   1      31.324  23.282  25.137  1.00  0.00     0.019 A 
ATOM      9  C   UNL A   1      29.701  22.980  27.169  1.00  0.00     0.069 C 
ATOM     10  C   UNL A   1      30.507  23.755  26.192  1.00  0.00     0.067 A 
ATOM     11  N   UNL A   1      30.504  25.096  26.223  1.00  0.00    -0.177 NA
ATOM     12  N   UNL A   1      31.290  25.448  25.183  1.00  0.00    -0.265 N 
ATOM     13  C   UNL A   1      31.477  24.394  24.319  1.00  0.00     0.043 A 
ATOM     14  C   UNL A   1      31.856  24.517  22.884  1.00  0.00     0.067 C 
BRANCH  12  15
ATOM     15  C   UNL A   1      31.847  26.795  25.147  1.00  0.00     0.123 C 
ATOM     16  C   UNL A   1      30.880  27.824  24.508  1.00  0.00     0.044 C 
ATOM     17  C   UNL A   1      32.157  27.404  26.515  1.00  0.00     0.164 C 
ATOM     18  C   UNL A   1      31.510  29.200  24.672  1.00  0.00     0.139 C 
ATOM     19  S   UNL A   1      32.417  29.131  26.202  1.00  0.00     0.152 S 
ATOM     20  O   UNL A   1      33.833  29.313  25.898  1.00  0.00    -0.229 OA
ATOM     21  O   UNL A   1      31.738  29.901  27.202  1.00  0.00    -0.229 OA
ENDBRANCH  12  15
ENDBRANCH   7   8
BRANCH   6  22
ATOM     22  C   UNL A   1      33.428  20.170  24.571  1.00  0.00     0.121 A 
ATOM     23  N   UNL A   1      34.611  19.629  24.795  1.00  0.00    -0.236 NA
ATOM     24  S   UNL A   1      32.291  19.034  23.897  1.00  0.00    -0.114 S 
ATOM     25  C   UNL A   1      34.547  18.244  24.715  1.00  0.00     0.082 A 
ATOM     26  C   UNL A   1      33.354  17.725  24.228  1.00  0.00     0.055 A 
ATOM     27  C   UNL A   1      35.544  17.336  25.118  1.00  0.00     0.030 A 
ATOM     28  C   UNL A   1      33.150  16.336  24.107  1.00  0.00     0.021 A 
ATOM     29  C   UNL A   1      35.327  15.961  25.099  1.00  0.00     0.002 A 
ATOM     30  C   UNL A   1      34.138  15.467  24.591  1.00  0.00     0.002 A 
ENDBRANCH   6  22
ENDBRANCH   5   6
ENDBRANCH   3   5
ENDBRANCH   2   3
ENDBRANCH   1   2
BRANCH   1  31
ATOM     31  C   UNL A   1      37.721  20.937  25.016  1.00  0.00     0.275 C 
BRANCH  31  32
ATOM     32  O   UNL A   1      38.885  21.322  25.753  1.00  0.00    -0.458 OA
BRANCH  32  33
ATOM     33  C   UNL A   1      39.809  20.341  25.802  1.00  0.00     0.338 C 
ATOM     34  O   UNL A   1      39.649  19.169  25.500  1.00  0.00    -0.246 OA
BRANCH  33  35
ATOM     35  C   UNL A   1      41.028  20.801  26.457  1.00  0.00     0.060 A 
ATOM     36  C   UNL A   1      41.053  20.785  27.853  1.00  0.00     0.016 A 
ATOM     37  C   UNL A   1      41.778  21.709  25.707  1.00  0.00     0.016 A 
ATOM     38  C   UNL A   1      41.617  21.867  28.497  1.00  0.00     0.010 A 
ATOM     39  C   UNL A   1      42.303  22.803  26.352  1.00  0.00     0.010 A 
ATOM     40  C   UNL A   1      42.078  22.941  27.722  1.00  0.00    -0.014 A 
BRANCH  40  41
ATOM     41  C   UNL A   1      42.330  24.218  28.387  1.00  0.00     0.031 A 
ATOM     42  C   UNL A   1      41.261  25.217  28.153  1.00  0.00     0.074 A 
ATOM     43  C   UNL A   1      43.367  24.390  29.238  1.00  0.00     0.049 A 
ATOM     44  N   UNL A   1      41.368  26.454  27.793  1.00  0.00    -0.248 NA
ATOM     45  C   UNL A   1      39.875  24.716  28.206  1.00  0.00     0.031 C 
ATOM     46  C   UNL A   1      44.335  23.375  29.674  1.00  0.00     0.029 A 
ATOM     47  N   UNL A   1      43.693  25.462  30.021  1.00  0.00    -0.354 N 
ATOM     48  C   UNL A   1      40.061  26.932  27.762  1.00  0.00     0.074 A 
ATOM     49  C   UNL A   1      39.187  25.792  27.840  1.00  0.00     0.031 C 
ATOM     50  C   UNL A   1      44.929  23.789  30.813  1.00  0.00     0.029 A 
ATOM     51  C   UNL A   1      44.443  25.117  31.143  1.00  0.00     0.049 A 
ATOM     52  H   UNL A   1      43.423  26.386  29.813  1.00  0.00     0.167 HD
ATOM     53  C   UNL A   1      39.772  28.240  27.973  1.00  0.00     0.037 A 
ATOM     54  C   UNL A   1      44.540  25.806  32.310  1.00  0.00     0.037 A 
ATOM     55  C   UNL A   1      40.881  29.102  27.683  1.00  0.00     0.049 A 
ATOM     56  C   UNL A   1      44.050  27.185  32.060  1.00  0.00     0.074 A 
ATOM     57  C   UNL A   1      41.652  29.333  26.560  1.00  0.00     0.029 A 
ATOM     58  N   UNL A   1      41.569  29.658  28.731  1.00  0.00    -0.354 N 
ATOM     59  N   UNL A   1      44.681  28.081  31.356  1.00  0.00    -0.248 NA
ATOM     60  C   UNL A   1      42.627  27.434  32.252  1.00  0.00     0.031 C 
ATOM     61  C   UNL A   1      42.962  29.590  27.053  1.00  0.00     0.029 A 
ATOM     62  C   UNL A   1      42.904  29.538  28.445  1.00  0.00     0.049 A 
ATOM     63  H   UNL A   1      41.178  30.066  29.537  1.00  0.00     0.167 HD
ATOM     64  C   UNL A   1      43.682  28.748  30.661  1.00  0.00     0.074 A 
ATOM     65  C   UNL A   1      42.436  28.373  31.323  1.00  0.00     0.031 C 
ATOM     66  C   UNL A   1      43.923  29.307  29.440  1.00  0.00     0.037 A 
BRANCH  53  67
ATOM     67  C   UNL A   1      38.593  28.654  28.807  1.00  0.00     0.057 A 
ATOM     68  C   UNL A   1      37.664  29.571  28.299  1.00  0.00     0.134 A 
ATOM     69  C   UNL A   1      38.487  28.381  30.189  1.00  0.00     0.134 A 
ATOM     70  F   UNL A   1      37.705  29.946  27.012  1.00  0.00    -0.206 F 
ATOM     71  C   UNL A   1      36.711  30.189  29.116  1.00  0.00     0.040 A 
ATOM     72  C   UNL A   1      37.503  28.943  31.000  1.00  0.00     0.040 A 
ATOM     73  F   UNL A   1      39.391  27.637  30.843  1.00  0.00    -0.206 F 
ATOM     74  C   UNL A   1      36.625  29.872  30.469  1.00  0.00     0.006 A 
ENDBRANCH  53  67
BRANCH  54  75
ATOM     75  C   UNL A   1      44.716  25.273  33.690  1.00  0.00     0.057 A 
ATOM     76  C   UNL A   1      45.508  25.950  34.632  1.00  0.00     0.134 A 
ATOM     77  C   UNL A   1      43.929  24.226  34.206  1.00  0.00     0.134 A 
ATOM     78  F   UNL A   1      46.264  26.995  34.263  1.00  0.00    -0.206 F 
ATOM     79  C   UNL A   1      45.503  25.618  35.996  1.00  0.00     0.040 A 
ATOM     80  C   UNL A   1      43.931  23.871  35.559  1.00  0.00     0.040 A 
ATOM     81  F   UNL A   1      43.057  23.560  33.439  1.00  0.00    -0.206 F 
ATOM     82  C   UNL A   1      44.708  24.578  36.465  1.00  0.00     0.006 A 
ENDBRANCH  54  75
BRANCH  66  83
ATOM     83  C   UNL A   1      45.351  29.438  28.992  1.00  0.00     0.057 A 
ATOM     84  C   UNL A   1      46.063  28.425  28.333  1.00  0.00     0.134 A 
ATOM     85  C   UNL A   1      45.976  30.686  29.100  1.00  0.00     0.134 A 
ATOM     86  F   UNL A   1      45.507  27.230  28.089  1.00  0.00    -0.206 F 
ATOM     87  C   UNL A   1      47.357  28.633  27.847  1.00  0.00     0.040 A 
ATOM     88  C   UNL A   1      47.254  30.917  28.586  1.00  0.00     0.040 A 
ATOM     89  F   UNL A   1      45.332  31.719  29.666  1.00  0.00    -0.206 F 
ATOM     90  C   UNL A   1      47.953  29.884  27.968  1.00  0.00     0.006 A 
ENDBRANCH  66  83
ENDBRANCH  40  41
ENDBRANCH  33  35
ENDBRANCH  32  33
ENDBRANCH  31  32
ENDBRANCH   1  31
TORSDOF 15
ENDMDL
