MODEL 1
REMARK VINA RESULT:     -12.2      0.000      0.000
REMARK SMILES Cc1nc(CCNc2nccc(-c3cc(C(=O)OCCOC(=O)c4ccc(-c5c6nc(c(-c7c(F)cccc7F)c7ccc([nH]7)c(-c7c(F)cccc7F)c7nc(c(-c8c(F)cccc8F)c8ccc5[nH]8)C=C7)C=C6)cc4)ccn3)n2)cc(=O)[nH]1
REMARK SMILES IDX 18 1 16 2 17 3 15 4 13 5 14 6 80 7 79 8 78 9 12 10 8 11 9 12
REMARK SMILES IDX 81 13 10 14 11 15 7 16 6 18 5 19 4 20 1 21 2 22 3 23 85 24
REMARK SMILES IDX 83 25 82 27 84 28 19 29 20 30 21 31 22 32 23 33 24 34 25 35
REMARK SMILES IDX 77 36 26 37 76 38 27 39 28 40 29 41 70 42 30 43 75 44 69 45
REMARK SMILES IDX 71 46 31 47 74 48 68 49 67 50 32 52 58 53 41 54 57 55 42 56
REMARK SMILES IDX 45 57 56 58 72 59 43 60 44 61 55 63 73 64 46 65 33 66 34 67
REMARK SMILES IDX 39 68 35 69 36 70 38 71 40 72 37 73 59 74 60 75 65 76 61 77
REMARK SMILES IDX 62 78 64 79 66 80 63 81 47 82 48 83 53 84 49 85 50 86 52 87
REMARK SMILES IDX 54 88 51 89
REMARK H PARENT 7 17 85 26 71 51 45 62
REMARK Flexibility Score: inf
ROOT
ATOM      1  O   UNL A   1      40.751  21.009  26.217  1.00  0.00    -0.458 OA
ENDROOT
BRANCH   1   2
ATOM      2  C   UNL A   1      39.730  20.245  25.755  1.00  0.00     0.338 C 
ATOM      3  O   UNL A   1      39.752  19.049  25.537  1.00  0.00    -0.246 OA
BRANCH   2   4
ATOM      4  C   UNL A   1      38.502  21.064  25.632  1.00  0.00     0.063 A 
ATOM      5  C   UNL A   1      36.187  21.318  25.165  1.00  0.00     0.090 A 
ATOM      6  C   UNL A   1      37.298  20.493  25.236  1.00  0.00     0.046 A 
ATOM      7  N   UNL A   1      36.251  22.656  25.405  1.00  0.00    -0.255 NA
ATOM      8  C   UNL A   1      37.424  23.185  25.776  1.00  0.00     0.112 A 
ATOM      9  C   UNL A   1      38.555  22.422  25.956  1.00  0.00     0.036 A 
BRANCH   5  10
ATOM     10  C   UNL A   1      34.835  20.803  24.954  1.00  0.00     0.094 A 
ATOM     11  C   UNL A   1      32.632  21.072  25.488  1.00  0.00     0.223 A 
ATOM     12  N   UNL A   1      32.328  19.815  25.140  1.00  0.00    -0.222 NA
ATOM     13  N   UNL A   1      33.839  21.613  25.358  1.00  0.00    -0.211 NA
ATOM     14  C   UNL A   1      33.323  19.066  24.637  1.00  0.00     0.117 A 
ATOM     15  C   UNL A   1      34.616  19.506  24.535  1.00  0.00     0.051 A 
BRANCH  11  16
ATOM     16  N   UNL A   1      31.653  21.791  26.108  1.00  0.00    -0.354 N 
ATOM     17  H   UNL A   1      31.184  21.409  26.884  1.00  0.00     0.163 HD
BRANCH  16  18
ATOM     18  C   UNL A   1      31.296  23.114  25.635  1.00  0.00     0.122 C 
BRANCH  18  19
ATOM     19  C   UNL A   1      31.656  24.183  26.681  1.00  0.00     0.077 C 
BRANCH  19  20
ATOM     20  C   UNL A   1      31.924  25.541  26.058  1.00  0.00     0.050 A 
ATOM     21  C   UNL A   1      31.767  29.043  27.191  1.00  0.00     0.087 C 
ATOM     22  C   UNL A   1      31.899  27.801  26.360  1.00  0.00     0.105 A 
ATOM     23  N   UNL A   1      31.732  26.629  26.880  1.00  0.00    -0.240 NA
ATOM     24  N   UNL A   1      32.209  28.009  25.047  1.00  0.00    -0.311 N 
ATOM     25  C   UNL A   1      32.418  26.978  24.185  1.00  0.00     0.251 A 
ATOM     26  H   UNL A   1      32.283  28.934  24.714  1.00  0.00     0.171 HD
ATOM     27  C   UNL A   1      32.328  25.642  24.781  1.00  0.00     0.095 A 
ATOM     28  O   UNL A   1      32.640  27.137  22.991  1.00  0.00    -0.270 OA
ENDBRANCH  19  20
ENDBRANCH  18  19
ENDBRANCH  16  18
ENDBRANCH  11  16
ENDBRANCH   5  10
ENDBRANCH   2   4
ENDBRANCH   1   2
BRANCH   1  29
ATOM     29  C   UNL A   1      42.054  20.395  26.237  1.00  0.00     0.275 C 
BRANCH  29  30
ATOM     30  C   UNL A   1      43.134  21.360  25.744  1.00  0.00     0.275 C 
BRANCH  30  31
ATOM     31  O   UNL A   1      42.544  22.512  25.112  1.00  0.00    -0.458 OA
BRANCH  31  32
ATOM     32  C   UNL A   1      43.277  23.644  25.195  1.00  0.00     0.338 C 
ATOM     33  O   UNL A   1      44.273  23.936  24.553  1.00  0.00    -0.246 OA
BRANCH  32  34
ATOM     34  C   UNL A   1      42.630  24.602  26.102  1.00  0.00     0.060 A 
ATOM     35  C   UNL A   1      43.124  25.899  26.103  1.00  0.00     0.016 A 
ATOM     36  C   UNL A   1      41.713  24.206  27.068  1.00  0.00     0.016 A 
ATOM     37  C   UNL A   1      42.819  26.774  27.136  1.00  0.00     0.010 A 
ATOM     38  C   UNL A   1      41.301  25.133  28.037  1.00  0.00     0.010 A 
ATOM     39  C   UNL A   1      41.881  26.416  28.109  1.00  0.00    -0.014 A 
BRANCH  39  40
ATOM     40  C   UNL A   1      41.540  27.374  29.202  1.00  0.00     0.031 A 
ATOM     41  C   UNL A   1      42.333  27.380  30.484  1.00  0.00     0.074 A 
ATOM     42  C   UNL A   1      40.533  28.259  29.043  1.00  0.00     0.049 A 
ATOM     43  N   UNL A   1      42.085  28.002  31.609  1.00  0.00    -0.248 NA
ATOM     44  C   UNL A   1      43.560  26.567  30.509  1.00  0.00     0.031 C 
ATOM     45  C   UNL A   1      39.714  28.409  27.837  1.00  0.00     0.029 A 
ATOM     46  N   UNL A   1      40.026  29.206  29.900  1.00  0.00    -0.354 N 
ATOM     47  C   UNL A   1      43.087  27.611  32.490  1.00  0.00     0.074 A 
ATOM     48  C   UNL A   1      43.940  26.688  31.772  1.00  0.00     0.031 C 
ATOM     49  C   UNL A   1      38.840  29.408  28.016  1.00  0.00     0.029 A 
ATOM     50  C   UNL A   1      38.956  29.897  29.383  1.00  0.00     0.049 A 
ATOM     51  H   UNL A   1      40.393  29.372  30.799  1.00  0.00     0.167 HD
ATOM     52  C   UNL A   1      43.277  27.988  33.778  1.00  0.00     0.037 A 
ATOM     53  C   UNL A   1      38.120  30.784  29.955  1.00  0.00     0.037 A 
ATOM     54  C   UNL A   1      42.449  28.943  34.471  1.00  0.00     0.049 A 
ATOM     55  C   UNL A   1      38.312  31.139  31.401  1.00  0.00     0.074 A 
ATOM     56  C   UNL A   1      42.569  29.406  35.770  1.00  0.00     0.029 A 
ATOM     57  N   UNL A   1      41.355  29.590  33.917  1.00  0.00    -0.354 N 
ATOM     58  N   UNL A   1      39.236  30.729  32.236  1.00  0.00    -0.248 NA
ATOM     59  C   UNL A   1      37.337  32.065  31.989  1.00  0.00     0.031 C 
ATOM     60  C   UNL A   1      41.514  30.290  36.019  1.00  0.00     0.029 A 
ATOM     61  C   UNL A   1      40.775  30.428  34.856  1.00  0.00     0.049 A 
ATOM     62  H   UNL A   1      41.035  29.472  32.993  1.00  0.00     0.167 HD
ATOM     63  C   UNL A   1      38.968  31.365  33.440  1.00  0.00     0.074 A 
ATOM     64  C   UNL A   1      37.805  32.202  33.221  1.00  0.00     0.031 C 
ATOM     65  C   UNL A   1      39.623  31.263  34.622  1.00  0.00     0.037 A 
BRANCH  52  66
ATOM     66  C   UNL A   1      44.397  27.335  34.540  1.00  0.00     0.057 A 
ATOM     67  C   UNL A   1      44.229  26.137  35.244  1.00  0.00     0.134 A 
ATOM     68  C   UNL A   1      45.679  27.904  34.536  1.00  0.00     0.134 A 
ATOM     69  F   UNL A   1      43.027  25.543  35.300  1.00  0.00    -0.206 F 
ATOM     70  C   UNL A   1      45.285  25.544  35.942  1.00  0.00     0.040 A 
ATOM     71  C   UNL A   1      46.749  27.304  35.202  1.00  0.00     0.040 A 
ATOM     72  F   UNL A   1      45.917  29.046  33.873  1.00  0.00    -0.206 F 
ATOM     73  C   UNL A   1      46.552  26.125  35.915  1.00  0.00     0.006 A 
ENDBRANCH  52  66
BRANCH  53  74
ATOM     74  C   UNL A   1      36.992  31.356  29.172  1.00  0.00     0.057 A 
ATOM     75  C   UNL A   1      35.861  30.592  28.864  1.00  0.00     0.134 A 
ATOM     76  C   UNL A   1      37.019  32.679  28.711  1.00  0.00     0.134 A 
ATOM     77  F   UNL A   1      35.784  29.312  29.256  1.00  0.00    -0.206 F 
ATOM     78  C   UNL A   1      34.807  31.116  28.113  1.00  0.00     0.040 A 
ATOM     79  C   UNL A   1      35.958  33.227  27.990  1.00  0.00     0.040 A 
ATOM     80  F   UNL A   1      38.071  33.468  28.975  1.00  0.00    -0.206 F 
ATOM     81  C   UNL A   1      34.850  32.441  27.682  1.00  0.00     0.006 A 
ENDBRANCH  53  74
BRANCH  65  82
ATOM     82  C   UNL A   1      39.128  32.116  35.754  1.00  0.00     0.057 A 
ATOM     83  C   UNL A   1      38.247  31.624  36.725  1.00  0.00     0.134 A 
ATOM     84  C   UNL A   1      39.563  33.441  35.886  1.00  0.00     0.134 A 
ATOM     85  F   UNL A   1      37.780  30.369  36.648  1.00  0.00    -0.206 F 
ATOM     86  C   UNL A   1      37.794  32.429  37.772  1.00  0.00     0.040 A 
ATOM     87  C   UNL A   1      39.143  34.245  36.945  1.00  0.00     0.040 A 
ATOM     88  F   UNL A   1      40.414  33.971  34.994  1.00  0.00    -0.206 F 
ATOM     89  C   UNL A   1      38.249  33.742  37.888  1.00  0.00     0.006 A 
ENDBRANCH  65  82
ENDBRANCH  39  40
ENDBRANCH  32  34
ENDBRANCH  31  32
ENDBRANCH  30  31
ENDBRANCH  29  30
ENDBRANCH   1  29
TORSDOF 16
ENDMDL
MODEL 2
REMARK VINA RESULT:     -12.1      4.767      9.964
REMARK SMILES Cc1nc(CCNc2nccc(-c3cc(C(=O)OCCOC(=O)c4ccc(-c5c6nc(c(-c7c(F)cccc7F)c7ccc([nH]7)c(-c7c(F)cccc7F)c7nc(c(-c8c(F)cccc8F)c8ccc5[nH]8)C=C7)C=C6)cc4)ccn3)n2)cc(=O)[nH]1
REMARK SMILES IDX 18 1 16 2 17 3 15 4 13 5 14 6 80 7 79 8 78 9 12 10 8 11 9 12
REMARK SMILES IDX 81 13 10 14 11 15 7 16 6 18 5 19 4 20 1 21 2 22 3 23 85 24
REMARK SMILES IDX 83 25 82 27 84 28 19 29 20 30 21 31 22 32 23 33 24 34 25 35
REMARK SMILES IDX 77 36 26 37 76 38 27 39 28 40 29 41 70 42 30 43 75 44 69 45
REMARK SMILES IDX 71 46 31 47 74 48 68 49 67 50 32 52 58 53 41 54 57 55 42 56
REMARK SMILES IDX 45 57 56 58 72 59 43 60 44 61 55 63 73 64 46 65 33 66 34 67
REMARK SMILES IDX 39 68 35 69 36 70 38 71 40 72 37 73 59 74 60 75 65 76 61 77
REMARK SMILES IDX 62 78 64 79 66 80 63 81 47 82 48 83 53 84 49 85 50 86 52 87
REMARK SMILES IDX 54 88 51 89
REMARK H PARENT 7 17 85 26 71 51 45 62
REMARK Flexibility Score: inf
ROOT
ATOM      1  O   UNL A   1      34.267  33.398  28.758  1.00  0.00    -0.458 OA
ENDROOT
BRANCH   1   2
ATOM      2  C   UNL A   1      33.235  32.967  27.990  1.00  0.00     0.338 C 
ATOM      3  O   UNL A   1      32.279  33.619  27.616  1.00  0.00    -0.246 OA
BRANCH   2   4
ATOM      4  C   UNL A   1      33.473  31.569  27.563  1.00  0.00     0.063 A 
ATOM      5  C   UNL A   1      32.850  29.595  26.398  1.00  0.00     0.090 A 
ATOM      6  C   UNL A   1      32.548  30.893  26.776  1.00  0.00     0.046 A 
ATOM      7  N   UNL A   1      33.974  28.953  26.818  1.00  0.00    -0.255 NA
ATOM      8  C   UNL A   1      34.846  29.621  27.583  1.00  0.00     0.112 A 
ATOM      9  C   UNL A   1      34.666  30.940  27.930  1.00  0.00     0.036 A 
BRANCH   5  10
ATOM     10  C   UNL A   1      32.057  28.855  25.417  1.00  0.00     0.094 A 
ATOM     11  C   UNL A   1      31.965  26.969  24.135  1.00  0.00     0.223 A 
ATOM     12  N   UNL A   1      31.075  27.509  23.292  1.00  0.00    -0.222 NA
ATOM     13  N   UNL A   1      32.428  27.575  25.223  1.00  0.00    -0.211 NA
ATOM     14  C   UNL A   1      30.642  28.748  23.577  1.00  0.00     0.117 A 
ATOM     15  C   UNL A   1      31.115  29.485  24.629  1.00  0.00     0.051 A 
BRANCH  11  16
ATOM     16  N   UNL A   1      32.492  25.762  23.781  1.00  0.00    -0.354 N 
ATOM     17  H   UNL A   1      31.923  25.093  23.336  1.00  0.00     0.163 HD
BRANCH  16  18
ATOM     18  C   UNL A   1      33.882  25.455  24.053  1.00  0.00     0.122 C 
BRANCH  18  19
ATOM     19  C   UNL A   1      34.041  24.840  25.454  1.00  0.00     0.077 C 
BRANCH  19  20
ATOM     20  C   UNL A   1      33.005  23.768  25.742  1.00  0.00     0.050 A 
ATOM     21  C   UNL A   1      32.284  20.386  24.474  1.00  0.00     0.087 C 
ATOM     22  C   UNL A   1      32.215  21.703  25.188  1.00  0.00     0.105 A 
ATOM     23  N   UNL A   1      33.117  22.611  25.005  1.00  0.00    -0.240 NA
ATOM     24  N   UNL A   1      31.151  21.852  26.031  1.00  0.00    -0.311 N 
ATOM     25  C   UNL A   1      30.986  22.968  26.791  1.00  0.00     0.251 A 
ATOM     26  H   UNL A   1      30.483  21.131  26.090  1.00  0.00     0.171 HD
ATOM     27  C   UNL A   1      32.053  23.966  26.668  1.00  0.00     0.095 A 
ATOM     28  O   UNL A   1      30.013  23.151  27.511  1.00  0.00    -0.270 OA
ENDBRANCH  19  20
ENDBRANCH  18  19
ENDBRANCH  16  18
ENDBRANCH  11  16
ENDBRANCH   5  10
ENDBRANCH   2   4
ENDBRANCH   1   2
BRANCH   1  29
ATOM     29  C   UNL A   1      33.970  34.447  29.700  1.00  0.00     0.275 C 
BRANCH  29  30
ATOM     30  C   UNL A   1      34.385  34.056  31.120  1.00  0.00     0.275 C 
BRANCH  30  31
ATOM     31  O   UNL A   1      34.557  32.630  31.231  1.00  0.00    -0.458 OA
BRANCH  31  32
ATOM     32  C   UNL A   1      35.523  32.239  32.091  1.00  0.00     0.338 C 
ATOM     33  O   UNL A   1      35.525  32.339  33.307  1.00  0.00    -0.246 OA
BRANCH  32  34
ATOM     34  C   UNL A   1      36.580  31.516  31.370  1.00  0.00     0.060 A 
ATOM     35  C   UNL A   1      37.381  30.665  32.118  1.00  0.00     0.016 A 
ATOM     36  C   UNL A   1      36.915  31.809  30.054  1.00  0.00     0.016 A 
ATOM     37  C   UNL A   1      38.590  30.203  31.615  1.00  0.00     0.010 A 
ATOM     38  C   UNL A   1      38.069  31.235  29.501  1.00  0.00     0.010 A 
ATOM     39  C   UNL A   1      38.945  30.459  30.287  1.00  0.00    -0.014 A 
BRANCH  39  40
ATOM     40  C   UNL A   1      40.235  29.937  29.748  1.00  0.00     0.031 A 
ATOM     41  C   UNL A   1      41.440  30.838  29.653  1.00  0.00     0.074 A 
ATOM     42  C   UNL A   1      40.340  28.648  29.362  1.00  0.00     0.049 A 
ATOM     43  N   UNL A   1      42.585  30.629  29.054  1.00  0.00    -0.248 NA
ATOM     44  C   UNL A   1      41.338  32.154  30.304  1.00  0.00     0.031 C 
ATOM     45  C   UNL A   1      39.277  27.644  29.449  1.00  0.00     0.029 A 
ATOM     46  N   UNL A   1      41.398  27.956  28.822  1.00  0.00    -0.354 N 
ATOM     47  C   UNL A   1      43.315  31.804  29.205  1.00  0.00     0.074 A 
ATOM     48  C   UNL A   1      42.477  32.726  29.942  1.00  0.00     0.031 C 
ATOM     49  C   UNL A   1      39.744  26.465  29.018  1.00  0.00     0.029 A 
ATOM     50  C   UNL A   1      41.101  26.649  28.520  1.00  0.00     0.049 A 
ATOM     51  H   UNL A   1      42.283  28.359  28.665  1.00  0.00     0.167 HD
ATOM     52  C   UNL A   1      44.567  32.085  28.769  1.00  0.00     0.037 A 
ATOM     53  C   UNL A   1      41.811  25.712  27.865  1.00  0.00     0.037 A 
ATOM     54  C   UNL A   1      45.412  31.145  28.076  1.00  0.00     0.049 A 
ATOM     55  C   UNL A   1      43.171  26.066  27.336  1.00  0.00     0.074 A 
ATOM     56  C   UNL A   1      46.702  31.326  27.610  1.00  0.00     0.029 A 
ATOM     57  N   UNL A   1      45.054  29.842  27.761  1.00  0.00    -0.354 N 
ATOM     58  N   UNL A   1      43.832  27.193  27.447  1.00  0.00    -0.248 NA
ATOM     59  C   UNL A   1      43.877  25.026  26.578  1.00  0.00     0.031 C 
ATOM     60  C   UNL A   1      47.103  30.153  26.963  1.00  0.00     0.029 A 
ATOM     61  C   UNL A   1      46.088  29.218  27.083  1.00  0.00     0.049 A 
ATOM     62  H   UNL A   1      44.191  29.423  27.984  1.00  0.00     0.167 HD
ATOM     63  C   UNL A   1      45.040  26.990  26.793  1.00  0.00     0.074 A 
ATOM     64  C   UNL A   1      45.027  25.625  26.306  1.00  0.00     0.031 C 
ATOM     65  C   UNL A   1      46.066  27.856  26.611  1.00  0.00     0.037 A 
BRANCH  52  66
ATOM     66  C   UNL A   1      45.087  33.479  28.988  1.00  0.00     0.057 A 
ATOM     67  C   UNL A   1      45.846  33.829  30.112  1.00  0.00     0.134 A 
ATOM     68  C   UNL A   1      44.850  34.480  28.035  1.00  0.00     0.134 A 
ATOM     69  F   UNL A   1      46.102  32.926  31.069  1.00  0.00    -0.206 F 
ATOM     70  C   UNL A   1      46.325  35.130  30.294  1.00  0.00     0.040 A 
ATOM     71  C   UNL A   1      45.350  35.774  28.191  1.00  0.00     0.040 A 
ATOM     72  F   UNL A   1      44.139  34.213  26.929  1.00  0.00    -0.206 F 
ATOM     73  C   UNL A   1      46.083  36.104  29.326  1.00  0.00     0.006 A 
ENDBRANCH  52  66
BRANCH  53  74
ATOM     74  C   UNL A   1      41.226  24.365  27.624  1.00  0.00     0.057 A 
ATOM     75  C   UNL A   1      40.216  24.172  26.675  1.00  0.00     0.134 A 
ATOM     76  C   UNL A   1      41.661  23.242  28.339  1.00  0.00     0.134 A 
ATOM     77  F   UNL A   1      39.740  25.212  25.974  1.00  0.00    -0.206 F 
ATOM     78  C   UNL A   1      39.649  22.915  26.458  1.00  0.00     0.040 A 
ATOM     79  C   UNL A   1      41.127  21.973  28.107  1.00  0.00     0.040 A 
ATOM     80  F   UNL A   1      42.629  23.355  29.260  1.00  0.00    -0.206 F 
ATOM     81  C   UNL A   1      40.111  21.809  27.169  1.00  0.00     0.006 A 
ENDBRANCH  53  74
BRANCH  65  82
ATOM     82  C   UNL A   1      47.280  27.337  25.897  1.00  0.00     0.057 A 
ATOM     83  C   UNL A   1      47.447  27.478  24.514  1.00  0.00     0.134 A 
ATOM     84  C   UNL A   1      48.309  26.710  26.613  1.00  0.00     0.134 A 
ATOM     85  F   UNL A   1      46.492  28.055  23.769  1.00  0.00    -0.206 F 
ATOM     86  C   UNL A   1      48.581  26.990  23.863  1.00  0.00     0.040 A 
ATOM     87  C   UNL A   1      49.461  26.246  25.978  1.00  0.00     0.040 A 
ATOM     88  F   UNL A   1      48.216  26.549  27.941  1.00  0.00    -0.206 F 
ATOM     89  C   UNL A   1      49.596  26.377  24.597  1.00  0.00     0.006 A 
ENDBRANCH  65  82
ENDBRANCH  39  40
ENDBRANCH  32  34
ENDBRANCH  31  32
ENDBRANCH  30  31
ENDBRANCH  29  30
ENDBRANCH   1  29
TORSDOF 16
ENDMDL
MODEL 3
REMARK VINA RESULT:     -12.0      5.325     10.040
REMARK SMILES Cc1nc(CCNc2nccc(-c3cc(C(=O)OCCOC(=O)c4ccc(-c5c6nc(c(-c7c(F)cccc7F)c7ccc([nH]7)c(-c7c(F)cccc7F)c7nc(c(-c8c(F)cccc8F)c8ccc5[nH]8)C=C7)C=C6)cc4)ccn3)n2)cc(=O)[nH]1
REMARK SMILES IDX 18 1 16 2 17 3 15 4 13 5 14 6 80 7 79 8 78 9 12 10 8 11 9 12
REMARK SMILES IDX 81 13 10 14 11 15 7 16 6 18 5 19 4 20 1 21 2 22 3 23 85 24
REMARK SMILES IDX 83 25 82 27 84 28 19 29 20 30 21 31 22 32 23 33 24 34 25 35
REMARK SMILES IDX 77 36 26 37 76 38 27 39 28 40 29 41 70 42 30 43 75 44 69 45
REMARK SMILES IDX 71 46 31 47 74 48 68 49 67 50 32 52 58 53 41 54 57 55 42 56
REMARK SMILES IDX 45 57 56 58 72 59 43 60 44 61 55 63 73 64 46 65 33 66 34 67
REMARK SMILES IDX 39 68 35 69 36 70 38 71 40 72 37 73 59 74 60 75 65 76 61 77
REMARK SMILES IDX 62 78 64 79 66 80 63 81 47 82 48 83 53 84 49 85 50 86 52 87
REMARK SMILES IDX 54 88 51 89
REMARK H PARENT 7 17 85 26 71 51 45 62
REMARK Flexibility Score: inf
ROOT
ATOM      1  O   UNL A   1      33.885  33.277  29.616  1.00  0.00    -0.458 OA
ENDROOT
BRANCH   1   2
ATOM      2  C   UNL A   1      34.136  33.205  28.285  1.00  0.00     0.338 C 
ATOM      3  O   UNL A   1      34.135  34.126  27.490  1.00  0.00    -0.246 OA
BRANCH   2   4
ATOM      4  C   UNL A   1      34.518  31.823  27.916  1.00  0.00     0.063 A 
ATOM      5  C   UNL A   1      33.987  29.591  27.303  1.00  0.00     0.090 A 
ATOM      6  C   UNL A   1      33.552  30.855  27.665  1.00  0.00     0.046 A 
ATOM      7  N   UNL A   1      35.305  29.256  27.250  1.00  0.00    -0.255 NA
ATOM      8  C   UNL A   1      36.217  30.203  27.505  1.00  0.00     0.112 A 
ATOM      9  C   UNL A   1      35.873  31.505  27.784  1.00  0.00     0.036 A 
BRANCH   5  10
ATOM     10  C   UNL A   1      33.076  28.551  26.826  1.00  0.00     0.094 A 
ATOM     11  C   UNL A   1      32.382  27.375  24.997  1.00  0.00     0.223 A 
ATOM     12  N   UNL A   1      31.221  27.038  25.574  1.00  0.00    -0.222 NA
ATOM     13  N   UNL A   1      33.343  28.068  25.598  1.00  0.00    -0.211 NA
ATOM     14  C   UNL A   1      31.032  27.444  26.841  1.00  0.00     0.117 A 
ATOM     15  C   UNL A   1      31.928  28.226  27.520  1.00  0.00     0.051 A 
BRANCH  11  16
ATOM     16  N   UNL A   1      32.523  27.067  23.676  1.00  0.00    -0.354 N 
ATOM     17  H   UNL A   1      33.347  26.628  23.362  1.00  0.00     0.163 HD
BRANCH  16  18
ATOM     18  C   UNL A   1      31.471  27.378  22.729  1.00  0.00     0.122 C 
BRANCH  18  19
ATOM     19  C   UNL A   1      31.266  28.899  22.620  1.00  0.00     0.077 C 
BRANCH  19  20
ATOM     20  C   UNL A   1      29.812  29.278  22.404  1.00  0.00     0.050 A 
ATOM     21  C   UNL A   1      28.013  31.867  20.498  1.00  0.00     0.087 C 
ATOM     22  C   UNL A   1      28.362  30.737  21.421  1.00  0.00     0.105 A 
ATOM     23  N   UNL A   1      29.588  30.357  21.579  1.00  0.00    -0.240 NA
ATOM     24  N   UNL A   1      27.302  30.156  22.056  1.00  0.00    -0.311 N 
ATOM     25  C   UNL A   1      27.455  29.084  22.878  1.00  0.00     0.251 A 
ATOM     26  H   UNL A   1      26.399  30.525  21.915  1.00  0.00     0.171 HD
ATOM     27  C   UNL A   1      28.827  28.579  22.992  1.00  0.00     0.095 A 
ATOM     28  O   UNL A   1      26.530  28.580  23.504  1.00  0.00    -0.270 OA
ENDBRANCH  19  20
ENDBRANCH  18  19
ENDBRANCH  16  18
ENDBRANCH  11  16
ENDBRANCH   5  10
ENDBRANCH   2   4
ENDBRANCH   1   2
BRANCH   1  29
ATOM     29  C   UNL A   1      34.825  34.032  30.406  1.00  0.00     0.275 C 
BRANCH  29  30
ATOM     30  C   UNL A   1      34.691  33.707  31.895  1.00  0.00     0.275 C 
BRANCH  30  31
ATOM     31  O   UNL A   1      34.994  32.322  32.148  1.00  0.00    -0.458 OA
BRANCH  31  32
ATOM     32  C   UNL A   1      36.134  32.106  32.840  1.00  0.00     0.338 C 
ATOM     33  O   UNL A   1      36.342  32.323  34.023  1.00  0.00    -0.246 OA
BRANCH  32  34
ATOM     34  C   UNL A   1      37.118  31.418  31.993  1.00  0.00     0.060 A 
ATOM     35  C   UNL A   1      37.907  30.453  32.603  1.00  0.00     0.016 A 
ATOM     36  C   UNL A   1      37.408  31.838  30.700  1.00  0.00     0.016 A 
ATOM     37  C   UNL A   1      39.066  29.993  31.993  1.00  0.00     0.010 A 
ATOM     38  C   UNL A   1      38.505  31.275  30.031  1.00  0.00     0.010 A 
ATOM     39  C   UNL A   1      39.373  30.377  30.684  1.00  0.00    -0.014 A 
BRANCH  39  40
ATOM     40  C   UNL A   1      40.608  29.857  30.027  1.00  0.00     0.031 A 
ATOM     41  C   UNL A   1      41.815  30.746  29.864  1.00  0.00     0.074 A 
ATOM     42  C   UNL A   1      40.664  28.581  29.593  1.00  0.00     0.049 A 
ATOM     43  N   UNL A   1      42.906  30.543  29.169  1.00  0.00    -0.248 NA
ATOM     44  C   UNL A   1      41.785  32.041  30.563  1.00  0.00     0.031 C 
ATOM     45  C   UNL A   1      39.596  27.587  29.732  1.00  0.00     0.029 A 
ATOM     46  N   UNL A   1      41.665  27.894  28.948  1.00  0.00    -0.354 N 
ATOM     47  C   UNL A   1      43.662  31.703  29.299  1.00  0.00     0.074 A 
ATOM     48  C   UNL A   1      42.900  32.611  30.130  1.00  0.00     0.031 C 
ATOM     49  C   UNL A   1      40.010  26.417  29.227  1.00  0.00     0.029 A 
ATOM     50  C   UNL A   1      41.326  26.601  28.629  1.00  0.00     0.049 A 
ATOM     51  H   UNL A   1      42.540  28.291  28.734  1.00  0.00     0.167 HD
ATOM     52  C   UNL A   1      44.880  31.983  28.774  1.00  0.00     0.037 A 
ATOM     53  C   UNL A   1      41.967  25.678  27.889  1.00  0.00     0.037 A 
ATOM     54  C   UNL A   1      45.653  31.056  27.986  1.00  0.00     0.049 A 
ATOM     55  C   UNL A   1      43.286  26.032  27.265  1.00  0.00     0.074 A 
ATOM     56  C   UNL A   1      46.905  31.237  27.424  1.00  0.00     0.029 A 
ATOM     57  N   UNL A   1      45.252  29.770  27.658  1.00  0.00    -0.354 N 
ATOM     58  N   UNL A   1      43.970  27.147  27.358  1.00  0.00    -0.248 NA
ATOM     59  C   UNL A   1      43.914  25.009  26.420  1.00  0.00     0.031 C 
ATOM     60  C   UNL A   1      47.236  30.081  26.709  1.00  0.00     0.029 A 
ATOM     61  C   UNL A   1      46.220  29.155  26.880  1.00  0.00     0.049 A 
ATOM     62  H   UNL A   1      44.404  29.354  27.936  1.00  0.00     0.167 HD
ATOM     63  C   UNL A   1      45.119  26.951  26.604  1.00  0.00     0.074 A 
ATOM     64  C   UNL A   1      45.047  25.603  26.076  1.00  0.00     0.031 C 
ATOM     65  C   UNL A   1      46.140  27.810  26.368  1.00  0.00     0.037 A 
BRANCH  52  66
ATOM     66  C   UNL A   1      45.436  33.363  28.995  1.00  0.00     0.057 A 
ATOM     67  C   UNL A   1      46.278  33.670  30.072  1.00  0.00     0.134 A 
ATOM     68  C   UNL A   1      45.150  34.394  28.089  1.00  0.00     0.134 A 
ATOM     69  F   UNL A   1      46.585  32.735  30.983  1.00  0.00    -0.206 F 
ATOM     70  C   UNL A   1      46.788  34.958  30.257  1.00  0.00     0.040 A 
ATOM     71  C   UNL A   1      45.680  35.676  28.246  1.00  0.00     0.040 A 
ATOM     72  F   UNL A   1      44.359  34.170  27.028  1.00  0.00    -0.206 F 
ATOM     73  C   UNL A   1      46.496  35.963  29.336  1.00  0.00     0.006 A 
ENDBRANCH  52  66
BRANCH  53  74
ATOM     74  C   UNL A   1      41.345  24.347  27.653  1.00  0.00     0.057 A 
ATOM     75  C   UNL A   1      40.331  24.178  26.704  1.00  0.00     0.134 A 
ATOM     76  C   UNL A   1      41.748  23.215  28.373  1.00  0.00     0.134 A 
ATOM     77  F   UNL A   1      39.885  25.228  25.998  1.00  0.00    -0.206 F 
ATOM     78  C   UNL A   1      39.729  22.937  26.490  1.00  0.00     0.040 A 
ATOM     79  C   UNL A   1      41.179  21.961  28.145  1.00  0.00     0.040 A 
ATOM     80  F   UNL A   1      42.717  23.305  29.295  1.00  0.00    -0.206 F 
ATOM     81  C   UNL A   1      40.160  21.822  27.207  1.00  0.00     0.006 A 
ENDBRANCH  53  74
BRANCH  65  82
ATOM     82  C   UNL A   1      47.286  27.300  25.543  1.00  0.00     0.057 A 
ATOM     83  C   UNL A   1      47.374  27.538  24.166  1.00  0.00     0.134 A 
ATOM     84  C   UNL A   1      48.329  26.584  26.145  1.00  0.00     0.134 A 
ATOM     85  F   UNL A   1      46.401  28.203  23.526  1.00  0.00    -0.206 F 
ATOM     86  C   UNL A   1      48.445  27.056  23.411  1.00  0.00     0.040 A 
ATOM     87  C   UNL A   1      49.420  26.126  25.407  1.00  0.00     0.040 A 
ATOM     88  F   UNL A   1      48.310  26.329  27.462  1.00  0.00    -0.206 F 
ATOM     89  C   UNL A   1      49.476  26.354  24.034  1.00  0.00     0.006 A 
ENDBRANCH  65  82
ENDBRANCH  39  40
ENDBRANCH  32  34
ENDBRANCH  31  32
ENDBRANCH  30  31
ENDBRANCH  29  30
ENDBRANCH   1  29
TORSDOF 16
ENDMDL
