MODEL 1
REMARK VINA RESULT:     -13.3      0.000      0.000
REMARK SMILES Cc1ccccc1C[C@H](CCSc1ccccc1)C(=O)OCCOC(=O)c1ccc(-c2c3nc(c(-c4c(F)cccc4F)c4ccc([nH]4)c(-c4c(F)cccc4F)c4nc(c(-c5c(F)cccc5F)c5ccc2[nH]5)C=C4)C=C3)cc1
REMARK SMILES IDX 22 1 21 2 19 3 20 4 9 5 8 6 7 7 1 8 2 9 3 10 4 11 6 12 5 13
REMARK SMILES IDX 10 14 11 15 12 16 13 17 14 18 18 19 15 20 17 21 16 22 23 23
REMARK SMILES IDX 24 24 25 25 26 26 27 27 28 28 80 29 29 30 79 31 30 32 31 33
REMARK SMILES IDX 32 34 73 35 33 36 78 37 72 38 74 39 34 40 77 41 71 42 70 43
REMARK SMILES IDX 35 45 61 46 44 47 60 48 45 49 48 50 59 51 75 52 46 53 47 54
REMARK SMILES IDX 58 56 76 57 49 58 36 59 37 60 42 61 38 62 39 63 41 64 43 65
REMARK SMILES IDX 40 66 62 67 63 68 68 69 64 70 65 71 67 72 69 73 66 74 50 75
REMARK SMILES IDX 51 76 56 77 52 78 53 79 55 80 57 81 54 82
REMARK H PARENT 74 44 48 55
REMARK Flexibility Score: inf
ROOT
ATOM      1  C   UNL A   1      37.912  21.731  25.362  1.00  0.00     0.274 C 
ENDROOT
BRANCH   1   2
ATOM      2  O   UNL A   1      37.776  22.925  24.614  1.00  0.00    -0.462 OA
BRANCH   2   3
ATOM      3  C   UNL A   1      36.467  23.248  24.069  1.00  0.00     0.309 C 
ATOM      4  O   UNL A   1      36.639  23.237  22.813  1.00  0.00    -0.252 OA
BRANCH   3   5
ATOM      5  C   UNL A   1      34.721  23.667  25.322  1.00  0.00     0.104 C 
BRANCH   5   6
ATOM      6  C   UNL A   1      34.144  25.312  25.897  1.00  0.00     0.051 C 
BRANCH   6   7
ATOM      7  C   UNL A   1      33.982  26.447  24.916  1.00  0.00    -0.044 A 
ATOM      8  C   UNL A   1      34.252  28.785  26.587  1.00  0.00     0.044 C 
ATOM      9  C   UNL A   1      33.369  28.014  25.596  1.00  0.00    -0.048 A 
ATOM     10  C   UNL A   1      32.475  29.138  24.548  1.00  0.00     0.004 A 
ATOM     11  C   UNL A   1      32.331  28.802  22.784  1.00  0.00     0.000 A 
ATOM     12  C   UNL A   1      33.775  26.084  23.093  1.00  0.00     0.004 A 
ATOM     13  C   UNL A   1      32.994  27.298  22.036  1.00  0.00     0.000 A 
ENDBRANCH   6   7
ENDBRANCH   5   6
BRANCH   5  14
ATOM     14  C   UNL A   1      33.960  22.905  26.704  1.00  0.00     0.027 C 
BRANCH  14  15
ATOM     15  C   UNL A   1      32.915  21.722  26.428  1.00  0.00     0.076 C 
BRANCH  15  16
ATOM     16  S   UNL A   1      31.198  22.037  25.748  1.00  0.00    -0.126 SA
BRANCH  16  17
ATOM     17  C   UNL A   1      30.945  23.737  25.202  1.00  0.00     0.007 A 
ATOM     18  C   UNL A   1      30.752  24.091  23.880  1.00  0.00     0.015 A 
ATOM     19  C   UNL A   1      30.673  24.751  26.133  1.00  0.00     0.015 A 
ATOM     20  C   UNL A   1      30.252  25.331  23.467  1.00  0.00     0.001 A 
ATOM     21  C   UNL A   1      30.193  26.020  25.734  1.00  0.00     0.001 A 
ATOM     22  C   UNL A   1      29.958  26.304  24.395  1.00  0.00     0.000 A 
ENDBRANCH  16  17
ENDBRANCH  15  16
ENDBRANCH  14  15
ENDBRANCH   5  14
ENDBRANCH   3   5
ENDBRANCH   2   3
ENDBRANCH   1   2
BRANCH   1  23
ATOM     23  C   UNL A   1      39.297  21.744  26.008  1.00  0.00     0.275 C 
BRANCH  23  24
ATOM     24  O   UNL A   1      39.989  20.455  26.195  1.00  0.00    -0.458 OA
BRANCH  24  25
ATOM     25  C   UNL A   1      41.284  20.053  25.978  1.00  0.00     0.338 C 
ATOM     26  O   UNL A   1      41.550  18.899  25.669  1.00  0.00    -0.246 OA
BRANCH  25  27
ATOM     27  C   UNL A   1      42.409  20.934  26.448  1.00  0.00     0.060 A 
ATOM     28  C   UNL A   1      42.302  21.331  28.192  1.00  0.00     0.016 A 
ATOM     29  C   UNL A   1      42.935  22.147  25.279  1.00  0.00     0.016 A 
ATOM     30  C   UNL A   1      42.425  23.058  28.745  1.00  0.00     0.010 A 
ATOM     31  C   UNL A   1      43.118  23.856  25.796  1.00  0.00     0.010 A 
ATOM     32  C   UNL A   1      42.745  24.356  27.543  1.00  0.00    -0.014 A 
BRANCH  32  33
ATOM     33  C   UNL A   1      42.821  25.974  28.054  1.00  0.00     0.031 A 
ATOM     34  C   UNL A   1      41.156  27.338  28.093  1.00  0.00     0.074 A 
ATOM     35  C   UNL A   1      44.146  25.802  28.642  1.00  0.00     0.049 A 
ATOM     36  N   UNL A   1      41.027  28.702  28.017  1.00  0.00    -0.248 NA
ATOM     37  C   UNL A   1      39.446  27.036  28.110  1.00  0.00     0.031 C 
ATOM     38  C   UNL A   1      44.769  26.405  29.873  1.00  0.00     0.029 A 
ATOM     39  N   UNL A   1      45.323  25.685  27.831  1.00  0.00    -0.354 N 
ATOM     40  C   UNL A   1      39.865  29.128  28.622  1.00  0.00     0.074 A 
ATOM     41  C   UNL A   1      38.868  28.213  28.231  1.00  0.00     0.031 C 
ATOM     42  C   UNL A   1      45.932  27.003  29.581  1.00  0.00     0.029 A 
ATOM     43  C   UNL A   1      46.235  26.703  28.217  1.00  0.00     0.049 A 
ATOM     44  H   UNL A   1      45.473  25.014  27.126  1.00  0.00     0.167 HD
ATOM     45  C   UNL A   1      39.938  29.979  29.691  1.00  0.00     0.037 A 
ATOM     46  C   UNL A   1      46.956  27.492  27.384  1.00  0.00     0.037 A 
ATOM     47  C   UNL A   1      41.336  30.418  29.939  1.00  0.00     0.049 A 
ATOM     48  C   UNL A   1      46.582  28.971  27.476  1.00  0.00     0.074 A 
ATOM     49  C   UNL A   1      42.230  30.308  30.998  1.00  0.00     0.029 A 
ATOM     50  N   UNL A   1      42.126  30.829  28.861  1.00  0.00    -0.354 N 
ATOM     51  N   UNL A   1      45.570  29.484  28.148  1.00  0.00    -0.248 NA
ATOM     52  C   UNL A   1      47.357  30.001  26.794  1.00  0.00     0.031 C 
ATOM     53  C   UNL A   1      43.521  30.756  30.566  1.00  0.00     0.029 A 
ATOM     54  C   UNL A   1      43.443  31.077  29.221  1.00  0.00     0.049 A 
ATOM     55  H   UNL A   1      41.783  30.930  27.944  1.00  0.00     0.167 HD
ATOM     56  C   UNL A   1      45.455  30.846  27.872  1.00  0.00     0.074 A 
ATOM     57  C   UNL A   1      46.667  31.109  27.112  1.00  0.00     0.031 C 
ATOM     58  C   UNL A   1      44.372  31.639  28.231  1.00  0.00     0.037 A 
BRANCH  45  59
ATOM     59  C   UNL A   1      38.781  30.206  30.683  1.00  0.00     0.057 A 
ATOM     60  C   UNL A   1      38.026  31.394  30.627  1.00  0.00     0.134 A 
ATOM     61  C   UNL A   1      38.336  29.335  31.707  1.00  0.00     0.134 A 
ATOM     62  F   UNL A   1      38.226  32.315  29.677  1.00  0.00    -0.206 F 
ATOM     63  C   UNL A   1      36.989  31.705  31.525  1.00  0.00     0.040 A 
ATOM     64  C   UNL A   1      37.324  29.644  32.631  1.00  0.00     0.040 A 
ATOM     65  F   UNL A   1      38.784  28.091  31.866  1.00  0.00    -0.206 F 
ATOM     66  C   UNL A   1      36.640  30.835  32.542  1.00  0.00     0.006 A 
ENDBRANCH  45  59
BRANCH  46  67
ATOM     67  C   UNL A   1      47.474  26.692  26.233  1.00  0.00     0.057 A 
ATOM     68  C   UNL A   1      46.896  27.008  24.979  1.00  0.00     0.134 A 
ATOM     69  C   UNL A   1      48.805  26.285  26.225  1.00  0.00     0.134 A 
ATOM     70  F   UNL A   1      45.589  27.311  24.897  1.00  0.00    -0.206 F 
ATOM     71  C   UNL A   1      47.686  27.251  23.852  1.00  0.00     0.040 A 
ATOM     72  C   UNL A   1      49.592  26.456  25.076  1.00  0.00     0.040 A 
ATOM     73  F   UNL A   1      49.402  25.923  27.368  1.00  0.00    -0.206 F 
ATOM     74  C   UNL A   1      49.056  27.041  23.927  1.00  0.00     0.006 A 
ENDBRANCH  46  67
BRANCH  58  75
ATOM     75  C   UNL A   1      44.010  33.070  27.733  1.00  0.00     0.057 A 
ATOM     76  C   UNL A   1      43.793  34.204  28.524  1.00  0.00     0.134 A 
ATOM     77  C   UNL A   1      43.914  33.362  26.335  1.00  0.00     0.134 A 
ATOM     78  F   UNL A   1      43.919  34.198  29.849  1.00  0.00    -0.206 F 
ATOM     79  C   UNL A   1      43.457  35.467  27.996  1.00  0.00     0.040 A 
ATOM     80  C   UNL A   1      43.662  34.629  25.798  1.00  0.00     0.040 A 
ATOM     81  F   UNL A   1      44.057  32.441  25.376  1.00  0.00    -0.206 F 
ATOM     82  C   UNL A   1      43.402  35.689  26.632  1.00  0.00     0.006 A 
ENDBRANCH  58  75
ENDBRANCH  32  33
ENDBRANCH  25  27
ENDBRANCH  24  25
ENDBRANCH  23  24
ENDBRANCH   1  23
TORSDOF 17
ENDMDL
MODEL 2
REMARK VINA RESULT:     -13.1      4.218      9.703
REMARK SMILES Cc1ccccc1C[C@H](CCSc1ccccc1)C(=O)OCCOC(=O)c1ccc(-c2c3nc(c(-c4c(F)cccc4F)c4ccc([nH]4)c(-c4c(F)cccc4F)c4nc(c(-c5c(F)cccc5F)c5ccc2[nH]5)C=C4)C=C3)cc1
REMARK SMILES IDX 22 1 21 2 19 3 20 4 9 5 8 6 7 7 1 8 2 9 3 10 4 11 6 12 5 13
REMARK SMILES IDX 10 14 11 15 12 16 13 17 14 18 18 19 15 20 17 21 16 22 23 23
REMARK SMILES IDX 24 24 25 25 26 26 27 27 28 28 80 29 29 30 79 31 30 32 31 33
REMARK SMILES IDX 32 34 73 35 33 36 78 37 72 38 74 39 34 40 77 41 71 42 70 43
REMARK SMILES IDX 35 45 61 46 44 47 60 48 45 49 48 50 59 51 75 52 46 53 47 54
REMARK SMILES IDX 58 56 76 57 49 58 36 59 37 60 42 61 38 62 39 63 41 64 43 65
REMARK SMILES IDX 40 66 62 67 63 68 68 69 64 70 65 71 67 72 69 73 66 74 50 75
REMARK SMILES IDX 51 76 56 77 52 78 53 79 55 80 57 81 54 82
REMARK H PARENT 74 44 48 55
REMARK Flexibility Score: inf
ROOT
ATOM      1  C   UNL A   1      33.231  30.363  26.791  1.00  0.00     0.274 C 
ENDROOT
BRANCH   1   2
ATOM      2  O   UNL A   1      32.794  29.346  27.672  1.00  0.00    -0.462 OA
BRANCH   2   3
ATOM      3  C   UNL A   1      32.252  28.124  27.096  1.00  0.00     0.309 C 
ATOM      4  O   UNL A   1      31.380  27.742  27.934  1.00  0.00    -0.252 OA
BRANCH   3   5
ATOM      5  C   UNL A   1      32.957  27.281  25.203  1.00  0.00     0.104 C 
BRANCH   5   6
ATOM      6  C   UNL A   1      34.180  25.930  24.984  1.00  0.00     0.051 C 
BRANCH   6   7
ATOM      7  C   UNL A   1      34.205  24.764  25.941  1.00  0.00    -0.044 A 
ATOM      8  C   UNL A   1      36.961  23.911  25.846  1.00  0.00     0.044 C 
ATOM      9  C   UNL A   1      35.490  23.515  25.653  1.00  0.00    -0.048 A 
ATOM     10  C   UNL A   1      35.219  21.837  26.173  1.00  0.00     0.004 A 
ATOM     11  C   UNL A   1      33.754  21.418  27.133  1.00  0.00     0.000 A 
ATOM     12  C   UNL A   1      32.660  24.302  26.890  1.00  0.00     0.004 A 
ATOM     13  C   UNL A   1      32.480  22.637  27.522  1.00  0.00     0.000 A 
ENDBRANCH   6   7
ENDBRANCH   5   6
BRANCH   5  14
ATOM     14  C   UNL A   1      33.363  27.919  23.622  1.00  0.00     0.027 C 
BRANCH  14  15
ATOM     15  C   UNL A   1      32.447  27.488  22.380  1.00  0.00     0.076 C 
BRANCH  15  16
ATOM     16  S   UNL A   1      32.810  25.970  21.344  1.00  0.00    -0.126 SA
BRANCH  16  17
ATOM     17  C   UNL A   1      32.400  24.422  22.173  1.00  0.00     0.007 A 
ATOM     18  C   UNL A   1      33.239  23.325  22.195  1.00  0.00     0.015 A 
ATOM     19  C   UNL A   1      31.314  24.355  23.059  1.00  0.00     0.015 A 
ATOM     20  C   UNL A   1      33.093  22.245  23.073  1.00  0.00     0.001 A 
ATOM     21  C   UNL A   1      31.133  23.259  23.935  1.00  0.00     0.001 A 
ATOM     22  C   UNL A   1      32.041  22.209  23.959  1.00  0.00     0.000 A 
ENDBRANCH  16  17
ENDBRANCH  15  16
ENDBRANCH  14  15
ENDBRANCH   5  14
ENDBRANCH   3   5
ENDBRANCH   2   3
ENDBRANCH   1   2
BRANCH   1  23
ATOM     23  C   UNL A   1      33.977  31.406  27.622  1.00  0.00     0.275 C 
BRANCH  23  24
ATOM     24  O   UNL A   1      33.473  32.793  27.613  1.00  0.00    -0.458 OA
BRANCH  24  25
ATOM     25  C   UNL A   1      33.424  33.772  28.573  1.00  0.00     0.338 C 
ATOM     26  O   UNL A   1      32.592  34.669  28.528  1.00  0.00    -0.246 OA
BRANCH  25  27
ATOM     27  C   UNL A   1      34.598  33.946  29.498  1.00  0.00     0.060 A 
ATOM     28  C   UNL A   1      36.132  34.253  28.625  1.00  0.00     0.016 A 
ATOM     29  C   UNL A   1      34.567  32.920  30.932  1.00  0.00     0.016 A 
ATOM     30  C   UNL A   1      37.613  33.270  29.008  1.00  0.00     0.010 A 
ATOM     31  C   UNL A   1      36.025  31.970  31.375  1.00  0.00     0.010 A 
ATOM     32  C   UNL A   1      37.554  32.051  30.329  1.00  0.00    -0.014 A 
BRANCH  32  33
ATOM     33  C   UNL A   1      38.925  31.105  30.659  1.00  0.00     0.031 A 
ATOM     34  C   UNL A   1      39.296  29.141  29.859  1.00  0.00     0.074 A 
ATOM     35  C   UNL A   1      39.640  32.223  31.266  1.00  0.00     0.049 A 
ATOM     36  N   UNL A   1      40.016  28.051  30.278  1.00  0.00    -0.248 NA
ATOM     37  C   UNL A   1      38.643  28.348  28.460  1.00  0.00     0.031 C 
ATOM     38  C   UNL A   1      41.101  32.589  31.254  1.00  0.00     0.029 A 
ATOM     39  N   UNL A   1      39.296  32.724  32.566  1.00  0.00    -0.354 N 
ATOM     40  C   UNL A   1      40.394  27.263  29.213  1.00  0.00     0.074 A 
ATOM     41  C   UNL A   1      39.271  27.195  28.365  1.00  0.00     0.031 C 
ATOM     42  C   UNL A   1      41.569  32.747  32.498  1.00  0.00     0.029 A 
ATOM     43  C   UNL A   1      40.453  32.666  33.388  1.00  0.00     0.049 A 
ATOM     44  H   UNL A   1      38.409  33.052  32.841  1.00  0.00     0.167 HD
ATOM     45  C   UNL A   1      41.726  27.066  28.963  1.00  0.00     0.037 A 
ATOM     46  C   UNL A   1      40.504  32.233  34.671  1.00  0.00     0.037 A 
ATOM     47  C   UNL A   1      42.571  27.668  30.028  1.00  0.00     0.049 A 
ATOM     48  C   UNL A   1      41.350  30.973  34.851  1.00  0.00     0.074 A 
ATOM     49  C   UNL A   1      43.554  28.650  30.067  1.00  0.00     0.029 A 
ATOM     50  N   UNL A   1      42.232  27.463  31.369  1.00  0.00    -0.354 N 
ATOM     51  N   UNL A   1      41.873  30.235  33.891  1.00  0.00    -0.248 NA
ATOM     52  C   UNL A   1      41.674  30.450  36.173  1.00  0.00     0.031 C 
ATOM     53  C   UNL A   1      43.864  28.942  31.436  1.00  0.00     0.029 A 
ATOM     54  C   UNL A   1      43.024  28.193  32.243  1.00  0.00     0.049 A 
ATOM     55  H   UNL A   1      41.507  26.864  31.660  1.00  0.00     0.167 HD
ATOM     56  C   UNL A   1      42.447  29.084  34.431  1.00  0.00     0.074 A 
ATOM     57  C   UNL A   1      42.378  29.350  35.860  1.00  0.00     0.031 C 
ATOM     58  C   UNL A   1      42.882  27.993  33.691  1.00  0.00     0.037 A 
BRANCH  45  59
ATOM     59  C   UNL A   1      42.276  26.560  27.616  1.00  0.00     0.057 A 
ATOM     60  C   UNL A   1      42.796  25.256  27.511  1.00  0.00     0.134 A 
ATOM     61  C   UNL A   1      42.337  27.264  26.388  1.00  0.00     0.134 A 
ATOM     62  F   UNL A   1      42.755  24.394  28.533  1.00  0.00    -0.206 F 
ATOM     63  C   UNL A   1      43.364  24.733  26.335  1.00  0.00     0.040 A 
ATOM     64  C   UNL A   1      42.929  26.768  25.215  1.00  0.00     0.040 A 
ATOM     65  F   UNL A   1      41.773  28.453  26.189  1.00  0.00    -0.206 F 
ATOM     66  C   UNL A   1      43.446  25.493  25.182  1.00  0.00     0.006 A 
ENDBRANCH  45  59
BRANCH  46  67
ATOM     67  C   UNL A   1      39.310  32.717  35.429  1.00  0.00     0.057 A 
ATOM     68  C   UNL A   1      38.368  31.712  35.761  1.00  0.00     0.134 A 
ATOM     69  C   UNL A   1      39.450  33.768  36.329  1.00  0.00     0.134 A 
ATOM     70  F   UNL A   1      38.107  30.720  34.893  1.00  0.00    -0.206 F 
ATOM     71  C   UNL A   1      37.873  31.579  37.061  1.00  0.00     0.040 A 
ATOM     72  C   UNL A   1      38.895  33.679  37.614  1.00  0.00     0.040 A 
ATOM     73  F   UNL A   1      40.286  34.778  36.055  1.00  0.00    -0.206 F 
ATOM     74  C   UNL A   1      38.201  32.535  38.012  1.00  0.00     0.006 A 
ENDBRANCH  46  67
BRANCH  58  75
ATOM     75  C   UNL A   1      43.260  26.568  34.195  1.00  0.00     0.057 A 
ATOM     76  C   UNL A   1      42.423  25.665  34.863  1.00  0.00     0.134 A 
ATOM     77  C   UNL A   1      44.559  26.019  33.954  1.00  0.00     0.134 A 
ATOM     78  F   UNL A   1      41.141  25.917  35.117  1.00  0.00    -0.206 F 
ATOM     79  C   UNL A   1      42.845  24.392  35.298  1.00  0.00     0.040 A 
ATOM     80  C   UNL A   1      44.962  24.728  34.309  1.00  0.00     0.040 A 
ATOM     81  F   UNL A   1      45.546  26.695  33.354  1.00  0.00    -0.206 F 
ATOM     82  C   UNL A   1      44.110  23.912  35.013  1.00  0.00     0.006 A 
ENDBRANCH  58  75
ENDBRANCH  32  33
ENDBRANCH  25  27
ENDBRANCH  24  25
ENDBRANCH  23  24
ENDBRANCH   1  23
TORSDOF 17
ENDMDL
MODEL 3
REMARK VINA RESULT:     -12.9      1.566      2.695
REMARK SMILES Cc1ccccc1C[C@H](CCSc1ccccc1)C(=O)OCCOC(=O)c1ccc(-c2c3nc(c(-c4c(F)cccc4F)c4ccc([nH]4)c(-c4c(F)cccc4F)c4nc(c(-c5c(F)cccc5F)c5ccc2[nH]5)C=C4)C=C3)cc1
REMARK SMILES IDX 22 1 21 2 19 3 20 4 9 5 8 6 7 7 1 8 2 9 3 10 4 11 6 12 5 13
REMARK SMILES IDX 10 14 11 15 12 16 13 17 14 18 18 19 15 20 17 21 16 22 23 23
REMARK SMILES IDX 24 24 25 25 26 26 27 27 28 28 80 29 29 30 79 31 30 32 31 33
REMARK SMILES IDX 32 34 73 35 33 36 78 37 72 38 74 39 34 40 77 41 71 42 70 43
REMARK SMILES IDX 35 45 61 46 44 47 60 48 45 49 48 50 59 51 75 52 46 53 47 54
REMARK SMILES IDX 58 56 76 57 49 58 36 59 37 60 42 61 38 62 39 63 41 64 43 65
REMARK SMILES IDX 40 66 62 67 63 68 68 69 64 70 65 71 67 72 69 73 66 74 50 75
REMARK SMILES IDX 51 76 56 77 52 78 53 79 55 80 57 81 54 82
REMARK H PARENT 74 44 48 55
REMARK Flexibility Score: inf
ROOT
ATOM      1  C   UNL A   1      37.783  21.608  25.025  1.00  0.00     0.274 C 
ENDROOT
BRANCH   1   2
ATOM      2  O   UNL A   1      36.641  22.051  25.734  1.00  0.00    -0.462 OA
BRANCH   2   3
ATOM      3  C   UNL A   1      36.074  23.344  25.382  1.00  0.00     0.309 C 
ATOM      4  O   UNL A   1      36.568  24.145  26.232  1.00  0.00    -0.252 OA
BRANCH   3   5
ATOM      5  C   UNL A   1      34.662  23.620  23.732  1.00  0.00     0.104 C 
BRANCH   5   6
ATOM      6  C   UNL A   1      33.905  25.199  23.180  1.00  0.00     0.051 C 
BRANCH   6   7
ATOM      7  C   UNL A   1      33.552  26.266  24.186  1.00  0.00    -0.044 A 
ATOM      8  C   UNL A   1      32.662  24.733  26.465  1.00  0.00     0.044 C 
ATOM      9  C   UNL A   1      32.312  25.816  25.433  1.00  0.00    -0.048 A 
ATOM     10  C   UNL A   1      31.305  27.082  26.170  1.00  0.00     0.004 A 
ATOM     11  C   UNL A   1      31.633  28.816  25.809  1.00  0.00     0.000 A 
ATOM     12  C   UNL A   1      33.843  28.068  23.777  1.00  0.00     0.004 A 
ATOM     13  C   UNL A   1      32.909  29.328  24.639  1.00  0.00     0.000 A 
ENDBRANCH   6   7
ENDBRANCH   5   6
BRANCH   5  14
ATOM     14  C   UNL A   1      33.298  22.728  23.089  1.00  0.00     0.027 C 
BRANCH  14  15
ATOM     15  C   UNL A   1      32.335  21.978  24.127  1.00  0.00     0.076 C 
BRANCH  15  16
ATOM     16  S   UNL A   1      32.969  20.706  25.347  1.00  0.00    -0.126 SA
BRANCH  16  17
ATOM     17  C   UNL A   1      33.229  19.079  24.615  1.00  0.00     0.007 A 
ATOM     18  C   UNL A   1      32.522  18.614  23.523  1.00  0.00     0.015 A 
ATOM     19  C   UNL A   1      34.349  18.311  24.967  1.00  0.00     0.015 A 
ATOM     20  C   UNL A   1      32.907  17.509  22.754  1.00  0.00     0.001 A 
ATOM     21  C   UNL A   1      34.739  17.175  24.219  1.00  0.00     0.001 A 
ATOM     22  C   UNL A   1      34.028  16.786  23.092  1.00  0.00     0.000 A 
ENDBRANCH  16  17
ENDBRANCH  15  16
ENDBRANCH  14  15
ENDBRANCH   5  14
ENDBRANCH   3   5
ENDBRANCH   2   3
ENDBRANCH   1   2
BRANCH   1  23
ATOM     23  C   UNL A   1      38.993  21.773  25.944  1.00  0.00     0.275 C 
BRANCH  23  24
ATOM     24  O   UNL A   1      39.747  20.564  26.326  1.00  0.00    -0.458 OA
BRANCH  24  25
ATOM     25  C   UNL A   1      41.033  20.152  26.079  1.00  0.00     0.338 C 
ATOM     26  O   UNL A   1      41.284  18.996  25.768  1.00  0.00    -0.246 OA
BRANCH  25  27
ATOM     27  C   UNL A   1      42.176  21.027  26.519  1.00  0.00     0.060 A 
ATOM     28  C   UNL A   1      42.095  21.455  28.257  1.00  0.00     0.016 A 
ATOM     29  C   UNL A   1      42.701  22.212  25.323  1.00  0.00     0.016 A 
ATOM     30  C   UNL A   1      42.249  23.190  28.779  1.00  0.00     0.010 A 
ATOM     31  C   UNL A   1      42.913  23.928  25.808  1.00  0.00     0.010 A 
ATOM     32  C   UNL A   1      42.570  24.463  27.551  1.00  0.00    -0.014 A 
BRANCH  32  33
ATOM     33  C   UNL A   1      42.672  26.088  28.033  1.00  0.00     0.031 A 
ATOM     34  C   UNL A   1      41.023  27.472  28.079  1.00  0.00     0.074 A 
ATOM     35  C   UNL A   1      44.006  25.911  28.599  1.00  0.00     0.049 A 
ATOM     36  N   UNL A   1      40.908  28.835  27.982  1.00  0.00    -0.248 NA
ATOM     37  C   UNL A   1      39.311  27.189  28.132  1.00  0.00     0.031 C 
ATOM     38  C   UNL A   1      44.659  26.528  29.808  1.00  0.00     0.029 A 
ATOM     39  N   UNL A   1      45.167  25.767  27.769  1.00  0.00    -0.354 N 
ATOM     40  C   UNL A   1      39.762  29.285  28.600  1.00  0.00     0.074 A 
ATOM     41  C   UNL A   1      38.748  28.375  28.243  1.00  0.00     0.031 C 
ATOM     42  C   UNL A   1      45.822  27.107  29.485  1.00  0.00     0.029 A 
ATOM     43  C   UNL A   1      46.097  26.781  28.120  1.00  0.00     0.049 A 
ATOM     44  H   UNL A   1      45.296  25.083  27.073  1.00  0.00     0.167 HD
ATOM     45  C   UNL A   1      39.864  30.153  29.653  1.00  0.00     0.037 A 
ATOM     46  C   UNL A   1      46.811  27.547  27.261  1.00  0.00     0.037 A 
ATOM     47  C   UNL A   1      41.272  30.579  29.868  1.00  0.00     0.049 A 
ATOM     48  C   UNL A   1      46.455  29.032  27.335  1.00  0.00     0.074 A 
ATOM     49  C   UNL A   1      42.184  30.478  30.913  1.00  0.00     0.029 A 
ATOM     50  N   UNL A   1      42.047  30.963  28.769  1.00  0.00    -0.354 N 
ATOM     51  N   UNL A   1      45.462  29.568  28.016  1.00  0.00    -0.248 NA
ATOM     52  C   UNL A   1      47.228  30.041  26.621  1.00  0.00     0.031 C 
ATOM     53  C   UNL A   1      43.472  30.904  30.449  1.00  0.00     0.029 A 
ATOM     54  C   UNL A   1      43.373  31.203  29.100  1.00  0.00     0.049 A 
ATOM     55  H   UNL A   1      41.688  31.053  27.856  1.00  0.00     0.167 HD
ATOM     56  C   UNL A   1      45.356  30.926  27.720  1.00  0.00     0.074 A 
ATOM     57  C   UNL A   1      46.557  31.162  26.933  1.00  0.00     0.031 C 
ATOM     58  C   UNL A   1      44.289  31.737  28.085  1.00  0.00     0.037 A 
BRANCH  45  59
ATOM     59  C   UNL A   1      38.729  30.410  30.662  1.00  0.00     0.057 A 
ATOM     60  C   UNL A   1      37.671  31.277  30.327  1.00  0.00     0.134 A 
ATOM     61  C   UNL A   1      38.584  29.862  31.960  1.00  0.00     0.134 A 
ATOM     62  F   UNL A   1      37.569  31.834  29.115  1.00  0.00    -0.206 F 
ATOM     63  C   UNL A   1      36.623  31.607  31.206  1.00  0.00     0.040 A 
ATOM     64  C   UNL A   1      37.562  30.206  32.860  1.00  0.00     0.040 A 
ATOM     65  F   UNL A   1      39.368  28.903  32.449  1.00  0.00    -0.206 F 
ATOM     66  C   UNL A   1      36.570  31.082  32.484  1.00  0.00     0.006 A 
ENDBRANCH  45  59
BRANCH  46  67
ATOM     67  C   UNL A   1      47.299  26.722  26.114  1.00  0.00     0.057 A 
ATOM     68  C   UNL A   1      46.774  27.088  24.851  1.00  0.00     0.134 A 
ATOM     69  C   UNL A   1      48.598  26.223  26.134  1.00  0.00     0.134 A 
ATOM     70  F   UNL A   1      45.494  27.483  24.742  1.00  0.00    -0.206 F 
ATOM     71  C   UNL A   1      47.606  27.284  23.745  1.00  0.00     0.040 A 
ATOM     72  C   UNL A   1      49.421  26.347  25.005  1.00  0.00     0.040 A 
ATOM     73  F   UNL A   1      49.141  25.810  27.286  1.00  0.00    -0.206 F 
ATOM     74  C   UNL A   1      48.955  26.977  23.849  1.00  0.00     0.006 A 
ENDBRANCH  46  67
BRANCH  58  75
ATOM     75  C   UNL A   1      43.934  33.163  27.568  1.00  0.00     0.057 A 
ATOM     76  C   UNL A   1      43.759  33.553  26.235  1.00  0.00     0.134 A 
ATOM     77  C   UNL A   1      43.697  34.241  28.480  1.00  0.00     0.134 A 
ATOM     78  F   UNL A   1      43.836  32.702  25.215  1.00  0.00    -0.206 F 
ATOM     79  C   UNL A   1      43.447  34.872  25.846  1.00  0.00     0.040 A 
ATOM     80  C   UNL A   1      43.308  35.532  28.109  1.00  0.00     0.040 A 
ATOM     81  F   UNL A   1      43.826  34.128  29.807  1.00  0.00    -0.206 F 
ATOM     82  C   UNL A   1      43.208  35.864  26.780  1.00  0.00     0.006 A 
ENDBRANCH  58  75
ENDBRANCH  32  33
ENDBRANCH  25  27
ENDBRANCH  24  25
ENDBRANCH  23  24
ENDBRANCH   1  23
TORSDOF 17
ENDMDL
