MODEL 1
REMARK VINA RESULT:     -12.2      0.000      0.000
REMARK SMILES Cc1ccccc1C(=O)Nc1cc(C(=O)OCCOC(=O)c2ccc(-c3c4nc(c(-c5c(F)cccc5F)c5ccc([nH]5)c(-c5c(F)cccc5F)c5nc(c(-c6c(F)cccc6F)c6ccc3[nH]6)C=C5)C=C4)cc2)ccc1N1CC[NH+](CC(=O)Nc2ccc(F)cc2)CC1
REMARK SMILES IDX 17 1 16 2 14 3 15 4 13 5 11 6 12 7 78 8 77 9 76 10 10 11
REMARK SMILES IDX 8 12 9 13 7 15 1 16 2 17 3 18 4 19 6 20 5 21 79 22 80 23
REMARK SMILES IDX 95 24 81 25 94 26 82 27 83 29 84 30 85 31 86 32 87 34 88 35
REMARK SMILES IDX 93 36 89 37 92 38 90 39 91 40 18 41 19 42 20 43 21 44 22 45
REMARK SMILES IDX 23 46 75 47 24 48 74 49 25 50 26 51 27 52 68 53 28 54 73 55
REMARK SMILES IDX 67 56 69 57 29 58 72 59 66 60 65 61 30 63 56 64 39 65 55 66
REMARK SMILES IDX 40 67 43 68 54 69 70 70 41 71 42 72 53 74 71 75 44 76 31 77
REMARK SMILES IDX 32 78 37 79 33 80 34 81 36 82 38 83 35 84 57 85 58 86 63 87
REMARK SMILES IDX 59 88 60 89 62 90 64 91 61 92 45 93 46 94 51 95 47 96 48 97
REMARK SMILES IDX 50 98 52 99 49 100
REMARK H PARENT 10 14 82 28 86 33 69 62 43 73
REMARK Flexibility Score: inf
ROOT
ATOM      1  C   UNL A   1      40.048  21.804  26.621  1.00  0.00     0.275 C 
ENDROOT
BRANCH   1   2
ATOM      2  O   UNL A   1      39.649  20.517  26.202  1.00  0.00    -0.458 OA
BRANCH   2   3
ATOM      3  C   UNL A   1      38.593  20.607  25.413  1.00  0.00     0.338 C 
ATOM      4  O   UNL A   1      38.309  19.832  24.506  1.00  0.00    -0.246 OA
BRANCH   3   5
ATOM      5  C   UNL A   1      37.770  21.852  25.698  1.00  0.00     0.062 A 
ATOM      6  C   UNL A   1      34.788  21.535  25.712  1.00  0.00     0.065 A 
ATOM      7  C   UNL A   1      36.297  20.891  25.931  1.00  0.00     0.044 A 
ATOM      8  C   UNL A   1      34.505  23.198  25.105  1.00  0.00     0.061 A 
ATOM      9  C   UNL A   1      35.837  24.366  24.821  1.00  0.00     0.029 A 
ATOM     10  C   UNL A   1      37.569  23.805  25.118  1.00  0.00     0.018 A 
BRANCH   6  11
ATOM     11  N   UNL A   1      33.732  20.709  26.283  1.00  0.00    -0.320 N 
ATOM     12  C   UNL A   1      33.111  19.469  25.869  1.00  0.00     0.255 C 
ATOM     13  O   UNL A   1      32.171  19.047  26.551  1.00  0.00    -0.269 OA
ATOM     14  H   UNL A   1      33.366  21.069  27.124  1.00  0.00     0.170 HD
BRANCH  12  15
ATOM     15  C   UNL A   1      33.589  18.533  24.746  1.00  0.00     0.043 A 
ATOM     16  C   UNL A   1      32.378  19.873  23.161  1.00  0.00     0.045 C 
ATOM     17  C   UNL A   1      32.975  18.589  23.527  1.00  0.00    -0.038 A 
ATOM     18  C   UNL A   1      32.905  17.436  22.751  1.00  0.00     0.004 A 
ATOM     19  C   UNL A   1      33.978  16.579  22.744  1.00  0.00     0.000 A 
ATOM     20  C   UNL A   1      34.762  17.776  24.699  1.00  0.00     0.014 A 
ATOM     21  C   UNL A   1      34.994  16.855  23.642  1.00  0.00     0.001 A 
ENDBRANCH  12  15
ENDBRANCH   6  11
BRANCH   8  22
ATOM     22  N   UNL A   1      33.140  23.545  24.976  1.00  0.00    -0.359 N 
ATOM     23  C   UNL A   1      32.309  23.869  23.781  1.00  0.00     0.178 C 
ATOM     24  C   UNL A   1      32.636  24.232  26.155  1.00  0.00     0.178 C 
ATOM     25  C   UNL A   1      30.755  23.754  24.118  1.00  0.00     0.284 C 
ATOM     26  C   UNL A   1      31.164  23.786  26.419  1.00  0.00     0.284 C 
ATOM     27  N   UNL A   1      30.265  24.268  25.405  1.00  0.00    -0.324 N 
ATOM     28  H   UNL A   1      29.311  23.909  25.395  1.00  0.00     0.348 HD
BRANCH  27  29
ATOM     29  C   UNL A   1      29.894  25.678  25.670  1.00  0.00     0.364 C 
BRANCH  29  30
ATOM     30  C   UNL A   1      30.280  26.775  24.652  1.00  0.00     0.279 C 
ATOM     31  O   UNL A   1      29.708  26.740  23.546  1.00  0.00    -0.268 OA
ATOM     32  N   UNL A   1      31.121  27.858  24.809  1.00  0.00    -0.321 N 
ATOM     33  H   UNL A   1      30.946  28.482  24.067  1.00  0.00     0.170 HD
BRANCH  32  34
ATOM     34  C   UNL A   1      32.150  28.431  25.627  1.00  0.00     0.041 A 
ATOM     35  C   UNL A   1      31.927  29.752  26.052  1.00  0.00     0.029 A 
ATOM     36  C   UNL A   1      33.413  27.944  25.977  1.00  0.00     0.029 A 
ATOM     37  C   UNL A   1      32.854  30.452  26.856  1.00  0.00     0.041 A 
ATOM     38  C   UNL A   1      34.335  28.600  26.803  1.00  0.00     0.041 A 
ATOM     39  C   UNL A   1      34.036  29.853  27.259  1.00  0.00     0.123 A 
ATOM     40  F   UNL A   1      34.913  30.501  28.031  1.00  0.00    -0.207 F 
ENDBRANCH  32  34
ENDBRANCH  29  30
ENDBRANCH  27  29
ENDBRANCH   8  22
ENDBRANCH   3   5
ENDBRANCH   2   3
ENDBRANCH   1   2
BRANCH   1  41
ATOM     41  C   UNL A   1      41.416  22.422  26.097  1.00  0.00     0.275 C 
BRANCH  41  42
ATOM     42  O   UNL A   1      41.941  23.805  26.345  1.00  0.00    -0.458 OA
BRANCH  42  43
ATOM     43  C   UNL A   1      41.479  25.084  26.000  1.00  0.00     0.338 C 
ATOM     44  O   UNL A   1      42.168  25.892  25.395  1.00  0.00    -0.246 OA
BRANCH  43  45
ATOM     45  C   UNL A   1      40.461  25.580  26.951  1.00  0.00     0.060 A 
ATOM     46  C   UNL A   1      39.208  24.855  28.093  1.00  0.00     0.016 A 
ATOM     47  C   UNL A   1      40.965  27.214  27.204  1.00  0.00     0.016 A 
ATOM     48  C   UNL A   1      38.553  26.118  29.568  1.00  0.00     0.010 A 
ATOM     49  C   UNL A   1      40.509  28.106  28.517  1.00  0.00     0.010 A 
ATOM     50  C   UNL A   1      39.326  27.773  29.715  1.00  0.00    -0.014 A 
BRANCH  50  51
ATOM     51  C   UNL A   1      39.517  29.054  30.694  1.00  0.00     0.031 A 
ATOM     52  C   UNL A   1      38.760  30.372  30.598  1.00  0.00     0.074 A 
ATOM     53  C   UNL A   1      40.088  28.820  31.947  1.00  0.00     0.049 A 
ATOM     54  N   UNL A   1      37.817  30.751  31.423  1.00  0.00    -0.248 NA
ATOM     55  C   UNL A   1      38.949  31.341  29.504  1.00  0.00     0.031 C 
ATOM     56  C   UNL A   1      39.963  29.495  33.255  1.00  0.00     0.029 A 
ATOM     57  N   UNL A   1      40.990  27.788  32.323  1.00  0.00    -0.354 N 
ATOM     58  C   UNL A   1      37.252  31.952  30.956  1.00  0.00     0.074 A 
ATOM     59  C   UNL A   1      37.872  32.138  29.647  1.00  0.00     0.031 C 
ATOM     60  C   UNL A   1      40.986  29.138  34.072  1.00  0.00     0.029 A 
ATOM     61  C   UNL A   1      41.841  28.225  33.342  1.00  0.00     0.049 A 
ATOM     62  H   UNL A   1      41.012  26.889  31.922  1.00  0.00     0.167 HD
ATOM     63  C   UNL A   1      37.201  33.060  31.756  1.00  0.00     0.037 A 
ATOM     64  C   UNL A   1      43.159  28.327  33.016  1.00  0.00     0.037 A 
ATOM     65  C   UNL A   1      38.335  33.072  32.640  1.00  0.00     0.049 A 
ATOM     66  C   UNL A   1      43.367  29.788  32.713  1.00  0.00     0.074 A 
ATOM     67  C   UNL A   1      38.550  32.656  33.934  1.00  0.00     0.029 A 
ATOM     68  N   UNL A   1      39.578  33.260  32.062  1.00  0.00    -0.354 N 
ATOM     69  N   UNL A   1      42.391  30.604  32.396  1.00  0.00    -0.248 NA
ATOM     70  C   UNL A   1      44.628  30.472  32.938  1.00  0.00     0.031 C 
ATOM     71  C   UNL A   1      39.964  32.501  34.084  1.00  0.00     0.029 A 
ATOM     72  C   UNL A   1      40.595  32.837  32.888  1.00  0.00     0.049 A 
ATOM     73  H   UNL A   1      39.718  33.649  31.168  1.00  0.00     0.167 HD
ATOM     74  C   UNL A   1      42.810  31.882  32.552  1.00  0.00     0.074 A 
ATOM     75  C   UNL A   1      44.227  31.751  32.858  1.00  0.00     0.031 C 
ATOM     76  C   UNL A   1      41.988  32.968  32.458  1.00  0.00     0.037 A 
BRANCH  63  77
ATOM     77  C   UNL A   1      36.042  34.037  31.767  1.00  0.00     0.057 A 
ATOM     78  C   UNL A   1      35.880  34.937  32.839  1.00  0.00     0.134 A 
ATOM     79  C   UNL A   1      35.011  34.082  30.807  1.00  0.00     0.134 A 
ATOM     80  F   UNL A   1      36.807  35.039  33.802  1.00  0.00    -0.206 F 
ATOM     81  C   UNL A   1      34.753  35.762  32.989  1.00  0.00     0.040 A 
ATOM     82  C   UNL A   1      33.877  34.912  30.941  1.00  0.00     0.040 A 
ATOM     83  F   UNL A   1      35.063  33.327  29.700  1.00  0.00    -0.206 F 
ATOM     84  C   UNL A   1      33.734  35.741  32.048  1.00  0.00     0.006 A 
ENDBRANCH  63  77
BRANCH  64  85
ATOM     85  C   UNL A   1      43.540  27.121  32.192  1.00  0.00     0.057 A 
ATOM     86  C   UNL A   1      43.864  27.365  30.830  1.00  0.00     0.134 A 
ATOM     87  C   UNL A   1      44.155  26.022  32.796  1.00  0.00     0.134 A 
ATOM     88  F   UNL A   1      43.308  28.403  30.182  1.00  0.00    -0.206 F 
ATOM     89  C   UNL A   1      44.913  26.703  30.184  1.00  0.00     0.040 A 
ATOM     90  C   UNL A   1      45.175  25.324  32.137  1.00  0.00     0.040 A 
ATOM     91  F   UNL A   1      43.938  25.741  34.088  1.00  0.00    -0.206 F 
ATOM     92  C   UNL A   1      45.594  25.699  30.854  1.00  0.00     0.006 A 
ENDBRANCH  64  85
BRANCH  76  93
ATOM     93  C   UNL A   1      42.530  34.298  32.013  1.00  0.00     0.057 A 
ATOM     94  C   UNL A   1      43.029  35.252  32.915  1.00  0.00     0.134 A 
ATOM     95  C   UNL A   1      42.700  34.625  30.653  1.00  0.00     0.134 A 
ATOM     96  F   UNL A   1      43.187  34.986  34.219  1.00  0.00    -0.206 F 
ATOM     97  C   UNL A   1      43.453  36.515  32.514  1.00  0.00     0.040 A 
ATOM     98  C   UNL A   1      43.239  35.840  30.236  1.00  0.00     0.040 A 
ATOM     99  F   UNL A   1      42.397  33.775  29.664  1.00  0.00    -0.206 F 
ATOM    100  C   UNL A   1      43.560  36.813  31.167  1.00  0.00     0.006 A 
ENDBRANCH  76  93
ENDBRANCH  50  51
ENDBRANCH  43  45
ENDBRANCH  42  43
ENDBRANCH  41  42
ENDBRANCH   1  41
TORSDOF 17
ENDMDL
MODEL 2
REMARK VINA RESULT:     -12.0      8.455     16.300
REMARK SMILES Cc1ccccc1C(=O)Nc1cc(C(=O)OCCOC(=O)c2ccc(-c3c4nc(c(-c5c(F)cccc5F)c5ccc([nH]5)c(-c5c(F)cccc5F)c5nc(c(-c6c(F)cccc6F)c6ccc3[nH]6)C=C5)C=C4)cc2)ccc1N1CC[NH+](CC(=O)Nc2ccc(F)cc2)CC1
REMARK SMILES IDX 17 1 16 2 14 3 15 4 13 5 11 6 12 7 78 8 77 9 76 10 10 11
REMARK SMILES IDX 8 12 9 13 7 15 1 16 2 17 3 18 4 19 6 20 5 21 79 22 80 23
REMARK SMILES IDX 95 24 81 25 94 26 82 27 83 29 84 30 85 31 86 32 87 34 88 35
REMARK SMILES IDX 93 36 89 37 92 38 90 39 91 40 18 41 19 42 20 43 21 44 22 45
REMARK SMILES IDX 23 46 75 47 24 48 74 49 25 50 26 51 27 52 68 53 28 54 73 55
REMARK SMILES IDX 67 56 69 57 29 58 72 59 66 60 65 61 30 63 56 64 39 65 55 66
REMARK SMILES IDX 40 67 43 68 54 69 70 70 41 71 42 72 53 74 71 75 44 76 31 77
REMARK SMILES IDX 32 78 37 79 33 80 34 81 36 82 38 83 35 84 57 85 58 86 63 87
REMARK SMILES IDX 59 88 60 89 62 90 64 91 61 92 45 93 46 94 51 95 47 96 48 97
REMARK SMILES IDX 50 98 52 99 49 100
REMARK H PARENT 10 14 82 28 86 33 69 62 43 73
REMARK Flexibility Score: inf
ROOT
ATOM      1  C   UNL A   1      44.718  40.300  31.051  1.00  0.00     0.275 C 
ENDROOT
BRANCH   1   2
ATOM      2  O   UNL A   1      43.683  39.785  30.243  1.00  0.00    -0.458 OA
BRANCH   2   3
ATOM      3  C   UNL A   1      43.050  40.773  29.637  1.00  0.00     0.338 C 
ATOM      4  O   UNL A   1      42.609  41.781  30.180  1.00  0.00    -0.246 OA
BRANCH   3   5
ATOM      5  C   UNL A   1      42.845  40.499  28.156  1.00  0.00     0.062 A 
ATOM      6  C   UNL A   1      44.275  42.300  26.231  1.00  0.00     0.065 A 
ATOM      7  C   UNL A   1      44.186  41.574  27.717  1.00  0.00     0.044 A 
ATOM      8  C   UNL A   1      42.984  42.174  24.994  1.00  0.00     0.061 A 
ATOM      9  C   UNL A   1      41.543  41.125  25.200  1.00  0.00     0.029 A 
ATOM     10  C   UNL A   1      41.366  40.183  26.777  1.00  0.00     0.018 A 
BRANCH   6  11
ATOM     11  N   UNL A   1      45.597  42.844  25.946  1.00  0.00    -0.320 N 
ATOM     12  C   UNL A   1      46.924  42.265  25.926  1.00  0.00     0.255 C 
ATOM     13  O   UNL A   1      47.873  43.025  25.708  1.00  0.00    -0.269 OA
ATOM     14  H   UNL A   1      45.584  43.803  25.721  1.00  0.00     0.170 HD
BRANCH  12  15
ATOM     15  C   UNL A   1      47.274  40.770  26.003  1.00  0.00     0.043 A 
ATOM     16  C   UNL A   1      47.638  41.013  28.366  1.00  0.00     0.045 C 
ATOM     17  C   UNL A   1      47.894  40.289  27.121  1.00  0.00    -0.038 A 
ATOM     18  C   UNL A   1      48.757  39.204  27.003  1.00  0.00     0.004 A 
ATOM     19  C   UNL A   1      48.435  38.198  26.124  1.00  0.00     0.000 A 
ATOM     20  C   UNL A   1      46.820  39.736  25.180  1.00  0.00     0.014 A 
ATOM     21  C   UNL A   1      47.344  38.422  25.303  1.00  0.00     0.001 A 
ENDBRANCH  12  15
ENDBRANCH   6  11
BRANCH   8  22
ATOM     22  N   UNL A   1      43.252  42.883  23.800  1.00  0.00    -0.359 N 
ATOM     23  C   UNL A   1      43.513  44.327  23.543  1.00  0.00     0.178 C 
ATOM     24  C   UNL A   1      42.634  42.257  22.641  1.00  0.00     0.178 C 
ATOM     25  C   UNL A   1      44.190  44.541  22.114  1.00  0.00     0.284 C 
ATOM     26  C   UNL A   1      43.586  42.395  21.413  1.00  0.00     0.284 C 
ATOM     27  N   UNL A   1      43.700  43.759  20.970  1.00  0.00    -0.324 N 
ATOM     28  H   UNL A   1      44.413  43.983  20.276  1.00  0.00     0.348 HD
BRANCH  27  29
ATOM     29  C   UNL A   1      42.541  44.128  20.124  1.00  0.00     0.364 C 
BRANCH  29  30
ATOM     30  C   UNL A   1      42.601  43.891  18.599  1.00  0.00     0.279 C 
ATOM     31  O   UNL A   1      42.425  42.722  18.205  1.00  0.00    -0.268 OA
ATOM     32  N   UNL A   1      42.744  44.806  17.575  1.00  0.00    -0.321 N 
ATOM     33  H   UNL A   1      42.490  44.358  16.736  1.00  0.00     0.170 HD
BRANCH  32  34
ATOM     34  C   UNL A   1      43.120  46.152  17.254  1.00  0.00     0.041 A 
ATOM     35  C   UNL A   1      42.075  46.996  16.844  1.00  0.00     0.029 A 
ATOM     36  C   UNL A   1      44.381  46.747  17.155  1.00  0.00     0.029 A 
ATOM     37  C   UNL A   1      42.289  48.346  16.488  1.00  0.00     0.041 A 
ATOM     38  C   UNL A   1      44.621  48.092  16.842  1.00  0.00     0.041 A 
ATOM     39  C   UNL A   1      43.561  48.894  16.529  1.00  0.00     0.123 A 
ATOM     40  F   UNL A   1      43.774  50.174  16.207  1.00  0.00    -0.207 F 
ENDBRANCH  32  34
ENDBRANCH  29  30
ENDBRANCH  27  29
ENDBRANCH   8  22
ENDBRANCH   3   5
ENDBRANCH   2   3
ENDBRANCH   1   2
BRANCH   1  41
ATOM     41  C   UNL A   1      45.564  39.325  31.979  1.00  0.00     0.275 C 
BRANCH  41  42
ATOM     42  O   UNL A   1      45.082  38.570  33.183  1.00  0.00    -0.458 OA
BRANCH  42  43
ATOM     43  C   UNL A   1      43.829  38.066  33.561  1.00  0.00     0.338 C 
ATOM     44  O   UNL A   1      43.017  38.726  34.192  1.00  0.00    -0.246 OA
BRANCH  43  45
ATOM     45  C   UNL A   1      43.855  36.598  33.743  1.00  0.00     0.060 A 
ATOM     46  C   UNL A   1      44.348  35.405  35.059  1.00  0.00     0.016 A 
ATOM     47  C   UNL A   1      42.790  36.058  32.492  1.00  0.00     0.016 A 
ATOM     48  C   UNL A   1      43.542  33.530  34.870  1.00  0.00     0.010 A 
ATOM     49  C   UNL A   1      42.057  34.579  32.508  1.00  0.00     0.010 A 
ATOM     50  C   UNL A   1      42.335  33.225  33.526  1.00  0.00    -0.014 A 
BRANCH  50  51
ATOM     51  C   UNL A   1      41.191  32.203  32.990  1.00  0.00     0.031 A 
ATOM     52  C   UNL A   1      41.252  31.389  31.705  1.00  0.00     0.074 A 
ATOM     53  C   UNL A   1      40.289  31.706  33.934  1.00  0.00     0.049 A 
ATOM     54  N   UNL A   1      41.458  30.097  31.651  1.00  0.00    -0.248 NA
ATOM     55  C   UNL A   1      41.170  31.985  30.360  1.00  0.00     0.031 C 
ATOM     56  C   UNL A   1      39.510  30.454  34.022  1.00  0.00     0.029 A 
ATOM     57  N   UNL A   1      39.865  32.309  35.148  1.00  0.00    -0.354 N 
ATOM     58  C   UNL A   1      41.585  29.707  30.306  1.00  0.00     0.074 A 
ATOM     59  C   UNL A   1      41.601  30.975  29.580  1.00  0.00     0.031 C 
ATOM     60  C   UNL A   1      38.502  30.585  34.920  1.00  0.00     0.029 A 
ATOM     61  C   UNL A   1      38.555  31.930  35.456  1.00  0.00     0.049 A 
ATOM     62  H   UNL A   1      40.418  32.910  35.698  1.00  0.00     0.167 HD
ATOM     63  C   UNL A   1      40.785  28.729  29.781  1.00  0.00     0.037 A 
ATOM     64  C   UNL A   1      37.626  32.923  35.429  1.00  0.00     0.037 A 
ATOM     65  C   UNL A   1      39.499  28.757  30.424  1.00  0.00     0.049 A 
ATOM     66  C   UNL A   1      36.961  32.791  34.084  1.00  0.00     0.074 A 
ATOM     67  C   UNL A   1      38.937  28.076  31.479  1.00  0.00     0.029 A 
ATOM     68  N   UNL A   1      38.703  29.862  30.182  1.00  0.00    -0.354 N 
ATOM     69  N   UNL A   1      37.510  32.172  33.067  1.00  0.00    -0.248 NA
ATOM     70  C   UNL A   1      35.576  33.157  33.844  1.00  0.00     0.031 C 
ATOM     71  C   UNL A   1      37.832  28.863  31.930  1.00  0.00     0.029 A 
ATOM     72  C   UNL A   1      37.723  30.005  31.139  1.00  0.00     0.049 A 
ATOM     73  H   UNL A   1      38.822  30.472  29.418  1.00  0.00     0.167 HD
ATOM     74  C   UNL A   1      36.556  31.889  32.149  1.00  0.00     0.074 A 
ATOM     75  C   UNL A   1      35.369  32.556  32.661  1.00  0.00     0.031 C 
ATOM     76  C   UNL A   1      36.769  31.111  31.048  1.00  0.00     0.037 A 
BRANCH  63  77
ATOM     77  C   UNL A   1      41.262  27.707  28.768  1.00  0.00     0.057 A 
ATOM     78  C   UNL A   1      40.720  27.688  27.467  1.00  0.00     0.134 A 
ATOM     79  C   UNL A   1      42.178  26.669  29.033  1.00  0.00     0.134 A 
ATOM     80  F   UNL A   1      39.872  28.643  27.058  1.00  0.00    -0.206 F 
ATOM     81  C   UNL A   1      41.003  26.682  26.529  1.00  0.00     0.040 A 
ATOM     82  C   UNL A   1      42.477  25.656  28.096  1.00  0.00     0.040 A 
ATOM     83  F   UNL A   1      42.820  26.597  30.208  1.00  0.00    -0.206 F 
ATOM     84  C   UNL A   1      41.872  25.648  26.845  1.00  0.00     0.006 A 
ENDBRANCH  63  77
BRANCH  64  85
ATOM     85  C   UNL A   1      38.219  34.149  36.080  1.00  0.00     0.057 A 
ATOM     86  C   UNL A   1      38.460  34.065  37.479  1.00  0.00     0.134 A 
ATOM     87  C   UNL A   1      39.052  35.001  35.351  1.00  0.00     0.134 A 
ATOM     88  F   UNL A   1      37.697  33.268  38.246  1.00  0.00    -0.206 F 
ATOM     89  C   UNL A   1      39.605  34.607  38.071  1.00  0.00     0.040 A 
ATOM     90  C   UNL A   1      40.175  35.586  35.949  1.00  0.00     0.040 A 
ATOM     91  F   UNL A   1      38.922  35.111  34.022  1.00  0.00    -0.206 F 
ATOM     92  C   UNL A   1      40.485  35.345  37.294  1.00  0.00     0.006 A 
ENDBRANCH  64  85
BRANCH  76  93
ATOM     93  C   UNL A   1      35.963  31.324  29.796  1.00  0.00     0.057 A 
ATOM     94  C   UNL A   1      35.706  32.600  29.269  1.00  0.00     0.134 A 
ATOM     95  C   UNL A   1      35.525  30.254  28.992  1.00  0.00     0.134 A 
ATOM     96  F   UNL A   1      36.280  33.705  29.766  1.00  0.00    -0.206 F 
ATOM     97  C   UNL A   1      34.892  32.804  28.160  1.00  0.00     0.040 A 
ATOM     98  C   UNL A   1      34.813  30.447  27.810  1.00  0.00     0.040 A 
ATOM     99  F   UNL A   1      35.799  28.975  29.281  1.00  0.00    -0.206 F 
ATOM    100  C   UNL A   1      34.442  31.723  27.423  1.00  0.00     0.006 A 
ENDBRANCH  76  93
ENDBRANCH  50  51
ENDBRANCH  43  45
ENDBRANCH  42  43
ENDBRANCH  41  42
ENDBRANCH   1  41
TORSDOF 17
ENDMDL
MODEL 3
REMARK VINA RESULT:     -11.8      6.879     14.087
REMARK SMILES Cc1ccccc1C(=O)Nc1cc(C(=O)OCCOC(=O)c2ccc(-c3c4nc(c(-c5c(F)cccc5F)c5ccc([nH]5)c(-c5c(F)cccc5F)c5nc(c(-c6c(F)cccc6F)c6ccc3[nH]6)C=C5)C=C4)cc2)ccc1N1CC[NH+](CC(=O)Nc2ccc(F)cc2)CC1
REMARK SMILES IDX 17 1 16 2 14 3 15 4 13 5 11 6 12 7 78 8 77 9 76 10 10 11
REMARK SMILES IDX 8 12 9 13 7 15 1 16 2 17 3 18 4 19 6 20 5 21 79 22 80 23
REMARK SMILES IDX 95 24 81 25 94 26 82 27 83 29 84 30 85 31 86 32 87 34 88 35
REMARK SMILES IDX 93 36 89 37 92 38 90 39 91 40 18 41 19 42 20 43 21 44 22 45
REMARK SMILES IDX 23 46 75 47 24 48 74 49 25 50 26 51 27 52 68 53 28 54 73 55
REMARK SMILES IDX 67 56 69 57 29 58 72 59 66 60 65 61 30 63 56 64 39 65 55 66
REMARK SMILES IDX 40 67 43 68 54 69 70 70 41 71 42 72 53 74 71 75 44 76 31 77
REMARK SMILES IDX 32 78 37 79 33 80 34 81 36 82 38 83 35 84 57 85 58 86 63 87
REMARK SMILES IDX 59 88 60 89 62 90 64 91 61 92 45 93 46 94 51 95 47 96 48 97
REMARK SMILES IDX 50 98 52 99 49 100
REMARK H PARENT 10 14 82 28 86 33 69 62 43 73
REMARK Flexibility Score: inf
ROOT
ATOM      1  C   UNL A   1      52.298  30.749  27.693  1.00  0.00     0.275 C 
ENDROOT
BRANCH   1   2
ATOM      2  O   UNL A   1      51.919  32.107  27.651  1.00  0.00    -0.458 OA
BRANCH   2   3
ATOM      3  C   UNL A   1      50.697  32.220  27.162  1.00  0.00     0.338 C 
ATOM      4  O   UNL A   1      50.243  31.585  26.216  1.00  0.00    -0.246 OA
BRANCH   3   5
ATOM      5  C   UNL A   1      49.899  33.307  27.862  1.00  0.00     0.062 A 
ATOM      6  C   UNL A   1      48.002  34.900  26.172  1.00  0.00     0.065 A 
ATOM      7  C   UNL A   1      48.824  33.493  26.463  1.00  0.00     0.044 A 
ATOM      8  C   UNL A   1      48.215  36.386  27.152  1.00  0.00     0.061 A 
ATOM      9  C   UNL A   1      49.230  36.435  28.630  1.00  0.00     0.029 A 
ATOM     10  C   UNL A   1      50.130  34.902  29.123  1.00  0.00     0.018 A 
BRANCH   6  11
ATOM     11  N   UNL A   1      46.927  34.737  25.202  1.00  0.00    -0.320 N 
ATOM     12  C   UNL A   1      45.609  34.142  25.274  1.00  0.00     0.255 C 
ATOM     13  O   UNL A   1      44.946  34.100  24.232  1.00  0.00    -0.269 OA
ATOM     14  H   UNL A   1      47.141  35.108  24.315  1.00  0.00     0.170 HD
BRANCH  12  15
ATOM     15  C   UNL A   1      44.878  33.684  26.546  1.00  0.00     0.043 A 
ATOM     16  C   UNL A   1      43.034  35.110  25.961  1.00  0.00     0.045 C 
ATOM     17  C   UNL A   1      43.795  34.392  26.983  1.00  0.00    -0.038 A 
ATOM     18  C   UNL A   1      43.520  34.435  28.347  1.00  0.00     0.004 A 
ATOM     19  C   UNL A   1      43.728  33.305  29.098  1.00  0.00     0.000 A 
ATOM     20  C   UNL A   1      45.002  32.464  27.217  1.00  0.00     0.014 A 
ATOM     21  C   UNL A   1      44.350  32.246  28.461  1.00  0.00     0.001 A 
ENDBRANCH  12  15
ENDBRANCH   6  11
BRANCH   8  22
ATOM     22  N   UNL A   1      47.429  37.482  26.724  1.00  0.00    -0.359 N 
ATOM     23  C   UNL A   1      47.804  38.795  26.126  1.00  0.00     0.178 C 
ATOM     24  C   UNL A   1      46.190  37.594  27.477  1.00  0.00     0.178 C 
ATOM     25  C   UNL A   1      46.548  39.480  25.421  1.00  0.00     0.284 C 
ATOM     26  C   UNL A   1      45.049  38.064  26.521  1.00  0.00     0.284 C 
ATOM     27  N   UNL A   1      45.238  39.422  26.086  1.00  0.00    -0.324 N 
ATOM     28  H   UNL A   1      44.639  39.778  25.341  1.00  0.00     0.348 HD
BRANCH  27  29
ATOM     29  C   UNL A   1      44.771  40.369  27.124  1.00  0.00     0.364 C 
BRANCH  29  30
ATOM     30  C   UNL A   1      43.349  40.966  27.032  1.00  0.00     0.279 C 
ATOM     31  O   UNL A   1      42.601  40.788  28.013  1.00  0.00    -0.268 OA
ATOM     32  N   UNL A   1      42.791  41.751  26.043  1.00  0.00    -0.321 N 
ATOM     33  H   UNL A   1      41.974  42.160  26.412  1.00  0.00     0.170 HD
BRANCH  32  34
ATOM     34  C   UNL A   1      42.932  42.203  24.690  1.00  0.00     0.041 A 
ATOM     35  C   UNL A   1      41.829  41.972  23.851  1.00  0.00     0.029 A 
ATOM     36  C   UNL A   1      44.039  42.727  24.014  1.00  0.00     0.029 A 
ATOM     37  C   UNL A   1      41.821  42.354  22.491  1.00  0.00     0.041 A 
ATOM     38  C   UNL A   1      44.049  43.149  22.679  1.00  0.00     0.041 A 
ATOM     39  C   UNL A   1      42.922  42.977  21.926  1.00  0.00     0.123 A 
ATOM     40  F   UNL A   1      42.920  43.355  20.644  1.00  0.00    -0.207 F 
ENDBRANCH  32  34
ENDBRANCH  29  30
ENDBRANCH  27  29
ENDBRANCH   8  22
ENDBRANCH   3   5
ENDBRANCH   2   3
ENDBRANCH   1   2
BRANCH   1  41
ATOM     41  C   UNL A   1      52.972  30.150  29.003  1.00  0.00     0.275 C 
BRANCH  41  42
ATOM     42  O   UNL A   1      52.554  28.926  29.762  1.00  0.00    -0.458 OA
BRANCH  42  43
ATOM     43  C   UNL A   1      51.759  28.726  30.899  1.00  0.00     0.338 C 
ATOM     44  O   UNL A   1      51.944  27.803  31.679  1.00  0.00    -0.246 OA
BRANCH  43  45
ATOM     45  C   UNL A   1      50.384  29.241  30.712  1.00  0.00     0.060 A 
ATOM     46  C   UNL A   1      49.574  30.879  30.472  1.00  0.00     0.016 A 
ATOM     47  C   UNL A   1      49.521  27.814  30.257  1.00  0.00     0.016 A 
ATOM     48  C   UNL A   1      47.691  30.800  29.667  1.00  0.00     0.010 A 
ATOM     49  C   UNL A   1      48.074  27.851  29.463  1.00  0.00     0.010 A 
ATOM     50  C   UNL A   1      47.026  29.174  29.146  1.00  0.00    -0.014 A 
BRANCH  50  51
ATOM     51  C   UNL A   1      45.874  28.444  28.265  1.00  0.00     0.031 A 
ATOM     52  C   UNL A   1      44.414  28.280  28.666  1.00  0.00     0.074 A 
ATOM     53  C   UNL A   1      46.101  28.322  26.892  1.00  0.00     0.049 A 
ATOM     54  N   UNL A   1      43.419  28.953  28.145  1.00  0.00    -0.248 NA
ATOM     55  C   UNL A   1      43.963  27.395  29.755  1.00  0.00     0.031 C 
ATOM     56  C   UNL A   1      45.202  28.247  25.724  1.00  0.00     0.029 A 
ATOM     57  N   UNL A   1      47.346  28.251  26.211  1.00  0.00    -0.354 N 
ATOM     58  C   UNL A   1      42.238  28.643  28.843  1.00  0.00     0.074 A 
ATOM     59  C   UNL A   1      42.703  27.826  29.961  1.00  0.00     0.031 C 
ATOM     60  C   UNL A   1      45.867  27.763  24.644  1.00  0.00     0.029 A 
ATOM     61  C   UNL A   1      47.228  27.481  25.050  1.00  0.00     0.049 A 
ATOM     62  H   UNL A   1      48.176  28.684  26.514  1.00  0.00     0.167 HD
ATOM     63  C   UNL A   1      41.134  28.177  28.181  1.00  0.00     0.037 A 
ATOM     64  C   UNL A   1      47.925  26.312  25.036  1.00  0.00     0.037 A 
ATOM     65  C   UNL A   1      41.545  27.403  27.041  1.00  0.00     0.049 A 
ATOM     66  C   UNL A   1      46.912  25.258  25.400  1.00  0.00     0.074 A 
ATOM     67  C   UNL A   1      41.720  27.678  25.705  1.00  0.00     0.029 A 
ATOM     68  N   UNL A   1      42.185  26.203  27.296  1.00  0.00    -0.354 N 
ATOM     69  N   UNL A   1      45.791  25.522  26.026  1.00  0.00    -0.248 NA
ATOM     70  C   UNL A   1      46.986  23.889  24.920  1.00  0.00     0.031 C 
ATOM     71  C   UNL A   1      42.574  26.656  25.185  1.00  0.00     0.029 A 
ATOM     72  C   UNL A   1      42.899  25.763  26.204  1.00  0.00     0.049 A 
ATOM     73  H   UNL A   1      42.137  25.723  28.155  1.00  0.00     0.167 HD
ATOM     74  C   UNL A   1      44.942  24.478  25.878  1.00  0.00     0.074 A 
ATOM     75  C   UNL A   1      45.745  23.465  25.210  1.00  0.00     0.031 C 
ATOM     76  C   UNL A   1      43.635  24.500  26.273  1.00  0.00     0.037 A 
BRANCH  63  77
ATOM     77  C   UNL A   1      39.713  28.549  28.552  1.00  0.00     0.057 A 
ATOM     78  C   UNL A   1      38.924  29.314  27.668  1.00  0.00     0.134 A 
ATOM     79  C   UNL A   1      39.095  28.265  29.787  1.00  0.00     0.134 A 
ATOM     80  F   UNL A   1      39.362  29.619  26.439  1.00  0.00    -0.206 F 
ATOM     81  C   UNL A   1      37.658  29.820  28.007  1.00  0.00     0.040 A 
ATOM     82  C   UNL A   1      37.821  28.761  30.137  1.00  0.00     0.040 A 
ATOM     83  F   UNL A   1      39.702  27.494  30.701  1.00  0.00    -0.206 F 
ATOM     84  C   UNL A   1      37.106  29.561  29.253  1.00  0.00     0.006 A 
ENDBRANCH  63  77
BRANCH  64  85
ATOM     85  C   UNL A   1      49.290  26.565  25.627  1.00  0.00     0.057 A 
ATOM     86  C   UNL A   1      49.626  25.808  26.782  1.00  0.00     0.134 A 
ATOM     87  C   UNL A   1      50.350  26.963  24.808  1.00  0.00     0.134 A 
ATOM     88  F   UNL A   1      48.661  25.393  27.618  1.00  0.00    -0.206 F 
ATOM     89  C   UNL A   1      50.906  25.279  26.979  1.00  0.00     0.040 A 
ATOM     90  C   UNL A   1      51.644  26.475  25.026  1.00  0.00     0.040 A 
ATOM     91  F   UNL A   1      50.121  27.646  23.678  1.00  0.00    -0.206 F 
ATOM     92  C   UNL A   1      51.913  25.588  26.077  1.00  0.00     0.006 A 
ENDBRANCH  64  85
BRANCH  76  93
ATOM     93  C   UNL A   1      42.940  23.229  26.678  1.00  0.00     0.057 A 
ATOM     94  C   UNL A   1      42.506  22.274  25.745  1.00  0.00     0.134 A 
ATOM     95  C   UNL A   1      42.796  22.847  28.026  1.00  0.00     0.134 A 
ATOM     96  F   UNL A   1      42.808  22.361  24.442  1.00  0.00    -0.206 F 
ATOM     97  C   UNL A   1      41.789  21.139  26.111  1.00  0.00     0.040 A 
ATOM     98  C   UNL A   1      42.188  21.652  28.405  1.00  0.00     0.040 A 
ATOM     99  F   UNL A   1      43.272  23.582  29.039  1.00  0.00    -0.206 F 
ATOM    100  C   UNL A   1      41.628  20.823  27.448  1.00  0.00     0.006 A 
ENDBRANCH  76  93
ENDBRANCH  50  51
ENDBRANCH  43  45
ENDBRANCH  42  43
ENDBRANCH  41  42
ENDBRANCH   1  41
TORSDOF 17
ENDMDL
