MODEL 1
REMARK VINA RESULT:     -12.3      0.000      0.000
REMARK SMILES Cc1cc2[nH]c(=O)[nH]c2cc1S(=O)(=O)NCCC(=O)OCCOC(=O)c1ccc(-c2c3nc(c(-c4c(F)cccc4F)c4ccc([nH]4)c(-c4c(F)cccc4F)c4nc(c(-c5c(F)cccc5F)c5ccc2[nH]5)C=C4)C=C3)cc1
REMARK SMILES IDX 21 1 20 2 18 3 19 4 17 5 16 6 15 7 12 9 13 10 14 11 11 12
REMARK SMILES IDX 1 13 2 14 3 15 4 16 10 17 5 18 9 19 6 20 8 22 7 23 22 25
REMARK SMILES IDX 23 26 24 27 25 28 26 29 27 30 79 31 28 32 78 33 29 34 30 35
REMARK SMILES IDX 31 36 72 37 32 38 77 39 71 40 73 41 33 42 76 43 70 44 69 45
REMARK SMILES IDX 34 47 60 48 43 49 59 50 44 51 47 52 58 53 74 54 45 55 46 56
REMARK SMILES IDX 57 58 75 59 48 60 35 61 36 62 41 63 37 64 38 65 40 66 42 67
REMARK SMILES IDX 39 68 61 69 62 70 67 71 63 72 64 73 66 74 68 75 65 76 49 77
REMARK SMILES IDX 50 78 55 79 51 80 52 81 54 82 56 83 53 84
REMARK H PARENT 15 8 5 21 8 24 73 46 47 57
REMARK Flexibility Score: inf
ROOT
ATOM      1  C   UNL A   1      42.434  19.861  26.565  1.00  0.00     0.274 C 
ENDROOT
BRANCH   1   2
ATOM      2  O   UNL A   1      41.348  20.384  25.784  1.00  0.00    -0.462 OA
BRANCH   2   3
ATOM      3  C   UNL A   1      40.342  20.938  26.499  1.00  0.00     0.307 C 
ATOM      4  O   UNL A   1      40.397  21.253  27.682  1.00  0.00    -0.252 OA
BRANCH   3   5
ATOM      5  C   UNL A   1      39.108  21.125  25.683  1.00  0.00     0.139 C 
BRANCH   5   6
ATOM      6  C   UNL A   1      38.333  22.402  25.830  1.00  0.00     0.110 C 
BRANCH   6   7
ATOM      7  N   UNL A   1      36.936  22.235  26.195  1.00  0.00    -0.211 NA
ATOM      8  H   UNL A   1      36.777  21.229  26.239  1.00  0.00     0.141 HD
BRANCH   7   9
ATOM      9  S   UNL A   1      35.670  22.858  25.302  1.00  0.00     0.240 S 
ATOM     10  O   UNL A   1      36.245  23.405  24.085  1.00  0.00    -0.207 OA
ATOM     11  O   UNL A   1      34.921  23.700  26.197  1.00  0.00    -0.207 OA
BRANCH   9  12
ATOM     12  C   UNL A   1      34.605  21.503  24.833  1.00  0.00     0.087 A 
ATOM     13  C   UNL A   1      32.614  22.963  24.005  1.00  0.00     0.046 C 
ATOM     14  C   UNL A   1      33.311  21.653  24.249  1.00  0.00    -0.029 A 
ATOM     15  C   UNL A   1      32.584  20.493  23.883  1.00  0.00     0.033 A 
ATOM     16  C   UNL A   1      33.180  19.269  24.067  1.00  0.00     0.067 A 
ATOM     17  C   UNL A   1      35.169  20.223  25.041  1.00  0.00     0.050 A 
ATOM     18  N   UNL A   1      32.721  17.998  23.740  1.00  0.00    -0.306 N 
ATOM     19  C   UNL A   1      34.439  19.137  24.634  1.00  0.00     0.068 A 
ATOM     20  C   UNL A   1      33.700  17.061  24.101  1.00  0.00     0.323 A 
ATOM     21  H   UNL A   1      31.853  17.790  23.324  1.00  0.00     0.171 HD
ATOM     22  N   UNL A   1      34.762  17.786  24.660  1.00  0.00    -0.306 N 
ATOM     23  O   UNL A   1      33.636  15.852  23.959  1.00  0.00    -0.248 OA
ATOM     24  H   UNL A   1      35.597  17.401  25.012  1.00  0.00     0.171 HD
ENDBRANCH   9  12
ENDBRANCH   7   9
ENDBRANCH   6   7
ENDBRANCH   5   6
ENDBRANCH   3   5
ENDBRANCH   2   3
ENDBRANCH   1   2
BRANCH   1  25
ATOM     25  C   UNL A   1      43.176  18.806  25.741  1.00  0.00     0.275 C 
BRANCH  25  26
ATOM     26  O   UNL A   1      43.577  19.386  24.485  1.00  0.00    -0.458 OA
BRANCH  26  27
ATOM     27  C   UNL A   1      44.888  19.708  24.341  1.00  0.00     0.338 C 
ATOM     28  O   UNL A   1      45.741  19.056  23.765  1.00  0.00    -0.246 OA
BRANCH  27  29
ATOM     29  C   UNL A   1      45.029  21.153  24.661  1.00  0.00     0.060 A 
ATOM     30  C   UNL A   1      45.752  21.572  25.781  1.00  0.00     0.016 A 
ATOM     31  C   UNL A   1      44.164  22.041  24.007  1.00  0.00     0.016 A 
ATOM     32  C   UNL A   1      45.427  22.785  26.378  1.00  0.00     0.010 A 
ATOM     33  C   UNL A   1      43.840  23.254  24.609  1.00  0.00     0.010 A 
ATOM     34  C   UNL A   1      44.396  23.574  25.852  1.00  0.00    -0.014 A 
BRANCH  34  35
ATOM     35  C   UNL A   1      44.048  24.820  26.534  1.00  0.00     0.031 A 
ATOM     36  C   UNL A   1      45.101  25.840  26.362  1.00  0.00     0.074 A 
ATOM     37  C   UNL A   1      42.951  25.135  27.260  1.00  0.00     0.049 A 
ATOM     38  N   UNL A   1      45.983  26.155  27.250  1.00  0.00    -0.248 NA
ATOM     39  C   UNL A   1      45.316  26.438  25.043  1.00  0.00     0.031 C 
ATOM     40  C   UNL A   1      41.747  24.377  27.567  1.00  0.00     0.029 A 
ATOM     41  N   UNL A   1      42.699  26.310  27.915  1.00  0.00    -0.354 N 
ATOM     42  C   UNL A   1      46.777  27.126  26.666  1.00  0.00     0.074 A 
ATOM     43  C   UNL A   1      46.419  27.156  25.269  1.00  0.00     0.031 C 
ATOM     44  C   UNL A   1      40.787  25.166  28.098  1.00  0.00     0.029 A 
ATOM     45  C   UNL A   1      41.401  26.443  28.393  1.00  0.00     0.049 A 
ATOM     46  H   UNL A   1      43.384  27.007  28.039  1.00  0.00     0.167 HD
ATOM     47  C   UNL A   1      47.519  27.968  27.431  1.00  0.00     0.037 A 
ATOM     48  C   UNL A   1      40.876  27.426  29.162  1.00  0.00     0.037 A 
ATOM     49  C   UNL A   1      47.657  27.483  28.784  1.00  0.00     0.049 A 
ATOM     50  C   UNL A   1      42.003  28.050  29.886  1.00  0.00     0.074 A 
ATOM     51  C   UNL A   1      48.228  26.370  29.374  1.00  0.00     0.029 A 
ATOM     52  N   UNL A   1      46.838  28.022  29.746  1.00  0.00    -0.354 N 
ATOM     53  N   UNL A   1      42.656  27.449  30.841  1.00  0.00    -0.248 NA
ATOM     54  C   UNL A   1      42.708  29.135  29.227  1.00  0.00     0.031 C 
ATOM     55  C   UNL A   1      47.360  26.035  30.457  1.00  0.00     0.029 A 
ATOM     56  C   UNL A   1      46.337  26.981  30.486  1.00  0.00     0.049 A 
ATOM     57  H   UNL A   1      46.646  28.978  29.880  1.00  0.00     0.167 HD
ATOM     58  C   UNL A   1      43.985  27.775  30.617  1.00  0.00     0.074 A 
ATOM     59  C   UNL A   1      43.947  28.874  29.653  1.00  0.00     0.031 C 
ATOM     60  C   UNL A   1      44.997  26.954  31.024  1.00  0.00     0.037 A 
BRANCH  47  61
ATOM     61  C   UNL A   1      47.797  29.395  27.062  1.00  0.00     0.057 A 
ATOM     62  C   UNL A   1      46.795  30.374  26.906  1.00  0.00     0.134 A 
ATOM     63  C   UNL A   1      49.110  29.885  27.169  1.00  0.00     0.134 A 
ATOM     64  F   UNL A   1      45.493  30.068  26.866  1.00  0.00    -0.206 F 
ATOM     65  C   UNL A   1      47.072  31.740  26.892  1.00  0.00     0.040 A 
ATOM     66  C   UNL A   1      49.393  31.253  27.207  1.00  0.00     0.040 A 
ATOM     67  F   UNL A   1      50.145  29.047  27.324  1.00  0.00    -0.206 F 
ATOM     68  C   UNL A   1      48.371  32.187  27.081  1.00  0.00     0.006 A 
ENDBRANCH  47  61
BRANCH  48  69
ATOM     69  C   UNL A   1      39.533  28.037  29.057  1.00  0.00     0.057 A 
ATOM     70  C   UNL A   1      39.191  28.857  27.966  1.00  0.00     0.134 A 
ATOM     71  C   UNL A   1      38.656  28.064  30.150  1.00  0.00     0.134 A 
ATOM     72  F   UNL A   1      39.990  28.944  26.891  1.00  0.00    -0.206 F 
ATOM     73  C   UNL A   1      38.063  29.683  27.978  1.00  0.00     0.040 A 
ATOM     74  C   UNL A   1      37.523  28.889  30.174  1.00  0.00     0.040 A 
ATOM     75  F   UNL A   1      38.913  27.337  31.247  1.00  0.00    -0.206 F 
ATOM     76  C   UNL A   1      37.232  29.713  29.091  1.00  0.00     0.006 A 
ENDBRANCH  48  69
BRANCH  60  77
ATOM     77  C   UNL A   1      44.628  25.792  31.906  1.00  0.00     0.057 A 
ATOM     78  C   UNL A   1      44.617  25.961  33.293  1.00  0.00     0.134 A 
ATOM     79  C   UNL A   1      44.401  24.493  31.425  1.00  0.00     0.134 A 
ATOM     80  F   UNL A   1      44.885  27.162  33.831  1.00  0.00    -0.206 F 
ATOM     81  C   UNL A   1      44.369  24.895  34.163  1.00  0.00     0.040 A 
ATOM     82  C   UNL A   1      44.126  23.422  32.282  1.00  0.00     0.040 A 
ATOM     83  F   UNL A   1      44.486  24.219  30.118  1.00  0.00    -0.206 F 
ATOM     84  C   UNL A   1      44.110  23.622  33.658  1.00  0.00     0.006 A 
ENDBRANCH  60  77
ENDBRANCH  34  35
ENDBRANCH  27  29
ENDBRANCH  26  27
ENDBRANCH  25  26
ENDBRANCH   1  25
TORSDOF 15
ENDMDL
MODEL 2
REMARK VINA RESULT:     -12.0      1.382      2.053
REMARK SMILES Cc1cc2[nH]c(=O)[nH]c2cc1S(=O)(=O)NCCC(=O)OCCOC(=O)c1ccc(-c2c3nc(c(-c4c(F)cccc4F)c4ccc([nH]4)c(-c4c(F)cccc4F)c4nc(c(-c5c(F)cccc5F)c5ccc2[nH]5)C=C4)C=C3)cc1
REMARK SMILES IDX 21 1 20 2 18 3 19 4 17 5 16 6 15 7 12 9 13 10 14 11 11 12
REMARK SMILES IDX 1 13 2 14 3 15 4 16 10 17 5 18 9 19 6 20 8 22 7 23 22 25
REMARK SMILES IDX 23 26 24 27 25 28 26 29 27 30 79 31 28 32 78 33 29 34 30 35
REMARK SMILES IDX 31 36 72 37 32 38 77 39 71 40 73 41 33 42 76 43 70 44 69 45
REMARK SMILES IDX 34 47 60 48 43 49 59 50 44 51 47 52 58 53 74 54 45 55 46 56
REMARK SMILES IDX 57 58 75 59 48 60 35 61 36 62 41 63 37 64 38 65 40 66 42 67
REMARK SMILES IDX 39 68 61 69 62 70 67 71 63 72 64 73 66 74 68 75 65 76 49 77
REMARK SMILES IDX 50 78 55 79 51 80 52 81 54 82 56 83 53 84
REMARK H PARENT 15 8 5 21 8 24 73 46 47 57
REMARK Flexibility Score: inf
ROOT
ATOM      1  C   UNL A   1      42.544  19.321  26.752  1.00  0.00     0.274 C 
ENDROOT
BRANCH   1   2
ATOM      2  O   UNL A   1      41.778  20.289  26.017  1.00  0.00    -0.462 OA
BRANCH   2   3
ATOM      3  C   UNL A   1      40.459  20.008  25.901  1.00  0.00     0.307 C 
ATOM      4  O   UNL A   1      39.982  18.901  25.682  1.00  0.00    -0.252 OA
BRANCH   3   5
ATOM      5  C   UNL A   1      39.610  21.223  26.060  1.00  0.00     0.139 C 
BRANCH   5   6
ATOM      6  C   UNL A   1      38.261  21.251  25.404  1.00  0.00     0.110 C 
BRANCH   6   7
ATOM      7  N   UNL A   1      37.285  22.123  26.039  1.00  0.00    -0.211 NA
ATOM      8  H   UNL A   1      36.646  21.507  26.541  1.00  0.00     0.141 HD
BRANCH   7   9
ATOM      9  S   UNL A   1      36.321  23.193  25.196  1.00  0.00     0.240 S 
ATOM     10  O   UNL A   1      36.620  23.007  23.786  1.00  0.00    -0.207 OA
ATOM     11  O   UNL A   1      36.506  24.478  25.817  1.00  0.00    -0.207 OA
BRANCH   9  12
ATOM     12  C   UNL A   1      34.617  22.721  25.451  1.00  0.00     0.087 A 
ATOM     13  C   UNL A   1      34.875  20.246  24.683  1.00  0.00     0.046 C 
ATOM     14  C   UNL A   1      34.096  21.410  25.231  1.00  0.00    -0.029 A 
ATOM     15  C   UNL A   1      32.731  21.157  25.514  1.00  0.00     0.033 A 
ATOM     16  C   UNL A   1      31.975  22.180  26.033  1.00  0.00     0.067 A 
ATOM     17  C   UNL A   1      33.797  23.758  25.953  1.00  0.00     0.050 A 
ATOM     18  N   UNL A   1      30.650  22.183  26.453  1.00  0.00    -0.306 N 
ATOM     19  C   UNL A   1      32.494  23.449  26.245  1.00  0.00     0.068 A 
ATOM     20  C   UNL A   1      30.334  23.461  26.934  1.00  0.00     0.323 A 
ATOM     21  H   UNL A   1      30.035  21.414  26.418  1.00  0.00     0.171 HD
ATOM     22  N   UNL A   1      31.492  24.240  26.794  1.00  0.00    -0.306 N 
ATOM     23  O   UNL A   1      29.261  23.824  27.383  1.00  0.00    -0.248 OA
ATOM     24  H   UNL A   1      31.580  25.187  27.044  1.00  0.00     0.171 HD
ENDBRANCH   9  12
ENDBRANCH   7   9
ENDBRANCH   6   7
ENDBRANCH   5   6
ENDBRANCH   3   5
ENDBRANCH   2   3
ENDBRANCH   1   2
BRANCH   1  25
ATOM     25  C   UNL A   1      43.393  18.510  25.771  1.00  0.00     0.275 C 
BRANCH  25  26
ATOM     26  O   UNL A   1      43.608  19.290  24.579  1.00  0.00    -0.458 OA
BRANCH  26  27
ATOM     27  C   UNL A   1      44.888  19.630  24.282  1.00  0.00     0.338 C 
ATOM     28  O   UNL A   1      45.663  19.009  23.575  1.00  0.00    -0.246 OA
BRANCH  27  29
ATOM     29  C   UNL A   1      45.065  21.061  24.643  1.00  0.00     0.060 A 
ATOM     30  C   UNL A   1      45.713  21.429  25.824  1.00  0.00     0.016 A 
ATOM     31  C   UNL A   1      44.293  21.997  23.940  1.00  0.00     0.016 A 
ATOM     32  C   UNL A   1      45.393  22.644  26.420  1.00  0.00     0.010 A 
ATOM     33  C   UNL A   1      43.974  23.213  24.540  1.00  0.00     0.010 A 
ATOM     34  C   UNL A   1      44.441  23.487  25.829  1.00  0.00    -0.014 A 
BRANCH  34  35
ATOM     35  C   UNL A   1      44.093  24.735  26.508  1.00  0.00     0.031 A 
ATOM     36  C   UNL A   1      45.147  25.754  26.335  1.00  0.00     0.074 A 
ATOM     37  C   UNL A   1      42.995  25.052  27.231  1.00  0.00     0.049 A 
ATOM     38  N   UNL A   1      46.028  26.071  27.224  1.00  0.00    -0.248 NA
ATOM     39  C   UNL A   1      45.364  26.348  25.014  1.00  0.00     0.031 C 
ATOM     40  C   UNL A   1      41.790  24.295  27.537  1.00  0.00     0.029 A 
ATOM     41  N   UNL A   1      42.742  26.229  27.882  1.00  0.00    -0.354 N 
ATOM     42  C   UNL A   1      46.823  27.039  26.638  1.00  0.00     0.074 A 
ATOM     43  C   UNL A   1      46.467  27.066  25.240  1.00  0.00     0.031 C 
ATOM     44  C   UNL A   1      40.830  25.086  28.065  1.00  0.00     0.029 A 
ATOM     45  C   UNL A   1      41.444  26.364  28.357  1.00  0.00     0.049 A 
ATOM     46  H   UNL A   1      43.428  26.926  28.005  1.00  0.00     0.167 HD
ATOM     47  C   UNL A   1      47.564  27.883  27.402  1.00  0.00     0.037 A 
ATOM     48  C   UNL A   1      40.918  27.350  29.123  1.00  0.00     0.037 A 
ATOM     49  C   UNL A   1      47.699  27.402  28.757  1.00  0.00     0.049 A 
ATOM     50  C   UNL A   1      42.044  27.975  29.847  1.00  0.00     0.074 A 
ATOM     51  C   UNL A   1      48.269  26.290  29.350  1.00  0.00     0.029 A 
ATOM     52  N   UNL A   1      46.880  27.944  29.715  1.00  0.00    -0.354 N 
ATOM     53  N   UNL A   1      42.695  27.376  30.805  1.00  0.00    -0.248 NA
ATOM     54  C   UNL A   1      42.751  29.058  29.186  1.00  0.00     0.031 C 
ATOM     55  C   UNL A   1      47.399  25.958  30.433  1.00  0.00     0.029 A 
ATOM     56  C   UNL A   1      46.376  26.905  30.458  1.00  0.00     0.049 A 
ATOM     57  H   UNL A   1      46.688  28.901  29.847  1.00  0.00     0.167 HD
ATOM     58  C   UNL A   1      44.024  27.701  30.582  1.00  0.00     0.074 A 
ATOM     59  C   UNL A   1      43.989  28.797  29.615  1.00  0.00     0.031 C 
ATOM     60  C   UNL A   1      45.036  26.880  30.993  1.00  0.00     0.037 A 
BRANCH  47  61
ATOM     61  C   UNL A   1      47.844  29.309  27.029  1.00  0.00     0.057 A 
ATOM     62  C   UNL A   1      46.845  30.296  26.902  1.00  0.00     0.134 A 
ATOM     63  C   UNL A   1      49.163  29.789  27.104  1.00  0.00     0.134 A 
ATOM     64  F   UNL A   1      45.541  30.000  26.894  1.00  0.00    -0.206 F 
ATOM     65  C   UNL A   1      47.133  31.660  26.884  1.00  0.00     0.040 A 
ATOM     66  C   UNL A   1      49.457  31.155  27.139  1.00  0.00     0.040 A 
ATOM     67  F   UNL A   1      50.195  28.942  27.232  1.00  0.00    -0.206 F 
ATOM     68  C   UNL A   1      48.439  32.096  27.041  1.00  0.00     0.006 A 
ENDBRANCH  47  61
BRANCH  48  69
ATOM     69  C   UNL A   1      39.576  27.961  29.014  1.00  0.00     0.057 A 
ATOM     70  C   UNL A   1      39.229  28.761  27.911  1.00  0.00     0.134 A 
ATOM     71  C   UNL A   1      38.704  28.010  30.111  1.00  0.00     0.134 A 
ATOM     72  F   UNL A   1      40.023  28.827  26.830  1.00  0.00    -0.206 F 
ATOM     73  C   UNL A   1      38.103  29.589  27.913  1.00  0.00     0.040 A 
ATOM     74  C   UNL A   1      37.573  28.837  30.126  1.00  0.00     0.040 A 
ATOM     75  F   UNL A   1      38.966  27.302  31.219  1.00  0.00    -0.206 F 
ATOM     76  C   UNL A   1      37.278  29.642  29.030  1.00  0.00     0.006 A 
ENDBRANCH  48  69
BRANCH  60  77
ATOM     77  C   UNL A   1      44.665  25.721  31.878  1.00  0.00     0.057 A 
ATOM     78  C   UNL A   1      44.665  25.889  33.265  1.00  0.00     0.134 A 
ATOM     79  C   UNL A   1      44.424  24.424  31.398  1.00  0.00     0.134 A 
ATOM     80  F   UNL A   1      44.945  27.088  33.801  1.00  0.00    -0.206 F 
ATOM     81  C   UNL A   1      44.415  24.825  34.137  1.00  0.00     0.040 A 
ATOM     82  C   UNL A   1      44.148  23.355  32.257  1.00  0.00     0.040 A 
ATOM     83  F   UNL A   1      44.497  24.149  30.091  1.00  0.00    -0.206 F 
ATOM     84  C   UNL A   1      44.144  23.554  33.634  1.00  0.00     0.006 A 
ENDBRANCH  60  77
ENDBRANCH  34  35
ENDBRANCH  27  29
ENDBRANCH  26  27
ENDBRANCH  25  26
ENDBRANCH   1  25
TORSDOF 15
ENDMDL
MODEL 3
REMARK VINA RESULT:     -11.5      6.257     11.836
REMARK SMILES Cc1cc2[nH]c(=O)[nH]c2cc1S(=O)(=O)NCCC(=O)OCCOC(=O)c1ccc(-c2c3nc(c(-c4c(F)cccc4F)c4ccc([nH]4)c(-c4c(F)cccc4F)c4nc(c(-c5c(F)cccc5F)c5ccc2[nH]5)C=C4)C=C3)cc1
REMARK SMILES IDX 21 1 20 2 18 3 19 4 17 5 16 6 15 7 12 9 13 10 14 11 11 12
REMARK SMILES IDX 1 13 2 14 3 15 4 16 10 17 5 18 9 19 6 20 8 22 7 23 22 25
REMARK SMILES IDX 23 26 24 27 25 28 26 29 27 30 79 31 28 32 78 33 29 34 30 35
REMARK SMILES IDX 31 36 72 37 32 38 77 39 71 40 73 41 33 42 76 43 70 44 69 45
REMARK SMILES IDX 34 47 60 48 43 49 59 50 44 51 47 52 58 53 74 54 45 55 46 56
REMARK SMILES IDX 57 58 75 59 48 60 35 61 36 62 41 63 37 64 38 65 40 66 42 67
REMARK SMILES IDX 39 68 61 69 62 70 67 71 63 72 64 73 66 74 68 75 65 76 49 77
REMARK SMILES IDX 50 78 55 79 51 80 52 81 54 82 56 83 53 84
REMARK H PARENT 15 8 5 21 8 24 73 46 47 57
REMARK Flexibility Score: inf
ROOT
ATOM      1  C   UNL A   1      33.773  35.193  29.927  1.00  0.00     0.274 C 
ENDROOT
BRANCH   1   2
ATOM      2  O   UNL A   1      32.729  34.975  30.890  1.00  0.00    -0.462 OA
BRANCH   2   3
ATOM      3  C   UNL A   1      32.504  36.007  31.735  1.00  0.00     0.307 C 
ATOM      4  O   UNL A   1      31.404  36.447  32.048  1.00  0.00    -0.252 OA
BRANCH   3   5
ATOM      5  C   UNL A   1      33.772  36.587  32.263  1.00  0.00     0.139 C 
BRANCH   5   6
ATOM      6  C   UNL A   1      34.251  36.161  33.619  1.00  0.00     0.110 C 
BRANCH   6   7
ATOM      7  N   UNL A   1      35.504  35.422  33.626  1.00  0.00    -0.211 NA
ATOM      8  H   UNL A   1      36.156  35.976  33.071  1.00  0.00     0.141 HD
BRANCH   7   9
ATOM      9  S   UNL A   1      35.651  33.854  33.075  1.00  0.00     0.240 S 
ATOM     10  O   UNL A   1      36.302  33.924  31.778  1.00  0.00    -0.207 OA
ATOM     11  O   UNL A   1      34.347  33.257  33.205  1.00  0.00    -0.207 OA
BRANCH   9  12
ATOM     12  C   UNL A   1      36.746  32.979  34.182  1.00  0.00     0.087 A 
ATOM     13  C   UNL A   1      36.975  30.826  32.733  1.00  0.00     0.046 C 
ATOM     14  C   UNL A   1      37.292  31.684  33.927  1.00  0.00    -0.029 A 
ATOM     15  C   UNL A   1      38.184  31.118  34.870  1.00  0.00     0.033 A 
ATOM     16  C   UNL A   1      38.524  31.864  35.973  1.00  0.00     0.067 A 
ATOM     17  C   UNL A   1      37.091  33.701  35.347  1.00  0.00     0.050 A 
ATOM     18  N   UNL A   1      39.413  31.578  37.002  1.00  0.00    -0.306 N 
ATOM     19  C   UNL A   1      37.989  33.123  36.206  1.00  0.00     0.068 A 
ATOM     20  C   UNL A   1      39.440  32.665  37.887  1.00  0.00     0.323 A 
ATOM     21  H   UNL A   1      39.938  30.750  37.093  1.00  0.00     0.171 HD
ATOM     22  N   UNL A   1      38.544  33.618  37.380  1.00  0.00    -0.306 N 
ATOM     23  O   UNL A   1      40.109  32.760  38.901  1.00  0.00    -0.248 OA
ATOM     24  H   UNL A   1      38.343  34.491  37.787  1.00  0.00     0.171 HD
ENDBRANCH   9  12
ENDBRANCH   7   9
ENDBRANCH   6   7
ENDBRANCH   5   6
ENDBRANCH   3   5
ENDBRANCH   2   3
ENDBRANCH   1   2
BRANCH   1  25
ATOM     25  C   UNL A   1      33.653  34.145  28.818  1.00  0.00     0.275 C 
BRANCH  25  26
ATOM     26  O   UNL A   1      34.493  33.021  29.141  1.00  0.00    -0.458 OA
BRANCH  26  27
ATOM     27  C   UNL A   1      35.527  32.757  28.302  1.00  0.00     0.338 C 
ATOM     28  O   UNL A   1      35.821  33.368  27.289  1.00  0.00    -0.246 OA
BRANCH  27  29
ATOM     29  C   UNL A   1      36.461  31.848  29.017  1.00  0.00     0.060 A 
ATOM     30  C   UNL A   1      37.742  32.273  29.375  1.00  0.00     0.016 A 
ATOM     31  C   UNL A   1      36.141  30.483  29.029  1.00  0.00     0.016 A 
ATOM     32  C   UNL A   1      38.754  31.328  29.506  1.00  0.00     0.010 A 
ATOM     33  C   UNL A   1      37.157  29.540  29.160  1.00  0.00     0.010 A 
ATOM     34  C   UNL A   1      38.481  29.970  29.292  1.00  0.00    -0.014 A 
BRANCH  34  35
ATOM     35  C   UNL A   1      39.580  29.010  29.390  1.00  0.00     0.031 A 
ATOM     36  C   UNL A   1      39.966  28.777  30.796  1.00  0.00     0.074 A 
ATOM     37  C   UNL A   1      40.246  28.351  28.415  1.00  0.00     0.049 A 
ATOM     38  N   UNL A   1      40.996  29.293  31.379  1.00  0.00    -0.248 NA
ATOM     39  C   UNL A   1      39.051  28.059  31.685  1.00  0.00     0.031 C 
ATOM     40  C   UNL A   1      40.074  28.336  26.970  1.00  0.00     0.029 A 
ATOM     41  N   UNL A   1      41.301  27.492  28.566  1.00  0.00    -0.354 N 
ATOM     42  C   UNL A   1      40.962  28.831  32.682  1.00  0.00     0.074 A 
ATOM     43  C   UNL A   1      39.675  28.202  32.856  1.00  0.00     0.031 C 
ATOM     44  C   UNL A   1      40.778  27.334  26.398  1.00  0.00     0.029 A 
ATOM     45  C   UNL A   1      41.645  26.787  27.419  1.00  0.00     0.049 A 
ATOM     46  H   UNL A   1      41.779  27.382  29.420  1.00  0.00     0.167 HD
ATOM     47  C   UNL A   1      42.085  28.827  33.446  1.00  0.00     0.037 A 
ATOM     48  C   UNL A   1      42.693  25.952  27.219  1.00  0.00     0.037 A 
ATOM     49  C   UNL A   1      43.117  29.668  32.887  1.00  0.00     0.049 A 
ATOM     50  C   UNL A   1      43.730  26.323  28.204  1.00  0.00     0.074 A 
ATOM     51  C   UNL A   1      43.246  31.019  32.625  1.00  0.00     0.029 A 
ATOM     52  N   UNL A   1      44.120  29.063  32.172  1.00  0.00    -0.354 N 
ATOM     53  N   UNL A   1      44.411  27.433  28.137  1.00  0.00    -0.248 NA
ATOM     54  C   UNL A   1      43.667  25.701  29.514  1.00  0.00     0.031 C 
ATOM     55  C   UNL A   1      43.987  31.094  31.407  1.00  0.00     0.029 A 
ATOM     56  C   UNL A   1      44.298  29.791  31.021  1.00  0.00     0.049 A 
ATOM     57  H   UNL A   1      44.620  28.256  32.434  1.00  0.00     0.167 HD
ATOM     58  C   UNL A   1      44.490  27.875  29.448  1.00  0.00     0.074 A 
ATOM     59  C   UNL A   1      44.077  26.731  30.259  1.00  0.00     0.031 C 
ATOM     60  C   UNL A   1      44.625  29.202  29.744  1.00  0.00     0.037 A 
BRANCH  47  61
ATOM     61  C   UNL A   1      42.379  27.781  34.481  1.00  0.00     0.057 A 
ATOM     62  C   UNL A   1      41.905  27.837  35.807  1.00  0.00     0.134 A 
ATOM     63  C   UNL A   1      42.882  26.535  34.070  1.00  0.00     0.134 A 
ATOM     64  F   UNL A   1      41.328  28.931  36.319  1.00  0.00    -0.206 F 
ATOM     65  C   UNL A   1      41.899  26.728  36.653  1.00  0.00     0.040 A 
ATOM     66  C   UNL A   1      42.833  25.406  34.892  1.00  0.00     0.040 A 
ATOM     67  F   UNL A   1      43.357  26.362  32.828  1.00  0.00    -0.206 F 
ATOM     68  C   UNL A   1      42.330  25.496  36.184  1.00  0.00     0.006 A 
ENDBRANCH  47  61
BRANCH  48  69
ATOM     69  C   UNL A   1      42.707  24.686  26.455  1.00  0.00     0.057 A 
ATOM     70  C   UNL A   1      42.063  23.535  26.943  1.00  0.00     0.134 A 
ATOM     71  C   UNL A   1      43.581  24.494  25.375  1.00  0.00     0.134 A 
ATOM     72  F   UNL A   1      41.246  23.600  28.007  1.00  0.00    -0.206 F 
ATOM     73  C   UNL A   1      42.302  22.263  26.414  1.00  0.00     0.040 A 
ATOM     74  C   UNL A   1      43.830  23.225  24.837  1.00  0.00     0.040 A 
ATOM     75  F   UNL A   1      44.261  25.527  24.859  1.00  0.00    -0.206 F 
ATOM     76  C   UNL A   1      43.201  22.102  25.367  1.00  0.00     0.006 A 
ENDBRANCH  48  69
BRANCH  60  77
ATOM     77  C   UNL A   1      44.893  30.139  28.598  1.00  0.00     0.057 A 
ATOM     78  C   UNL A   1      46.201  30.571  28.358  1.00  0.00     0.134 A 
ATOM     79  C   UNL A   1      43.884  30.710  27.809  1.00  0.00     0.134 A 
ATOM     80  F   UNL A   1      47.213  30.115  29.112  1.00  0.00    -0.206 F 
ATOM     81  C   UNL A   1      46.496  31.509  27.365  1.00  0.00     0.040 A 
ATOM     82  C   UNL A   1      44.167  31.631  26.794  1.00  0.00     0.040 A 
ATOM     83  F   UNL A   1      42.594  30.428  28.030  1.00  0.00    -0.206 F 
ATOM     84  C   UNL A   1      45.479  32.034  26.570  1.00  0.00     0.006 A 
ENDBRANCH  60  77
ENDBRANCH  34  35
ENDBRANCH  27  29
ENDBRANCH  26  27
ENDBRANCH  25  26
ENDBRANCH   1  25
TORSDOF 15
ENDMDL
