MODEL 1
REMARK VINA RESULT:     -11.2      0.000      0.000
REMARK SMILES C[C@H](C1CC1)n1c(SCC(=O)OCCOC(=O)c2ccc(-c3c4nc(c(-c5c(F)cccc5F)c5ccc([nH]5)c(-c5c(F)cccc5F)c5nc(c(-c6c(F)cccc6F)c6ccc3[nH]6)C=C5)C=C4)cc2)nc2cc(Cl)c(Cl)cc21
REMARK SMILES IDX 13 1 12 2 10 3 11 4 9 5 8 6 7 7 6 8 80 9 72 10 73 11 79 12
REMARK SMILES IDX 74 13 77 14 75 15 78 16 76 17 2 18 1 19 3 20 4 21 5 22 14 23
REMARK SMILES IDX 15 24 16 25 17 26 18 27 19 28 71 29 20 30 70 31 21 32 22 33
REMARK SMILES IDX 23 34 64 35 24 36 69 37 63 38 65 39 25 40 68 41 62 42 61 43
REMARK SMILES IDX 26 45 52 46 35 47 51 48 36 49 39 50 50 51 66 52 37 53 38 54
REMARK SMILES IDX 49 56 67 57 40 58 27 59 28 60 33 61 29 62 30 63 32 64 34 65
REMARK SMILES IDX 31 66 53 67 54 68 59 69 55 70 56 71 58 72 60 73 57 74 41 75
REMARK SMILES IDX 42 76 47 77 43 78 44 79 46 80 48 81 45 82
REMARK H PARENT 65 44 39 55
REMARK Flexibility Score: inf
ROOT
ATOM      1  C   UNL A   1      41.024  20.650  26.336  1.00  0.00     0.274 C 
ENDROOT
BRANCH   1   2
ATOM      2  O   UNL A   1      39.691  20.444  25.800  1.00  0.00    -0.461 OA
BRANCH   2   3
ATOM      3  C   UNL A   1      38.808  21.471  25.919  1.00  0.00     0.316 C 
ATOM      4  O   UNL A   1      39.091  22.561  26.413  1.00  0.00    -0.251 OA
BRANCH   3   5
ATOM      5  C   UNL A   1      37.448  21.229  25.297  1.00  0.00     0.200 C 
BRANCH   5   6
ATOM      6  S   UNL A   1      37.009  22.146  23.845  1.00  0.00    -0.076 SA
BRANCH   6   7
ATOM      7  C   UNL A   1      35.419  22.829  23.890  1.00  0.00     0.169 A 
ATOM      8  N   UNL A   1      34.303  22.601  24.667  1.00  0.00    -0.316 N 
ATOM      9  C   UNL A   1      33.584  23.804  24.655  1.00  0.00     0.071 A 
ATOM     10  N   UNL A   1      35.213  23.871  23.105  1.00  0.00    -0.222 NA
ATOM     11  C   UNL A   1      34.129  24.522  23.604  1.00  0.00     0.091 A 
ATOM     12  C   UNL A   1      32.540  24.319  25.444  1.00  0.00     0.050 A 
ATOM     13  C   UNL A   1      33.593  25.767  23.248  1.00  0.00     0.052 A 
ATOM     14  C   UNL A   1      32.050  25.592  25.122  1.00  0.00     0.061 A 
ATOM     15  C   UNL A   1      32.557  26.300  24.026  1.00  0.00     0.061 A 
ATOM     16  Cl  UNL A   1      30.814  26.237  26.148  1.00  0.00    -0.083 Cl
ATOM     17  Cl  UNL A   1      31.970  27.870  23.596  1.00  0.00    -0.083 Cl
BRANCH   8  18
ATOM     18  C   UNL A   1      33.833  21.467  25.467  1.00  0.00     0.090 C 
ATOM     19  C   UNL A   1      34.254  21.526  26.913  1.00  0.00     0.032 C 
BRANCH  18  20
ATOM     20  C   UNL A   1      33.733  20.108  24.806  1.00  0.00     0.012 C 
ATOM     21  C   UNL A   1      33.035  18.898  25.374  1.00  0.00     0.006 C 
ATOM     22  C   UNL A   1      32.469  19.574  24.161  1.00  0.00     0.006 C 
ENDBRANCH  18  20
ENDBRANCH   8  18
ENDBRANCH   6   7
ENDBRANCH   5   6
ENDBRANCH   3   5
ENDBRANCH   2   3
ENDBRANCH   1   2
BRANCH   1  23
ATOM     23  C   UNL A   1      41.891  19.387  26.165  1.00  0.00     0.275 C 
BRANCH  23  24
ATOM     24  O   UNL A   1      42.626  19.517  24.929  1.00  0.00    -0.458 OA
BRANCH  24  25
ATOM     25  C   UNL A   1      43.971  19.624  24.999  1.00  0.00     0.338 C 
ATOM     26  O   UNL A   1      44.786  18.741  24.731  1.00  0.00    -0.246 OA
BRANCH  25  27
ATOM     27  C   UNL A   1      44.320  21.061  25.151  1.00  0.00     0.060 A 
ATOM     28  C   UNL A   1      43.847  22.027  24.259  1.00  0.00     0.016 A 
ATOM     29  C   UNL A   1      44.868  21.484  26.358  1.00  0.00     0.016 A 
ATOM     30  C   UNL A   1      43.752  23.373  24.673  1.00  0.00     0.010 A 
ATOM     31  C   UNL A   1      44.754  22.809  26.754  1.00  0.00     0.010 A 
ATOM     32  C   UNL A   1      44.090  23.764  25.986  1.00  0.00    -0.014 A 
BRANCH  32  33
ATOM     33  C   UNL A   1      43.772  25.121  26.524  1.00  0.00     0.031 A 
ATOM     34  C   UNL A   1      44.783  26.225  26.357  1.00  0.00     0.074 A 
ATOM     35  C   UNL A   1      42.605  25.572  27.063  1.00  0.00     0.049 A 
ATOM     36  N   UNL A   1      45.562  26.716  27.268  1.00  0.00    -0.248 NA
ATOM     37  C   UNL A   1      44.919  26.891  25.051  1.00  0.00     0.031 C 
ATOM     38  C   UNL A   1      41.258  24.979  27.118  1.00  0.00     0.029 A 
ATOM     39  N   UNL A   1      42.420  26.765  27.734  1.00  0.00    -0.354 N 
ATOM     40  C   UNL A   1      46.181  27.836  26.713  1.00  0.00     0.074 A 
ATOM     41  C   UNL A   1      45.784  27.872  25.327  1.00  0.00     0.031 C 
ATOM     42  C   UNL A   1      40.394  25.826  27.712  1.00  0.00     0.029 A 
ATOM     43  C   UNL A   1      41.130  26.971  28.190  1.00  0.00     0.049 A 
ATOM     44  H   UNL A   1      43.147  27.414  27.876  1.00  0.00     0.167 HD
ATOM     45  C   UNL A   1      46.884  28.733  27.462  1.00  0.00     0.037 A 
ATOM     46  C   UNL A   1      40.654  27.940  29.001  1.00  0.00     0.037 A 
ATOM     47  C   UNL A   1      47.162  28.237  28.781  1.00  0.00     0.049 A 
ATOM     48  C   UNL A   1      41.773  28.428  29.827  1.00  0.00     0.074 A 
ATOM     49  C   UNL A   1      47.867  27.173  29.305  1.00  0.00     0.029 A 
ATOM     50  N   UNL A   1      46.399  28.722  29.810  1.00  0.00    -0.354 N 
ATOM     51  N   UNL A   1      42.373  27.720  30.743  1.00  0.00    -0.248 NA
ATOM     52  C   UNL A   1      42.421  29.683  29.481  1.00  0.00     0.031 C 
ATOM     53  C   UNL A   1      47.145  26.788  30.476  1.00  0.00     0.029 A 
ATOM     54  C   UNL A   1      46.051  27.648  30.590  1.00  0.00     0.049 A 
ATOM     55  H   UNL A   1      46.149  29.662  29.962  1.00  0.00     0.167 HD
ATOM     56  C   UNL A   1      43.653  28.234  30.804  1.00  0.00     0.074 A 
ATOM     57  C   UNL A   1      43.565  29.534  30.151  1.00  0.00     0.031 C 
ATOM     58  C   UNL A   1      44.720  27.447  31.123  1.00  0.00     0.037 A 
BRANCH  45  59
ATOM     59  C   UNL A   1      47.120  30.177  27.111  1.00  0.00     0.057 A 
ATOM     60  C   UNL A   1      48.422  30.712  27.149  1.00  0.00     0.134 A 
ATOM     61  C   UNL A   1      46.083  31.120  26.996  1.00  0.00     0.134 A 
ATOM     62  F   UNL A   1      49.489  29.914  27.304  1.00  0.00    -0.206 F 
ATOM     63  C   UNL A   1      48.671  32.090  27.092  1.00  0.00     0.040 A 
ATOM     64  C   UNL A   1      46.322  32.496  26.900  1.00  0.00     0.040 A 
ATOM     65  F   UNL A   1      44.795  30.750  27.058  1.00  0.00    -0.206 F 
ATOM     66  C   UNL A   1      47.619  32.988  26.965  1.00  0.00     0.006 A 
ENDBRANCH  45  59
BRANCH  46  67
ATOM     67  C   UNL A   1      39.273  28.442  29.122  1.00  0.00     0.057 A 
ATOM     68  C   UNL A   1      38.537  28.315  30.305  1.00  0.00     0.134 A 
ATOM     69  C   UNL A   1      38.719  29.267  28.127  1.00  0.00     0.134 A 
ATOM     70  F   UNL A   1      38.995  27.568  31.318  1.00  0.00    -0.206 F 
ATOM     71  C   UNL A   1      37.328  28.994  30.500  1.00  0.00     0.040 A 
ATOM     72  C   UNL A   1      37.511  29.945  28.305  1.00  0.00     0.040 A 
ATOM     73  F   UNL A   1      39.373  29.493  26.977  1.00  0.00    -0.206 F 
ATOM     74  C   UNL A   1      36.818  29.822  29.503  1.00  0.00     0.006 A 
ENDBRANCH  46  67
BRANCH  58  75
ATOM     75  C   UNL A   1      44.449  26.137  31.809  1.00  0.00     0.057 A 
ATOM     76  C   UNL A   1      44.345  24.906  31.145  1.00  0.00     0.134 A 
ATOM     77  C   UNL A   1      44.423  26.103  33.208  1.00  0.00     0.134 A 
ATOM     78  F   UNL A   1      44.452  24.827  29.813  1.00  0.00    -0.206 F 
ATOM     79  C   UNL A   1      44.180  23.704  31.839  1.00  0.00     0.040 A 
ATOM     80  C   UNL A   1      44.289  24.904  33.917  1.00  0.00     0.040 A 
ATOM     81  F   UNL A   1      44.572  27.234  33.916  1.00  0.00    -0.206 F 
ATOM     82  C   UNL A   1      44.158  23.700  33.230  1.00  0.00     0.006 A 
ENDBRANCH  58  75
ENDBRANCH  32  33
ENDBRANCH  25  27
ENDBRANCH  24  25
ENDBRANCH  23  24
ENDBRANCH   1  23
TORSDOF 15
ENDMDL
MODEL 2
REMARK VINA RESULT:     -11.0      4.717      7.389
REMARK SMILES C[C@H](C1CC1)n1c(SCC(=O)OCCOC(=O)c2ccc(-c3c4nc(c(-c5c(F)cccc5F)c5ccc([nH]5)c(-c5c(F)cccc5F)c5nc(c(-c6c(F)cccc6F)c6ccc3[nH]6)C=C5)C=C4)cc2)nc2cc(Cl)c(Cl)cc21
REMARK SMILES IDX 13 1 12 2 10 3 11 4 9 5 8 6 7 7 6 8 80 9 72 10 73 11 79 12
REMARK SMILES IDX 74 13 77 14 75 15 78 16 76 17 2 18 1 19 3 20 4 21 5 22 14 23
REMARK SMILES IDX 15 24 16 25 17 26 18 27 19 28 71 29 20 30 70 31 21 32 22 33
REMARK SMILES IDX 23 34 64 35 24 36 69 37 63 38 65 39 25 40 68 41 62 42 61 43
REMARK SMILES IDX 26 45 52 46 35 47 51 48 36 49 39 50 50 51 66 52 37 53 38 54
REMARK SMILES IDX 49 56 67 57 40 58 27 59 28 60 33 61 29 62 30 63 32 64 34 65
REMARK SMILES IDX 31 66 53 67 54 68 59 69 55 70 56 71 58 72 60 73 57 74 41 75
REMARK SMILES IDX 42 76 47 77 43 78 44 79 46 80 48 81 45 82
REMARK H PARENT 65 44 39 55
REMARK Flexibility Score: inf
ROOT
ATOM      1  C   UNL A   1      42.898  19.633  25.917  1.00  0.00     0.274 C 
ENDROOT
BRANCH   1   2
ATOM      2  O   UNL A   1      43.508  20.501  24.926  1.00  0.00    -0.461 OA
BRANCH   2   3
ATOM      3  C   UNL A   1      44.851  20.393  24.748  1.00  0.00     0.316 C 
ATOM      4  O   UNL A   1      45.479  19.348  24.904  1.00  0.00    -0.251 OA
BRANCH   3   5
ATOM      5  C   UNL A   1      45.537  21.641  24.229  1.00  0.00     0.200 C 
BRANCH   5   6
ATOM      6  S   UNL A   1      44.828  23.218  24.619  1.00  0.00    -0.076 SA
BRANCH   6   7
ATOM      7  C   UNL A   1      45.245  23.816  26.188  1.00  0.00     0.169 A 
ATOM      8  N   UNL A   1      45.584  25.060  26.677  1.00  0.00    -0.316 N 
ATOM      9  C   UNL A   1      45.222  25.044  28.031  1.00  0.00     0.071 A 
ATOM     10  N   UNL A   1      45.119  22.961  27.187  1.00  0.00    -0.222 NA
ATOM     11  C   UNL A   1      45.032  23.704  28.322  1.00  0.00     0.091 A 
ATOM     12  C   UNL A   1      45.043  26.048  29.000  1.00  0.00     0.050 A 
ATOM     13  C   UNL A   1      44.727  23.304  29.630  1.00  0.00     0.052 A 
ATOM     14  C   UNL A   1      44.677  25.645  30.291  1.00  0.00     0.061 A 
ATOM     15  C   UNL A   1      44.539  24.289  30.608  1.00  0.00     0.061 A 
ATOM     16  Cl  UNL A   1      44.393  26.899  31.451  1.00  0.00    -0.083 Cl
ATOM     17  Cl  UNL A   1      44.096  23.757  32.194  1.00  0.00    -0.083 Cl
BRANCH   8  18
ATOM     18  C   UNL A   1      46.133  26.277  26.073  1.00  0.00     0.090 C 
ATOM     19  C   UNL A   1      45.134  27.054  25.255  1.00  0.00     0.032 C 
BRANCH  18  20
ATOM     20  C   UNL A   1      47.578  26.271  25.620  1.00  0.00     0.012 C 
ATOM     21  C   UNL A   1      48.078  26.667  24.254  1.00  0.00     0.006 C 
ATOM     22  C   UNL A   1      48.410  27.526  25.438  1.00  0.00     0.006 C 
ENDBRANCH  18  20
ENDBRANCH   8  18
ENDBRANCH   6   7
ENDBRANCH   5   6
ENDBRANCH   3   5
ENDBRANCH   2   3
ENDBRANCH   1   2
BRANCH   1  23
ATOM     23  C   UNL A   1      41.788  20.371  26.692  1.00  0.00     0.275 C 
BRANCH  23  24
ATOM     24  O   UNL A   1      42.068  21.786  26.628  1.00  0.00    -0.458 OA
BRANCH  24  25
ATOM     25  C   UNL A   1      41.025  22.642  26.697  1.00  0.00     0.338 C 
ATOM     26  O   UNL A   1      39.832  22.336  26.704  1.00  0.00    -0.246 OA
BRANCH  25  27
ATOM     27  C   UNL A   1      41.542  23.983  27.075  1.00  0.00     0.060 A 
ATOM     28  C   UNL A   1      41.825  24.956  26.113  1.00  0.00     0.016 A 
ATOM     29  C   UNL A   1      41.456  24.373  28.408  1.00  0.00     0.016 A 
ATOM     30  C   UNL A   1      41.820  26.320  26.476  1.00  0.00     0.010 A 
ATOM     31  C   UNL A   1      41.440  25.718  28.745  1.00  0.00     0.010 A 
ATOM     32  C   UNL A   1      41.499  26.730  27.788  1.00  0.00    -0.014 A 
BRANCH  32  33
ATOM     33  C   UNL A   1      41.247  28.159  28.139  1.00  0.00     0.031 A 
ATOM     34  C   UNL A   1      42.314  29.180  27.842  1.00  0.00     0.074 A 
ATOM     35  C   UNL A   1      40.101  28.735  28.600  1.00  0.00     0.049 A 
ATOM     36  N   UNL A   1      43.112  29.747  28.690  1.00  0.00    -0.248 NA
ATOM     37  C   UNL A   1      42.492  29.661  26.462  1.00  0.00     0.031 C 
ATOM     38  C   UNL A   1      38.726  28.223  28.715  1.00  0.00     0.029 A 
ATOM     39  N   UNL A   1      39.974  30.013  29.107  1.00  0.00    -0.354 N 
ATOM     40  C   UNL A   1      43.791  30.752  28.002  1.00  0.00     0.074 A 
ATOM     41  C   UNL A   1      43.405  30.626  26.619  1.00  0.00     0.031 C 
ATOM     42  C   UNL A   1      37.902  29.183  29.182  1.00  0.00     0.029 A 
ATOM     43  C   UNL A   1      38.693  30.342  29.515  1.00  0.00     0.049 A 
ATOM     44  H   UNL A   1      40.732  30.638  29.172  1.00  0.00     0.167 HD
ATOM     45  C   UNL A   1      44.534  31.703  28.636  1.00  0.00     0.037 A 
ATOM     46  C   UNL A   1      38.263  31.431  30.187  1.00  0.00     0.037 A 
ATOM     47  C   UNL A   1      44.779  31.371  30.012  1.00  0.00     0.049 A 
ATOM     48  C   UNL A   1      39.401  31.968  30.956  1.00  0.00     0.074 A 
ATOM     49  C   UNL A   1      45.425  30.352  30.680  1.00  0.00     0.029 A 
ATOM     50  N   UNL A   1      44.036  32.026  30.959  1.00  0.00    -0.354 N 
ATOM     51  N   UNL A   1      39.958  31.357  31.964  1.00  0.00    -0.248 NA
ATOM     52  C   UNL A   1      40.114  33.132  30.457  1.00  0.00     0.031 C 
ATOM     53  C   UNL A   1      44.678  30.161  31.882  1.00  0.00     0.029 A 
ATOM     54  C   UNL A   1      43.628  31.081  31.868  1.00  0.00     0.049 A 
ATOM     55  H   UNL A   1      43.833  32.988  30.983  1.00  0.00     0.167 HD
ATOM     56  C   UNL A   1      41.262  31.810  31.973  1.00  0.00     0.074 A 
ATOM     57  C   UNL A   1      41.245  33.015  31.155  1.00  0.00     0.031 C 
ATOM     58  C   UNL A   1      42.285  31.019  32.406  1.00  0.00     0.037 A 
BRANCH  45  59
ATOM     59  C   UNL A   1      44.846  33.075  28.102  1.00  0.00     0.057 A 
ATOM     60  C   UNL A   1      43.834  34.049  28.015  1.00  0.00     0.134 A 
ATOM     61  C   UNL A   1      46.041  33.384  27.426  1.00  0.00     0.134 A 
ATOM     62  F   UNL A   1      42.634  33.846  28.580  1.00  0.00    -0.206 F 
ATOM     63  C   UNL A   1      43.994  35.239  27.293  1.00  0.00     0.040 A 
ATOM     64  C   UNL A   1      46.226  34.586  26.733  1.00  0.00     0.040 A 
ATOM     65  F   UNL A   1      47.042  32.495  27.339  1.00  0.00    -0.206 F 
ATOM     66  C   UNL A   1      45.195  35.513  26.649  1.00  0.00     0.006 A 
ENDBRANCH  45  59
BRANCH  46  67
ATOM     67  C   UNL A   1      36.909  32.014  30.224  1.00  0.00     0.057 A 
ATOM     68  C   UNL A   1      35.998  31.714  31.243  1.00  0.00     0.134 A 
ATOM     69  C   UNL A   1      36.556  33.066  29.359  1.00  0.00     0.134 A 
ATOM     70  F   UNL A   1      36.259  30.743  32.128  1.00  0.00    -0.206 F 
ATOM     71  C   UNL A   1      34.813  32.440  31.412  1.00  0.00     0.040 A 
ATOM     72  C   UNL A   1      35.373  33.793  29.512  1.00  0.00     0.040 A 
ATOM     73  F   UNL A   1      37.385  33.463  28.382  1.00  0.00    -0.206 F 
ATOM     74  C   UNL A   1      34.503  33.491  30.553  1.00  0.00     0.006 A 
ENDBRANCH  46  67
BRANCH  58  75
ATOM     75  C   UNL A   1      41.944  29.826  33.255  1.00  0.00     0.057 A 
ATOM     76  C   UNL A   1      41.600  28.567  32.741  1.00  0.00     0.134 A 
ATOM     77  C   UNL A   1      42.096  29.920  34.643  1.00  0.00     0.134 A 
ATOM     78  F   UNL A   1      41.521  28.355  31.422  1.00  0.00    -0.206 F 
ATOM     79  C   UNL A   1      41.377  27.465  33.573  1.00  0.00     0.040 A 
ATOM     80  C   UNL A   1      41.907  28.820  35.484  1.00  0.00     0.040 A 
ATOM     81  F   UNL A   1      42.478  31.079  35.204  1.00  0.00    -0.206 F 
ATOM     82  C   UNL A   1      41.536  27.589  34.950  1.00  0.00     0.006 A 
ENDBRANCH  58  75
ENDBRANCH  32  33
ENDBRANCH  25  27
ENDBRANCH  24  25
ENDBRANCH  23  24
ENDBRANCH   1  23
TORSDOF 15
ENDMDL
MODEL 3
REMARK VINA RESULT:     -10.8      5.276      9.219
REMARK SMILES C[C@H](C1CC1)n1c(SCC(=O)OCCOC(=O)c2ccc(-c3c4nc(c(-c5c(F)cccc5F)c5ccc([nH]5)c(-c5c(F)cccc5F)c5nc(c(-c6c(F)cccc6F)c6ccc3[nH]6)C=C5)C=C4)cc2)nc2cc(Cl)c(Cl)cc21
REMARK SMILES IDX 13 1 12 2 10 3 11 4 9 5 8 6 7 7 6 8 80 9 72 10 73 11 79 12
REMARK SMILES IDX 74 13 77 14 75 15 78 16 76 17 2 18 1 19 3 20 4 21 5 22 14 23
REMARK SMILES IDX 15 24 16 25 17 26 18 27 19 28 71 29 20 30 70 31 21 32 22 33
REMARK SMILES IDX 23 34 64 35 24 36 69 37 63 38 65 39 25 40 68 41 62 42 61 43
REMARK SMILES IDX 26 45 52 46 35 47 51 48 36 49 39 50 50 51 66 52 37 53 38 54
REMARK SMILES IDX 49 56 67 57 40 58 27 59 28 60 33 61 29 62 30 63 32 64 34 65
REMARK SMILES IDX 31 66 53 67 54 68 59 69 55 70 56 71 58 72 60 73 57 74 41 75
REMARK SMILES IDX 42 76 47 77 43 78 44 79 46 80 48 81 45 82
REMARK H PARENT 65 44 39 55
REMARK Flexibility Score: inf
ROOT
ATOM      1  C   UNL A   1      41.268  28.939  35.581  1.00  0.00     0.274 C 
ENDROOT
BRANCH   1   2
ATOM      2  O   UNL A   1      40.069  29.559  36.115  1.00  0.00    -0.461 OA
BRANCH   2   3
ATOM      3  C   UNL A   1      39.763  30.806  35.669  1.00  0.00     0.316 C 
ATOM      4  O   UNL A   1      40.578  31.722  35.591  1.00  0.00    -0.251 OA
BRANCH   3   5
ATOM      5  C   UNL A   1      38.347  30.980  35.159  1.00  0.00     0.200 C 
BRANCH   5   6
ATOM      6  S   UNL A   1      38.051  30.829  33.418  1.00  0.00    -0.076 SA
BRANCH   6   7
ATOM      7  C   UNL A   1      37.337  32.230  32.695  1.00  0.00     0.169 A 
ATOM      8  N   UNL A   1      36.914  32.535  31.419  1.00  0.00    -0.316 N 
ATOM      9  C   UNL A   1      35.921  33.513  31.575  1.00  0.00     0.071 A 
ATOM     10  N   UNL A   1      37.004  33.205  33.523  1.00  0.00    -0.222 NA
ATOM     11  C   UNL A   1      36.080  33.962  32.874  1.00  0.00     0.091 A 
ATOM     12  C   UNL A   1      34.923  34.027  30.728  1.00  0.00     0.050 A 
ATOM     13  C   UNL A   1      35.288  35.012  33.359  1.00  0.00     0.052 A 
ATOM     14  C   UNL A   1      34.094  35.035  31.239  1.00  0.00     0.061 A 
ATOM     15  C   UNL A   1      34.285  35.535  32.532  1.00  0.00     0.061 A 
ATOM     16  Cl  UNL A   1      32.828  35.606  30.205  1.00  0.00    -0.083 Cl
ATOM     17  Cl  UNL A   1      33.285  36.783  33.191  1.00  0.00    -0.083 Cl
BRANCH   8  18
ATOM     18  C   UNL A   1      37.240  32.020  30.087  1.00  0.00     0.090 C 
ATOM     19  C   UNL A   1      37.775  33.067  29.143  1.00  0.00     0.032 C 
BRANCH  18  20
ATOM     20  C   UNL A   1      36.386  30.908  29.512  1.00  0.00     0.012 C 
ATOM     21  C   UNL A   1      36.732  30.056  28.318  1.00  0.00     0.006 C 
ATOM     22  C   UNL A   1      36.696  29.434  29.682  1.00  0.00     0.006 C 
ENDBRANCH  18  20
ENDBRANCH   8  18
ENDBRANCH   6   7
ENDBRANCH   5   6
ENDBRANCH   3   5
ENDBRANCH   2   3
ENDBRANCH   1   2
BRANCH   1  23
ATOM     23  C   UNL A   1      41.782  27.827  36.518  1.00  0.00     0.275 C 
BRANCH  23  24
ATOM     24  O   UNL A   1      42.203  26.716  35.699  1.00  0.00    -0.458 OA
BRANCH  24  25
ATOM     25  C   UNL A   1      43.353  26.088  36.026  1.00  0.00     0.338 C 
ATOM     26  O   UNL A   1      43.540  25.383  37.018  1.00  0.00    -0.246 OA
BRANCH  25  27
ATOM     27  C   UNL A   1      44.260  26.125  34.849  1.00  0.00     0.060 A 
ATOM     28  C   UNL A   1      45.125  25.067  34.558  1.00  0.00     0.016 A 
ATOM     29  C   UNL A   1      44.028  27.082  33.866  1.00  0.00     0.016 A 
ATOM     30  C   UNL A   1      45.581  24.881  33.235  1.00  0.00     0.010 A 
ATOM     31  C   UNL A   1      44.473  26.877  32.568  1.00  0.00     0.010 A 
ATOM     32  C   UNL A   1      45.153  25.722  32.185  1.00  0.00    -0.014 A 
BRANCH  32  33
ATOM     33  C   UNL A   1      45.420  25.407  30.750  1.00  0.00     0.031 A 
ATOM     34  C   UNL A   1      46.581  26.076  30.062  1.00  0.00     0.074 A 
ATOM     35  C   UNL A   1      44.823  24.474  29.956  1.00  0.00     0.049 A 
ATOM     36  N   UNL A   1      46.529  27.047  29.207  1.00  0.00    -0.248 NA
ATOM     37  C   UNL A   1      47.949  25.591  30.312  1.00  0.00     0.031 C 
ATOM     38  C   UNL A   1      43.899  23.371  30.267  1.00  0.00     0.029 A 
ATOM     39  N   UNL A   1      44.954  24.360  28.586  1.00  0.00    -0.354 N 
ATOM     40  C   UNL A   1      47.817  27.210  28.697  1.00  0.00     0.074 A 
ATOM     41  C   UNL A   1      48.664  26.317  29.447  1.00  0.00     0.031 C 
ATOM     42  C   UNL A   1      43.612  22.667  29.154  1.00  0.00     0.029 A 
ATOM     43  C   UNL A   1      44.226  23.324  28.026  1.00  0.00     0.049 A 
ATOM     44  H   UNL A   1      45.519  24.964  28.053  1.00  0.00     0.167 HD
ATOM     45  C   UNL A   1      48.082  27.982  27.605  1.00  0.00     0.037 A 
ATOM     46  C   UNL A   1      44.012  23.036  26.725  1.00  0.00     0.037 A 
ATOM     47  C   UNL A   1      46.971  28.821  27.251  1.00  0.00     0.049 A 
ATOM     48  C   UNL A   1      44.156  24.285  25.955  1.00  0.00     0.074 A 
ATOM     49  C   UNL A   1      46.272  29.841  27.862  1.00  0.00     0.029 A 
ATOM     50  N   UNL A   1      46.208  28.435  26.180  1.00  0.00    -0.354 N 
ATOM     51  N   UNL A   1      43.340  25.298  26.040  1.00  0.00    -0.248 NA
ATOM     52  C   UNL A   1      45.384  24.531  25.217  1.00  0.00     0.031 C 
ATOM     53  C   UNL A   1      44.925  29.694  27.410  1.00  0.00     0.029 A 
ATOM     54  C   UNL A   1      44.895  28.597  26.547  1.00  0.00     0.049 A 
ATOM     55  H   UNL A   1      46.537  28.107  25.313  1.00  0.00     0.167 HD
ATOM     56  C   UNL A   1      44.109  26.398  25.717  1.00  0.00     0.074 A 
ATOM     57  C   UNL A   1      45.284  25.851  25.053  1.00  0.00     0.031 C 
ATOM     58  C   UNL A   1      43.862  27.623  26.264  1.00  0.00     0.037 A 
BRANCH  45  59
ATOM     59  C   UNL A   1      49.256  27.819  26.677  1.00  0.00     0.057 A 
ATOM     60  C   UNL A   1      50.152  28.886  26.473  1.00  0.00     0.134 A 
ATOM     61  C   UNL A   1      49.384  26.744  25.779  1.00  0.00     0.134 A 
ATOM     62  F   UNL A   1      50.095  29.987  27.238  1.00  0.00    -0.206 F 
ATOM     63  C   UNL A   1      51.097  28.888  25.439  1.00  0.00     0.040 A 
ATOM     64  C   UNL A   1      50.349  26.718  24.766  1.00  0.00     0.040 A 
ATOM     65  F   UNL A   1      48.522  25.716  25.796  1.00  0.00    -0.206 F 
ATOM     66  C   UNL A   1      51.200  27.801  24.581  1.00  0.00     0.006 A 
ENDBRANCH  45  59
BRANCH  46  67
ATOM     67  C   UNL A   1      43.655  21.741  26.116  1.00  0.00     0.057 A 
ATOM     68  C   UNL A   1      44.617  20.894  25.555  1.00  0.00     0.134 A 
ATOM     69  C   UNL A   1      42.365  21.204  26.274  1.00  0.00     0.134 A 
ATOM     70  F   UNL A   1      45.879  21.311  25.386  1.00  0.00    -0.206 F 
ATOM     71  C   UNL A   1      44.320  19.574  25.196  1.00  0.00     0.040 A 
ATOM     72  C   UNL A   1      42.053  19.891  25.913  1.00  0.00     0.040 A 
ATOM     73  F   UNL A   1      41.386  21.920  26.849  1.00  0.00    -0.206 F 
ATOM     74  C   UNL A   1      43.038  19.065  25.386  1.00  0.00     0.006 A 
ENDBRANCH  46  67
BRANCH  58  75
ATOM     75  C   UNL A   1      42.512  27.859  26.882  1.00  0.00     0.057 A 
ATOM     76  C   UNL A   1      42.189  27.547  28.211  1.00  0.00     0.134 A 
ATOM     77  C   UNL A   1      41.543  28.549  26.143  1.00  0.00     0.134 A 
ATOM     78  F   UNL A   1      43.082  26.971  29.024  1.00  0.00    -0.206 F 
ATOM     79  C   UNL A   1      40.945  27.868  28.764  1.00  0.00     0.040 A 
ATOM     80  C   UNL A   1      40.307  28.903  26.693  1.00  0.00     0.040 A 
ATOM     81  F   UNL A   1      41.801  28.931  24.882  1.00  0.00    -0.206 F 
ATOM     82  C   UNL A   1      40.001  28.554  28.005  1.00  0.00     0.006 A 
ENDBRANCH  58  75
ENDBRANCH  32  33
ENDBRANCH  25  27
ENDBRANCH  24  25
ENDBRANCH  23  24
ENDBRANCH   1  23
TORSDOF 15
ENDMDL
