MODEL 1
REMARK VINA RESULT:     -11.1      0.000      0.000
REMARK SMILES CC(C)(C)C[N@H+]1[C@@H](C(=O)OCCOC(=O)c2ccc(-c3c4nc(c(-c5c(F)cccc5F)c5ccc([nH]5)c(-c5c(F)cccc5F)c5nc(c(-c6c(F)cccc6F)c6ccc3[nH]6)C=C5)C=C4)cc2)CC[C@H]2CCCC[C@@H]21
REMARK SMILES IDX 11 1 10 2 8 3 9 4 7 5 6 6 77 7 70 9 72 10 76 11 71 12 73 13
REMARK SMILES IDX 75 14 74 15 5 16 2 17 1 18 3 19 4 20 12 21 13 22 14 23 15 24
REMARK SMILES IDX 16 25 17 26 69 27 18 28 68 29 19 30 20 31 21 32 62 33 22 34
REMARK SMILES IDX 67 35 61 36 63 37 23 38 66 39 60 40 59 41 24 43 50 44 33 45
REMARK SMILES IDX 49 46 34 47 37 48 48 49 64 50 35 51 36 52 47 54 65 55 38 56
REMARK SMILES IDX 25 57 26 58 31 59 27 60 28 61 30 62 32 63 29 64 51 65 52 66
REMARK SMILES IDX 57 67 53 68 54 69 56 70 58 71 55 72 39 73 40 74 45 75 41 76
REMARK SMILES IDX 42 77 44 78 46 79 43 80
REMARK H PARENT 6 8 63 42 37 53
REMARK Flexibility Score: inf
ROOT
ATOM      1  C   UNL A   1      35.081  22.130  24.268  1.00  0.00     0.274 C 
ENDROOT
BRANCH   1   2
ATOM      2  O   UNL A   1      34.836  23.542  24.122  1.00  0.00    -0.458 OA
BRANCH   2   3
ATOM      3  C   UNL A   1      34.049  23.908  23.072  1.00  0.00     0.365 C 
ATOM      4  O   UNL A   1      34.027  23.328  21.991  1.00  0.00    -0.245 OA
BRANCH   3   5
ATOM      5  C   UNL A   1      33.167  25.133  23.377  1.00  0.00     0.295 C 
ATOM      6  N   UNL A   1      32.535  25.072  24.731  1.00  0.00    -0.320 N 
ATOM      7  C   UNL A   1      31.982  26.405  25.076  1.00  0.00     0.187 C 
ATOM      8  H   UNL A   1      33.240  24.835  25.429  1.00  0.00     0.349 HD
ATOM      9  C   UNL A   1      32.162  25.528  22.274  1.00  0.00     0.078 C 
ATOM     10  C   UNL A   1      31.891  27.420  23.906  1.00  0.00     0.048 C 
ATOM     11  C   UNL A   1      32.811  27.050  26.198  1.00  0.00     0.065 C 
ATOM     12  C   UNL A   1      31.296  26.732  22.680  1.00  0.00     0.016 C 
ATOM     13  C   UNL A   1      31.106  28.651  24.370  1.00  0.00     0.010 C 
ATOM     14  C   UNL A   1      32.136  28.335  26.688  1.00  0.00     0.006 C 
ATOM     15  C   UNL A   1      31.812  29.314  25.558  1.00  0.00     0.001 C 
BRANCH   6  16
ATOM     16  C   UNL A   1      31.513  23.997  24.790  1.00  0.00     0.269 C 
BRANCH  16  17
ATOM     17  C   UNL A   1      31.542  22.987  25.981  1.00  0.00     0.011 C 
ATOM     18  C   UNL A   1      32.719  23.282  26.924  1.00  0.00     0.017 C 
ATOM     19  C   UNL A   1      31.741  21.578  25.376  1.00  0.00     0.017 C 
ATOM     20  C   UNL A   1      30.237  22.953  26.793  1.00  0.00     0.017 C 
ENDBRANCH  16  17
ENDBRANCH   6  16
ENDBRANCH   3   5
ENDBRANCH   2   3
ENDBRANCH   1   2
BRANCH   1  21
ATOM     21  C   UNL A   1      36.580  21.833  24.335  1.00  0.00     0.275 C 
BRANCH  21  22
ATOM     22  O   UNL A   1      37.031  21.726  25.698  1.00  0.00    -0.458 OA
BRANCH  22  23
ATOM     23  C   UNL A   1      38.345  21.453  25.839  1.00  0.00     0.338 C 
ATOM     24  O   UNL A   1      38.946  20.456  25.461  1.00  0.00    -0.246 OA
BRANCH  23  25
ATOM     25  C   UNL A   1      39.030  22.609  26.425  1.00  0.00     0.060 A 
ATOM     26  C   UNL A   1      38.568  23.885  26.094  1.00  0.00     0.016 A 
ATOM     27  C   UNL A   1      40.174  22.447  27.205  1.00  0.00     0.016 A 
ATOM     28  C   UNL A   1      39.265  25.012  26.509  1.00  0.00     0.010 A 
ATOM     29  C   UNL A   1      40.864  23.581  27.641  1.00  0.00     0.010 A 
ATOM     30  C   UNL A   1      40.424  24.866  27.278  1.00  0.00    -0.014 A 
BRANCH  30  31
ATOM     31  C   UNL A   1      41.203  26.067  27.650  1.00  0.00     0.031 A 
ATOM     32  C   UNL A   1      40.558  27.147  28.466  1.00  0.00     0.074 A 
ATOM     33  C   UNL A   1      42.489  26.169  27.276  1.00  0.00     0.049 A 
ATOM     34  N   UNL A   1      41.028  28.319  28.806  1.00  0.00    -0.248 NA
ATOM     35  C   UNL A   1      39.203  26.869  28.965  1.00  0.00     0.031 C 
ATOM     36  C   UNL A   1      43.234  25.155  26.527  1.00  0.00     0.029 A 
ATOM     37  N   UNL A   1      43.396  27.179  27.469  1.00  0.00    -0.354 N 
ATOM     38  C   UNL A   1      40.020  28.929  29.540  1.00  0.00     0.074 A 
ATOM     39  C   UNL A   1      38.907  28.004  29.584  1.00  0.00     0.031 C 
ATOM     40  C   UNL A   1      44.483  25.601  26.314  1.00  0.00     0.029 A 
ATOM     41  C   UNL A   1      44.607  26.946  26.868  1.00  0.00     0.049 A 
ATOM     42  H   UNL A   1      43.197  27.992  27.988  1.00  0.00     0.167 HD
ATOM     43  C   UNL A   1      40.026  30.150  30.124  1.00  0.00     0.037 A 
ATOM     44  C   UNL A   1      45.683  27.746  26.746  1.00  0.00     0.037 A 
ATOM     45  C   UNL A   1      41.140  31.059  30.082  1.00  0.00     0.049 A 
ATOM     46  C   UNL A   1      45.647  29.119  27.353  1.00  0.00     0.074 A 
ATOM     47  C   UNL A   1      41.249  32.322  30.636  1.00  0.00     0.029 A 
ATOM     48  N   UNL A   1      42.346  30.797  29.445  1.00  0.00    -0.354 N 
ATOM     49  N   UNL A   1      44.681  29.700  28.023  1.00  0.00    -0.248 NA
ATOM     50  C   UNL A   1      46.846  29.950  27.182  1.00  0.00     0.031 C 
ATOM     51  C   UNL A   1      42.508  32.838  30.307  1.00  0.00     0.029 A 
ATOM     52  C   UNL A   1      43.198  31.880  29.580  1.00  0.00     0.049 A 
ATOM     53  H   UNL A   1      42.563  29.963  28.969  1.00  0.00     0.167 HD
ATOM     54  C   UNL A   1      45.157  30.958  28.364  1.00  0.00     0.074 A 
ATOM     55  C   UNL A   1      46.506  31.049  27.840  1.00  0.00     0.031 C 
ATOM     56  C   UNL A   1      44.535  31.950  29.047  1.00  0.00     0.037 A 
BRANCH  43  57
ATOM     57  C   UNL A   1      38.772  30.579  30.825  1.00  0.00     0.057 A 
ATOM     58  C   UNL A   1      38.549  30.307  32.181  1.00  0.00     0.134 A 
ATOM     59  C   UNL A   1      37.772  31.274  30.132  1.00  0.00     0.134 A 
ATOM     60  F   UNL A   1      39.459  29.629  32.895  1.00  0.00    -0.206 F 
ATOM     61  C   UNL A   1      37.367  30.688  32.816  1.00  0.00     0.040 A 
ATOM     62  C   UNL A   1      36.595  31.680  30.763  1.00  0.00     0.040 A 
ATOM     63  F   UNL A   1      37.922  31.567  28.831  1.00  0.00    -0.206 F 
ATOM     64  C   UNL A   1      36.387  31.381  32.108  1.00  0.00     0.006 A 
ENDBRANCH  43  57
BRANCH  44  65
ATOM     65  C   UNL A   1      46.864  27.272  25.984  1.00  0.00     0.057 A 
ATOM     66  C   UNL A   1      47.890  26.555  26.606  1.00  0.00     0.134 A 
ATOM     67  C   UNL A   1      46.981  27.511  24.609  1.00  0.00     0.134 A 
ATOM     68  F   UNL A   1      47.841  26.314  27.924  1.00  0.00    -0.206 F 
ATOM     69  C   UNL A   1      48.995  26.095  25.890  1.00  0.00     0.040 A 
ATOM     70  C   UNL A   1      48.070  27.037  23.876  1.00  0.00     0.040 A 
ATOM     71  F   UNL A   1      46.028  28.191  23.956  1.00  0.00    -0.206 F 
ATOM     72  C   UNL A   1      49.083  26.330  24.519  1.00  0.00     0.006 A 
ENDBRANCH  44  65
BRANCH  56  73
ATOM     73  C   UNL A   1      45.315  33.208  29.279  1.00  0.00     0.057 A 
ATOM     74  C   UNL A   1      46.155  33.359  30.389  1.00  0.00     0.134 A 
ATOM     75  C   UNL A   1      45.250  34.266  28.363  1.00  0.00     0.134 A 
ATOM     76  F   UNL A   1      46.248  32.386  31.307  1.00  0.00    -0.206 F 
ATOM     77  C   UNL A   1      46.891  34.527  30.590  1.00  0.00     0.040 A 
ATOM     78  C   UNL A   1      45.998  35.431  28.543  1.00  0.00     0.040 A 
ATOM     79  F   UNL A   1      44.468  34.181  27.276  1.00  0.00    -0.206 F 
ATOM     80  C   UNL A   1      46.817  35.565  29.662  1.00  0.00     0.006 A 
ENDBRANCH  56  73
ENDBRANCH  30  31
ENDBRANCH  23  25
ENDBRANCH  22  23
ENDBRANCH  21  22
ENDBRANCH   1  21
TORSDOF 13
ENDMDL
MODEL 2
REMARK VINA RESULT:     -11.0      2.852      6.435
REMARK SMILES CC(C)(C)C[N@H+]1[C@@H](C(=O)OCCOC(=O)c2ccc(-c3c4nc(c(-c5c(F)cccc5F)c5ccc([nH]5)c(-c5c(F)cccc5F)c5nc(c(-c6c(F)cccc6F)c6ccc3[nH]6)C=C5)C=C4)cc2)CC[C@H]2CCCC[C@@H]21
REMARK SMILES IDX 11 1 10 2 8 3 9 4 7 5 6 6 77 7 70 9 72 10 76 11 71 12 73 13
REMARK SMILES IDX 75 14 74 15 5 16 2 17 1 18 3 19 4 20 12 21 13 22 14 23 15 24
REMARK SMILES IDX 16 25 17 26 69 27 18 28 68 29 19 30 20 31 21 32 62 33 22 34
REMARK SMILES IDX 67 35 61 36 63 37 23 38 66 39 60 40 59 41 24 43 50 44 33 45
REMARK SMILES IDX 49 46 34 47 37 48 48 49 64 50 35 51 36 52 47 54 65 55 38 56
REMARK SMILES IDX 25 57 26 58 31 59 27 60 28 61 30 62 32 63 29 64 51 65 52 66
REMARK SMILES IDX 57 67 53 68 54 69 56 70 58 71 55 72 39 73 40 74 45 75 41 76
REMARK SMILES IDX 42 77 44 78 46 79 43 80
REMARK H PARENT 6 8 63 42 37 53
REMARK Flexibility Score: inf
ROOT
ATOM      1  C   UNL A   1      32.014  28.065  26.734  1.00  0.00     0.274 C 
ENDROOT
BRANCH   1   2
ATOM      2  O   UNL A   1      32.461  26.800  26.210  1.00  0.00    -0.458 OA
BRANCH   2   3
ATOM      3  C   UNL A   1      31.549  25.788  26.225  1.00  0.00     0.365 C 
ATOM      4  O   UNL A   1      30.367  25.929  26.523  1.00  0.00    -0.245 OA
BRANCH   3   5
ATOM      5  C   UNL A   1      32.148  24.430  25.814  1.00  0.00     0.295 C 
ATOM      6  N   UNL A   1      32.945  24.504  24.551  1.00  0.00    -0.320 N 
ATOM      7  C   UNL A   1      33.744  23.263  24.400  1.00  0.00     0.187 C 
ATOM      8  H   UNL A   1      33.593  25.290  24.599  1.00  0.00     0.349 HD
ATOM      9  C   UNL A   1      31.171  23.235  25.828  1.00  0.00     0.078 C 
ATOM     10  C   UNL A   1      33.359  22.095  25.349  1.00  0.00     0.048 C 
ATOM     11  C   UNL A   1      35.237  23.563  24.603  1.00  0.00     0.065 C 
ATOM     12  C   UNL A   1      31.842  21.931  25.365  1.00  0.00     0.016 C 
ATOM     13  C   UNL A   1      34.116  20.834  24.922  1.00  0.00     0.010 C 
ATOM     14  C   UNL A   1      36.081  22.331  24.263  1.00  0.00     0.006 C 
ATOM     15  C   UNL A   1      35.629  21.070  25.002  1.00  0.00     0.001 C 
BRANCH   6  16
ATOM     16  C   UNL A   1      32.064  24.761  23.384  1.00  0.00     0.269 C 
BRANCH  16  17
ATOM     17  C   UNL A   1      32.331  26.016  22.494  1.00  0.00     0.011 C 
ATOM     18  C   UNL A   1      32.502  25.619  21.019  1.00  0.00     0.017 C 
ATOM     19  C   UNL A   1      33.653  26.648  22.987  1.00  0.00     0.017 C 
ATOM     20  C   UNL A   1      31.242  27.095  22.607  1.00  0.00     0.017 C 
ENDBRANCH  16  17
ENDBRANCH   6  16
ENDBRANCH   3   5
ENDBRANCH   2   3
ENDBRANCH   1   2
BRANCH   1  21
ATOM     21  C   UNL A   1      33.067  29.155  26.522  1.00  0.00     0.275 C 
BRANCH  21  22
ATOM     22  O   UNL A   1      34.195  28.967  27.396  1.00  0.00    -0.458 OA
BRANCH  22  23
ATOM     23  C   UNL A   1      34.744  30.107  27.865  1.00  0.00     0.338 C 
ATOM     24  O   UNL A   1      34.186  31.177  28.070  1.00  0.00    -0.246 OA
BRANCH  23  25
ATOM     25  C   UNL A   1      36.142  29.866  28.235  1.00  0.00     0.060 A 
ATOM     26  C   UNL A   1      37.124  30.060  27.260  1.00  0.00     0.016 A 
ATOM     27  C   UNL A   1      36.476  29.356  29.489  1.00  0.00     0.016 A 
ATOM     28  C   UNL A   1      38.444  29.713  27.517  1.00  0.00     0.010 A 
ATOM     29  C   UNL A   1      37.807  29.026  29.756  1.00  0.00     0.010 A 
ATOM     30  C   UNL A   1      38.792  29.185  28.763  1.00  0.00    -0.014 A 
BRANCH  30  31
ATOM     31  C   UNL A   1      40.184  28.745  29.001  1.00  0.00     0.031 A 
ATOM     32  C   UNL A   1      41.159  29.684  29.646  1.00  0.00     0.074 A 
ATOM     33  C   UNL A   1      40.557  27.499  28.662  1.00  0.00     0.049 A 
ATOM     34  N   UNL A   1      42.443  29.535  29.846  1.00  0.00    -0.248 NA
ATOM     35  C   UNL A   1      40.614  30.962  30.130  1.00  0.00     0.031 C 
ATOM     36  C   UNL A   1      39.679  26.484  28.079  1.00  0.00     0.029 A 
ATOM     37  N   UNL A   1      41.777  26.879  28.752  1.00  0.00    -0.354 N 
ATOM     38  C   UNL A   1      42.866  30.706  30.458  1.00  0.00     0.074 A 
ATOM     39  C   UNL A   1      41.705  31.563  30.584  1.00  0.00     0.031 C 
ATOM     40  C   UNL A   1      40.392  25.369  27.853  1.00  0.00     0.029 A 
ATOM     41  C   UNL A   1      41.782  25.611  28.229  1.00  0.00     0.049 A 
ATOM     42  H   UNL A   1      42.570  27.303  29.153  1.00  0.00     0.167 HD
ATOM     43  C   UNL A   1      44.111  31.035  30.877  1.00  0.00     0.037 A 
ATOM     44  C   UNL A   1      42.803  24.755  28.040  1.00  0.00     0.037 A 
ATOM     45  C   UNL A   1      45.257  30.173  30.754  1.00  0.00     0.049 A 
ATOM     46  C   UNL A   1      44.186  25.161  28.460  1.00  0.00     0.074 A 
ATOM     47  C   UNL A   1      46.564  30.410  31.141  1.00  0.00     0.029 A 
ATOM     48  N   UNL A   1      45.228  28.901  30.199  1.00  0.00    -0.354 N 
ATOM     49  N   UNL A   1      44.585  26.281  29.015  1.00  0.00    -0.248 NA
ATOM     50  C   UNL A   1      45.262  24.190  28.223  1.00  0.00     0.031 C 
ATOM     51  C   UNL A   1      47.333  29.294  30.791  1.00  0.00     0.029 A 
ATOM     52  C   UNL A   1      46.497  28.346  30.220  1.00  0.00     0.049 A 
ATOM     53  H   UNL A   1      44.424  28.457  29.844  1.00  0.00     0.167 HD
ATOM     54  C   UNL A   1      45.953  26.147  29.204  1.00  0.00     0.074 A 
ATOM     55  C   UNL A   1      46.313  24.828  28.720  1.00  0.00     0.031 C 
ATOM     56  C   UNL A   1      46.833  27.034  29.729  1.00  0.00     0.037 A 
BRANCH  43  57
ATOM     57  C   UNL A   1      44.295  32.398  31.471  1.00  0.00     0.057 A 
ATOM     58  C   UNL A   1      44.181  32.629  32.848  1.00  0.00     0.134 A 
ATOM     59  C   UNL A   1      44.590  33.497  30.653  1.00  0.00     0.134 A 
ATOM     60  F   UNL A   1      43.882  31.623  33.682  1.00  0.00    -0.206 F 
ATOM     61  C   UNL A   1      44.328  33.908  33.387  1.00  0.00     0.040 A 
ATOM     62  C   UNL A   1      44.762  34.777  31.184  1.00  0.00     0.040 A 
ATOM     63  F   UNL A   1      44.712  33.345  29.326  1.00  0.00    -0.206 F 
ATOM     64  C   UNL A   1      44.625  34.986  32.555  1.00  0.00     0.006 A 
ENDBRANCH  43  57
BRANCH  44  65
ATOM     65  C   UNL A   1      42.550  23.447  27.388  1.00  0.00     0.057 A 
ATOM     66  C   UNL A   1      42.153  22.330  28.130  1.00  0.00     0.134 A 
ATOM     67  C   UNL A   1      42.683  23.291  26.003  1.00  0.00     0.134 A 
ATOM     68  F   UNL A   1      42.029  22.415  29.463  1.00  0.00    -0.206 F 
ATOM     69  C   UNL A   1      41.900  21.102  27.518  1.00  0.00     0.040 A 
ATOM     70  C   UNL A   1      42.412  22.074  25.376  1.00  0.00     0.040 A 
ATOM     71  F   UNL A   1      43.059  24.326  25.238  1.00  0.00    -0.206 F 
ATOM     72  C   UNL A   1      42.022  20.974  26.136  1.00  0.00     0.006 A 
ENDBRANCH  44  65
BRANCH  56  73
ATOM     73  C   UNL A   1      48.264  26.598  29.821  1.00  0.00     0.057 A 
ATOM     74  C   UNL A   1      49.172  26.832  28.781  1.00  0.00     0.134 A 
ATOM     75  C   UNL A   1      48.745  25.967  30.975  1.00  0.00     0.134 A 
ATOM     76  F   UNL A   1      48.767  27.419  27.645  1.00  0.00    -0.206 F 
ATOM     77  C   UNL A   1      50.506  26.438  28.879  1.00  0.00     0.040 A 
ATOM     78  C   UNL A   1      50.082  25.587  31.093  1.00  0.00     0.040 A 
ATOM     79  F   UNL A   1      47.926  25.720  32.008  1.00  0.00    -0.206 F 
ATOM     80  C   UNL A   1      50.966  25.818  30.040  1.00  0.00     0.006 A 
ENDBRANCH  56  73
ENDBRANCH  30  31
ENDBRANCH  23  25
ENDBRANCH  22  23
ENDBRANCH  21  22
ENDBRANCH   1  21
TORSDOF 13
ENDMDL
MODEL 3
REMARK VINA RESULT:     -11.0      3.772      8.572
REMARK SMILES CC(C)(C)C[N@H+]1[C@@H](C(=O)OCCOC(=O)c2ccc(-c3c4nc(c(-c5c(F)cccc5F)c5ccc([nH]5)c(-c5c(F)cccc5F)c5nc(c(-c6c(F)cccc6F)c6ccc3[nH]6)C=C5)C=C4)cc2)CC[C@H]2CCCC[C@@H]21
REMARK SMILES IDX 11 1 10 2 8 3 9 4 7 5 6 6 77 7 70 9 72 10 76 11 71 12 73 13
REMARK SMILES IDX 75 14 74 15 5 16 2 17 1 18 3 19 4 20 12 21 13 22 14 23 15 24
REMARK SMILES IDX 16 25 17 26 69 27 18 28 68 29 19 30 20 31 21 32 62 33 22 34
REMARK SMILES IDX 67 35 61 36 63 37 23 38 66 39 60 40 59 41 24 43 50 44 33 45
REMARK SMILES IDX 49 46 34 47 37 48 48 49 64 50 35 51 36 52 47 54 65 55 38 56
REMARK SMILES IDX 25 57 26 58 31 59 27 60 28 61 30 62 32 63 29 64 51 65 52 66
REMARK SMILES IDX 57 67 53 68 54 69 56 70 58 71 55 72 39 73 40 74 45 75 41 76
REMARK SMILES IDX 42 77 44 78 46 79 43 80
REMARK H PARENT 6 8 63 42 37 53
REMARK Flexibility Score: inf
ROOT
ATOM      1  C   UNL A   1      31.402  28.258  25.302  1.00  0.00     0.274 C 
ENDROOT
BRANCH   1   2
ATOM      2  O   UNL A   1      32.133  27.097  25.741  1.00  0.00    -0.458 OA
BRANCH   2   3
ATOM      3  C   UNL A   1      31.391  25.982  25.995  1.00  0.00     0.365 C 
ATOM      4  O   UNL A   1      30.273  25.998  26.501  1.00  0.00    -0.245 OA
BRANCH   3   5
ATOM      5  C   UNL A   1      32.093  24.680  25.570  1.00  0.00     0.295 C 
ATOM      6  N   UNL A   1      32.853  24.820  24.289  1.00  0.00    -0.320 N 
ATOM      7  C   UNL A   1      33.751  23.651  24.120  1.00  0.00     0.187 C 
ATOM      8  H   UNL A   1      33.433  25.659  24.324  1.00  0.00     0.349 HD
ATOM      9  C   UNL A   1      31.222  23.406  25.603  1.00  0.00     0.078 C 
ATOM     10  C   UNL A   1      33.488  22.456  25.075  1.00  0.00     0.048 C 
ATOM     11  C   UNL A   1      35.218  24.078  24.290  1.00  0.00     0.065 C 
ATOM     12  C   UNL A   1      31.990  22.163  25.123  1.00  0.00     0.016 C 
ATOM     13  C   UNL A   1      34.340  21.263  24.629  1.00  0.00     0.010 C 
ATOM     14  C   UNL A   1      36.155  22.922  23.930  1.00  0.00     0.006 C 
ATOM     15  C   UNL A   1      35.828  21.627  24.677  1.00  0.00     0.001 C 
BRANCH   6  16
ATOM     16  C   UNL A   1      31.929  25.001  23.142  1.00  0.00     0.269 C 
BRANCH  16  17
ATOM     17  C   UNL A   1      32.205  26.148  22.118  1.00  0.00     0.011 C 
ATOM     18  C   UNL A   1      32.525  25.578  20.727  1.00  0.00     0.017 C 
ATOM     19  C   UNL A   1      33.444  26.920  22.627  1.00  0.00     0.017 C 
ATOM     20  C   UNL A   1      31.055  27.161  22.001  1.00  0.00     0.017 C 
ENDBRANCH  16  17
ENDBRANCH   6  16
ENDBRANCH   3   5
ENDBRANCH   2   3
ENDBRANCH   1   2
BRANCH   1  21
ATOM     21  C   UNL A   1      32.239  29.529  25.459  1.00  0.00     0.275 C 
BRANCH  21  22
ATOM     22  O   UNL A   1      32.407  29.875  26.846  1.00  0.00    -0.458 OA
BRANCH  22  23
ATOM     23  C   UNL A   1      33.002  31.067  27.064  1.00  0.00     0.338 C 
ATOM     24  O   UNL A   1      32.513  32.181  26.935  1.00  0.00    -0.246 OA
BRANCH  23  25
ATOM     25  C   UNL A   1      34.342  30.855  27.621  1.00  0.00     0.060 A 
ATOM     26  C   UNL A   1      34.700  29.559  28.001  1.00  0.00     0.016 A 
ATOM     27  C   UNL A   1      35.196  31.929  27.866  1.00  0.00     0.016 A 
ATOM     28  C   UNL A   1      35.900  29.328  28.660  1.00  0.00     0.010 A 
ATOM     29  C   UNL A   1      36.413  31.695  28.510  1.00  0.00     0.010 A 
ATOM     30  C   UNL A   1      36.760  30.397  28.928  1.00  0.00    -0.014 A 
BRANCH  30  31
ATOM     31  C   UNL A   1      37.999  30.155  29.698  1.00  0.00     0.031 A 
ATOM     32  C   UNL A   1      39.087  29.309  29.109  1.00  0.00     0.074 A 
ATOM     33  C   UNL A   1      38.151  30.718  30.909  1.00  0.00     0.049 A 
ATOM     34  N   UNL A   1      40.197  28.889  29.657  1.00  0.00    -0.248 NA
ATOM     35  C   UNL A   1      38.897  28.876  27.716  1.00  0.00     0.031 C 
ATOM     36  C   UNL A   1      37.182  31.603  31.557  1.00  0.00     0.029 A 
ATOM     37  N   UNL A   1      39.176  30.620  31.815  1.00  0.00    -0.354 N 
ATOM     38  C   UNL A   1      40.830  28.125  28.687  1.00  0.00     0.074 A 
ATOM     39  C   UNL A   1      39.972  28.126  27.519  1.00  0.00     0.031 C 
ATOM     40  C   UNL A   1      37.655  31.959  32.762  1.00  0.00     0.029 A 
ATOM     41  C   UNL A   1      38.932  31.289  32.987  1.00  0.00     0.049 A 
ATOM     42  H   UNL A   1      40.006  30.119  31.639  1.00  0.00     0.167 HD
ATOM     43  C   UNL A   1      42.019  27.482  28.764  1.00  0.00     0.037 A 
ATOM     44  C   UNL A   1      39.643  31.325  34.129  1.00  0.00     0.037 A 
ATOM     45  C   UNL A   1      42.868  27.494  29.926  1.00  0.00     0.049 A 
ATOM     46  C   UNL A   1      40.932  30.559  34.213  1.00  0.00     0.074 A 
ATOM     47  C   UNL A   1      44.090  26.873  30.111  1.00  0.00     0.029 A 
ATOM     48  N   UNL A   1      42.578  28.167  31.105  1.00  0.00    -0.354 N 
ATOM     49  N   UNL A   1      41.512  29.817  33.301  1.00  0.00    -0.248 NA
ATOM     50  C   UNL A   1      41.662  30.629  35.486  1.00  0.00     0.031 C 
ATOM     51  C   UNL A   1      44.525  27.143  31.414  1.00  0.00     0.029 A 
ATOM     52  C   UNL A   1      43.591  27.964  32.028  1.00  0.00     0.049 A 
ATOM     53  H   UNL A   1      41.773  28.710  31.262  1.00  0.00     0.167 HD
ATOM     54  C   UNL A   1      42.679  29.341  33.882  1.00  0.00     0.074 A 
ATOM     55  C   UNL A   1      42.733  29.893  35.222  1.00  0.00     0.031 C 
ATOM     56  C   UNL A   1      43.621  28.520  33.356  1.00  0.00     0.037 A 
BRANCH  43  57
ATOM     57  C   UNL A   1      42.446  26.686  27.568  1.00  0.00     0.057 A 
ATOM     58  C   UNL A   1      43.211  27.248  26.537  1.00  0.00     0.134 A 
ATOM     59  C   UNL A   1      42.085  25.338  27.445  1.00  0.00     0.134 A 
ATOM     60  F   UNL A   1      43.573  28.538  26.586  1.00  0.00    -0.206 F 
ATOM     61  C   UNL A   1      43.579  26.504  25.415  1.00  0.00     0.040 A 
ATOM     62  C   UNL A   1      42.467  24.578  26.338  1.00  0.00     0.040 A 
ATOM     63  F   UNL A   1      41.352  24.740  28.396  1.00  0.00    -0.206 F 
ATOM     64  C   UNL A   1      43.212  25.163  25.316  1.00  0.00     0.006 A 
ENDBRANCH  43  57
BRANCH  44  65
ATOM     65  C   UNL A   1      39.124  32.087  35.291  1.00  0.00     0.057 A 
ATOM     66  C   UNL A   1      39.366  33.457  35.429  1.00  0.00     0.134 A 
ATOM     67  C   UNL A   1      38.355  31.461  36.280  1.00  0.00     0.134 A 
ATOM     68  F   UNL A   1      40.113  34.104  34.523  1.00  0.00    -0.206 F 
ATOM     69  C   UNL A   1      38.867  34.179  36.513  1.00  0.00     0.040 A 
ATOM     70  C   UNL A   1      37.831  32.176  37.358  1.00  0.00     0.040 A 
ATOM     71  F   UNL A   1      38.087  30.150  36.202  1.00  0.00    -0.206 F 
ATOM     72  C   UNL A   1      38.090  33.539  37.478  1.00  0.00     0.006 A 
ENDBRANCH  44  65
BRANCH  56  73
ATOM     73  C   UNL A   1      44.794  28.186  34.228  1.00  0.00     0.057 A 
ATOM     74  C   UNL A   1      44.802  27.050  35.045  1.00  0.00     0.134 A 
ATOM     75  C   UNL A   1      45.938  28.993  34.223  1.00  0.00     0.134 A 
ATOM     76  F   UNL A   1      43.730  26.246  35.103  1.00  0.00    -0.206 F 
ATOM     77  C   UNL A   1      45.904  26.736  35.842  1.00  0.00     0.040 A 
ATOM     78  C   UNL A   1      47.054  28.678  35.000  1.00  0.00     0.040 A 
ATOM     79  F   UNL A   1      45.994  30.093  33.457  1.00  0.00    -0.206 F 
ATOM     80  C   UNL A   1      47.036  27.549  35.817  1.00  0.00     0.006 A 
ENDBRANCH  56  73
ENDBRANCH  30  31
ENDBRANCH  23  25
ENDBRANCH  22  23
ENDBRANCH  21  22
ENDBRANCH   1  21
TORSDOF 13
ENDMDL
