MODEL 1
REMARK VINA RESULT:     -13.0      0.000      0.000
REMARK SMILES Cc1ccc(S(=O)(=O)N2c3ccc(C(=O)OCCOC(=O)c4ccc(-c5c6nc(c(-c7c(F)cccc7F)c7ccc([nH]7)c(-c7c(F)cccc7F)c7nc(c(-c8c(F)cccc8F)c8ccc5[nH]8)C=C7)C=C6)cc4)cc3C[C@H]2C)cc1
REMARK SMILES IDX 17 1 16 2 14 3 15 4 13 5 9 6 10 7 79 8 11 9 77 10 78 11
REMARK SMILES IDX 80 12 12 13 76 14 6 15 7 16 8 17 5 18 1 19 2 20 3 21 82 22
REMARK SMILES IDX 4 23 81 24 18 25 19 26 20 27 21 28 22 29 23 30 75 31 24 32
REMARK SMILES IDX 74 33 25 34 26 35 27 36 68 37 28 38 73 39 67 40 69 41 29 42
REMARK SMILES IDX 72 43 66 44 65 45 30 47 56 48 39 49 55 50 40 51 43 52 54 53
REMARK SMILES IDX 70 54 41 55 42 56 53 58 71 59 44 60 31 61 32 62 37 63 33 64
REMARK SMILES IDX 34 65 36 66 38 67 35 68 57 69 58 70 63 71 59 72 60 73 62 74
REMARK SMILES IDX 64 75 61 76 45 77 46 78 51 79 47 80 48 81 50 82 52 83 49 84
REMARK H PARENT 69 46 43 57
REMARK Flexibility Score: inf
ROOT
ATOM      1  C   UNL A   1      32.030  30.081  25.811  1.00  0.00     0.275 C 
ENDROOT
BRANCH   1   2
ATOM      2  O   UNL A   1      31.844  28.817  25.157  1.00  0.00    -0.458 OA
BRANCH   2   3
ATOM      3  C   UNL A   1      32.894  28.538  24.338  1.00  0.00     0.338 C 
ATOM      4  O   UNL A   1      33.375  29.312  23.520  1.00  0.00    -0.246 OA
BRANCH   3   5
ATOM      5  C   UNL A   1      33.366  27.140  24.420  1.00  0.00     0.060 A 
ATOM      6  N   UNL A   1      34.475  23.115  24.861  1.00  0.00    -0.263 N 
ATOM      7  C   UNL A   1      34.058  24.494  24.848  1.00  0.00     0.055 A 
ATOM      8  C   UNL A   1      34.789  22.810  23.405  1.00  0.00     0.101 C 
ATOM      9  C   UNL A   1      33.894  25.312  25.947  1.00  0.00     0.028 A 
ATOM     10  C   UNL A   1      33.879  24.973  23.548  1.00  0.00    -0.021 A 
ATOM     11  C   UNL A   1      34.000  23.845  22.571  1.00  0.00     0.063 C 
ATOM     12  C   UNL A   1      36.301  22.997  23.203  1.00  0.00     0.032 C 
ATOM     13  C   UNL A   1      33.517  26.634  25.727  1.00  0.00     0.018 A 
ATOM     14  C   UNL A   1      33.563  26.307  23.311  1.00  0.00     0.021 A 
BRANCH   6  15
ATOM     15  S   UNL A   1      33.336  22.076  25.636  1.00  0.00     0.264 S 
ATOM     16  O   UNL A   1      32.004  22.573  25.325  1.00  0.00    -0.201 OA
ATOM     17  O   UNL A   1      33.755  21.878  27.004  1.00  0.00    -0.201 OA
BRANCH  15  18
ATOM     18  C   UNL A   1      33.466  20.470  24.868  1.00  0.00     0.088 A 
ATOM     19  C   UNL A   1      33.918  16.478  23.311  1.00  0.00     0.044 C 
ATOM     20  C   UNL A   1      33.773  17.879  23.826  1.00  0.00    -0.051 A 
ATOM     21  C   UNL A   1      34.815  18.479  24.540  1.00  0.00     0.005 A 
ATOM     22  C   UNL A   1      32.601  18.606  23.594  1.00  0.00     0.005 A 
ATOM     23  C   UNL A   1      34.664  19.766  25.061  1.00  0.00     0.022 A 
ATOM     24  C   UNL A   1      32.451  19.900  24.103  1.00  0.00     0.022 A 
ENDBRANCH  15  18
ENDBRANCH   6  15
ENDBRANCH   3   5
ENDBRANCH   2   3
ENDBRANCH   1   2
BRANCH   1  25
ATOM     25  C   UNL A   1      32.864  30.023  27.096  1.00  0.00     0.275 C 
BRANCH  25  26
ATOM     26  O   UNL A   1      34.076  30.821  27.225  1.00  0.00    -0.458 OA
BRANCH  26  27
ATOM     27  C   UNL A   1      34.762  31.189  28.331  1.00  0.00     0.338 C 
ATOM     28  O   UNL A   1      34.319  32.001  29.135  1.00  0.00    -0.246 OA
BRANCH  27  29
ATOM     29  C   UNL A   1      36.069  30.567  28.570  1.00  0.00     0.060 A 
ATOM     30  C   UNL A   1      36.301  29.919  29.795  1.00  0.00     0.016 A 
ATOM     31  C   UNL A   1      37.016  30.554  27.555  1.00  0.00     0.016 A 
ATOM     32  C   UNL A   1      37.437  29.141  29.968  1.00  0.00     0.010 A 
ATOM     33  C   UNL A   1      38.071  29.687  27.669  1.00  0.00     0.010 A 
ATOM     34  C   UNL A   1      38.302  29.025  28.888  1.00  0.00    -0.014 A 
BRANCH  34  35
ATOM     35  C   UNL A   1      39.658  28.531  29.003  1.00  0.00     0.031 A 
ATOM     36  C   UNL A   1      40.037  27.160  28.643  1.00  0.00     0.074 A 
ATOM     37  C   UNL A   1      40.513  29.554  29.226  1.00  0.00     0.049 A 
ATOM     38  N   UNL A   1      41.202  26.679  28.882  1.00  0.00    -0.248 NA
ATOM     39  C   UNL A   1      39.154  26.186  28.011  1.00  0.00     0.031 C 
ATOM     40  C   UNL A   1      41.931  29.697  28.975  1.00  0.00     0.029 A 
ATOM     41  N   UNL A   1      40.165  30.758  29.863  1.00  0.00    -0.354 N 
ATOM     42  C   UNL A   1      41.337  25.510  28.162  1.00  0.00     0.074 A 
ATOM     43  C   UNL A   1      40.003  25.186  27.727  1.00  0.00     0.031 C 
ATOM     44  C   UNL A   1      42.390  30.744  29.691  1.00  0.00     0.029 A 
ATOM     45  C   UNL A   1      41.298  31.188  30.550  1.00  0.00     0.049 A 
ATOM     46  H   UNL A   1      39.290  31.209  29.830  1.00  0.00     0.167 HD
ATOM     47  C   UNL A   1      42.605  25.075  27.906  1.00  0.00     0.037 A 
ATOM     48  C   UNL A   1      41.276  31.108  31.914  1.00  0.00     0.037 A 
ATOM     49  C   UNL A   1      43.555  25.953  28.583  1.00  0.00     0.049 A 
ATOM     50  C   UNL A   1      42.298  30.104  32.390  1.00  0.00     0.074 A 
ATOM     51  C   UNL A   1      44.245  27.074  28.153  1.00  0.00     0.029 A 
ATOM     52  N   UNL A   1      43.561  25.986  29.969  1.00  0.00    -0.354 N 
ATOM     53  N   UNL A   1      42.609  29.003  31.758  1.00  0.00    -0.248 NA
ATOM     54  C   UNL A   1      43.139  30.356  33.551  1.00  0.00     0.031 C 
ATOM     55  C   UNL A   1      44.643  27.804  29.302  1.00  0.00     0.029 A 
ATOM     56  C   UNL A   1      44.191  27.127  30.424  1.00  0.00     0.049 A 
ATOM     57  H   UNL A   1      43.173  25.293  30.550  1.00  0.00     0.167 HD
ATOM     58  C   UNL A   1      43.721  28.450  32.350  1.00  0.00     0.074 A 
ATOM     59  C   UNL A   1      44.000  29.328  33.472  1.00  0.00     0.031 C 
ATOM     60  C   UNL A   1      44.369  27.353  31.847  1.00  0.00     0.037 A 
BRANCH  47  61
ATOM     61  C   UNL A   1      43.035  24.063  26.868  1.00  0.00     0.057 A 
ATOM     62  C   UNL A   1      42.990  22.681  27.165  1.00  0.00     0.134 A 
ATOM     63  C   UNL A   1      43.507  24.361  25.581  1.00  0.00     0.134 A 
ATOM     64  F   UNL A   1      42.530  22.222  28.336  1.00  0.00    -0.206 F 
ATOM     65  C   UNL A   1      43.421  21.686  26.280  1.00  0.00     0.040 A 
ATOM     66  C   UNL A   1      43.962  23.372  24.689  1.00  0.00     0.040 A 
ATOM     67  F   UNL A   1      43.512  25.612  25.105  1.00  0.00    -0.206 F 
ATOM     68  C   UNL A   1      43.925  22.028  25.038  1.00  0.00     0.006 A 
ENDBRANCH  47  61
BRANCH  48  69
ATOM     69  C   UNL A   1      39.908  31.331  32.494  1.00  0.00     0.057 A 
ATOM     70  C   UNL A   1      39.186  30.210  32.959  1.00  0.00     0.134 A 
ATOM     71  C   UNL A   1      39.456  32.581  32.929  1.00  0.00     0.134 A 
ATOM     72  F   UNL A   1      39.552  28.972  32.587  1.00  0.00    -0.206 F 
ATOM     73  C   UNL A   1      38.159  30.315  33.905  1.00  0.00     0.040 A 
ATOM     74  C   UNL A   1      38.408  32.701  33.859  1.00  0.00     0.040 A 
ATOM     75  F   UNL A   1      40.071  33.706  32.541  1.00  0.00    -0.206 F 
ATOM     76  C   UNL A   1      37.785  31.566  34.379  1.00  0.00     0.006 A 
ENDBRANCH  48  69
BRANCH  60  77
ATOM     77  C   UNL A   1      45.321  26.436  32.594  1.00  0.00     0.057 A 
ATOM     78  C   UNL A   1      44.923  25.371  33.412  1.00  0.00     0.134 A 
ATOM     79  C   UNL A   1      46.722  26.503  32.369  1.00  0.00     0.134 A 
ATOM     80  F   UNL A   1      43.636  25.078  33.625  1.00  0.00    -0.206 F 
ATOM     81  C   UNL A   1      45.837  24.495  34.014  1.00  0.00     0.040 A 
ATOM     82  C   UNL A   1      47.633  25.586  32.896  1.00  0.00     0.040 A 
ATOM     83  F   UNL A   1      47.287  27.441  31.596  1.00  0.00    -0.206 F 
ATOM     84  C   UNL A   1      47.194  24.587  33.743  1.00  0.00     0.006 A 
ENDBRANCH  60  77
ENDBRANCH  34  35
ENDBRANCH  27  29
ENDBRANCH  26  27
ENDBRANCH  25  26
ENDBRANCH   1  25
TORSDOF 13
ENDMDL
MODEL 2
REMARK VINA RESULT:     -12.9      1.853      2.846
REMARK SMILES Cc1ccc(S(=O)(=O)N2c3ccc(C(=O)OCCOC(=O)c4ccc(-c5c6nc(c(-c7c(F)cccc7F)c7ccc([nH]7)c(-c7c(F)cccc7F)c7nc(c(-c8c(F)cccc8F)c8ccc5[nH]8)C=C7)C=C6)cc4)cc3C[C@H]2C)cc1
REMARK SMILES IDX 17 1 16 2 14 3 15 4 13 5 9 6 10 7 79 8 11 9 77 10 78 11
REMARK SMILES IDX 80 12 12 13 76 14 6 15 7 16 8 17 5 18 1 19 2 20 3 21 82 22
REMARK SMILES IDX 4 23 81 24 18 25 19 26 20 27 21 28 22 29 23 30 75 31 24 32
REMARK SMILES IDX 74 33 25 34 26 35 27 36 68 37 28 38 73 39 67 40 69 41 29 42
REMARK SMILES IDX 72 43 66 44 65 45 30 47 56 48 39 49 55 50 40 51 43 52 54 53
REMARK SMILES IDX 70 54 41 55 42 56 53 58 71 59 44 60 31 61 32 62 37 63 33 64
REMARK SMILES IDX 34 65 36 66 38 67 35 68 57 69 58 70 63 71 59 72 60 73 62 74
REMARK SMILES IDX 64 75 61 76 45 77 46 78 51 79 47 80 48 81 50 82 52 83 49 84
REMARK H PARENT 69 46 43 57
REMARK Flexibility Score: inf
ROOT
ATOM      1  C   UNL A   1      32.872  30.175  26.318  1.00  0.00     0.275 C 
ENDROOT
BRANCH   1   2
ATOM      2  O   UNL A   1      31.509  29.751  26.477  1.00  0.00    -0.458 OA
BRANCH   2   3
ATOM      3  C   UNL A   1      31.453  28.462  26.909  1.00  0.00     0.338 C 
ATOM      4  O   UNL A   1      31.186  28.112  28.051  1.00  0.00    -0.246 OA
BRANCH   3   5
ATOM      5  C   UNL A   1      31.866  27.470  25.894  1.00  0.00     0.060 A 
ATOM      6  N   UNL A   1      33.065  24.441  23.245  1.00  0.00    -0.263 N 
ATOM      7  C   UNL A   1      32.740  25.420  24.252  1.00  0.00     0.055 A 
ATOM      8  C   UNL A   1      32.132  24.773  22.092  1.00  0.00     0.101 C 
ATOM      9  C   UNL A   1      33.465  25.697  25.393  1.00  0.00     0.028 A 
ATOM     10  C   UNL A   1      31.591  26.144  23.923  1.00  0.00    -0.021 A 
ATOM     11  C   UNL A   1      30.947  25.550  22.709  1.00  0.00     0.063 C 
ATOM     12  C   UNL A   1      32.905  25.665  21.107  1.00  0.00     0.032 C 
ATOM     13  C   UNL A   1      33.005  26.709  26.230  1.00  0.00     0.018 A 
ATOM     14  C   UNL A   1      31.155  27.199  24.719  1.00  0.00     0.021 A 
BRANCH   6  15
ATOM     15  S   UNL A   1      33.009  22.823  23.840  1.00  0.00     0.264 S 
ATOM     16  O   UNL A   1      32.666  21.954  22.723  1.00  0.00    -0.201 OA
ATOM     17  O   UNL A   1      32.231  22.810  25.057  1.00  0.00    -0.201 OA
BRANCH  15  18
ATOM     18  C   UNL A   1      34.665  22.376  24.336  1.00  0.00     0.088 A 
ATOM     19  C   UNL A   1      38.698  21.623  25.651  1.00  0.00     0.044 C 
ATOM     20  C   UNL A   1      37.300  21.870  25.166  1.00  0.00    -0.051 A 
ATOM     21  C   UNL A   1      36.994  23.044  24.471  1.00  0.00     0.005 A 
ATOM     22  C   UNL A   1      36.289  20.931  25.393  1.00  0.00     0.005 A 
ATOM     23  C   UNL A   1      35.684  23.299  24.059  1.00  0.00     0.022 A 
ATOM     24  C   UNL A   1      34.979  21.177  24.971  1.00  0.00     0.022 A 
ENDBRANCH  15  18
ENDBRANCH   6  15
ENDBRANCH   3   5
ENDBRANCH   2   3
ENDBRANCH   1   2
BRANCH   1  25
ATOM     25  C   UNL A   1      33.674  30.262  27.621  1.00  0.00     0.275 C 
BRANCH  25  26
ATOM     26  O   UNL A   1      35.033  29.742  27.686  1.00  0.00    -0.458 OA
BRANCH  26  27
ATOM     27  C   UNL A   1      36.201  30.385  27.911  1.00  0.00     0.338 C 
ATOM     28  O   UNL A   1      36.273  31.607  27.974  1.00  0.00    -0.246 OA
BRANCH  27  29
ATOM     29  C   UNL A   1      37.408  29.574  28.107  1.00  0.00     0.060 A 
ATOM     30  C   UNL A   1      38.401  29.580  27.112  1.00  0.00     0.016 A 
ATOM     31  C   UNL A   1      37.587  28.889  29.301  1.00  0.00     0.016 A 
ATOM     32  C   UNL A   1      39.638  29.003  27.359  1.00  0.00     0.010 A 
ATOM     33  C   UNL A   1      38.843  28.433  29.601  1.00  0.00     0.010 A 
ATOM     34  C   UNL A   1      39.845  28.448  28.615  1.00  0.00    -0.014 A 
BRANCH  34  35
ATOM     35  C   UNL A   1      40.934  27.543  28.917  1.00  0.00     0.031 A 
ATOM     36  C   UNL A   1      40.892  26.113  28.594  1.00  0.00     0.074 A 
ATOM     37  C   UNL A   1      42.035  28.239  29.280  1.00  0.00     0.049 A 
ATOM     38  N   UNL A   1      41.789  25.287  28.992  1.00  0.00    -0.248 NA
ATOM     39  C   UNL A   1      39.840  25.459  27.823  1.00  0.00     0.031 C 
ATOM     40  C   UNL A   1      43.442  27.904  29.241  1.00  0.00     0.029 A 
ATOM     41  N   UNL A   1      42.011  29.510  29.880  1.00  0.00    -0.354 N 
ATOM     42  C   UNL A   1      41.636  24.115  28.279  1.00  0.00     0.074 A 
ATOM     43  C   UNL A   1      40.346  24.229  27.649  1.00  0.00     0.031 C 
ATOM     44  C   UNL A   1      44.110  28.767  30.034  1.00  0.00     0.029 A 
ATOM     45  C   UNL A   1      43.112  29.569  30.732  1.00  0.00     0.049 A 
ATOM     46  H   UNL A   1      41.346  30.219  29.727  1.00  0.00     0.167 HD
ATOM     47  C   UNL A   1      42.716  23.283  28.203  1.00  0.00     0.037 A 
ATOM     48  C   UNL A   1      42.870  29.544  32.077  1.00  0.00     0.037 A 
ATOM     49  C   UNL A   1      43.792  23.825  29.026  1.00  0.00     0.049 A 
ATOM     50  C   UNL A   1      43.428  28.277  32.680  1.00  0.00     0.074 A 
ATOM     51  C   UNL A   1      44.865  24.646  28.720  1.00  0.00     0.029 A 
ATOM     52  N   UNL A   1      43.611  23.898  30.399  1.00  0.00    -0.354 N 
ATOM     53  N   UNL A   1      43.450  27.115  32.081  1.00  0.00    -0.248 NA
ATOM     54  C   UNL A   1      44.130  28.278  33.954  1.00  0.00     0.031 C 
ATOM     55  C   UNL A   1      45.310  25.243  29.927  1.00  0.00     0.029 A 
ATOM     56  C   UNL A   1      44.506  24.785  30.959  1.00  0.00     0.049 A 
ATOM     57  H   UNL A   1      42.938  23.387  30.905  1.00  0.00     0.167 HD
ATOM     58  C   UNL A   1      44.223  26.250  32.819  1.00  0.00     0.074 A 
ATOM     59  C   UNL A   1      44.610  27.024  33.985  1.00  0.00     0.031 C 
ATOM     60  C   UNL A   1      44.542  24.986  32.398  1.00  0.00     0.037 A 
BRANCH  47  61
ATOM     61  C   UNL A   1      42.936  22.154  27.222  1.00  0.00     0.057 A 
ATOM     62  C   UNL A   1      42.101  21.013  27.256  1.00  0.00     0.134 A 
ATOM     63  C   UNL A   1      43.934  22.108  26.237  1.00  0.00     0.134 A 
ATOM     64  F   UNL A   1      41.075  20.910  28.110  1.00  0.00    -0.206 F 
ATOM     65  C   UNL A   1      42.273  19.903  26.420  1.00  0.00     0.040 A 
ATOM     66  C   UNL A   1      44.131  20.991  25.403  1.00  0.00     0.040 A 
ATOM     67  F   UNL A   1      44.738  23.151  26.002  1.00  0.00    -0.206 F 
ATOM     68  C   UNL A   1      43.302  19.881  25.496  1.00  0.00     0.006 A 
ENDBRANCH  47  61
BRANCH  48  69
ATOM     69  C   UNL A   1      41.582  30.218  32.455  1.00  0.00     0.057 A 
ATOM     70  C   UNL A   1      40.469  29.408  32.775  1.00  0.00     0.134 A 
ATOM     71  C   UNL A   1      41.507  31.556  32.855  1.00  0.00     0.134 A 
ATOM     72  F   UNL A   1      40.459  28.112  32.425  1.00  0.00    -0.206 F 
ATOM     73  C   UNL A   1      39.406  29.867  33.562  1.00  0.00     0.040 A 
ATOM     74  C   UNL A   1      40.430  32.035  33.623  1.00  0.00     0.040 A 
ATOM     75  F   UNL A   1      42.508  32.406  32.596  1.00  0.00    -0.206 F 
ATOM     76  C   UNL A   1      39.398  31.180  34.012  1.00  0.00     0.006 A 
ENDBRANCH  48  69
BRANCH  60  77
ATOM     77  C   UNL A   1      45.026  23.834  33.259  1.00  0.00     0.057 A 
ATOM     78  C   UNL A   1      46.319  23.722  33.787  1.00  0.00     0.134 A 
ATOM     79  C   UNL A   1      44.119  22.849  33.734  1.00  0.00     0.134 A 
ATOM     80  F   UNL A   1      47.266  24.637  33.553  1.00  0.00    -0.206 F 
ATOM     81  C   UNL A   1      46.698  22.684  34.649  1.00  0.00     0.040 A 
ATOM     82  C   UNL A   1      44.466  21.861  34.657  1.00  0.00     0.040 A 
ATOM     83  F   UNL A   1      42.833  22.808  33.357  1.00  0.00    -0.206 F 
ATOM     84  C   UNL A   1      45.768  21.761  35.103  1.00  0.00     0.006 A 
ENDBRANCH  60  77
ENDBRANCH  34  35
ENDBRANCH  27  29
ENDBRANCH  26  27
ENDBRANCH  25  26
ENDBRANCH   1  25
TORSDOF 13
ENDMDL
MODEL 3
REMARK VINA RESULT:     -12.8      3.283      5.352
REMARK SMILES Cc1ccc(S(=O)(=O)N2c3ccc(C(=O)OCCOC(=O)c4ccc(-c5c6nc(c(-c7c(F)cccc7F)c7ccc([nH]7)c(-c7c(F)cccc7F)c7nc(c(-c8c(F)cccc8F)c8ccc5[nH]8)C=C7)C=C6)cc4)cc3C[C@H]2C)cc1
REMARK SMILES IDX 17 1 16 2 14 3 15 4 13 5 9 6 10 7 79 8 11 9 77 10 78 11
REMARK SMILES IDX 80 12 12 13 76 14 6 15 7 16 8 17 5 18 1 19 2 20 3 21 82 22
REMARK SMILES IDX 4 23 81 24 18 25 19 26 20 27 21 28 22 29 23 30 75 31 24 32
REMARK SMILES IDX 74 33 25 34 26 35 27 36 68 37 28 38 73 39 67 40 69 41 29 42
REMARK SMILES IDX 72 43 66 44 65 45 30 47 56 48 39 49 55 50 40 51 43 52 54 53
REMARK SMILES IDX 70 54 41 55 42 56 53 58 71 59 44 60 31 61 32 62 37 63 33 64
REMARK SMILES IDX 34 65 36 66 38 67 35 68 57 69 58 70 63 71 59 72 60 73 62 74
REMARK SMILES IDX 64 75 61 76 45 77 46 78 51 79 47 80 48 81 50 82 52 83 49 84
REMARK H PARENT 69 46 43 57
REMARK Flexibility Score: inf
ROOT
ATOM      1  C   UNL A   1      33.211  36.058  29.215  1.00  0.00     0.275 C 
ENDROOT
BRANCH   1   2
ATOM      2  O   UNL A   1      32.679  34.995  28.410  1.00  0.00    -0.458 OA
BRANCH   2   3
ATOM      3  C   UNL A   1      33.653  34.104  28.083  1.00  0.00     0.338 C 
ATOM      4  O   UNL A   1      34.853  34.349  28.054  1.00  0.00    -0.246 OA
BRANCH   3   5
ATOM      5  C   UNL A   1      33.142  32.793  27.631  1.00  0.00     0.060 A 
ATOM      6  N   UNL A   1      31.653  29.195  26.061  1.00  0.00    -0.263 N 
ATOM      7  C   UNL A   1      32.076  30.498  26.509  1.00  0.00     0.055 A 
ATOM      8  C   UNL A   1      32.580  28.235  26.789  1.00  0.00     0.101 C 
ATOM      9  C   UNL A   1      31.403  31.687  26.325  1.00  0.00     0.028 A 
ATOM     10  C   UNL A   1      33.268  30.438  27.236  1.00  0.00    -0.021 A 
ATOM     11  C   UNL A   1      33.835  29.054  27.167  1.00  0.00     0.063 C 
ATOM     12  C   UNL A   1      31.853  27.752  28.054  1.00  0.00     0.032 C 
ATOM     13  C   UNL A   1      31.958  32.844  26.867  1.00  0.00     0.018 A 
ATOM     14  C   UNL A   1      33.801  31.575  27.835  1.00  0.00     0.021 A 
BRANCH   6  15
ATOM     15  S   UNL A   1      31.603  29.061  24.341  1.00  0.00     0.264 S 
ATOM     16  O   UNL A   1      32.897  29.488  23.828  1.00  0.00    -0.201 OA
ATOM     17  O   UNL A   1      30.380  29.666  23.871  1.00  0.00    -0.201 OA
BRANCH  15  18
ATOM     18  C   UNL A   1      31.453  27.326  23.943  1.00  0.00     0.088 A 
ATOM     19  C   UNL A   1      31.408  23.098  23.120  1.00  0.00     0.044 C 
ATOM     20  C   UNL A   1      31.412  24.575  23.377  1.00  0.00    -0.051 A 
ATOM     21  C   UNL A   1      32.547  25.338  23.085  1.00  0.00     0.005 A 
ATOM     22  C   UNL A   1      30.283  25.212  23.904  1.00  0.00     0.005 A 
ATOM     23  C   UNL A   1      32.571  26.705  23.367  1.00  0.00     0.022 A 
ATOM     24  C   UNL A   1      30.299  26.582  24.176  1.00  0.00     0.022 A 
ENDBRANCH  15  18
ENDBRANCH   6  15
ENDBRANCH   3   5
ENDBRANCH   2   3
ENDBRANCH   1   2
BRANCH   1  25
ATOM     25  C   UNL A   1      32.814  36.004  30.695  1.00  0.00     0.275 C 
BRANCH  25  26
ATOM     26  O   UNL A   1      33.158  34.846  31.509  1.00  0.00    -0.458 OA
BRANCH  26  27
ATOM     27  C   UNL A   1      34.047  34.727  32.521  1.00  0.00     0.338 C 
ATOM     28  O   UNL A   1      33.888  35.288  33.599  1.00  0.00    -0.246 OA
BRANCH  27  29
ATOM     29  C   UNL A   1      35.223  33.876  32.309  1.00  0.00     0.060 A 
ATOM     30  C   UNL A   1      36.084  34.161  31.235  1.00  0.00     0.016 A 
ATOM     31  C   UNL A   1      35.512  32.868  33.217  1.00  0.00     0.016 A 
ATOM     32  C   UNL A   1      37.309  33.518  31.135  1.00  0.00     0.010 A 
ATOM     33  C   UNL A   1      36.769  32.325  33.200  1.00  0.00     0.010 A 
ATOM     34  C   UNL A   1      37.640  32.614  32.135  1.00  0.00    -0.014 A 
BRANCH  34  35
ATOM     35  C   UNL A   1      38.708  31.644  32.013  1.00  0.00     0.031 A 
ATOM     36  C   UNL A   1      38.575  30.412  31.229  1.00  0.00     0.074 A 
ATOM     37  C   UNL A   1      39.865  32.158  32.488  1.00  0.00     0.049 A 
ATOM     38  N   UNL A   1      39.463  29.486  31.240  1.00  0.00    -0.248 NA
ATOM     39  C   UNL A   1      37.436  30.077  30.382  1.00  0.00     0.031 C 
ATOM     40  C   UNL A   1      41.248  31.836  32.210  1.00  0.00     0.029 A 
ATOM     41  N   UNL A   1      39.946  33.148  33.483  1.00  0.00    -0.354 N 
ATOM     42  C   UNL A   1      39.201  28.631  30.189  1.00  0.00     0.074 A 
ATOM     43  C   UNL A   1      37.871  28.972  29.756  1.00  0.00     0.031 C 
ATOM     44  C   UNL A   1      42.015  32.366  33.184  1.00  0.00     0.029 A 
ATOM     45  C   UNL A   1      41.114  32.897  34.201  1.00  0.00     0.049 A 
ATOM     46  H   UNL A   1      39.304  33.877  33.641  1.00  0.00     0.167 HD
ATOM     47  C   UNL A   1      40.233  27.858  29.738  1.00  0.00     0.037 A 
ATOM     48  C   UNL A   1      40.980  32.417  35.474  1.00  0.00     0.037 A 
ATOM     49  C   UNL A   1      41.395  28.070  30.595  1.00  0.00     0.049 A 
ATOM     50  C   UNL A   1      41.527  31.013  35.558  1.00  0.00     0.074 A 
ATOM     51  C   UNL A   1      42.476  28.931  30.489  1.00  0.00     0.029 A 
ATOM     52  N   UNL A   1      41.328  27.673  31.922  1.00  0.00    -0.354 N 
ATOM     53  N   UNL A   1      41.449  30.125  34.602  1.00  0.00    -0.248 NA
ATOM     54  C   UNL A   1      42.329  30.568  36.688  1.00  0.00     0.031 C 
ATOM     55  C   UNL A   1      43.043  29.073  31.781  1.00  0.00     0.029 A 
ATOM     56  C   UNL A   1      42.305  28.302  32.666  1.00  0.00     0.049 A 
ATOM     57  H   UNL A   1      40.676  27.031  32.283  1.00  0.00     0.167 HD
ATOM     58  C   UNL A   1      42.239  29.048  34.929  1.00  0.00     0.074 A 
ATOM     59  C   UNL A   1      42.752  29.372  36.248  1.00  0.00     0.031 C 
ATOM     60  C   UNL A   1      42.466  28.000  34.077  1.00  0.00     0.037 A 
BRANCH  47  61
ATOM     61  C   UNL A   1      40.322  27.129  28.417  1.00  0.00     0.057 A 
ATOM     62  C   UNL A   1      39.658  25.893  28.244  1.00  0.00     0.134 A 
ATOM     63  C   UNL A   1      41.035  27.563  27.289  1.00  0.00     0.134 A 
ATOM     64  F   UNL A   1      38.901  25.353  29.208  1.00  0.00    -0.206 F 
ATOM     65  C   UNL A   1      39.736  25.130  27.073  1.00  0.00     0.040 A 
ATOM     66  C   UNL A   1      41.138  26.797  26.112  1.00  0.00     0.040 A 
ATOM     67  F   UNL A   1      41.630  28.761  27.251  1.00  0.00    -0.206 F 
ATOM     68  C   UNL A   1      40.491  25.573  26.002  1.00  0.00     0.006 A 
ENDBRANCH  47  61
BRANCH  48  69
ATOM     69  C   UNL A   1      39.758  32.941  36.173  1.00  0.00     0.057 A 
ATOM     70  C   UNL A   1      38.654  32.075  36.333  1.00  0.00     0.134 A 
ATOM     71  C   UNL A   1      39.769  34.083  36.980  1.00  0.00     0.134 A 
ATOM     72  F   UNL A   1      38.564  30.957  35.594  1.00  0.00    -0.206 F 
ATOM     73  C   UNL A   1      37.686  32.264  37.327  1.00  0.00     0.040 A 
ATOM     74  C   UNL A   1      38.788  34.297  37.965  1.00  0.00     0.040 A 
ATOM     75  F   UNL A   1      40.771  34.968  36.902  1.00  0.00    -0.206 F 
ATOM     76  C   UNL A   1      37.768  33.367  38.167  1.00  0.00     0.006 A 
ENDBRANCH  48  69
BRANCH  60  77
ATOM     77  C   UNL A   1      42.965  26.615  34.449  1.00  0.00     0.057 A 
ATOM     78  C   UNL A   1      44.305  26.210  34.395  1.00  0.00     0.134 A 
ATOM     79  C   UNL A   1      42.096  25.666  35.051  1.00  0.00     0.134 A 
ATOM     80  F   UNL A   1      45.280  27.027  33.981  1.00  0.00    -0.206 F 
ATOM     81  C   UNL A   1      44.733  24.949  34.831  1.00  0.00     0.040 A 
ATOM     82  C   UNL A   1      42.528  24.441  35.563  1.00  0.00     0.040 A 
ATOM     83  F   UNL A   1      40.783  25.885  35.210  1.00  0.00    -0.206 F 
ATOM     84  C   UNL A   1      43.850  24.067  35.434  1.00  0.00     0.006 A 
ENDBRANCH  60  77
ENDBRANCH  34  35
ENDBRANCH  27  29
ENDBRANCH  26  27
ENDBRANCH  25  26
ENDBRANCH   1  25
TORSDOF 13
ENDMDL
