MODEL 1
REMARK VINA RESULT:     -11.9      0.000      0.000
REMARK SMILES O=C(CCCC(=O)OCCOC(=O)c1ccc(-c2c3nc(c(-c4c(F)cccc4F)c4ccc([nH]4)c(-c4c(F)cccc4F)c4nc(c(-c5c(F)cccc5F)c5ccc2[nH]5)C=C4)C=C3)cc1)Nc1ccc(C(=O)N2CCOCC2)cc1
REMARK SMILES IDX 8 1 6 2 7 3 5 4 4 5 3 6 2 7 1 8 68 9 69 11 70 12 82 13 71 14
REMARK SMILES IDX 81 15 72 16 73 17 74 18 75 19 76 20 80 21 77 22 79 23 78 24
REMARK SMILES IDX 9 25 10 26 11 27 12 28 13 29 14 30 15 31 67 32 16 33 66 34
REMARK SMILES IDX 17 35 18 36 19 37 60 38 20 39 65 40 59 41 61 42 21 43 64 44
REMARK SMILES IDX 58 45 57 46 22 48 48 49 31 50 47 51 32 52 35 53 46 54 62 55
REMARK SMILES IDX 33 56 34 57 45 59 63 60 36 61 23 62 24 63 29 64 25 65 26 66
REMARK SMILES IDX 28 67 30 68 27 69 49 70 50 71 55 72 51 73 52 74 54 75 56 76
REMARK SMILES IDX 53 77 37 78 38 79 43 80 39 81 40 82 42 83 44 84 41 85
REMARK H PARENT 68 10 61 47 35 58
REMARK Flexibility Score: inf
ROOT
ATOM      1  O   UNL A   1      43.380  20.294  24.987  1.00  0.00    -0.462 OA
ENDROOT
BRANCH   1   2
ATOM      2  C   UNL A   1      42.937  19.183  25.621  1.00  0.00     0.305 C 
ATOM      3  O   UNL A   1      43.290  18.042  25.350  1.00  0.00    -0.252 OA
BRANCH   2   4
ATOM      4  C   UNL A   1      41.862  19.486  26.651  1.00  0.00     0.123 C 
BRANCH   4   5
ATOM      5  C   UNL A   1      40.615  20.245  26.182  1.00  0.00     0.022 C 
BRANCH   5   6
ATOM      6  C   UNL A   1      40.347  21.641  26.754  1.00  0.00     0.101 C 
BRANCH   6   7
ATOM      7  C   UNL A   1      39.062  22.284  26.273  1.00  0.00     0.224 C 
ATOM      8  O   UNL A   1      38.733  23.394  26.679  1.00  0.00    -0.275 OA
ATOM      9  N   UNL A   1      38.335  21.484  25.406  1.00  0.00    -0.326 N 
ATOM     10  H   UNL A   1      38.750  20.639  25.118  1.00  0.00     0.169 HD
BRANCH   9  11
ATOM     11  C   UNL A   1      37.057  21.776  24.906  1.00  0.00     0.041 A 
ATOM     12  C   UNL A   1      35.958  21.071  25.422  1.00  0.00     0.027 A 
ATOM     13  C   UNL A   1      36.858  22.756  23.941  1.00  0.00     0.027 A 
ATOM     14  C   UNL A   1      34.659  21.381  25.000  1.00  0.00     0.016 A 
ATOM     15  C   UNL A   1      35.572  23.050  23.507  1.00  0.00     0.016 A 
ATOM     16  C   UNL A   1      34.471  22.356  24.020  1.00  0.00     0.040 A 
BRANCH  16  17
ATOM     17  C   UNL A   1      33.111  22.798  23.631  1.00  0.00     0.254 C 
ATOM     18  O   UNL A   1      32.671  22.456  22.538  1.00  0.00    -0.269 OA
ATOM     19  N   UNL A   1      32.355  23.440  24.596  1.00  0.00    -0.334 N 
ATOM     20  C   UNL A   1      32.854  24.421  25.566  1.00  0.00     0.148 C 
ATOM     21  C   UNL A   1      30.931  23.152  24.705  1.00  0.00     0.148 C 
ATOM     22  C   UNL A   1      32.411  24.071  26.994  1.00  0.00     0.181 C 
ATOM     23  C   UNL A   1      30.634  22.738  26.151  1.00  0.00     0.181 C 
ATOM     24  O   UNL A   1      31.003  23.788  27.065  1.00  0.00    -0.378 OA
ENDBRANCH  16  17
ENDBRANCH   9  11
ENDBRANCH   6   7
ENDBRANCH   5   6
ENDBRANCH   4   5
ENDBRANCH   2   4
ENDBRANCH   1   2
BRANCH   1  25
ATOM     25  C   UNL A   1      44.801  20.546  24.975  1.00  0.00     0.274 C 
BRANCH  25  26
ATOM     26  C   UNL A   1      45.139  21.880  25.651  1.00  0.00     0.275 C 
BRANCH  26  27
ATOM     27  O   UNL A   1      43.969  22.709  25.773  1.00  0.00    -0.458 OA
BRANCH  27  28
ATOM     28  C   UNL A   1      44.152  24.002  25.425  1.00  0.00     0.338 C 
ATOM     29  O   UNL A   1      44.698  24.430  24.424  1.00  0.00    -0.246 OA
BRANCH  28  30
ATOM     30  C   UNL A   1      43.420  24.869  26.359  1.00  0.00     0.060 A 
ATOM     31  C   UNL A   1      43.775  26.217  26.396  1.00  0.00     0.016 A 
ATOM     32  C   UNL A   1      42.482  24.358  27.255  1.00  0.00     0.016 A 
ATOM     33  C   UNL A   1      43.217  27.069  27.336  1.00  0.00     0.010 A 
ATOM     34  C   UNL A   1      41.915  25.216  28.204  1.00  0.00     0.010 A 
ATOM     35  C   UNL A   1      42.296  26.570  28.260  1.00  0.00    -0.014 A 
BRANCH  35  36
ATOM     36  C   UNL A   1      41.836  27.456  29.352  1.00  0.00     0.031 A 
ATOM     37  C   UNL A   1      42.596  27.473  30.647  1.00  0.00     0.074 A 
ATOM     38  C   UNL A   1      40.803  28.294  29.156  1.00  0.00     0.049 A 
ATOM     39  N   UNL A   1      42.313  28.089  31.764  1.00  0.00    -0.248 NA
ATOM     40  C   UNL A   1      43.845  26.695  30.685  1.00  0.00     0.031 C 
ATOM     41  C   UNL A   1      40.050  28.431  27.907  1.00  0.00     0.029 A 
ATOM     42  N   UNL A   1      40.215  29.197  30.002  1.00  0.00    -0.354 N 
ATOM     43  C   UNL A   1      43.332  27.754  32.647  1.00  0.00     0.074 A 
ATOM     44  C   UNL A   1      44.236  26.872  31.940  1.00  0.00     0.031 C 
ATOM     45  C   UNL A   1      39.099  29.366  28.071  1.00  0.00     0.029 A 
ATOM     46  C   UNL A   1      39.144  29.853  29.446  1.00  0.00     0.049 A 
ATOM     47  H   UNL A   1      40.531  29.361  30.919  1.00  0.00     0.167 HD
ATOM     48  C   UNL A   1      43.496  28.148  33.930  1.00  0.00     0.037 A 
ATOM     49  C   UNL A   1      38.279  30.723  30.000  1.00  0.00     0.037 A 
ATOM     50  C   UNL A   1      42.601  29.042  34.618  1.00  0.00     0.049 A 
ATOM     51  C   UNL A   1      38.451  31.101  31.445  1.00  0.00     0.074 A 
ATOM     52  C   UNL A   1      42.639  29.460  35.936  1.00  0.00     0.029 A 
ATOM     53  N   UNL A   1      41.515  29.670  34.028  1.00  0.00    -0.354 N 
ATOM     54  N   UNL A   1      39.372  30.717  32.297  1.00  0.00    -0.248 NA
ATOM     55  C   UNL A   1      37.459  32.026  32.011  1.00  0.00     0.031 C 
ATOM     56  C   UNL A   1      41.565  30.331  36.148  1.00  0.00     0.029 A 
ATOM     57  C   UNL A   1      40.881  30.479  34.952  1.00  0.00     0.049 A 
ATOM     58  H   UNL A   1      41.237  29.558  33.090  1.00  0.00     0.167 HD
ATOM     59  C   UNL A   1      39.088  31.372  33.486  1.00  0.00     0.074 A 
ATOM     60  C   UNL A   1      37.916  32.189  33.245  1.00  0.00     0.031 C 
ATOM     61  C   UNL A   1      39.733  31.304  34.676  1.00  0.00     0.037 A 
BRANCH  48  62
ATOM     62  C   UNL A   1      44.670  27.595  34.679  1.00  0.00     0.057 A 
ATOM     63  C   UNL A   1      45.897  28.267  34.728  1.00  0.00     0.134 A 
ATOM     64  C   UNL A   1      44.561  26.390  35.384  1.00  0.00     0.134 A 
ATOM     65  F   UNL A   1      46.071  29.415  34.056  1.00  0.00    -0.206 F 
ATOM     66  C   UNL A   1      46.979  27.754  35.444  1.00  0.00     0.040 A 
ATOM     67  C   UNL A   1      45.630  25.877  36.120  1.00  0.00     0.040 A 
ATOM     68  F   UNL A   1      43.412  25.697  35.375  1.00  0.00    -0.206 F 
ATOM     69  C   UNL A   1      46.845  26.559  36.149  1.00  0.00     0.006 A 
ENDBRANCH  48  62
BRANCH  49  70
ATOM     70  C   UNL A   1      37.150  31.268  29.204  1.00  0.00     0.057 A 
ATOM     71  C   UNL A   1      37.172  32.577  28.711  1.00  0.00     0.134 A 
ATOM     72  C   UNL A   1      36.005  30.501  28.950  1.00  0.00     0.134 A 
ATOM     73  F   UNL A   1      38.230  33.367  28.942  1.00  0.00    -0.206 F 
ATOM     74  C   UNL A   1      36.088  33.112  28.013  1.00  0.00     0.040 A 
ATOM     75  C   UNL A   1      34.926  31.015  28.231  1.00  0.00     0.040 A 
ATOM     76  F   UNL A   1      35.922  29.239  29.395  1.00  0.00    -0.206 F 
ATOM     77  C   UNL A   1      34.961  32.329  27.769  1.00  0.00     0.006 A 
ENDBRANCH  49  70
BRANCH  61  78
ATOM     78  C   UNL A   1      39.219  32.175  35.780  1.00  0.00     0.057 A 
ATOM     79  C   UNL A   1      38.296  31.707  36.723  1.00  0.00     0.134 A 
ATOM     80  C   UNL A   1      39.677  33.491  35.915  1.00  0.00     0.134 A 
ATOM     81  F   UNL A   1      37.811  30.459  36.638  1.00  0.00    -0.206 F 
ATOM     82  C   UNL A   1      37.830  32.527  37.751  1.00  0.00     0.040 A 
ATOM     83  C   UNL A   1      39.235  34.314  36.951  1.00  0.00     0.040 A 
ATOM     84  F   UNL A   1      40.567  33.995  35.047  1.00  0.00    -0.206 F 
ATOM     85  C   UNL A   1      38.303  33.832  37.869  1.00  0.00     0.006 A 
ENDBRANCH  61  78
ENDBRANCH  35  36
ENDBRANCH  28  30
ENDBRANCH  27  28
ENDBRANCH  26  27
ENDBRANCH  25  26
ENDBRANCH   1  25
TORSDOF 16
ENDMDL
MODEL 2
REMARK VINA RESULT:     -11.8      0.135      1.585
REMARK SMILES O=C(CCCC(=O)OCCOC(=O)c1ccc(-c2c3nc(c(-c4c(F)cccc4F)c4ccc([nH]4)c(-c4c(F)cccc4F)c4nc(c(-c5c(F)cccc5F)c5ccc2[nH]5)C=C4)C=C3)cc1)Nc1ccc(C(=O)N2CCOCC2)cc1
REMARK SMILES IDX 8 1 6 2 7 3 5 4 4 5 3 6 2 7 1 8 68 9 69 11 70 12 82 13 71 14
REMARK SMILES IDX 81 15 72 16 73 17 74 18 75 19 76 20 80 21 77 22 79 23 78 24
REMARK SMILES IDX 9 25 10 26 11 27 12 28 13 29 14 30 15 31 67 32 16 33 66 34
REMARK SMILES IDX 17 35 18 36 19 37 60 38 20 39 65 40 59 41 61 42 21 43 64 44
REMARK SMILES IDX 58 45 57 46 22 48 48 49 31 50 47 51 32 52 35 53 46 54 62 55
REMARK SMILES IDX 33 56 34 57 45 59 63 60 36 61 23 62 24 63 29 64 25 65 26 66
REMARK SMILES IDX 28 67 30 68 27 69 49 70 50 71 55 72 51 73 52 74 54 75 56 76
REMARK SMILES IDX 53 77 37 78 38 79 43 80 39 81 40 82 42 83 44 84 41 85
REMARK H PARENT 68 10 61 47 35 58
REMARK Flexibility Score: inf
ROOT
ATOM      1  O   UNL A   1      43.248  20.330  25.075  1.00  0.00    -0.462 OA
ENDROOT
BRANCH   1   2
ATOM      2  C   UNL A   1      42.832  19.229  25.743  1.00  0.00     0.305 C 
ATOM      3  O   UNL A   1      43.084  18.079  25.412  1.00  0.00    -0.252 OA
BRANCH   2   4
ATOM      4  C   UNL A   1      41.917  19.564  26.910  1.00  0.00     0.123 C 
BRANCH   4   5
ATOM      5  C   UNL A   1      40.581  20.249  26.598  1.00  0.00     0.022 C 
BRANCH   5   6
ATOM      6  C   UNL A   1      40.496  21.775  26.706  1.00  0.00     0.101 C 
BRANCH   6   7
ATOM      7  C   UNL A   1      39.170  22.365  26.269  1.00  0.00     0.224 C 
ATOM      8  O   UNL A   1      38.767  23.417  26.757  1.00  0.00    -0.275 OA
ATOM      9  N   UNL A   1      38.499  21.587  25.339  1.00  0.00    -0.326 N 
ATOM     10  H   UNL A   1      38.970  20.797  24.989  1.00  0.00     0.169 HD
BRANCH   9  11
ATOM     11  C   UNL A   1      37.204  21.830  24.857  1.00  0.00     0.041 A 
ATOM     12  C   UNL A   1      36.141  21.075  25.377  1.00  0.00     0.027 A 
ATOM     13  C   UNL A   1      36.953  22.811  23.904  1.00  0.00     0.027 A 
ATOM     14  C   UNL A   1      34.826  21.335  24.972  1.00  0.00     0.016 A 
ATOM     15  C   UNL A   1      35.651  23.055  23.487  1.00  0.00     0.016 A 
ATOM     16  C   UNL A   1      34.586  22.310  24.005  1.00  0.00     0.040 A 
BRANCH  16  17
ATOM     17  C   UNL A   1      33.204  22.699  23.636  1.00  0.00     0.254 C 
ATOM     18  O   UNL A   1      32.756  22.326  22.556  1.00  0.00    -0.269 OA
ATOM     19  N   UNL A   1      32.444  23.329  24.606  1.00  0.00    -0.334 N 
ATOM     20  C   UNL A   1      32.926  24.340  25.552  1.00  0.00     0.148 C 
ATOM     21  C   UNL A   1      31.034  22.993  24.746  1.00  0.00     0.148 C 
ATOM     22  C   UNL A   1      32.522  23.997  26.992  1.00  0.00     0.181 C 
ATOM     23  C   UNL A   1      30.778  22.590  26.203  1.00  0.00     0.181 C 
ATOM     24  O   UNL A   1      31.127  23.666  27.095  1.00  0.00    -0.378 OA
ENDBRANCH  16  17
ENDBRANCH   9  11
ENDBRANCH   6   7
ENDBRANCH   5   6
ENDBRANCH   4   5
ENDBRANCH   2   4
ENDBRANCH   1   2
BRANCH   1  25
ATOM     25  C   UNL A   1      44.666  20.595  25.021  1.00  0.00     0.274 C 
BRANCH  25  26
ATOM     26  C   UNL A   1      45.009  21.940  25.672  1.00  0.00     0.275 C 
BRANCH  26  27
ATOM     27  O   UNL A   1      43.852  22.794  25.735  1.00  0.00    -0.458 OA
BRANCH  27  28
ATOM     28  C   UNL A   1      44.088  24.090  25.430  1.00  0.00     0.338 C 
ATOM     29  O   UNL A   1      44.672  24.527  24.455  1.00  0.00    -0.246 OA
BRANCH  28  30
ATOM     30  C   UNL A   1      43.362  24.954  26.371  1.00  0.00     0.060 A 
ATOM     31  C   UNL A   1      43.739  26.297  26.430  1.00  0.00     0.016 A 
ATOM     32  C   UNL A   1      42.411  24.446  27.253  1.00  0.00     0.016 A 
ATOM     33  C   UNL A   1      43.186  27.143  27.378  1.00  0.00     0.010 A 
ATOM     34  C   UNL A   1      41.851  25.298  28.210  1.00  0.00     0.010 A 
ATOM     35  C   UNL A   1      42.251  26.646  28.289  1.00  0.00    -0.014 A 
BRANCH  35  36
ATOM     36  C   UNL A   1      41.798  27.523  29.390  1.00  0.00     0.031 A 
ATOM     37  C   UNL A   1      42.561  27.524  30.683  1.00  0.00     0.074 A 
ATOM     38  C   UNL A   1      40.767  28.366  29.204  1.00  0.00     0.049 A 
ATOM     39  N   UNL A   1      42.283  28.131  31.807  1.00  0.00    -0.248 NA
ATOM     40  C   UNL A   1      43.807  26.741  30.711  1.00  0.00     0.031 C 
ATOM     41  C   UNL A   1      40.012  28.518  27.959  1.00  0.00     0.029 A 
ATOM     42  N   UNL A   1      40.185  29.264  30.061  1.00  0.00    -0.354 N 
ATOM     43  C   UNL A   1      43.303  27.783  32.684  1.00  0.00     0.074 A 
ATOM     44  C   UNL A   1      44.201  26.905  31.966  1.00  0.00     0.031 C 
ATOM     45  C   UNL A   1      39.065  29.455  28.133  1.00  0.00     0.029 A 
ATOM     46  C   UNL A   1      39.116  29.929  29.514  1.00  0.00     0.049 A 
ATOM     47  H   UNL A   1      40.504  29.418  30.978  1.00  0.00     0.167 HD
ATOM     48  C   UNL A   1      43.471  28.165  33.970  1.00  0.00     0.037 A 
ATOM     49  C   UNL A   1      38.255  30.797  30.077  1.00  0.00     0.037 A 
ATOM     50  C   UNL A   1      42.582  29.055  34.669  1.00  0.00     0.049 A 
ATOM     51  C   UNL A   1      38.432  31.160  31.526  1.00  0.00     0.074 A 
ATOM     52  C   UNL A   1      42.625  29.461  35.990  1.00  0.00     0.029 A 
ATOM     53  N   UNL A   1      41.497  29.693  34.088  1.00  0.00    -0.354 N 
ATOM     54  N   UNL A   1      39.354  30.765  32.371  1.00  0.00    -0.248 NA
ATOM     55  C   UNL A   1      37.445  32.084  32.103  1.00  0.00     0.031 C 
ATOM     56  C   UNL A   1      41.554  30.333  36.214  1.00  0.00     0.029 A 
ATOM     57  C   UNL A   1      40.867  30.496  35.021  1.00  0.00     0.049 A 
ATOM     58  H   UNL A   1      41.216  29.591  33.149  1.00  0.00     0.167 HD
ATOM     59  C   UNL A   1      39.074  31.410  33.568  1.00  0.00     0.074 A 
ATOM     60  C   UNL A   1      37.905  32.233  33.337  1.00  0.00     0.031 C 
ATOM     61  C   UNL A   1      39.722  31.328  34.755  1.00  0.00     0.037 A 
BRANCH  48  62
ATOM     62  C   UNL A   1      44.645  27.601  34.711  1.00  0.00     0.057 A 
ATOM     63  C   UNL A   1      44.602  26.334  35.305  1.00  0.00     0.134 A 
ATOM     64  C   UNL A   1      45.840  28.323  34.807  1.00  0.00     0.134 A 
ATOM     65  F   UNL A   1      43.478  25.602  35.267  1.00  0.00    -0.206 F 
ATOM     66  C   UNL A   1      45.706  25.808  35.978  1.00  0.00     0.040 A 
ATOM     67  C   UNL A   1      46.958  27.799  35.460  1.00  0.00     0.040 A 
ATOM     68  F   UNL A   1      45.945  29.544  34.262  1.00  0.00    -0.206 F 
ATOM     69  C   UNL A   1      46.891  26.538  36.051  1.00  0.00     0.006 A 
ENDBRANCH  48  62
BRANCH  49  70
ATOM     70  C   UNL A   1      37.126  31.353  29.289  1.00  0.00     0.057 A 
ATOM     71  C   UNL A   1      35.992  30.586  29.002  1.00  0.00     0.134 A 
ATOM     72  C   UNL A   1      37.172  32.655  28.774  1.00  0.00     0.134 A 
ATOM     73  F   UNL A   1      35.900  29.324  29.447  1.00  0.00    -0.206 F 
ATOM     74  C   UNL A   1      34.955  31.084  28.211  1.00  0.00     0.040 A 
ATOM     75  C   UNL A   1      36.130  33.175  28.006  1.00  0.00     0.040 A 
ATOM     76  F   UNL A   1      38.231  33.442  29.015  1.00  0.00    -0.206 F 
ATOM     77  C   UNL A   1      35.021  32.384  27.714  1.00  0.00     0.006 A 
ENDBRANCH  49  70
BRANCH  61  78
ATOM     78  C   UNL A   1      39.214  32.191  35.869  1.00  0.00     0.057 A 
ATOM     79  C   UNL A   1      39.659  33.506  36.047  1.00  0.00     0.134 A 
ATOM     80  C   UNL A   1      38.245  31.705  36.755  1.00  0.00     0.134 A 
ATOM     81  F   UNL A   1      40.596  34.022  35.237  1.00  0.00    -0.206 F 
ATOM     82  C   UNL A   1      39.173  34.302  37.084  1.00  0.00     0.040 A 
ATOM     83  C   UNL A   1      37.736  32.498  37.783  1.00  0.00     0.040 A 
ATOM     84  F   UNL A   1      37.774  30.455  36.631  1.00  0.00    -0.206 F 
ATOM     85  C   UNL A   1      38.205  33.800  37.952  1.00  0.00     0.006 A 
ENDBRANCH  61  78
ENDBRANCH  35  36
ENDBRANCH  28  30
ENDBRANCH  27  28
ENDBRANCH  26  27
ENDBRANCH  25  26
ENDBRANCH   1  25
TORSDOF 16
ENDMDL
MODEL 3
REMARK VINA RESULT:     -11.2      3.991      9.249
REMARK SMILES O=C(CCCC(=O)OCCOC(=O)c1ccc(-c2c3nc(c(-c4c(F)cccc4F)c4ccc([nH]4)c(-c4c(F)cccc4F)c4nc(c(-c5c(F)cccc5F)c5ccc2[nH]5)C=C4)C=C3)cc1)Nc1ccc(C(=O)N2CCOCC2)cc1
REMARK SMILES IDX 8 1 6 2 7 3 5 4 4 5 3 6 2 7 1 8 68 9 69 11 70 12 82 13 71 14
REMARK SMILES IDX 81 15 72 16 73 17 74 18 75 19 76 20 80 21 77 22 79 23 78 24
REMARK SMILES IDX 9 25 10 26 11 27 12 28 13 29 14 30 15 31 67 32 16 33 66 34
REMARK SMILES IDX 17 35 18 36 19 37 60 38 20 39 65 40 59 41 61 42 21 43 64 44
REMARK SMILES IDX 58 45 57 46 22 48 48 49 31 50 47 51 32 52 35 53 46 54 62 55
REMARK SMILES IDX 33 56 34 57 45 59 63 60 36 61 23 62 24 63 29 64 25 65 26 66
REMARK SMILES IDX 28 67 30 68 27 69 49 70 50 71 55 72 51 73 52 74 54 75 56 76
REMARK SMILES IDX 53 77 37 78 38 79 43 80 39 81 40 82 42 83 44 84 41 85
REMARK H PARENT 68 10 61 47 35 58
REMARK Flexibility Score: inf
ROOT
ATOM      1  O   UNL A   1      33.576  33.964  28.523  1.00  0.00    -0.462 OA
ENDROOT
BRANCH   1   2
ATOM      2  C   UNL A   1      34.301  32.938  29.027  1.00  0.00     0.305 C 
ATOM      3  O   UNL A   1      34.389  32.669  30.218  1.00  0.00    -0.252 OA
BRANCH   2   4
ATOM      4  C   UNL A   1      35.091  32.199  27.959  1.00  0.00     0.123 C 
BRANCH   4   5
ATOM      5  C   UNL A   1      34.564  30.838  27.493  1.00  0.00     0.022 C 
BRANCH   5   6
ATOM      6  C   UNL A   1      33.086  30.715  27.108  1.00  0.00     0.101 C 
BRANCH   6   7
ATOM      7  C   UNL A   1      32.730  29.442  26.368  1.00  0.00     0.224 C 
ATOM      8  O   UNL A   1      31.610  28.951  26.478  1.00  0.00    -0.275 OA
ATOM      9  N   UNL A   1      33.782  28.917  25.635  1.00  0.00    -0.326 N 
ATOM     10  H   UNL A   1      34.608  29.449  25.587  1.00  0.00     0.169 HD
BRANCH   9  11
ATOM     11  C   UNL A   1      33.769  27.688  24.956  1.00  0.00     0.041 A 
ATOM     12  C   UNL A   1      34.038  26.518  25.682  1.00  0.00     0.027 A 
ATOM     13  C   UNL A   1      33.473  27.608  23.601  1.00  0.00     0.027 A 
ATOM     14  C   UNL A   1      33.967  25.267  25.056  1.00  0.00     0.016 A 
ATOM     15  C   UNL A   1      33.421  26.369  22.974  1.00  0.00     0.016 A 
ATOM     16  C   UNL A   1      33.684  25.198  23.693  1.00  0.00     0.040 A 
BRANCH  16  17
ATOM     17  C   UNL A   1      33.481  23.893  23.018  1.00  0.00     0.254 C 
ATOM     18  O   UNL A   1      34.258  23.564  22.128  1.00  0.00    -0.269 OA
ATOM     19  N   UNL A   1      32.518  23.052  23.546  1.00  0.00    -0.334 N 
ATOM     20  C   UNL A   1      31.209  23.462  24.065  1.00  0.00     0.148 C 
ATOM     21  C   UNL A   1      32.775  21.619  23.618  1.00  0.00     0.148 C 
ATOM     22  C   UNL A   1      30.947  22.866  25.455  1.00  0.00     0.181 C 
ATOM     23  C   UNL A   1      32.559  21.165  25.066  1.00  0.00     0.181 C 
ATOM     24  O   UNL A   1      31.214  21.454  25.493  1.00  0.00    -0.378 OA
ENDBRANCH  16  17
ENDBRANCH   9  11
ENDBRANCH   6   7
ENDBRANCH   5   6
ENDBRANCH   4   5
ENDBRANCH   2   4
ENDBRANCH   1   2
BRANCH   1  25
ATOM     25  C   UNL A   1      33.996  35.309  28.838  1.00  0.00     0.274 C 
BRANCH  25  26
ATOM     26  C   UNL A   1      32.928  36.054  29.646  1.00  0.00     0.275 C 
BRANCH  26  27
ATOM     27  O   UNL A   1      32.483  35.265  30.766  1.00  0.00    -0.458 OA
BRANCH  27  28
ATOM     28  C   UNL A   1      32.756  35.798  31.978  1.00  0.00     0.338 C 
ATOM     29  O   UNL A   1      32.109  36.633  32.583  1.00  0.00    -0.246 OA
BRANCH  28  30
ATOM     30  C   UNL A   1      33.887  35.082  32.584  1.00  0.00     0.060 A 
ATOM     31  C   UNL A   1      35.158  35.636  32.424  1.00  0.00     0.016 A 
ATOM     32  C   UNL A   1      33.727  33.842  33.200  1.00  0.00     0.016 A 
ATOM     33  C   UNL A   1      36.284  34.956  32.859  1.00  0.00     0.010 A 
ATOM     34  C   UNL A   1      34.862  33.154  33.642  1.00  0.00     0.010 A 
ATOM     35  C   UNL A   1      36.147  33.700  33.455  1.00  0.00    -0.014 A 
BRANCH  35  36
ATOM     36  C   UNL A   1      37.368  32.924  33.763  1.00  0.00     0.031 A 
ATOM     37  C   UNL A   1      38.061  33.147  35.076  1.00  0.00     0.074 A 
ATOM     38  C   UNL A   1      37.800  31.975  32.915  1.00  0.00     0.049 A 
ATOM     39  N   UNL A   1      39.194  32.658  35.506  1.00  0.00    -0.248 NA
ATOM     40  C   UNL A   1      37.385  34.037  36.034  1.00  0.00     0.031 C 
ATOM     41  C   UNL A   1      37.151  31.606  31.655  1.00  0.00     0.029 A 
ATOM     42  N   UNL A   1      38.883  31.138  32.991  1.00  0.00    -0.354 N 
ATOM     43  C   UNL A   1      39.381  33.199  36.772  1.00  0.00     0.074 A 
ATOM     44  C   UNL A   1      38.250  34.062  37.037  1.00  0.00     0.031 C 
ATOM     45  C   UNL A   1      37.850  30.615  31.077  1.00  0.00     0.029 A 
ATOM     46  C   UNL A   1      39.020  30.317  31.898  1.00  0.00     0.049 A 
ATOM     47  H   UNL A   1      39.501  31.125  33.756  1.00  0.00     0.167 HD
ATOM     48  C   UNL A   1      40.403  32.992  37.632  1.00  0.00     0.037 A 
ATOM     49  C   UNL A   1      39.999  29.449  31.584  1.00  0.00     0.037 A 
ATOM     50  C   UNL A   1      41.514  32.115  37.366  1.00  0.00     0.049 A 
ATOM     51  C   UNL A   1      41.154  29.281  32.533  1.00  0.00     0.074 A 
ATOM     52  C   UNL A   1      42.634  31.877  38.142  1.00  0.00     0.029 A 
ATOM     53  N   UNL A   1      41.629  31.316  36.239  1.00  0.00    -0.354 N 
ATOM     54  N   UNL A   1      41.363  29.857  33.692  1.00  0.00    -0.248 NA
ATOM     55  C   UNL A   1      42.214  28.348  32.126  1.00  0.00     0.031 C 
ATOM     56  C   UNL A   1      43.436  30.945  37.475  1.00  0.00     0.029 A 
ATOM     57  C   UNL A   1      42.796  30.578  36.302  1.00  0.00     0.049 A 
ATOM     58  H   UNL A   1      40.976  31.280  35.503  1.00  0.00     0.167 HD
ATOM     59  C   UNL A   1      42.560  29.338  34.165  1.00  0.00     0.074 A 
ATOM     60  C   UNL A   1      43.026  28.390  33.173  1.00  0.00     0.031 C 
ATOM     61  C   UNL A   1      43.221  29.621  35.314  1.00  0.00     0.037 A 
BRANCH  48  62
ATOM     62  C   UNL A   1      40.382  33.745  38.927  1.00  0.00     0.057 A 
ATOM     63  C   UNL A   1      41.080  34.947  39.093  1.00  0.00     0.134 A 
ATOM     64  C   UNL A   1      39.631  33.276  40.011  1.00  0.00     0.134 A 
ATOM     65  F   UNL A   1      41.836  35.437  38.099  1.00  0.00    -0.206 F 
ATOM     66  C   UNL A   1      41.040  35.652  40.297  1.00  0.00     0.040 A 
ATOM     67  C   UNL A   1      39.566  33.982  41.214  1.00  0.00     0.040 A 
ATOM     68  F   UNL A   1      38.940  32.129  39.917  1.00  0.00    -0.206 F 
ATOM     69  C   UNL A   1      40.275  35.173  41.360  1.00  0.00     0.006 A 
ENDBRANCH  48  62
BRANCH  49  70
ATOM     70  C   UNL A   1      39.957  28.703  30.301  1.00  0.00     0.057 A 
ATOM     71  C   UNL A   1      40.567  29.206  29.147  1.00  0.00     0.134 A 
ATOM     72  C   UNL A   1      39.273  27.485  30.192  1.00  0.00     0.134 A 
ATOM     73  F   UNL A   1      41.216  30.378  29.183  1.00  0.00    -0.206 F 
ATOM     74  C   UNL A   1      40.480  28.536  27.925  1.00  0.00     0.040 A 
ATOM     75  C   UNL A   1      39.201  26.793  28.984  1.00  0.00     0.040 A 
ATOM     76  F   UNL A   1      38.668  26.950  31.262  1.00  0.00    -0.206 F 
ATOM     77  C   UNL A   1      39.798  27.324  27.842  1.00  0.00     0.006 A 
ENDBRANCH  49  70
BRANCH  61  78
ATOM     78  C   UNL A   1      44.480  28.856  35.581  1.00  0.00     0.057 A 
ATOM     79  C   UNL A   1      45.730  29.319  35.154  1.00  0.00     0.134 A 
ATOM     80  C   UNL A   1      44.440  27.655  36.299  1.00  0.00     0.134 A 
ATOM     81  F   UNL A   1      45.830  30.457  34.451  1.00  0.00    -0.206 F 
ATOM     82  C   UNL A   1      46.897  28.600  35.415  1.00  0.00     0.040 A 
ATOM     83  C   UNL A   1      45.602  26.938  36.584  1.00  0.00     0.040 A 
ATOM     84  F   UNL A   1      43.273  27.163  36.740  1.00  0.00    -0.206 F 
ATOM     85  C   UNL A   1      46.835  27.409  36.136  1.00  0.00     0.006 A 
ENDBRANCH  61  78
ENDBRANCH  35  36
ENDBRANCH  28  30
ENDBRANCH  27  28
ENDBRANCH  26  27
ENDBRANCH  25  26
ENDBRANCH   1  25
TORSDOF 16
ENDMDL
