MODEL 1
REMARK VINA RESULT:     -12.3      0.000      0.000
REMARK SMILES Cn1cc(S(=O)(=O)N2CCC(C(=O)OCCOC(=O)c3ccc(-c4c5nc(c(-c6c(F)cccc6F)c6ccc([nH]6)c(-c6c(F)cccc6F)c6nc(c(-c7c(F)cccc7F)c7ccc4[nH]7)C=C6)C=C5)cc3)CC2)cc1C(=O)N1CCCCC1
REMARK SMILES IDX 15 1 14 2 12 3 13 4 11 5 8 6 9 7 75 8 10 9 74 10 5 11 6 12
REMARK SMILES IDX 7 13 4 14 1 15 2 16 3 17 77 18 76 19 78 20 79 21 80 22 81 23
REMARK SMILES IDX 85 24 82 25 84 26 83 27 16 28 17 29 18 30 19 31 20 32 21 33
REMARK SMILES IDX 73 34 22 35 72 36 23 37 24 38 25 39 66 40 26 41 71 42 65 43
REMARK SMILES IDX 67 44 27 45 70 46 64 47 63 48 28 50 54 51 37 52 53 53 38 54
REMARK SMILES IDX 41 55 52 56 68 57 39 58 40 59 51 61 69 62 42 63 29 64 30 65
REMARK SMILES IDX 35 66 31 67 32 68 34 69 36 70 33 71 55 72 56 73 61 74 57 75
REMARK SMILES IDX 58 76 60 77 62 78 59 79 43 80 44 81 49 82 45 83 46 84 48 85
REMARK SMILES IDX 50 86 47 87
REMARK H PARENT 67 49 41 60
REMARK Flexibility Score: inf
ROOT
ATOM      1  C   UNL A   1      42.352  20.992  26.184  1.00  0.00     0.274 C 
ENDROOT
BRANCH   1   2
ATOM      2  O   UNL A   1      41.035  21.391  25.755  1.00  0.00    -0.462 OA
BRANCH   2   3
ATOM      3  C   UNL A   1      40.139  21.638  26.742  1.00  0.00     0.309 C 
ATOM      4  O   UNL A   1      40.401  21.664  27.940  1.00  0.00    -0.252 OA
BRANCH   3   5
ATOM      5  C   UNL A   1      38.738  21.898  26.233  1.00  0.00     0.102 C 
ATOM      6  N   UNL A   1      36.520  22.481  24.497  1.00  0.00    -0.198 NA
ATOM      7  C   UNL A   1      36.928  23.471  25.527  1.00  0.00     0.103 C 
ATOM      8  C   UNL A   1      36.920  21.077  24.744  1.00  0.00     0.103 C 
ATOM      9  C   UNL A   1      38.414  23.340  25.852  1.00  0.00     0.032 C 
ATOM     10  C   UNL A   1      38.410  20.988  25.054  1.00  0.00     0.032 C 
BRANCH   6  11
ATOM     11  S   UNL A   1      34.961  22.692  23.839  1.00  0.00     0.244 S 
ATOM     12  O   UNL A   1      34.222  21.459  24.004  1.00  0.00    -0.207 OA
ATOM     13  O   UNL A   1      35.097  23.328  22.547  1.00  0.00    -0.207 OA
BRANCH  11  14
ATOM     14  C   UNL A   1      34.028  23.841  24.749  1.00  0.00     0.101 A 
ATOM     15  C   UNL A   1      31.214  24.576  26.877  1.00  0.00     0.150 C 
ATOM     16  N   UNL A   1      32.421  24.636  26.081  1.00  0.00    -0.345 N 
ATOM     17  C   UNL A   1      33.096  23.499  25.705  1.00  0.00     0.107 A 
ATOM     18  C   UNL A   1      32.961  25.741  25.444  1.00  0.00     0.108 A 
ATOM     19  C   UNL A   1      33.983  25.248  24.630  1.00  0.00     0.055 A 
BRANCH  18  20
ATOM     20  C   UNL A   1      32.452  27.109  25.401  1.00  0.00     0.270 C 
ATOM     21  O   UNL A   1      32.760  27.903  26.290  1.00  0.00    -0.267 OA
ATOM     22  N   UNL A   1      31.674  27.524  24.323  1.00  0.00    -0.337 N 
ATOM     23  C   UNL A   1      31.756  28.922  23.907  1.00  0.00     0.120 C 
ATOM     24  C   UNL A   1      30.718  26.684  23.604  1.00  0.00     0.120 C 
ATOM     25  C   UNL A   1      30.391  29.592  23.837  1.00  0.00     0.022 C 
ATOM     26  C   UNL A   1      29.335  27.339  23.538  1.00  0.00     0.022 C 
ATOM     27  C   UNL A   1      29.423  28.766  22.996  1.00  0.00     0.004 C 
ENDBRANCH  18  20
ENDBRANCH  11  14
ENDBRANCH   6  11
ENDBRANCH   3   5
ENDBRANCH   2   3
ENDBRANCH   1   2
BRANCH   1  28
ATOM     28  C   UNL A   1      43.438  21.796  25.464  1.00  0.00     0.275 C 
BRANCH  28  29
ATOM     29  O   UNL A   1      42.935  23.052  24.966  1.00  0.00    -0.458 OA
BRANCH  29  30
ATOM     30  C   UNL A   1      43.744  24.117  25.173  1.00  0.00     0.338 C 
ATOM     31  O   UNL A   1      44.774  24.392  24.581  1.00  0.00    -0.246 OA
BRANCH  30  32
ATOM     32  C   UNL A   1      43.147  25.013  26.174  1.00  0.00     0.060 A 
ATOM     33  C   UNL A   1      43.694  26.291  26.319  1.00  0.00     0.016 A 
ATOM     34  C   UNL A   1      42.135  24.574  27.029  1.00  0.00     0.016 A 
ATOM     35  C   UNL A   1      43.228  27.143  27.316  1.00  0.00     0.010 A 
ATOM     36  C   UNL A   1      41.672  25.427  28.035  1.00  0.00     0.010 A 
ATOM     37  C   UNL A   1      42.222  26.712  28.190  1.00  0.00    -0.014 A 
BRANCH  37  38
ATOM     38  C   UNL A   1      41.787  27.592  29.299  1.00  0.00     0.031 A 
ATOM     39  C   UNL A   1      42.521  27.565  30.607  1.00  0.00     0.074 A 
ATOM     40  C   UNL A   1      40.745  28.426  29.123  1.00  0.00     0.049 A 
ATOM     41  N   UNL A   1      42.245  28.189  31.723  1.00  0.00    -0.248 NA
ATOM     42  C   UNL A   1      43.724  26.721  30.668  1.00  0.00     0.031 C 
ATOM     43  C   UNL A   1      39.983  28.575  27.885  1.00  0.00     0.029 A 
ATOM     44  N   UNL A   1      40.149  29.301  29.995  1.00  0.00    -0.354 N 
ATOM     45  C   UNL A   1      43.227  27.801  32.625  1.00  0.00     0.074 A 
ATOM     46  C   UNL A   1      44.100  26.879  31.929  1.00  0.00     0.031 C 
ATOM     47  C   UNL A   1      39.013  29.485  28.077  1.00  0.00     0.029 A 
ATOM     48  C   UNL A   1      39.066  29.953  29.461  1.00  0.00     0.049 A 
ATOM     49  H   UNL A   1      40.467  29.448  30.915  1.00  0.00     0.167 HD
ATOM     50  C   UNL A   1      43.386  28.182  33.914  1.00  0.00     0.037 A 
ATOM     51  C   UNL A   1      38.199  30.810  30.031  1.00  0.00     0.037 A 
ATOM     52  C   UNL A   1      42.530  29.115  34.598  1.00  0.00     0.049 A 
ATOM     53  C   UNL A   1      38.370  31.182  31.476  1.00  0.00     0.074 A 
ATOM     54  C   UNL A   1      42.617  29.570  35.903  1.00  0.00     0.029 A 
ATOM     55  N   UNL A   1      41.432  29.739  34.029  1.00  0.00    -0.354 N 
ATOM     56  N   UNL A   1      39.296  30.801  32.324  1.00  0.00    -0.248 NA
ATOM     57  C   UNL A   1      37.373  32.098  32.049  1.00  0.00     0.031 C 
ATOM     58  C   UNL A   1      41.552  30.450  36.131  1.00  0.00     0.029 A 
ATOM     59  C   UNL A   1      40.823  30.566  34.959  1.00  0.00     0.049 A 
ATOM     60  H   UNL A   1      41.128  29.614  33.100  1.00  0.00     0.167 HD
ATOM     61  C   UNL A   1      39.003  31.441  33.520  1.00  0.00     0.074 A 
ATOM     62  C   UNL A   1      37.822  32.246  33.287  1.00  0.00     0.031 C 
ATOM     63  C   UNL A   1      39.653  31.365  34.707  1.00  0.00     0.037 A 
BRANCH  50  64
ATOM     64  C   UNL A   1      44.518  27.568  34.679  1.00  0.00     0.057 A 
ATOM     65  C   UNL A   1      44.370  26.363  35.376  1.00  0.00     0.134 A 
ATOM     66  C   UNL A   1      45.782  28.171  34.684  1.00  0.00     0.134 A 
ATOM     67  F   UNL A   1      43.181  25.742  35.416  1.00  0.00    -0.206 F 
ATOM     68  C   UNL A   1      45.438  25.786  36.066  1.00  0.00     0.040 A 
ATOM     69  C   UNL A   1      46.862  27.595  35.355  1.00  0.00     0.040 A 
ATOM     70  F   UNL A   1      45.988  29.325  34.032  1.00  0.00    -0.206 F 
ATOM     71  C   UNL A   1      46.690  26.401  36.050  1.00  0.00     0.006 A 
ENDBRANCH  50  64
BRANCH  51  72
ATOM     72  C   UNL A   1      37.072  31.358  29.239  1.00  0.00     0.057 A 
ATOM     73  C   UNL A   1      37.102  32.669  28.749  1.00  0.00     0.134 A 
ATOM     74  C   UNL A   1      35.935  30.590  28.965  1.00  0.00     0.134 A 
ATOM     75  F   UNL A   1      38.154  33.461  29.001  1.00  0.00    -0.206 F 
ATOM     76  C   UNL A   1      36.034  33.200  28.023  1.00  0.00     0.040 A 
ATOM     77  C   UNL A   1      34.869  31.100  28.222  1.00  0.00     0.040 A 
ATOM     78  F   UNL A   1      35.847  29.328  29.410  1.00  0.00    -0.206 F 
ATOM     79  C   UNL A   1      34.915  32.412  27.753  1.00  0.00     0.006 A 
ENDBRANCH  51  72
BRANCH  63  80
ATOM     80  C   UNL A   1      39.116  32.195  35.832  1.00  0.00     0.057 A 
ATOM     81  C   UNL A   1      39.494  33.532  36.005  1.00  0.00     0.134 A 
ATOM     82  C   UNL A   1      38.184  31.661  36.731  1.00  0.00     0.134 A 
ATOM     83  F   UNL A   1      40.393  34.095  35.185  1.00  0.00    -0.206 F 
ATOM     84  C   UNL A   1      38.975  34.305  37.044  1.00  0.00     0.040 A 
ATOM     85  C   UNL A   1      37.645  32.430  37.762  1.00  0.00     0.040 A 
ATOM     86  F   UNL A   1      37.778  30.387  36.615  1.00  0.00    -0.206 F 
ATOM     87  C   UNL A   1      38.043  33.756  37.924  1.00  0.00     0.006 A 
ENDBRANCH  63  80
ENDBRANCH  37  38
ENDBRANCH  30  32
ENDBRANCH  29  30
ENDBRANCH  28  29
ENDBRANCH   1  28
TORSDOF 14
ENDMDL
MODEL 2
REMARK VINA RESULT:     -12.2      2.020      6.776
REMARK SMILES Cn1cc(S(=O)(=O)N2CCC(C(=O)OCCOC(=O)c3ccc(-c4c5nc(c(-c6c(F)cccc6F)c6ccc([nH]6)c(-c6c(F)cccc6F)c6nc(c(-c7c(F)cccc7F)c7ccc4[nH]7)C=C6)C=C5)cc3)CC2)cc1C(=O)N1CCCCC1
REMARK SMILES IDX 15 1 14 2 12 3 13 4 11 5 8 6 9 7 75 8 10 9 74 10 5 11 6 12
REMARK SMILES IDX 7 13 4 14 1 15 2 16 3 17 77 18 76 19 78 20 79 21 80 22 81 23
REMARK SMILES IDX 85 24 82 25 84 26 83 27 16 28 17 29 18 30 19 31 20 32 21 33
REMARK SMILES IDX 73 34 22 35 72 36 23 37 24 38 25 39 66 40 26 41 71 42 65 43
REMARK SMILES IDX 67 44 27 45 70 46 64 47 63 48 28 50 54 51 37 52 53 53 38 54
REMARK SMILES IDX 41 55 52 56 68 57 39 58 40 59 51 61 69 62 42 63 29 64 30 65
REMARK SMILES IDX 35 66 31 67 32 68 34 69 36 70 33 71 55 72 56 73 61 74 57 75
REMARK SMILES IDX 58 76 60 77 62 78 59 79 43 80 44 81 49 82 45 83 46 84 48 85
REMARK SMILES IDX 50 86 47 87
REMARK H PARENT 67 49 41 60
REMARK Flexibility Score: inf
ROOT
ATOM      1  C   UNL A   1      39.416  21.354  26.091  1.00  0.00     0.274 C 
ENDROOT
BRANCH   1   2
ATOM      2  O   UNL A   1      38.200  21.968  25.619  1.00  0.00    -0.462 OA
BRANCH   2   3
ATOM      3  C   UNL A   1      37.225  21.119  25.213  1.00  0.00     0.309 C 
ATOM      4  O   UNL A   1      37.405  19.958  24.863  1.00  0.00    -0.252 OA
BRANCH   3   5
ATOM      5  C   UNL A   1      35.843  21.734  25.235  1.00  0.00     0.102 C 
ATOM      6  N   UNL A   1      33.187  22.473  26.056  1.00  0.00    -0.198 NA
ATOM      7  C   UNL A   1      33.371  21.565  24.895  1.00  0.00     0.103 C 
ATOM      8  C   UNL A   1      34.338  23.339  26.400  1.00  0.00     0.103 C 
ATOM      9  C   UNL A   1      34.674  20.777  25.019  1.00  0.00     0.032 C 
ATOM     10  C   UNL A   1      35.614  22.514  26.525  1.00  0.00     0.032 C 
BRANCH   6  11
ATOM     11  S   UNL A   1      31.655  23.208  26.189  1.00  0.00     0.244 S 
ATOM     12  O   UNL A   1      31.403  23.497  27.585  1.00  0.00    -0.207 OA
ATOM     13  O   UNL A   1      30.717  22.448  25.391  1.00  0.00    -0.207 OA
BRANCH  11  14
ATOM     14  C   UNL A   1      31.626  24.777  25.445  1.00  0.00     0.101 A 
ATOM     15  C   UNL A   1      32.564  26.951  22.729  1.00  0.00     0.150 C 
ATOM     16  N   UNL A   1      32.005  26.377  23.933  1.00  0.00    -0.345 N 
ATOM     17  C   UNL A   1      31.951  25.017  24.128  1.00  0.00     0.107 A 
ATOM     18  C   UNL A   1      31.630  27.037  25.091  1.00  0.00     0.108 A 
ATOM     19  C   UNL A   1      31.369  26.037  26.031  1.00  0.00     0.055 A 
BRANCH  18  20
ATOM     20  C   UNL A   1      31.716  28.463  25.397  1.00  0.00     0.270 C 
ATOM     21  O   UNL A   1      31.028  29.265  24.766  1.00  0.00    -0.267 OA
ATOM     22  N   UNL A   1      32.527  28.898  26.443  1.00  0.00    -0.337 N 
ATOM     23  C   UNL A   1      32.119  30.088  27.187  1.00  0.00     0.120 C 
ATOM     24  C   UNL A   1      33.804  28.297  26.823  1.00  0.00     0.120 C 
ATOM     25  C   UNL A   1      33.216  31.141  27.250  1.00  0.00     0.022 C 
ATOM     26  C   UNL A   1      34.921  29.342  26.879  1.00  0.00     0.022 C 
ATOM     27  C   UNL A   1      34.523  30.534  27.751  1.00  0.00     0.004 C 
ENDBRANCH  18  20
ENDBRANCH  11  14
ENDBRANCH   6  11
ENDBRANCH   3   5
ENDBRANCH   2   3
ENDBRANCH   1   2
BRANCH   1  28
ATOM     28  C   UNL A   1      40.324  22.376  26.781  1.00  0.00     0.275 C 
BRANCH  28  29
ATOM     29  O   UNL A   1      39.922  23.731  26.494  1.00  0.00    -0.458 OA
BRANCH  29  30
ATOM     30  C   UNL A   1      40.923  24.642  26.511  1.00  0.00     0.338 C 
ATOM     31  O   UNL A   1      41.889  24.696  25.770  1.00  0.00    -0.246 OA
BRANCH  30  32
ATOM     32  C   UNL A   1      40.638  25.680  27.512  1.00  0.00     0.060 A 
ATOM     33  C   UNL A   1      41.543  26.738  27.636  1.00  0.00     0.016 A 
ATOM     34  C   UNL A   1      39.556  25.567  28.387  1.00  0.00     0.016 A 
ATOM     35  C   UNL A   1      41.371  27.695  28.631  1.00  0.00     0.010 A 
ATOM     36  C   UNL A   1      39.387  26.524  29.392  1.00  0.00     0.010 A 
ATOM     37  C   UNL A   1      40.298  27.588  29.525  1.00  0.00    -0.014 A 
BRANCH  37  38
ATOM     38  C   UNL A   1      40.164  28.564  30.631  1.00  0.00     0.031 A 
ATOM     39  C   UNL A   1      39.154  29.668  30.536  1.00  0.00     0.074 A 
ATOM     40  C   UNL A   1      40.939  28.446  31.725  1.00  0.00     0.049 A 
ATOM     41  N   UNL A   1      38.943  30.669  31.352  1.00  0.00    -0.248 NA
ATOM     42  C   UNL A   1      38.264  29.646  29.365  1.00  0.00     0.031 C 
ATOM     43  C   UNL A   1      41.923  27.390  31.953  1.00  0.00     0.029 A 
ATOM     44  N   UNL A   1      41.017  29.229  32.849  1.00  0.00    -0.354 N 
ATOM     45  C   UNL A   1      37.910  31.405  30.787  1.00  0.00     0.074 A 
ATOM     46  C   UNL A   1      37.544  30.742  29.553  1.00  0.00     0.031 C 
ATOM     47  C   UNL A   1      42.513  27.593  33.143  1.00  0.00     0.029 A 
ATOM     48  C   UNL A   1      41.974  28.813  33.741  1.00  0.00     0.049 A 
ATOM     49  H   UNL A   1      40.443  30.014  33.002  1.00  0.00     0.167 HD
ATOM     50  C   UNL A   1      37.321  32.530  31.257  1.00  0.00     0.037 A 
ATOM     51  C   UNL A   1      42.386  29.367  34.895  1.00  0.00     0.037 A 
ATOM     52  C   UNL A   1      37.672  33.176  32.494  1.00  0.00     0.049 A 
ATOM     53  C   UNL A   1      41.746  30.640  35.373  1.00  0.00     0.074 A 
ATOM     54  C   UNL A   1      37.124  34.316  33.059  1.00  0.00     0.029 A 
ATOM     55  N   UNL A   1      38.659  32.734  33.361  1.00  0.00    -0.354 N 
ATOM     56  N   UNL A   1      40.778  31.335  34.826  1.00  0.00    -0.248 NA
ATOM     57  C   UNL A   1      42.262  31.213  36.625  1.00  0.00     0.031 C 
ATOM     58  C   UNL A   1      37.802  34.579  34.255  1.00  0.00     0.029 A 
ATOM     59  C   UNL A   1      38.747  33.586  34.449  1.00  0.00     0.049 A 
ATOM     60  H   UNL A   1      39.217  31.935  33.222  1.00  0.00     0.167 HD
ATOM     61  C   UNL A   1      40.558  32.413  35.672  1.00  0.00     0.074 A 
ATOM     62  C   UNL A   1      41.483  32.275  36.777  1.00  0.00     0.031 C 
ATOM     63  C   UNL A   1      39.670  33.428  35.543  1.00  0.00     0.037 A 
BRANCH  50  64
ATOM     64  C   UNL A   1      36.249  33.149  30.415  1.00  0.00     0.057 A 
ATOM     65  C   UNL A   1      34.894  33.039  30.747  1.00  0.00     0.134 A 
ATOM     66  C   UNL A   1      36.582  33.898  29.279  1.00  0.00     0.134 A 
ATOM     67  F   UNL A   1      34.511  32.327  31.818  1.00  0.00    -0.206 F 
ATOM     68  C   UNL A   1      33.903  33.641  29.968  1.00  0.00     0.040 A 
ATOM     69  C   UNL A   1      35.601  34.519  28.503  1.00  0.00     0.040 A 
ATOM     70  F   UNL A   1      37.863  34.044  28.911  1.00  0.00    -0.206 F 
ATOM     71  C   UNL A   1      34.258  34.389  28.846  1.00  0.00     0.006 A 
ENDBRANCH  50  64
BRANCH  51  72
ATOM     72  C   UNL A   1      43.479  28.734  35.672  1.00  0.00     0.057 A 
ATOM     73  C   UNL A   1      43.213  27.729  36.608  1.00  0.00     0.134 A 
ATOM     74  C   UNL A   1      44.811  29.128  35.504  1.00  0.00     0.134 A 
ATOM     75  F   UNL A   1      41.954  27.328  36.831  1.00  0.00    -0.206 F 
ATOM     76  C   UNL A   1      44.235  27.145  37.360  1.00  0.00     0.040 A 
ATOM     77  C   UNL A   1      45.845  28.538  36.232  1.00  0.00     0.040 A 
ATOM     78  F   UNL A   1      45.127  30.088  34.622  1.00  0.00    -0.206 F 
ATOM     79  C   UNL A   1      45.557  27.547  37.168  1.00  0.00     0.006 A 
ENDBRANCH  51  72
BRANCH  63  80
ATOM     80  C   UNL A   1      39.640  34.451  36.638  1.00  0.00     0.057 A 
ATOM     81  C   UNL A   1      38.911  34.246  37.815  1.00  0.00     0.134 A 
ATOM     82  C   UNL A   1      40.377  35.636  36.526  1.00  0.00     0.134 A 
ATOM     83  F   UNL A   1      38.174  33.137  37.974  1.00  0.00    -0.206 F 
ATOM     84  C   UNL A   1      38.903  35.195  38.839  1.00  0.00     0.040 A 
ATOM     85  C   UNL A   1      40.392  36.583  37.550  1.00  0.00     0.040 A 
ATOM     86  F   UNL A   1      41.100  35.888  35.424  1.00  0.00    -0.206 F 
ATOM     87  C   UNL A   1      39.649  36.365  38.710  1.00  0.00     0.006 A 
ENDBRANCH  63  80
ENDBRANCH  37  38
ENDBRANCH  30  32
ENDBRANCH  29  30
ENDBRANCH  28  29
ENDBRANCH   1  28
TORSDOF 14
ENDMDL
MODEL 3
REMARK VINA RESULT:     -12.0      3.804      8.829
REMARK SMILES Cn1cc(S(=O)(=O)N2CCC(C(=O)OCCOC(=O)c3ccc(-c4c5nc(c(-c6c(F)cccc6F)c6ccc([nH]6)c(-c6c(F)cccc6F)c6nc(c(-c7c(F)cccc7F)c7ccc4[nH]7)C=C6)C=C5)cc3)CC2)cc1C(=O)N1CCCCC1
REMARK SMILES IDX 15 1 14 2 12 3 13 4 11 5 8 6 9 7 75 8 10 9 74 10 5 11 6 12
REMARK SMILES IDX 7 13 4 14 1 15 2 16 3 17 77 18 76 19 78 20 79 21 80 22 81 23
REMARK SMILES IDX 85 24 82 25 84 26 83 27 16 28 17 29 18 30 19 31 20 32 21 33
REMARK SMILES IDX 73 34 22 35 72 36 23 37 24 38 25 39 66 40 26 41 71 42 65 43
REMARK SMILES IDX 67 44 27 45 70 46 64 47 63 48 28 50 54 51 37 52 53 53 38 54
REMARK SMILES IDX 41 55 52 56 68 57 39 58 40 59 51 61 69 62 42 63 29 64 30 65
REMARK SMILES IDX 35 66 31 67 32 68 34 69 36 70 33 71 55 72 56 73 61 74 57 75
REMARK SMILES IDX 58 76 60 77 62 78 59 79 43 80 44 81 49 82 45 83 46 84 48 85
REMARK SMILES IDX 50 86 47 87
REMARK H PARENT 67 49 41 60
REMARK Flexibility Score: inf
ROOT
ATOM      1  C   UNL A   1      34.054  35.985  28.608  1.00  0.00     0.274 C 
ENDROOT
BRANCH   1   2
ATOM      2  O   UNL A   1      34.381  34.806  27.846  1.00  0.00    -0.462 OA
BRANCH   2   3
ATOM      3  C   UNL A   1      35.033  33.827  28.518  1.00  0.00     0.309 C 
ATOM      4  O   UNL A   1      36.006  34.000  29.244  1.00  0.00    -0.252 OA
BRANCH   3   5
ATOM      5  C   UNL A   1      34.441  32.451  28.303  1.00  0.00     0.102 C 
ATOM      6  N   UNL A   1      33.662  29.966  27.082  1.00  0.00    -0.198 NA
ATOM      7  C   UNL A   1      32.624  30.966  27.439  1.00  0.00     0.103 C 
ATOM      8  C   UNL A   1      34.946  30.063  27.815  1.00  0.00     0.103 C 
ATOM      9  C   UNL A   1      33.198  32.381  27.419  1.00  0.00     0.032 C 
ATOM     10  C   UNL A   1      35.490  31.485  27.761  1.00  0.00     0.032 C 
BRANCH   6  11
ATOM     11  S   UNL A   1      33.101  28.381  26.797  1.00  0.00     0.244 S 
ATOM     12  O   UNL A   1      32.476  27.890  28.007  1.00  0.00    -0.207 OA
ATOM     13  O   UNL A   1      34.152  27.641  26.132  1.00  0.00    -0.207 OA
BRANCH  11  14
ATOM     14  C   UNL A   1      31.806  28.355  25.640  1.00  0.00     0.101 A 
ATOM     15  C   UNL A   1      29.316  26.513  23.797  1.00  0.00     0.150 C 
ATOM     16  N   UNL A   1      30.159  27.540  24.369  1.00  0.00    -0.345 N 
ATOM     17  C   UNL A   1      30.922  27.308  25.489  1.00  0.00     0.107 A 
ATOM     18  C   UNL A   1      30.473  28.777  23.830  1.00  0.00     0.108 A 
ATOM     19  C   UNL A   1      31.486  29.298  24.638  1.00  0.00     0.055 A 
BRANCH  18  20
ATOM     20  C   UNL A   1      30.052  29.349  22.553  1.00  0.00     0.270 C 
ATOM     21  O   UNL A   1      30.514  28.904  21.503  1.00  0.00    -0.267 OA
ATOM     22  N   UNL A   1      29.083  30.350  22.530  1.00  0.00    -0.337 N 
ATOM     23  C   UNL A   1      28.188  30.421  21.378  1.00  0.00     0.120 C 
ATOM     24  C   UNL A   1      28.926  31.391  23.543  1.00  0.00     0.120 C 
ATOM     25  C   UNL A   1      28.170  31.802  20.737  1.00  0.00     0.022 C 
ATOM     26  C   UNL A   1      28.919  32.788  22.915  1.00  0.00     0.022 C 
ATOM     27  C   UNL A   1      27.899  32.881  21.781  1.00  0.00     0.004 C 
ENDBRANCH  18  20
ENDBRANCH  11  14
ENDBRANCH   6  11
ENDBRANCH   3   5
ENDBRANCH   2   3
ENDBRANCH   1   2
BRANCH   1  28
ATOM     28  C   UNL A   1      32.893  35.720  29.570  1.00  0.00     0.275 C 
BRANCH  28  29
ATOM     29  O   UNL A   1      33.069  36.407  30.825  1.00  0.00    -0.458 OA
BRANCH  29  30
ATOM     30  C   UNL A   1      32.708  35.700  31.922  1.00  0.00     0.338 C 
ATOM     31  O   UNL A   1      31.591  35.588  32.397  1.00  0.00    -0.246 OA
BRANCH  30  32
ATOM     32  C   UNL A   1      33.864  34.952  32.438  1.00  0.00     0.060 A 
ATOM     33  C   UNL A   1      35.125  35.548  32.346  1.00  0.00     0.016 A 
ATOM     34  C   UNL A   1      33.729  33.646  32.912  1.00  0.00     0.016 A 
ATOM     35  C   UNL A   1      36.262  34.844  32.732  1.00  0.00     0.010 A 
ATOM     36  C   UNL A   1      34.872  32.936  33.293  1.00  0.00     0.010 A 
ATOM     37  C   UNL A   1      36.145  33.528  33.197  1.00  0.00    -0.014 A 
BRANCH  37  38
ATOM     38  C   UNL A   1      37.364  32.757  33.530  1.00  0.00     0.031 A 
ATOM     39  C   UNL A   1      38.090  33.025  34.815  1.00  0.00     0.074 A 
ATOM     40  C   UNL A   1      37.807  31.806  32.687  1.00  0.00     0.049 A 
ATOM     41  N   UNL A   1      39.219  32.523  35.248  1.00  0.00    -0.248 NA
ATOM     42  C   UNL A   1      37.466  33.989  35.734  1.00  0.00     0.031 C 
ATOM     43  C   UNL A   1      37.162  31.423  31.432  1.00  0.00     0.029 A 
ATOM     44  N   UNL A   1      38.909  30.992  32.763  1.00  0.00    -0.354 N 
ATOM     45  C   UNL A   1      39.449  33.121  36.480  1.00  0.00     0.074 A 
ATOM     46  C   UNL A   1      38.349  34.032  36.721  1.00  0.00     0.031 C 
ATOM     47  C   UNL A   1      37.884  30.450  30.850  1.00  0.00     0.029 A 
ATOM     48  C   UNL A   1      39.059  30.171  31.674  1.00  0.00     0.049 A 
ATOM     49  H   UNL A   1      39.533  30.997  33.524  1.00  0.00     0.167 HD
ATOM     50  C   UNL A   1      40.483  32.926  37.332  1.00  0.00     0.037 A 
ATOM     51  C   UNL A   1      40.045  29.310  31.363  1.00  0.00     0.037 A 
ATOM     52  C   UNL A   1      41.564  32.005  37.100  1.00  0.00     0.049 A 
ATOM     53  C   UNL A   1      41.205  29.144  32.304  1.00  0.00     0.074 A 
ATOM     54  C   UNL A   1      42.654  31.731  37.911  1.00  0.00     0.029 A 
ATOM     55  N   UNL A   1      41.691  31.205  35.977  1.00  0.00    -0.354 N 
ATOM     56  N   UNL A   1      41.419  29.722  33.462  1.00  0.00    -0.248 NA
ATOM     57  C   UNL A   1      42.265  28.212  31.894  1.00  0.00     0.031 C 
ATOM     58  C   UNL A   1      43.454  30.784  37.262  1.00  0.00     0.029 A 
ATOM     59  C   UNL A   1      42.846  30.446  36.064  1.00  0.00     0.049 A 
ATOM     60  H   UNL A   1      41.054  31.179  35.226  1.00  0.00     0.167 HD
ATOM     61  C   UNL A   1      42.625  29.214  33.924  1.00  0.00     0.074 A 
ATOM     62  C   UNL A   1      43.090  28.269  32.930  1.00  0.00     0.031 C 
ATOM     63  C   UNL A   1      43.289  29.505  35.068  1.00  0.00     0.037 A 
BRANCH  50  64
ATOM     64  C   UNL A   1      40.506  33.744  38.586  1.00  0.00     0.057 A 
ATOM     65  C   UNL A   1      41.233  34.937  38.675  1.00  0.00     0.134 A 
ATOM     66  C   UNL A   1      39.759  33.353  39.704  1.00  0.00     0.134 A 
ATOM     67  F   UNL A   1      41.975  35.361  37.641  1.00  0.00    -0.206 F 
ATOM     68  C   UNL A   1      41.228  35.706  39.841  1.00  0.00     0.040 A 
ATOM     69  C   UNL A   1      39.732  34.122  40.868  1.00  0.00     0.040 A 
ATOM     70  F   UNL A   1      39.039  32.221  39.679  1.00  0.00    -0.206 F 
ATOM     71  C   UNL A   1      40.470  35.301  40.939  1.00  0.00     0.006 A 
ENDBRANCH  50  64
BRANCH  51  72
ATOM     72  C   UNL A   1      39.993  28.553  30.090  1.00  0.00     0.057 A 
ATOM     73  C   UNL A   1      40.627  29.030  28.937  1.00  0.00     0.134 A 
ATOM     74  C   UNL A   1      39.297  27.343  29.993  1.00  0.00     0.134 A 
ATOM     75  F   UNL A   1      41.288  30.196  28.963  1.00  0.00    -0.206 F 
ATOM     76  C   UNL A   1      40.562  28.334  27.729  1.00  0.00     0.040 A 
ATOM     77  C   UNL A   1      39.242  26.625  28.797  1.00  0.00     0.040 A 
ATOM     78  F   UNL A   1      38.668  26.836  31.062  1.00  0.00    -0.206 F 
ATOM     79  C   UNL A   1      39.871  27.124  27.658  1.00  0.00     0.006 A 
ENDBRANCH  51  72
BRANCH  63  80
ATOM     80  C   UNL A   1      44.573  28.775  35.317  1.00  0.00     0.057 A 
ATOM     81  C   UNL A   1      45.806  29.299  34.911  1.00  0.00     0.134 A 
ATOM     82  C   UNL A   1      44.578  27.552  35.999  1.00  0.00     0.134 A 
ATOM     83  F   UNL A   1      45.865  30.458  34.240  1.00  0.00    -0.206 F 
ATOM     84  C   UNL A   1      47.001  28.622  35.162  1.00  0.00     0.040 A 
ATOM     85  C   UNL A   1      45.767  26.876  36.273  1.00  0.00     0.040 A 
ATOM     86  F   UNL A   1      43.428  27.001  36.418  1.00  0.00    -0.206 F 
ATOM     87  C   UNL A   1      46.983  27.409  35.850  1.00  0.00     0.006 A 
ENDBRANCH  63  80
ENDBRANCH  37  38
ENDBRANCH  30  32
ENDBRANCH  29  30
ENDBRANCH  28  29
ENDBRANCH   1  28
TORSDOF 14
ENDMDL
