MODEL 1
REMARK VINA RESULT:     -13.4      0.000      0.000
REMARK SMILES C[C@H](C(=O)OCCOC(=O)c1ccc(-c2c3nc(c(-c4c(F)cccc4F)c4ccc([nH]4)c(-c4c(F)cccc4F)c4nc(c(-c5c(F)cccc5F)c5ccc2[nH]5)C=C4)C=C3)cc1)c1ccc2c3cc(Cl)ccc3n(C(=O)c3ccc(Cl)cc3)c2c1
REMARK SMILES IDX 6 1 5 2 3 3 4 4 2 5 1 6 65 7 66 8 87 9 67 10 86 11 68 12
REMARK SMILES IDX 76 13 69 14 75 15 70 16 74 17 71 18 73 19 72 20 77 21 78 22
REMARK SMILES IDX 79 23 80 24 85 25 81 26 84 27 82 28 83 29 7 30 8 31 9 32
REMARK SMILES IDX 10 33 11 34 12 35 64 36 13 37 63 38 14 39 15 40 16 41 57 42
REMARK SMILES IDX 17 43 62 44 56 45 58 46 18 47 61 48 55 49 54 50 19 52 45 53
REMARK SMILES IDX 28 54 44 55 29 56 32 57 43 58 59 59 30 60 31 61 42 63 60 64
REMARK SMILES IDX 33 65 20 66 21 67 26 68 22 69 23 70 25 71 27 72 24 73 46 74
REMARK SMILES IDX 47 75 52 76 48 77 49 78 51 79 53 80 50 81 34 82 35 83 40 84
REMARK SMILES IDX 36 85 37 86 39 87 41 88 38 89
REMARK H PARENT 58 51 32 62
REMARK Flexibility Score: inf
ROOT
ATOM      1  C   UNL A   1      34.570  20.643  25.664  1.00  0.00     0.274 C 
ENDROOT
BRANCH   1   2
ATOM      2  O   UNL A   1      33.553  20.552  24.648  1.00  0.00    -0.462 OA
BRANCH   2   3
ATOM      3  C   UNL A   1      32.576  21.500  24.697  1.00  0.00     0.313 C 
ATOM      4  O   UNL A   1      31.669  21.534  25.522  1.00  0.00    -0.252 OA
BRANCH   3   5
ATOM      5  C   UNL A   1      32.740  22.540  23.605  1.00  0.00     0.126 C 
ATOM      6  C   UNL A   1      31.460  22.636  22.752  1.00  0.00     0.025 C 
BRANCH   5   7
ATOM      7  C   UNL A   1      33.157  23.921  24.078  1.00  0.00    -0.032 A 
ATOM      8  C   UNL A   1      34.317  24.183  24.807  1.00  0.00     0.005 A 
ATOM      9  C   UNL A   1      32.258  24.968  23.833  1.00  0.00     0.032 A 
ATOM     10  C   UNL A   1      34.548  25.452  25.359  1.00  0.00     0.011 A 
ATOM     11  C   UNL A   1      32.425  26.189  24.498  1.00  0.00     0.057 A 
ATOM     12  C   UNL A   1      33.568  26.460  25.234  1.00  0.00     0.008 A 
ATOM     13  N   UNL A   1      31.557  27.278  24.586  1.00  0.00    -0.276 N 
ATOM     14  C   UNL A   1      33.431  27.781  25.742  1.00  0.00     0.009 A 
ATOM     15  C   UNL A   1      32.167  28.264  25.366  1.00  0.00     0.057 A 
ATOM     16  C   UNL A   1      34.269  28.575  26.553  1.00  0.00     0.031 A 
ATOM     17  C   UNL A   1      31.696  29.495  25.861  1.00  0.00     0.029 A 
ATOM     18  C   UNL A   1      33.815  29.815  26.998  1.00  0.00     0.041 A 
ATOM     19  C   UNL A   1      32.544  30.265  26.668  1.00  0.00     0.023 A 
ATOM     20  Cl  UNL A   1      34.830  30.776  28.003  1.00  0.00    -0.084 Cl
BRANCH  13  21
ATOM     21  C   UNL A   1      30.242  27.249  24.055  1.00  0.00     0.262 C 
ATOM     22  O   UNL A   1      29.578  26.244  24.316  1.00  0.00    -0.268 OA
BRANCH  21  23
ATOM     23  C   UNL A   1      29.587  28.250  23.172  1.00  0.00     0.040 A 
ATOM     24  C   UNL A   1      30.427  29.076  22.400  1.00  0.00     0.015 A 
ATOM     25  C   UNL A   1      28.212  28.499  23.177  1.00  0.00     0.015 A 
ATOM     26  C   UNL A   1      29.903  30.112  21.626  1.00  0.00     0.021 A 
ATOM     27  C   UNL A   1      27.684  29.522  22.376  1.00  0.00     0.021 A 
ATOM     28  C   UNL A   1      28.530  30.323  21.609  1.00  0.00     0.041 A 
ATOM     29  Cl  UNL A   1      27.877  31.596  20.656  1.00  0.00    -0.084 Cl
ENDBRANCH  21  23
ENDBRANCH  13  21
ENDBRANCH   5   7
ENDBRANCH   3   5
ENDBRANCH   2   3
ENDBRANCH   1   2
BRANCH   1  30
ATOM     30  C   UNL A   1      35.945  20.667  25.001  1.00  0.00     0.275 C 
BRANCH  30  31
ATOM     31  O   UNL A   1      36.740  21.700  25.611  1.00  0.00    -0.458 OA
BRANCH  31  32
ATOM     32  C   UNL A   1      38.061  21.435  25.724  1.00  0.00     0.338 C 
ATOM     33  O   UNL A   1      38.637  20.412  25.376  1.00  0.00    -0.246 OA
BRANCH  32  34
ATOM     34  C   UNL A   1      38.770  22.589  26.316  1.00  0.00     0.060 A 
ATOM     35  C   UNL A   1      38.311  23.896  26.131  1.00  0.00     0.016 A 
ATOM     36  C   UNL A   1      39.983  22.368  26.968  1.00  0.00     0.016 A 
ATOM     37  C   UNL A   1      39.107  24.978  26.501  1.00  0.00     0.010 A 
ATOM     38  C   UNL A   1      40.723  23.453  27.444  1.00  0.00     0.010 A 
ATOM     39  C   UNL A   1      40.310  24.773  27.190  1.00  0.00    -0.014 A 
BRANCH  39  40
ATOM     40  C   UNL A   1      41.146  25.918  27.647  1.00  0.00     0.031 A 
ATOM     41  C   UNL A   1      40.555  26.975  28.541  1.00  0.00     0.074 A 
ATOM     42  C   UNL A   1      42.424  26.038  27.234  1.00  0.00     0.049 A 
ATOM     43  N   UNL A   1      41.006  28.172  28.817  1.00  0.00    -0.248 NA
ATOM     44  C   UNL A   1      39.278  26.648  29.194  1.00  0.00     0.031 C 
ATOM     45  C   UNL A   1      43.148  25.072  26.406  1.00  0.00     0.029 A 
ATOM     46  N   UNL A   1      43.341  27.038  27.451  1.00  0.00    -0.354 N 
ATOM     47  C   UNL A   1      40.034  28.769  29.613  1.00  0.00     0.074 A 
ATOM     48  C   UNL A   1      38.977  27.795  29.788  1.00  0.00     0.031 C 
ATOM     49  C   UNL A   1      44.401  25.507  26.213  1.00  0.00     0.029 A 
ATOM     50  C   UNL A   1      44.540  26.827  26.815  1.00  0.00     0.049 A 
ATOM     51  H   UNL A   1      43.156  27.828  28.007  1.00  0.00     0.167 HD
ATOM     52  C   UNL A   1      40.024  30.018  30.134  1.00  0.00     0.037 A 
ATOM     53  C   UNL A   1      45.614  27.627  26.678  1.00  0.00     0.037 A 
ATOM     54  C   UNL A   1      41.110  30.956  30.013  1.00  0.00     0.049 A 
ATOM     55  C   UNL A   1      45.576  29.010  27.254  1.00  0.00     0.074 A 
ATOM     56  C   UNL A   1      41.205  32.240  30.524  1.00  0.00     0.029 A 
ATOM     57  N   UNL A   1      42.300  30.701  29.349  1.00  0.00    -0.354 N 
ATOM     58  N   UNL A   1      44.619  29.595  27.932  1.00  0.00    -0.248 NA
ATOM     59  C   UNL A   1      46.755  29.855  27.019  1.00  0.00     0.031 C 
ATOM     60  C   UNL A   1      42.445  32.769  30.150  1.00  0.00     0.029 A 
ATOM     61  C   UNL A   1      43.134  31.804  29.433  1.00  0.00     0.049 A 
ATOM     62  H   UNL A   1      42.520  29.861  28.886  1.00  0.00     0.167 HD
ATOM     63  C   UNL A   1      45.080  30.875  28.208  1.00  0.00     0.074 A 
ATOM     64  C   UNL A   1      46.410  30.974  27.642  1.00  0.00     0.031 C 
ATOM     65  C   UNL A   1      44.453  31.881  28.863  1.00  0.00     0.037 A 
BRANCH  52  66
ATOM     66  C   UNL A   1      38.785  30.461  30.854  1.00  0.00     0.057 A 
ATOM     67  C   UNL A   1      37.760  31.167  30.215  1.00  0.00     0.134 A 
ATOM     68  C   UNL A   1      38.601  30.136  32.206  1.00  0.00     0.134 A 
ATOM     69  F   UNL A   1      37.879  31.521  28.926  1.00  0.00    -0.206 F 
ATOM     70  C   UNL A   1      36.602  31.550  30.898  1.00  0.00     0.040 A 
ATOM     71  C   UNL A   1      37.441  30.493  32.893  1.00  0.00     0.040 A 
ATOM     72  F   UNL A   1      39.543  29.456  32.876  1.00  0.00    -0.206 F 
ATOM     73  C   UNL A   1      36.438  31.207  32.239  1.00  0.00     0.006 A 
ENDBRANCH  52  66
BRANCH  53  74
ATOM     74  C   UNL A   1      46.794  27.148  25.917  1.00  0.00     0.057 A 
ATOM     75  C   UNL A   1      46.961  27.476  24.568  1.00  0.00     0.134 A 
ATOM     76  C   UNL A   1      47.790  26.373  26.523  1.00  0.00     0.134 A 
ATOM     77  F   UNL A   1      46.028  28.196  23.929  1.00  0.00    -0.206 F 
ATOM     78  C   UNL A   1      48.079  27.053  23.848  1.00  0.00     0.040 A 
ATOM     79  C   UNL A   1      48.925  25.964  25.823  1.00  0.00     0.040 A 
ATOM     80  F   UNL A   1      47.688  26.027  27.815  1.00  0.00    -0.206 F 
ATOM     81  C   UNL A   1      49.069  26.301  24.478  1.00  0.00     0.006 A 
ENDBRANCH  53  74
BRANCH  65  82
ATOM     82  C   UNL A   1      45.214  33.161  29.021  1.00  0.00     0.057 A 
ATOM     83  C   UNL A   1      46.076  33.372  30.104  1.00  0.00     0.134 A 
ATOM     84  C   UNL A   1      45.096  34.183  28.072  1.00  0.00     0.134 A 
ATOM     85  F   UNL A   1      46.217  32.435  31.053  1.00  0.00    -0.206 F 
ATOM     86  C   UNL A   1      46.783  34.567  30.246  1.00  0.00     0.040 A 
ATOM     87  C   UNL A   1      45.812  35.373  28.194  1.00  0.00     0.040 A 
ATOM     88  F   UNL A   1      44.289  34.036  27.011  1.00  0.00    -0.206 F 
ATOM     89  C   UNL A   1      46.654  35.570  29.287  1.00  0.00     0.006 A 
ENDBRANCH  65  82
ENDBRANCH  39  40
ENDBRANCH  32  34
ENDBRANCH  31  32
ENDBRANCH  30  31
ENDBRANCH   1  30
TORSDOF 14
ENDMDL
MODEL 2
REMARK VINA RESULT:     -13.2      4.066      9.429
REMARK SMILES C[C@H](C(=O)OCCOC(=O)c1ccc(-c2c3nc(c(-c4c(F)cccc4F)c4ccc([nH]4)c(-c4c(F)cccc4F)c4nc(c(-c5c(F)cccc5F)c5ccc2[nH]5)C=C4)C=C3)cc1)c1ccc2c3cc(Cl)ccc3n(C(=O)c3ccc(Cl)cc3)c2c1
REMARK SMILES IDX 6 1 5 2 3 3 4 4 2 5 1 6 65 7 66 8 87 9 67 10 86 11 68 12
REMARK SMILES IDX 76 13 69 14 75 15 70 16 74 17 71 18 73 19 72 20 77 21 78 22
REMARK SMILES IDX 79 23 80 24 85 25 81 26 84 27 82 28 83 29 7 30 8 31 9 32
REMARK SMILES IDX 10 33 11 34 12 35 64 36 13 37 63 38 14 39 15 40 16 41 57 42
REMARK SMILES IDX 17 43 62 44 56 45 58 46 18 47 61 48 55 49 54 50 19 52 45 53
REMARK SMILES IDX 28 54 44 55 29 56 32 57 43 58 59 59 30 60 31 61 42 63 60 64
REMARK SMILES IDX 33 65 20 66 21 67 26 68 22 69 23 70 25 71 27 72 24 73 46 74
REMARK SMILES IDX 47 75 52 76 48 77 49 78 51 79 53 80 50 81 34 82 35 83 40 84
REMARK SMILES IDX 36 85 37 86 39 87 41 88 38 89
REMARK H PARENT 58 51 32 62
REMARK Flexibility Score: inf
ROOT
ATOM      1  C   UNL A   1      31.644  28.963  23.872  1.00  0.00     0.274 C 
ENDROOT
BRANCH   1   2
ATOM      2  O   UNL A   1      31.743  27.590  24.295  1.00  0.00    -0.462 OA
BRANCH   2   3
ATOM      3  C   UNL A   1      32.978  27.176  24.691  1.00  0.00     0.313 C 
ATOM      4  O   UNL A   1      34.034  27.503  24.161  1.00  0.00    -0.252 OA
BRANCH   3   5
ATOM      5  C   UNL A   1      32.909  26.256  25.896  1.00  0.00     0.126 C 
ATOM      6  C   UNL A   1      31.804  26.716  26.866  1.00  0.00     0.025 C 
BRANCH   5   7
ATOM      7  C   UNL A   1      32.746  24.780  25.580  1.00  0.00    -0.032 A 
ATOM      8  C   UNL A   1      31.655  24.008  25.980  1.00  0.00     0.005 A 
ATOM      9  C   UNL A   1      33.815  24.156  24.923  1.00  0.00     0.032 A 
ATOM     10  C   UNL A   1      31.656  22.617  25.805  1.00  0.00     0.011 A 
ATOM     11  C   UNL A   1      33.871  22.757  24.873  1.00  0.00     0.057 A 
ATOM     12  C   UNL A   1      32.799  21.978  25.277  1.00  0.00     0.008 A 
ATOM     13  N   UNL A   1      34.919  21.925  24.480  1.00  0.00    -0.276 N 
ATOM     14  C   UNL A   1      33.171  20.621  25.068  1.00  0.00     0.009 A 
ATOM     15  C   UNL A   1      34.498  20.598  24.610  1.00  0.00     0.057 A 
ATOM     16  C   UNL A   1      32.492  19.406  25.301  1.00  0.00     0.031 A 
ATOM     17  C   UNL A   1      35.184  19.377  24.463  1.00  0.00     0.029 A 
ATOM     18  C   UNL A   1      33.161  18.200  25.106  1.00  0.00     0.041 A 
ATOM     19  C   UNL A   1      34.490  18.184  24.705  1.00  0.00     0.023 A 
ATOM     20  Cl  UNL A   1      32.339  16.719  25.408  1.00  0.00    -0.084 Cl
BRANCH  13  21
ATOM     21  C   UNL A   1      36.204  22.423  24.148  1.00  0.00     0.262 C 
ATOM     22  O   UNL A   1      36.347  22.817  22.989  1.00  0.00    -0.268 OA
BRANCH  21  23
ATOM     23  C   UNL A   1      37.419  22.473  25.005  1.00  0.00     0.040 A 
ATOM     24  C   UNL A   1      38.154  21.281  25.151  1.00  0.00     0.015 A 
ATOM     25  C   UNL A   1      37.780  23.588  25.767  1.00  0.00     0.015 A 
ATOM     26  C   UNL A   1      39.245  21.209  26.019  1.00  0.00     0.021 A 
ATOM     27  C   UNL A   1      38.893  23.524  26.616  1.00  0.00     0.021 A 
ATOM     28  C   UNL A   1      39.616  22.337  26.740  1.00  0.00     0.041 A 
ATOM     29  Cl  UNL A   1      40.960  22.258  27.810  1.00  0.00    -0.084 Cl
ENDBRANCH  21  23
ENDBRANCH  13  21
ENDBRANCH   5   7
ENDBRANCH   3   5
ENDBRANCH   2   3
ENDBRANCH   1   2
BRANCH   1  30
ATOM     30  C   UNL A   1      31.398  29.849  25.090  1.00  0.00     0.275 C 
BRANCH  30  31
ATOM     31  O   UNL A   1      32.661  30.163  25.704  1.00  0.00    -0.458 OA
BRANCH  31  32
ATOM     32  C   UNL A   1      32.625  31.099  26.679  1.00  0.00     0.338 C 
ATOM     33  O   UNL A   1      31.738  31.920  26.875  1.00  0.00    -0.246 OA
BRANCH  32  34
ATOM     34  C   UNL A   1      33.821  30.992  27.541  1.00  0.00     0.060 A 
ATOM     35  C   UNL A   1      34.497  32.130  27.988  1.00  0.00     0.016 A 
ATOM     36  C   UNL A   1      34.345  29.727  27.807  1.00  0.00     0.016 A 
ATOM     37  C   UNL A   1      35.741  32.009  28.606  1.00  0.00     0.010 A 
ATOM     38  C   UNL A   1      35.533  29.606  28.532  1.00  0.00     0.010 A 
ATOM     39  C   UNL A   1      36.262  30.746  28.914  1.00  0.00    -0.014 A 
BRANCH  39  40
ATOM     40  C   UNL A   1      37.561  30.597  29.627  1.00  0.00     0.031 A 
ATOM     41  C   UNL A   1      38.699  29.857  28.975  1.00  0.00     0.074 A 
ATOM     42  C   UNL A   1      37.717  31.087  30.872  1.00  0.00     0.049 A 
ATOM     43  N   UNL A   1      39.790  29.376  29.514  1.00  0.00    -0.248 NA
ATOM     44  C   UNL A   1      38.584  29.610  27.529  1.00  0.00     0.031 C 
ATOM     45  C   UNL A   1      36.724  31.865  31.614  1.00  0.00     0.029 A 
ATOM     46  N   UNL A   1      38.776  30.992  31.742  1.00  0.00    -0.354 N 
ATOM     47  C   UNL A   1      40.453  28.704  28.493  1.00  0.00     0.074 A 
ATOM     48  C   UNL A   1      39.650  28.855  27.298  1.00  0.00     0.031 C 
ATOM     49  C   UNL A   1      37.229  32.204  32.808  1.00  0.00     0.029 A 
ATOM     50  C   UNL A   1      38.539  31.584  32.958  1.00  0.00     0.049 A 
ATOM     51  H   UNL A   1      39.623  30.544  31.515  1.00  0.00     0.167 HD
ATOM     52  C   UNL A   1      41.618  28.016  28.556  1.00  0.00     0.037 A 
ATOM     53  C   UNL A   1      39.265  31.582  34.093  1.00  0.00     0.037 A 
ATOM     54  C   UNL A   1      42.446  27.929  29.730  1.00  0.00     0.049 A 
ATOM     55  C   UNL A   1      40.545  30.804  34.142  1.00  0.00     0.074 A 
ATOM     56  C   UNL A   1      43.655  27.273  29.890  1.00  0.00     0.029 A 
ATOM     57  N   UNL A   1      42.158  28.535  30.943  1.00  0.00    -0.354 N 
ATOM     58  N   UNL A   1      41.121  30.103  33.197  1.00  0.00    -0.248 NA
ATOM     59  C   UNL A   1      41.260  30.792  35.426  1.00  0.00     0.031 C 
ATOM     60  C   UNL A   1      44.088  27.466  31.206  1.00  0.00     0.029 A 
ATOM     61  C   UNL A   1      43.163  28.267  31.857  1.00  0.00     0.049 A 
ATOM     62  H   UNL A   1      41.357  29.077  31.128  1.00  0.00     0.167 HD
ATOM     63  C   UNL A   1      42.267  29.568  33.768  1.00  0.00     0.074 A 
ATOM     64  C   UNL A   1      42.316  30.043  35.136  1.00  0.00     0.031 C 
ATOM     65  C   UNL A   1      43.192  28.750  33.212  1.00  0.00     0.037 A 
BRANCH  52  66
ATOM     66  C   UNL A   1      42.051  27.269  27.329  1.00  0.00     0.057 A 
ATOM     67  C   UNL A   1      42.741  27.888  26.281  1.00  0.00     0.134 A 
ATOM     68  C   UNL A   1      41.803  25.893  27.218  1.00  0.00     0.134 A 
ATOM     69  F   UNL A   1      42.996  29.204  26.318  1.00  0.00    -0.206 F 
ATOM     70  C   UNL A   1      43.156  27.169  25.156  1.00  0.00     0.040 A 
ATOM     71  C   UNL A   1      42.232  25.160  26.111  1.00  0.00     0.040 A 
ATOM     72  F   UNL A   1      41.152  25.238  28.190  1.00  0.00    -0.206 F 
ATOM     73  C   UNL A   1      42.908  25.799  25.073  1.00  0.00     0.006 A 
ENDBRANCH  52  66
BRANCH  53  74
ATOM     74  C   UNL A   1      38.762  32.304  35.287  1.00  0.00     0.057 A 
ATOM     75  C   UNL A   1      38.135  31.617  36.331  1.00  0.00     0.134 A 
ATOM     76  C   UNL A   1      38.917  33.689  35.424  1.00  0.00     0.134 A 
ATOM     77  F   UNL A   1      37.939  30.293  36.245  1.00  0.00    -0.206 F 
ATOM     78  C   UNL A   1      37.680  32.281  37.471  1.00  0.00     0.040 A 
ATOM     79  C   UNL A   1      38.489  34.362  36.568  1.00  0.00     0.040 A 
ATOM     80  F   UNL A   1      39.511  34.403  34.457  1.00  0.00    -0.206 F 
ATOM     81  C   UNL A   1      37.865  33.657  37.595  1.00  0.00     0.006 A 
ENDBRANCH  53  74
BRANCH  65  82
ATOM     82  C   UNL A   1      44.342  28.342  34.081  1.00  0.00     0.057 A 
ATOM     83  C   UNL A   1      44.306  27.167  34.842  1.00  0.00     0.134 A 
ATOM     84  C   UNL A   1      45.502  29.123  34.141  1.00  0.00     0.134 A 
ATOM     85  F   UNL A   1      43.214  26.387  34.836  1.00  0.00    -0.206 F 
ATOM     86  C   UNL A   1      45.379  26.792  35.649  1.00  0.00     0.040 A 
ATOM     87  C   UNL A   1      46.589  28.748  34.930  1.00  0.00     0.040 A 
ATOM     88  F   UNL A   1      45.597  30.257  33.431  1.00  0.00    -0.206 F 
ATOM     89  C   UNL A   1      46.527  27.582  35.691  1.00  0.00     0.006 A 
ENDBRANCH  65  82
ENDBRANCH  39  40
ENDBRANCH  32  34
ENDBRANCH  31  32
ENDBRANCH  30  31
ENDBRANCH   1  30
TORSDOF 14
ENDMDL
MODEL 3
REMARK VINA RESULT:     -13.2      4.024      9.136
REMARK SMILES C[C@H](C(=O)OCCOC(=O)c1ccc(-c2c3nc(c(-c4c(F)cccc4F)c4ccc([nH]4)c(-c4c(F)cccc4F)c4nc(c(-c5c(F)cccc5F)c5ccc2[nH]5)C=C4)C=C3)cc1)c1ccc2c3cc(Cl)ccc3n(C(=O)c3ccc(Cl)cc3)c2c1
REMARK SMILES IDX 6 1 5 2 3 3 4 4 2 5 1 6 65 7 66 8 87 9 67 10 86 11 68 12
REMARK SMILES IDX 76 13 69 14 75 15 70 16 74 17 71 18 73 19 72 20 77 21 78 22
REMARK SMILES IDX 79 23 80 24 85 25 81 26 84 27 82 28 83 29 7 30 8 31 9 32
REMARK SMILES IDX 10 33 11 34 12 35 64 36 13 37 63 38 14 39 15 40 16 41 57 42
REMARK SMILES IDX 17 43 62 44 56 45 58 46 18 47 61 48 55 49 54 50 19 52 45 53
REMARK SMILES IDX 28 54 44 55 29 56 32 57 43 58 59 59 30 60 31 61 42 63 60 64
REMARK SMILES IDX 33 65 20 66 21 67 26 68 22 69 23 70 25 71 27 72 24 73 46 74
REMARK SMILES IDX 47 75 52 76 48 77 49 78 51 79 53 80 50 81 34 82 35 83 40 84
REMARK SMILES IDX 36 85 37 86 39 87 41 88 38 89
REMARK H PARENT 58 51 32 62
REMARK Flexibility Score: inf
ROOT
ATOM      1  C   UNL A   1      30.983  29.641  24.100  1.00  0.00     0.274 C 
ENDROOT
BRANCH   1   2
ATOM      2  O   UNL A   1      30.236  28.455  23.771  1.00  0.00    -0.462 OA
BRANCH   2   3
ATOM      3  C   UNL A   1      30.971  27.383  23.363  1.00  0.00     0.313 C 
ATOM      4  O   UNL A   1      31.719  27.370  22.392  1.00  0.00    -0.252 OA
BRANCH   3   5
ATOM      5  C   UNL A   1      30.770  26.181  24.267  1.00  0.00     0.126 C 
ATOM      6  C   UNL A   1      29.903  25.116  23.568  1.00  0.00     0.025 C 
BRANCH   5   7
ATOM      7  C   UNL A   1      32.042  25.549  24.803  1.00  0.00    -0.032 A 
ATOM      8  C   UNL A   1      33.113  26.270  25.333  1.00  0.00     0.005 A 
ATOM      9  C   UNL A   1      32.162  24.160  24.661  1.00  0.00     0.032 A 
ATOM     10  C   UNL A   1      34.323  25.633  25.645  1.00  0.00     0.011 A 
ATOM     11  C   UNL A   1      33.411  23.554  24.846  1.00  0.00     0.057 A 
ATOM     12  C   UNL A   1      34.486  24.260  25.362  1.00  0.00     0.008 A 
ATOM     13  N   UNL A   1      33.818  22.253  24.550  1.00  0.00    -0.276 N 
ATOM     14  C   UNL A   1      35.576  23.350  25.449  1.00  0.00     0.009 A 
ATOM     15  C   UNL A   1      35.163  22.121  24.909  1.00  0.00     0.057 A 
ATOM     16  C   UNL A   1      36.908  23.507  25.887  1.00  0.00     0.031 A 
ATOM     17  C   UNL A   1      36.086  21.074  24.725  1.00  0.00     0.029 A 
ATOM     18  C   UNL A   1      37.804  22.450  25.747  1.00  0.00     0.041 A 
ATOM     19  C   UNL A   1      37.404  21.255  25.164  1.00  0.00     0.023 A 
ATOM     20  Cl  UNL A   1      39.433  22.647  26.265  1.00  0.00    -0.084 Cl
BRANCH  13  21
ATOM     21  C   UNL A   1      32.981  21.327  23.878  1.00  0.00     0.262 C 
ATOM     22  O   UNL A   1      32.224  21.802  23.029  1.00  0.00    -0.268 OA
BRANCH  21  23
ATOM     23  C   UNL A   1      32.859  19.863  24.111  1.00  0.00     0.040 A 
ATOM     24  C   UNL A   1      32.903  19.417  25.446  1.00  0.00     0.015 A 
ATOM     25  C   UNL A   1      32.843  18.917  23.082  1.00  0.00     0.015 A 
ATOM     26  C   UNL A   1      32.902  18.055  25.751  1.00  0.00     0.021 A 
ATOM     27  C   UNL A   1      32.813  17.550  23.390  1.00  0.00     0.021 A 
ATOM     28  C   UNL A   1      32.846  17.126  24.719  1.00  0.00     0.041 A 
ATOM     29  Cl  UNL A   1      32.842  15.447  25.085  1.00  0.00    -0.084 Cl
ENDBRANCH  21  23
ENDBRANCH  13  21
ENDBRANCH   5   7
ENDBRANCH   3   5
ENDBRANCH   2   3
ENDBRANCH   1   2
BRANCH   1  30
ATOM     30  C   UNL A   1      31.408  29.581  25.565  1.00  0.00     0.275 C 
BRANCH  30  31
ATOM     31  O   UNL A   1      32.748  30.092  25.686  1.00  0.00    -0.458 OA
BRANCH  31  32
ATOM     32  C   UNL A   1      32.956  30.963  26.698  1.00  0.00     0.338 C 
ATOM     33  O   UNL A   1      32.178  31.819  27.102  1.00  0.00    -0.246 OA
BRANCH  32  34
ATOM     34  C   UNL A   1      34.280  30.733  27.313  1.00  0.00     0.060 A 
ATOM     35  C   UNL A   1      34.718  29.446  27.635  1.00  0.00     0.016 A 
ATOM     36  C   UNL A   1      35.048  31.838  27.683  1.00  0.00     0.016 A 
ATOM     37  C   UNL A   1      35.861  29.267  28.412  1.00  0.00     0.010 A 
ATOM     38  C   UNL A   1      36.256  31.648  28.360  1.00  0.00     0.010 A 
ATOM     39  C   UNL A   1      36.663  30.363  28.760  1.00  0.00    -0.014 A 
BRANCH  39  40
ATOM     40  C   UNL A   1      37.920  30.187  29.539  1.00  0.00     0.031 A 
ATOM     41  C   UNL A   1      39.057  29.385  28.965  1.00  0.00     0.074 A 
ATOM     42  C   UNL A   1      38.035  30.710  30.776  1.00  0.00     0.049 A 
ATOM     43  N   UNL A   1      40.102  28.880  29.571  1.00  0.00    -0.248 NA
ATOM     44  C   UNL A   1      39.001  29.096  27.524  1.00  0.00     0.031 C 
ATOM     45  C   UNL A   1      37.039  31.548  31.445  1.00  0.00     0.029 A 
ATOM     46  N   UNL A   1      39.048  30.603  31.698  1.00  0.00    -0.354 N 
ATOM     47  C   UNL A   1      40.785  28.151  28.603  1.00  0.00     0.074 A 
ATOM     48  C   UNL A   1      40.046  28.295  27.368  1.00  0.00     0.031 C 
ATOM     49  C   UNL A   1      37.501  31.905  32.652  1.00  0.00     0.029 A 
ATOM     50  C   UNL A   1      38.777  31.241  32.884  1.00  0.00     0.049 A 
ATOM     51  H   UNL A   1      39.885  30.115  31.526  1.00  0.00     0.167 HD
ATOM     52  C   UNL A   1      41.917  27.422  28.743  1.00  0.00     0.037 A 
ATOM     53  C   UNL A   1      39.447  31.248  34.051  1.00  0.00     0.037 A 
ATOM     54  C   UNL A   1      42.684  27.340  29.959  1.00  0.00     0.049 A 
ATOM     55  C   UNL A   1      40.692  30.423  34.186  1.00  0.00     0.074 A 
ATOM     56  C   UNL A   1      43.859  26.645  30.196  1.00  0.00     0.029 A 
ATOM     57  N   UNL A   1      42.364  27.996  31.138  1.00  0.00    -0.354 N 
ATOM     58  N   UNL A   1      41.284  29.672  33.291  1.00  0.00    -0.248 NA
ATOM     59  C   UNL A   1      41.344  30.425  35.503  1.00  0.00     0.031 C 
ATOM     60  C   UNL A   1      44.236  26.863  31.525  1.00  0.00     0.029 A 
ATOM     61  C   UNL A   1      43.314  27.718  32.107  1.00  0.00     0.049 A 
ATOM     62  H   UNL A   1      41.577  28.573  31.267  1.00  0.00     0.167 HD
ATOM     63  C   UNL A   1      42.380  29.112  33.933  1.00  0.00     0.074 A 
ATOM     64  C   UNL A   1      42.382  29.627  35.287  1.00  0.00     0.031 C 
ATOM     65  C   UNL A   1      43.297  28.242  33.447  1.00  0.00     0.037 A 
BRANCH  52  66
ATOM     66  C   UNL A   1      42.378  26.621  27.562  1.00  0.00     0.057 A 
ATOM     67  C   UNL A   1      41.985  25.293  27.358  1.00  0.00     0.134 A 
ATOM     68  C   UNL A   1      43.200  27.209  26.589  1.00  0.00     0.134 A 
ATOM     69  F   UNL A   1      41.211  24.668  28.257  1.00  0.00    -0.206 F 
ATOM     70  C   UNL A   1      42.407  24.572  26.238  1.00  0.00     0.040 A 
ATOM     71  C   UNL A   1      43.610  26.506  25.456  1.00  0.00     0.040 A 
ATOM     72  F   UNL A   1      43.608  28.479  26.722  1.00  0.00    -0.206 F 
ATOM     73  C   UNL A   1      43.216  25.181  25.280  1.00  0.00     0.006 A 
ENDBRANCH  52  66
BRANCH  53  74
ATOM     74  C   UNL A   1      38.917  32.025  35.198  1.00  0.00     0.057 A 
ATOM     75  C   UNL A   1      38.214  31.395  36.230  1.00  0.00     0.134 A 
ATOM     76  C   UNL A   1      39.120  33.407  35.301  1.00  0.00     0.134 A 
ATOM     77  F   UNL A   1      37.969  30.078  36.174  1.00  0.00    -0.206 F 
ATOM     78  C   UNL A   1      37.732  32.112  37.326  1.00  0.00     0.040 A 
ATOM     79  C   UNL A   1      38.666  34.131  36.403  1.00  0.00     0.040 A 
ATOM     80  F   UNL A   1      39.789  34.067  34.344  1.00  0.00    -0.206 F 
ATOM     81  C   UNL A   1      37.966  33.483  37.419  1.00  0.00     0.006 A 
ENDBRANCH  53  74
BRANCH  65  82
ATOM     82  C   UNL A   1      44.388  27.818  34.382  1.00  0.00     0.057 A 
ATOM     83  C   UNL A   1      45.572  28.553  34.507  1.00  0.00     0.134 A 
ATOM     84  C   UNL A   1      44.242  26.674  35.176  1.00  0.00     0.134 A 
ATOM     85  F   UNL A   1      45.774  29.650  33.760  1.00  0.00    -0.206 F 
ATOM     86  C   UNL A   1      46.585  28.154  35.379  1.00  0.00     0.040 A 
ATOM     87  C   UNL A   1      45.240  26.276  36.065  1.00  0.00     0.040 A 
ATOM     88  F   UNL A   1      43.128  25.932  35.102  1.00  0.00    -0.206 F 
ATOM     89  C   UNL A   1      46.418  27.014  36.164  1.00  0.00     0.006 A 
ENDBRANCH  65  82
ENDBRANCH  39  40
ENDBRANCH  32  34
ENDBRANCH  31  32
ENDBRANCH  30  31
ENDBRANCH   1  30
TORSDOF 14
ENDMDL
