MODEL 1
REMARK VINA RESULT:     -11.7      0.000      0.000
REMARK SMILES O=C(OCCOC(=O)c1cc(-c2cc3ccccc3s2)ccn1)c1ccc(-c2c3nc(c(-c4c(F)cccc4F)c4ccc([nH]4)c(-c4c(F)cccc4F)c4nc(c(-c5c(F)cccc5F)c5ccc2[nH]5)C=C4)C=C3)cc1
REMARK SMILES IDX 4 1 3 2 2 3 1 4 24 5 25 6 77 7 26 8 76 9 27 10 28 11 29 12
REMARK SMILES IDX 70 13 30 14 75 15 69 16 71 17 31 18 74 19 68 20 67 21 32 23
REMARK SMILES IDX 58 24 41 25 57 26 42 27 45 28 56 29 72 30 43 31 44 32 55 34
REMARK SMILES IDX 73 35 46 36 33 37 34 38 39 39 35 40 36 41 38 42 40 43 37 44
REMARK SMILES IDX 59 45 60 46 65 47 61 48 62 49 64 50 66 51 63 52 47 53 48 54
REMARK SMILES IDX 53 55 49 56 50 57 52 58 54 59 51 60 5 61 6 62 7 63 8 64 9 65
REMARK SMILES IDX 10 66 23 67 11 68 22 69 21 70 12 71 13 72 20 73 14 74 19 75
REMARK SMILES IDX 15 76 18 77 16 78 17 79
REMARK H PARENT 71 22 45 33
REMARK Flexibility Score: inf
ROOT
ATOM      1  C   UNL A   1      34.123  33.466  33.131  1.00  0.00     0.275 C 
ENDROOT
BRANCH   1   2
ATOM      2  O   UNL A   1      34.957  32.318  32.895  1.00  0.00    -0.458 OA
BRANCH   2   3
ATOM      3  C   UNL A   1      36.211  32.111  33.369  1.00  0.00     0.338 C 
ATOM      4  O   UNL A   1      36.556  32.598  34.444  1.00  0.00    -0.246 OA
BRANCH   3   5
ATOM      5  C   UNL A   1      37.259  31.463  32.531  1.00  0.00     0.060 A 
ATOM      6  C   UNL A   1      38.343  30.739  33.028  1.00  0.00     0.016 A 
ATOM      7  C   UNL A   1      37.170  31.663  31.141  1.00  0.00     0.016 A 
ATOM      8  C   UNL A   1      39.269  30.159  32.162  1.00  0.00     0.010 A 
ATOM      9  C   UNL A   1      38.095  31.083  30.267  1.00  0.00     0.010 A 
ATOM     10  C   UNL A   1      39.154  30.327  30.779  1.00  0.00    -0.014 A 
BRANCH  10  11
ATOM     11  C   UNL A   1      40.257  29.848  29.915  1.00  0.00     0.031 A 
ATOM     12  C   UNL A   1      41.434  30.757  29.711  1.00  0.00     0.074 A 
ATOM     13  C   UNL A   1      40.276  28.575  29.479  1.00  0.00     0.049 A 
ATOM     14  N   UNL A   1      42.578  30.509  29.131  1.00  0.00    -0.248 NA
ATOM     15  C   UNL A   1      41.332  32.108  30.291  1.00  0.00     0.031 C 
ATOM     16  C   UNL A   1      39.262  27.569  29.795  1.00  0.00     0.029 A 
ATOM     17  N   UNL A   1      41.196  27.890  28.726  1.00  0.00    -0.354 N 
ATOM     18  C   UNL A   1      43.352  31.643  29.338  1.00  0.00     0.074 A 
ATOM     19  C   UNL A   1      42.526  32.611  30.020  1.00  0.00     0.031 C 
ATOM     20  C   UNL A   1      39.638  26.388  29.276  1.00  0.00     0.029 A 
ATOM     21  C   UNL A   1      40.878  26.562  28.530  1.00  0.00     0.049 A 
ATOM     22  H   UNL A   1      42.008  28.308  28.360  1.00  0.00     0.167 HD
ATOM     23  C   UNL A   1      44.656  31.837  29.030  1.00  0.00     0.037 A 
ATOM     24  C   UNL A   1      41.525  25.617  27.813  1.00  0.00     0.037 A 
ATOM     25  C   UNL A   1      45.454  30.875  28.324  1.00  0.00     0.049 A 
ATOM     26  C   UNL A   1      42.800  26.052  27.122  1.00  0.00     0.074 A 
ATOM     27  C   UNL A   1      46.777  30.963  27.931  1.00  0.00     0.029 A 
ATOM     28  N   UNL A   1      44.983  29.646  27.884  1.00  0.00    -0.354 N 
ATOM     29  N   UNL A   1      43.546  27.109  27.350  1.00  0.00    -0.248 NA
ATOM     30  C   UNL A   1      43.315  25.178  26.058  1.00  0.00     0.031 C 
ATOM     31  C   UNL A   1      47.087  29.808  27.203  1.00  0.00     0.029 A 
ATOM     32  C   UNL A   1      45.970  28.986  27.179  1.00  0.00     0.049 A 
ATOM     33  H   UNL A   1      44.077  29.298  28.051  1.00  0.00     0.167 HD
ATOM     34  C   UNL A   1      44.684  26.946  26.569  1.00  0.00     0.074 A 
ATOM     35  C   UNL A   1      44.495  25.729  25.808  1.00  0.00     0.031 C 
ATOM     36  C   UNL A   1      45.800  27.715  26.520  1.00  0.00     0.037 A 
BRANCH  23  37
ATOM     37  C   UNL A   1      45.264  33.141  29.448  1.00  0.00     0.057 A 
ATOM     38  C   UNL A   1      45.187  34.280  28.634  1.00  0.00     0.134 A 
ATOM     39  C   UNL A   1      45.961  33.254  30.655  1.00  0.00     0.134 A 
ATOM     40  F   UNL A   1      44.551  34.230  27.453  1.00  0.00    -0.206 F 
ATOM     41  C   UNL A   1      45.807  35.478  28.994  1.00  0.00     0.040 A 
ATOM     42  C   UNL A   1      46.569  34.452  31.035  1.00  0.00     0.040 A 
ATOM     43  F   UNL A   1      46.076  32.200  31.476  1.00  0.00    -0.206 F 
ATOM     44  C   UNL A   1      46.500  35.566  30.199  1.00  0.00     0.006 A 
ENDBRANCH  23  37
BRANCH  24  45
ATOM     45  C   UNL A   1      41.024  24.211  27.652  1.00  0.00     0.057 A 
ATOM     46  C   UNL A   1      41.635  23.126  28.294  1.00  0.00     0.134 A 
ATOM     47  C   UNL A   1      39.989  23.885  26.768  1.00  0.00     0.134 A 
ATOM     48  F   UNL A   1      42.627  23.332  29.173  1.00  0.00    -0.206 F 
ATOM     49  C   UNL A   1      41.288  21.798  28.010  1.00  0.00     0.040 A 
ATOM     50  C   UNL A   1      39.611  22.569  26.488  1.00  0.00     0.040 A 
ATOM     51  F   UNL A   1      39.305  24.850  26.157  1.00  0.00    -0.206 F 
ATOM     52  C   UNL A   1      40.277  21.516  27.096  1.00  0.00     0.006 A 
ENDBRANCH  24  45
BRANCH  36  53
ATOM     53  C   UNL A   1      46.981  27.158  25.781  1.00  0.00     0.057 A 
ATOM     54  C   UNL A   1      47.231  27.433  24.434  1.00  0.00     0.134 A 
ATOM     55  C   UNL A   1      47.905  26.355  26.464  1.00  0.00     0.134 A 
ATOM     56  F   UNL A   1      46.374  28.179  23.721  1.00  0.00    -0.206 F 
ATOM     57  C   UNL A   1      48.350  26.908  23.783  1.00  0.00     0.040 A 
ATOM     58  C   UNL A   1      49.041  25.850  25.834  1.00  0.00     0.040 A 
ATOM     59  F   UNL A   1      47.727  26.064  27.762  1.00  0.00    -0.206 F 
ATOM     60  C   UNL A   1      49.262  26.121  24.486  1.00  0.00     0.006 A 
ENDBRANCH  36  53
ENDBRANCH  10  11
ENDBRANCH   3   5
ENDBRANCH   2   3
ENDBRANCH   1   2
BRANCH   1  61
ATOM     61  C   UNL A   1      34.277  34.585  32.097  1.00  0.00     0.275 C 
BRANCH  61  62
ATOM     62  O   UNL A   1      33.211  34.602  31.133  1.00  0.00    -0.457 OA
BRANCH  62  63
ATOM     63  C   UNL A   1      33.563  35.082  29.909  1.00  0.00     0.357 C 
ATOM     64  O   UNL A   1      33.397  36.221  29.501  1.00  0.00    -0.244 OA
BRANCH  63  65
ATOM     65  C   UNL A   1      34.289  34.029  29.153  1.00  0.00     0.148 A 
ATOM     66  C   UNL A   1      33.650  32.871  28.729  1.00  0.00     0.045 A 
ATOM     67  N   UNL A   1      35.593  34.313  28.893  1.00  0.00    -0.249 NA
ATOM     68  C   UNL A   1      34.400  31.945  27.994  1.00  0.00    -0.004 A 
ATOM     69  C   UNL A   1      36.293  33.397  28.203  1.00  0.00     0.112 A 
ATOM     70  C   UNL A   1      35.752  32.209  27.749  1.00  0.00     0.030 A 
BRANCH  68  71
ATOM     71  C   UNL A   1      33.820  30.725  27.429  1.00  0.00     0.036 A 
ATOM     72  C   UNL A   1      34.416  29.493  27.241  1.00  0.00     0.029 A 
ATOM     73  S   UNL A   1      32.242  30.754  26.775  1.00  0.00    -0.135 S 
ATOM     74  C   UNL A   1      33.589  28.565  26.522  1.00  0.00    -0.007 A 
ATOM     75  C   UNL A   1      32.360  29.139  26.188  1.00  0.00     0.035 A 
ATOM     76  C   UNL A   1      33.827  27.220  26.145  1.00  0.00     0.009 A 
ATOM     77  C   UNL A   1      31.378  28.417  25.480  1.00  0.00     0.019 A 
ATOM     78  C   UNL A   1      32.848  26.494  25.458  1.00  0.00     0.001 A 
ATOM     79  C   UNL A   1      31.637  27.089  25.126  1.00  0.00     0.001 A 
ENDBRANCH  68  71
ENDBRANCH  63  65
ENDBRANCH  62  63
ENDBRANCH  61  62
ENDBRANCH   1  61
TORSDOF 12
ENDMDL
MODEL 2
REMARK VINA RESULT:     -11.7      5.467     10.841
REMARK SMILES O=C(OCCOC(=O)c1cc(-c2cc3ccccc3s2)ccn1)c1ccc(-c2c3nc(c(-c4c(F)cccc4F)c4ccc([nH]4)c(-c4c(F)cccc4F)c4nc(c(-c5c(F)cccc5F)c5ccc2[nH]5)C=C4)C=C3)cc1
REMARK SMILES IDX 4 1 3 2 2 3 1 4 24 5 25 6 77 7 26 8 76 9 27 10 28 11 29 12
REMARK SMILES IDX 70 13 30 14 75 15 69 16 71 17 31 18 74 19 68 20 67 21 32 23
REMARK SMILES IDX 58 24 41 25 57 26 42 27 45 28 56 29 72 30 43 31 44 32 55 34
REMARK SMILES IDX 73 35 46 36 33 37 34 38 39 39 35 40 36 41 38 42 40 43 37 44
REMARK SMILES IDX 59 45 60 46 65 47 61 48 62 49 64 50 66 51 63 52 47 53 48 54
REMARK SMILES IDX 53 55 49 56 50 57 52 58 54 59 51 60 5 61 6 62 7 63 8 64 9 65
REMARK SMILES IDX 10 66 23 67 11 68 22 69 21 70 12 71 13 72 20 73 14 74 19 75
REMARK SMILES IDX 15 76 18 77 16 78 17 79
REMARK H PARENT 71 22 45 33
REMARK Flexibility Score: inf
ROOT
ATOM      1  C   UNL A   1      43.717  22.334  25.051  1.00  0.00     0.275 C 
ENDROOT
BRANCH   1   2
ATOM      2  O   UNL A   1      43.197  23.675  25.003  1.00  0.00    -0.458 OA
BRANCH   2   3
ATOM      3  C   UNL A   1      43.862  24.818  25.306  1.00  0.00     0.338 C 
ATOM      4  O   UNL A   1      44.974  25.033  24.827  1.00  0.00    -0.246 OA
BRANCH   3   5
ATOM      5  C   UNL A   1      43.367  25.747  26.361  1.00  0.00     0.060 A 
ATOM      6  C   UNL A   1      43.785  27.068  26.520  1.00  0.00     0.016 A 
ATOM      7  C   UNL A   1      42.462  25.214  27.297  1.00  0.00     0.016 A 
ATOM      8  C   UNL A   1      43.255  27.864  27.534  1.00  0.00     0.010 A 
ATOM      9  C   UNL A   1      41.926  26.008  28.316  1.00  0.00     0.010 A 
ATOM     10  C   UNL A   1      42.326  27.342  28.439  1.00  0.00    -0.014 A 
BRANCH  10  11
ATOM     11  C   UNL A   1      41.931  28.169  29.602  1.00  0.00     0.031 A 
ATOM     12  C   UNL A   1      40.746  29.078  29.449  1.00  0.00     0.074 A 
ATOM     13  C   UNL A   1      42.509  27.974  30.802  1.00  0.00     0.049 A 
ATOM     14  N   UNL A   1      40.120  29.778  30.356  1.00  0.00    -0.248 NA
ATOM     15  C   UNL A   1      40.150  29.162  28.104  1.00  0.00     0.031 C 
ATOM     16  C   UNL A   1      43.538  26.973  31.081  1.00  0.00     0.029 A 
ATOM     17  N   UNL A   1      42.285  28.563  32.021  1.00  0.00    -0.354 N 
ATOM     18  C   UNL A   1      39.021  30.326  29.708  1.00  0.00     0.074 A 
ATOM     19  C   UNL A   1      39.109  29.950  28.316  1.00  0.00     0.031 C 
ATOM     20  C   UNL A   1      43.824  26.989  32.394  1.00  0.00     0.029 A 
ATOM     21  C   UNL A   1      43.057  28.046  33.041  1.00  0.00     0.049 A 
ATOM     22  H   UNL A   1      41.632  29.288  32.155  1.00  0.00     0.167 HD
ATOM     23  C   UNL A   1      38.001  31.038  30.241  1.00  0.00     0.037 A 
ATOM     24  C   UNL A   1      43.127  28.413  34.340  1.00  0.00     0.037 A 
ATOM     25  C   UNL A   1      37.945  31.429  31.621  1.00  0.00     0.049 A 
ATOM     26  C   UNL A   1      42.224  29.549  34.768  1.00  0.00     0.074 A 
ATOM     27  C   UNL A   1      36.980  32.171  32.277  1.00  0.00     0.029 A 
ATOM     28  N   UNL A   1      38.922  31.121  32.557  1.00  0.00    -0.354 N 
ATOM     29  N   UNL A   1      41.165  30.037  34.166  1.00  0.00    -0.248 NA
ATOM     30  C   UNL A   1      42.537  30.205  36.046  1.00  0.00     0.031 C 
ATOM     31  C   UNL A   1      37.405  32.358  33.598  1.00  0.00     0.029 A 
ATOM     32  C   UNL A   1      38.612  31.699  33.773  1.00  0.00     0.049 A 
ATOM     33  H   UNL A   1      39.720  30.570  32.379  1.00  0.00     0.167 HD
ATOM     34  C   UNL A   1      40.604  30.945  35.057  1.00  0.00     0.074 A 
ATOM     35  C   UNL A   1      41.483  30.993  36.207  1.00  0.00     0.031 C 
ATOM     36  C   UNL A   1      39.446  31.643  34.947  1.00  0.00     0.037 A 
BRANCH  23  37
ATOM     37  C   UNL A   1      36.895  31.437  29.312  1.00  0.00     0.057 A 
ATOM     38  C   UNL A   1      36.822  32.728  28.771  1.00  0.00     0.134 A 
ATOM     39  C   UNL A   1      35.875  30.538  28.983  1.00  0.00     0.134 A 
ATOM     40  F   UNL A   1      37.758  33.643  29.067  1.00  0.00    -0.206 F 
ATOM     41  C   UNL A   1      35.758  33.119  27.956  1.00  0.00     0.040 A 
ATOM     42  C   UNL A   1      34.816  30.911  28.153  1.00  0.00     0.040 A 
ATOM     43  F   UNL A   1      35.884  29.289  29.472  1.00  0.00    -0.206 F 
ATOM     44  C   UNL A   1      34.751  32.207  27.644  1.00  0.00     0.006 A 
ENDBRANCH  23  37
BRANCH  24  45
ATOM     45  C   UNL A   1      44.062  27.780  35.329  1.00  0.00     0.057 A 
ATOM     46  C   UNL A   1      43.648  26.760  36.196  1.00  0.00     0.134 A 
ATOM     47  C   UNL A   1      45.369  28.242  35.522  1.00  0.00     0.134 A 
ATOM     48  F   UNL A   1      42.418  26.236  36.084  1.00  0.00    -0.206 F 
ATOM     49  C   UNL A   1      44.458  26.290  37.239  1.00  0.00     0.040 A 
ATOM     50  C   UNL A   1      46.203  27.772  36.540  1.00  0.00     0.040 A 
ATOM     51  F   UNL A   1      45.876  29.166  34.708  1.00  0.00    -0.206 F 
ATOM     52  C   UNL A   1      45.739  26.805  37.419  1.00  0.00     0.006 A 
ENDBRANCH  24  45
BRANCH  36  53
ATOM     53  C   UNL A   1      38.957  32.350  36.176  1.00  0.00     0.057 A 
ATOM     54  C   UNL A   1      38.158  31.729  37.140  1.00  0.00     0.134 A 
ATOM     55  C   UNL A   1      39.337  33.680  36.403  1.00  0.00     0.134 A 
ATOM     56  F   UNL A   1      37.746  30.464  36.970  1.00  0.00    -0.206 F 
ATOM     57  C   UNL A   1      37.734  32.415  38.280  1.00  0.00     0.040 A 
ATOM     58  C   UNL A   1      38.945  34.367  37.551  1.00  0.00     0.040 A 
ATOM     59  F   UNL A   1      40.112  34.329  35.520  1.00  0.00    -0.206 F 
ATOM     60  C   UNL A   1      38.134  33.735  38.491  1.00  0.00     0.006 A 
ENDBRANCH  36  53
ENDBRANCH  10  11
ENDBRANCH   3   5
ENDBRANCH   2   3
ENDBRANCH   1   2
BRANCH   1  61
ATOM     61  C   UNL A   1      43.081  21.446  26.124  1.00  0.00     0.275 C 
BRANCH  61  62
ATOM     62  O   UNL A   1      41.803  20.922  25.726  1.00  0.00    -0.457 OA
BRANCH  62  63
ATOM     63  C   UNL A   1      40.888  20.841  26.732  1.00  0.00     0.357 C 
ATOM     64  O   UNL A   1      40.951  20.117  27.713  1.00  0.00    -0.244 OA
BRANCH  63  65
ATOM     65  C   UNL A   1      39.823  21.854  26.517  1.00  0.00     0.148 A 
ATOM     66  C   UNL A   1      38.710  21.578  25.732  1.00  0.00     0.045 A 
ATOM     67  N   UNL A   1      40.017  23.030  27.169  1.00  0.00    -0.249 NA
ATOM     68  C   UNL A   1      37.737  22.577  25.608  1.00  0.00    -0.004 A 
ATOM     69  C   UNL A   1      39.076  23.978  27.015  1.00  0.00     0.112 A 
ATOM     70  C   UNL A   1      37.941  23.805  26.246  1.00  0.00     0.030 A 
BRANCH  68  71
ATOM     71  C   UNL A   1      36.487  22.380  24.871  1.00  0.00     0.036 A 
ATOM     72  C   UNL A   1      35.941  23.162  23.873  1.00  0.00     0.029 A 
ATOM     73  S   UNL A   1      35.430  21.112  25.310  1.00  0.00    -0.135 S 
ATOM     74  C   UNL A   1      34.625  22.746  23.478  1.00  0.00    -0.007 A 
ATOM     75  C   UNL A   1      34.211  21.628  24.207  1.00  0.00     0.035 A 
ATOM     76  C   UNL A   1      33.748  23.269  22.496  1.00  0.00     0.009 A 
ATOM     77  C   UNL A   1      32.951  21.034  23.993  1.00  0.00     0.019 A 
ATOM     78  C   UNL A   1      32.503  22.672  22.268  1.00  0.00     0.001 A 
ATOM     79  C   UNL A   1      32.108  21.568  23.013  1.00  0.00     0.001 A 
ENDBRANCH  68  71
ENDBRANCH  63  65
ENDBRANCH  62  63
ENDBRANCH  61  62
ENDBRANCH   1  61
TORSDOF 12
ENDMDL
MODEL 3
REMARK VINA RESULT:     -11.7      3.497      5.695
REMARK SMILES O=C(OCCOC(=O)c1cc(-c2cc3ccccc3s2)ccn1)c1ccc(-c2c3nc(c(-c4c(F)cccc4F)c4ccc([nH]4)c(-c4c(F)cccc4F)c4nc(c(-c5c(F)cccc5F)c5ccc2[nH]5)C=C4)C=C3)cc1
REMARK SMILES IDX 4 1 3 2 2 3 1 4 24 5 25 6 77 7 26 8 76 9 27 10 28 11 29 12
REMARK SMILES IDX 70 13 30 14 75 15 69 16 71 17 31 18 74 19 68 20 67 21 32 23
REMARK SMILES IDX 58 24 41 25 57 26 42 27 45 28 56 29 72 30 43 31 44 32 55 34
REMARK SMILES IDX 73 35 46 36 33 37 34 38 39 39 35 40 36 41 38 42 40 43 37 44
REMARK SMILES IDX 59 45 60 46 65 47 61 48 62 49 64 50 66 51 63 52 47 53 48 54
REMARK SMILES IDX 53 55 49 56 50 57 52 58 54 59 51 60 5 61 6 62 7 63 8 64 9 65
REMARK SMILES IDX 10 66 23 67 11 68 22 69 21 70 12 71 13 72 20 73 14 74 19 75
REMARK SMILES IDX 15 76 18 77 16 78 17 79
REMARK H PARENT 71 22 45 33
REMARK Flexibility Score: inf
ROOT
ATOM      1  C   UNL A   1      34.397  33.384  28.192  1.00  0.00     0.275 C 
ENDROOT
BRANCH   1   2
ATOM      2  O   UNL A   1      34.219  32.079  28.772  1.00  0.00    -0.458 OA
BRANCH   2   3
ATOM      3  C   UNL A   1      34.614  30.893  28.246  1.00  0.00     0.338 C 
ATOM      4  O   UNL A   1      33.818  30.201  27.613  1.00  0.00    -0.246 OA
BRANCH   3   5
ATOM      5  C   UNL A   1      35.942  30.303  28.574  1.00  0.00     0.060 A 
ATOM      6  C   UNL A   1      36.269  29.701  29.789  1.00  0.00     0.016 A 
ATOM      7  C   UNL A   1      36.948  30.432  27.600  1.00  0.00     0.016 A 
ATOM      8  C   UNL A   1      37.540  29.167  29.999  1.00  0.00     0.010 A 
ATOM      9  C   UNL A   1      38.225  29.897  27.804  1.00  0.00     0.010 A 
ATOM     10  C   UNL A   1      38.525  29.262  29.012  1.00  0.00    -0.014 A 
BRANCH  10  11
ATOM     11  C   UNL A   1      39.905  28.844  29.350  1.00  0.00     0.031 A 
ATOM     12  C   UNL A   1      40.643  29.633  30.392  1.00  0.00     0.074 A 
ATOM     13  C   UNL A   1      40.404  27.692  28.865  1.00  0.00     0.049 A 
ATOM     14  N   UNL A   1      41.789  29.377  30.963  1.00  0.00    -0.248 NA
ATOM     15  C   UNL A   1      39.970  30.841  30.903  1.00  0.00     0.031 C 
ATOM     16  C   UNL A   1      39.678  26.767  27.996  1.00  0.00     0.029 A 
ATOM     17  N   UNL A   1      41.612  27.073  29.069  1.00  0.00    -0.354 N 
ATOM     18  C   UNL A   1      41.939  30.349  31.945  1.00  0.00     0.074 A 
ATOM     19  C   UNL A   1      40.813  31.247  31.838  1.00  0.00     0.031 C 
ATOM     20  C   UNL A   1      40.438  25.681  27.777  1.00  0.00     0.029 A 
ATOM     21  C   UNL A   1      41.731  25.857  28.426  1.00  0.00     0.049 A 
ATOM     22  H   UNL A   1      42.327  27.459  29.624  1.00  0.00     0.167 HD
ATOM     23  C   UNL A   1      42.908  30.449  32.884  1.00  0.00     0.037 A 
ATOM     24  C   UNL A   1      42.782  25.010  28.373  1.00  0.00     0.037 A 
ATOM     25  C   UNL A   1      44.036  29.565  32.957  1.00  0.00     0.049 A 
ATOM     26  C   UNL A   1      44.022  25.425  29.134  1.00  0.00     0.074 A 
ATOM     27  C   UNL A   1      45.096  29.577  33.845  1.00  0.00     0.029 A 
ATOM     28  N   UNL A   1      44.257  28.514  32.079  1.00  0.00    -0.354 N 
ATOM     29  N   UNL A   1      44.147  26.321  30.087  1.00  0.00    -0.248 NA
ATOM     30  C   UNL A   1      45.274  24.732  28.801  1.00  0.00     0.031 C 
ATOM     31  C   UNL A   1      45.986  28.566  33.466  1.00  0.00     0.029 A 
ATOM     32  C   UNL A   1      45.461  27.901  32.369  1.00  0.00     0.049 A 
ATOM     33  H   UNL A   1      43.645  28.246  31.355  1.00  0.00     0.167 HD
ATOM     34  C   UNL A   1      45.446  26.190  30.564  1.00  0.00     0.074 A 
ATOM     35  C   UNL A   1      46.088  25.182  29.746  1.00  0.00     0.031 C 
ATOM     36  C   UNL A   1      46.037  26.819  31.610  1.00  0.00     0.037 A 
BRANCH  23  37
ATOM     37  C   UNL A   1      42.774  31.563  33.879  1.00  0.00     0.057 A 
ATOM     38  C   UNL A   1      43.262  32.849  33.609  1.00  0.00     0.134 A 
ATOM     39  C   UNL A   1      42.184  31.342  35.128  1.00  0.00     0.134 A 
ATOM     40  F   UNL A   1      43.858  33.118  32.438  1.00  0.00    -0.206 F 
ATOM     41  C   UNL A   1      43.193  33.870  34.559  1.00  0.00     0.040 A 
ATOM     42  C   UNL A   1      42.092  32.360  36.079  1.00  0.00     0.040 A 
ATOM     43  F   UNL A   1      41.703  30.133  35.450  1.00  0.00    -0.206 F 
ATOM     44  C   UNL A   1      42.606  33.626  35.799  1.00  0.00     0.006 A 
ENDBRANCH  23  37
BRANCH  24  45
ATOM     45  C   UNL A   1      42.776  23.733  27.582  1.00  0.00     0.057 A 
ATOM     46  C   UNL A   1      42.978  23.717  26.196  1.00  0.00     0.134 A 
ATOM     47  C   UNL A   1      42.459  22.499  28.160  1.00  0.00     0.134 A 
ATOM     48  F   UNL A   1      43.302  24.845  25.546  1.00  0.00    -0.206 F 
ATOM     49  C   UNL A   1      42.797  22.558  25.427  1.00  0.00     0.040 A 
ATOM     50  C   UNL A   1      42.297  21.327  27.418  1.00  0.00     0.040 A 
ATOM     51  F   UNL A   1      42.310  22.400  29.481  1.00  0.00    -0.206 F 
ATOM     52  C   UNL A   1      42.445  21.358  26.039  1.00  0.00     0.006 A 
ENDBRANCH  24  45
BRANCH  36  53
ATOM     53  C   UNL A   1      47.366  26.290  32.061  1.00  0.00     0.057 A 
ATOM     54  C   UNL A   1      48.579  26.737  31.531  1.00  0.00     0.134 A 
ATOM     55  C   UNL A   1      47.416  25.334  33.085  1.00  0.00     0.134 A 
ATOM     56  F   UNL A   1      48.597  27.638  30.537  1.00  0.00    -0.206 F 
ATOM     57  C   UNL A   1      49.799  26.233  31.988  1.00  0.00     0.040 A 
ATOM     58  C   UNL A   1      48.627  24.844  33.570  1.00  0.00     0.040 A 
ATOM     59  F   UNL A   1      46.286  24.872  33.643  1.00  0.00    -0.206 F 
ATOM     60  C   UNL A   1      49.824  25.290  33.015  1.00  0.00     0.006 A 
ENDBRANCH  36  53
ENDBRANCH  10  11
ENDBRANCH   3   5
ENDBRANCH   2   3
ENDBRANCH   1   2
BRANCH   1  61
ATOM     61  C   UNL A   1      33.098  34.166  27.979  1.00  0.00     0.275 C 
BRANCH  61  62
ATOM     62  O   UNL A   1      32.561  34.695  29.202  1.00  0.00    -0.457 OA
BRANCH  62  63
ATOM     63  C   UNL A   1      32.962  35.964  29.493  1.00  0.00     0.357 C 
ATOM     64  O   UNL A   1      32.870  36.939  28.764  1.00  0.00    -0.244 OA
BRANCH  63  65
ATOM     65  C   UNL A   1      33.448  36.021  30.896  1.00  0.00     0.148 A 
ATOM     66  C   UNL A   1      34.171  34.975  31.454  1.00  0.00     0.045 A 
ATOM     67  N   UNL A   1      33.155  37.175  31.552  1.00  0.00    -0.249 NA
ATOM     68  C   UNL A   1      34.620  35.124  32.772  1.00  0.00    -0.004 A 
ATOM     69  C   UNL A   1      33.581  37.281  32.822  1.00  0.00     0.112 A 
ATOM     70  C   UNL A   1      34.296  36.293  33.470  1.00  0.00     0.030 A 
BRANCH  68  71
ATOM     71  C   UNL A   1      35.455  34.126  33.444  1.00  0.00     0.036 A 
ATOM     72  C   UNL A   1      36.030  34.185  34.697  1.00  0.00     0.029 A 
ATOM     73  S   UNL A   1      35.938  32.717  32.608  1.00  0.00    -0.135 S 
ATOM     74  C   UNL A   1      36.909  33.084  34.973  1.00  0.00    -0.007 A 
ATOM     75  C   UNL A   1      36.964  32.200  33.892  1.00  0.00     0.035 A 
ATOM     76  C   UNL A   1      37.668  32.776  36.130  1.00  0.00     0.009 A 
ATOM     77  C   UNL A   1      37.760  31.038  33.930  1.00  0.00     0.019 A 
ATOM     78  C   UNL A   1      38.446  31.615  36.179  1.00  0.00     0.001 A 
ATOM     79  C   UNL A   1      38.494  30.757  35.087  1.00  0.00     0.001 A 
ENDBRANCH  68  71
ENDBRANCH  63  65
ENDBRANCH  62  63
ENDBRANCH  61  62
ENDBRANCH   1  61
TORSDOF 12
ENDMDL
