MODEL 1
REMARK VINA RESULT:     -10.3      0.000      0.000
REMARK SMILES Cc1cc(Br)cc2c1O[C@H](C(F)(F)F)C(C(=O)OCCOC(=O)c1ccc(-c3c4nc(c(-c5c(F)cccc5F)c5ccc([nH]5)c(-c5c(F)cccc5F)c5nc(c(-c6c(F)cccc6F)c6ccc3[nH]6)C=C5)C=C4)cc1)=C2
REMARK SMILES IDX 20 1 19 2 18 3 16 4 17 5 15 6 1 7 2 8 3 9 8 10 4 11 7 12
REMARK SMILES IDX 9 13 5 14 6 15 78 16 10 17 11 18 12 19 13 20 14 21 21 22
REMARK SMILES IDX 22 23 23 24 24 25 25 26 77 27 26 28 76 29 27 30 28 31 29 32
REMARK SMILES IDX 70 33 30 34 75 35 69 36 71 37 31 38 74 39 68 40 67 41 32 43
REMARK SMILES IDX 58 44 41 45 57 46 42 47 45 48 56 49 72 50 43 51 44 52 55 54
REMARK SMILES IDX 73 55 46 56 33 57 34 58 39 59 35 60 36 61 38 62 40 63 37 64
REMARK SMILES IDX 59 65 60 66 65 67 61 68 62 69 64 70 66 71 63 72 47 73 48 74
REMARK SMILES IDX 53 75 49 76 50 77 52 78 54 79 51 80
REMARK H PARENT 71 42 45 53
REMARK Flexibility Score: inf
ROOT
ATOM      1  C   UNL A   1      40.854  20.175  26.491  1.00  0.00     0.275 C 
ENDROOT
BRANCH   1   2
ATOM      2  C   UNL A   1      42.303  20.126  26.976  1.00  0.00     0.275 C 
BRANCH   2   3
ATOM      3  O   UNL A   1      43.216  20.571  25.947  1.00  0.00    -0.459 OA
BRANCH   3   4
ATOM      4  C   UNL A   1      43.218  21.902  25.706  1.00  0.00     0.338 C 
ATOM      5  O   UNL A   1      42.433  22.517  25.001  1.00  0.00    -0.246 OA
BRANCH   4   6
ATOM      6  C   UNL A   1      44.308  22.559  26.450  1.00  0.00     0.087 C 
ATOM      7  C   UNL A   1      48.614  25.042  27.804  1.00  0.00     0.048 C 
ATOM      8  C   UNL A   1      47.246  24.830  28.386  1.00  0.00    -0.007 A 
ATOM      9  C   UNL A   1      46.930  25.435  29.614  1.00  0.00     0.023 A 
ATOM     10  C   UNL A   1      46.291  24.017  27.755  1.00  0.00     0.130 A 
ATOM     11  C   UNL A   1      45.679  25.243  30.195  1.00  0.00     0.019 A 
ATOM     12  C   UNL A   1      45.031  23.850  28.336  1.00  0.00     0.019 A 
ATOM     13  O   UNL A   1      46.654  23.395  26.590  1.00  0.00    -0.475 OA
ATOM     14  Br  UNL A   1      45.265  26.067  31.844  1.00  0.00    -0.051 Br
ATOM     15  C   UNL A   1      44.726  24.455  29.562  1.00  0.00     0.027 A 
ATOM     16  C   UNL A   1      44.019  23.073  27.650  1.00  0.00     0.027 C 
ATOM     17  C   UNL A   1      45.634  22.753  25.775  1.00  0.00     0.316 C 
BRANCH  17  18
ATOM     18  C   UNL A   1      45.479  23.538  24.463  1.00  0.00     0.430 C 
ATOM     19  F   UNL A   1      44.683  24.622  24.625  1.00  0.00    -0.167 F 
ATOM     20  F   UNL A   1      46.673  23.999  24.017  1.00  0.00    -0.167 F 
ATOM     21  F   UNL A   1      44.942  22.783  23.476  1.00  0.00    -0.167 F 
ENDBRANCH  17  18
ENDBRANCH   4   6
ENDBRANCH   3   4
ENDBRANCH   2   3
ENDBRANCH   1   2
BRANCH   1  22
ATOM     22  O   UNL A   1      40.114  21.154  27.245  1.00  0.00    -0.458 OA
BRANCH  22  23
ATOM     23  C   UNL A   1      39.511  22.119  26.514  1.00  0.00     0.338 C 
ATOM     24  O   UNL A   1      38.815  21.979  25.523  1.00  0.00    -0.246 OA
BRANCH  23  25
ATOM     25  C   UNL A   1      39.744  23.434  27.132  1.00  0.00     0.060 A 
ATOM     26  C   UNL A   1      39.239  24.563  26.500  1.00  0.00     0.016 A 
ATOM     27  C   UNL A   1      40.606  23.573  28.217  1.00  0.00     0.016 A 
ATOM     28  C   UNL A   1      39.716  25.824  26.838  1.00  0.00     0.010 A 
ATOM     29  C   UNL A   1      40.961  24.856  28.657  1.00  0.00     0.010 A 
ATOM     30  C   UNL A   1      40.565  26.000  27.940  1.00  0.00    -0.014 A 
BRANCH  30  31
ATOM     31  C   UNL A   1      41.042  27.370  28.303  1.00  0.00     0.031 A 
ATOM     32  C   UNL A   1      40.106  28.373  28.933  1.00  0.00     0.074 A 
ATOM     33  C   UNL A   1      42.336  27.708  28.115  1.00  0.00     0.049 A 
ATOM     34  N   UNL A   1      40.312  29.638  29.205  1.00  0.00    -0.248 NA
ATOM     35  C   UNL A   1      38.759  27.902  29.292  1.00  0.00     0.031 C 
ATOM     36  C   UNL A   1      43.368  26.832  27.552  1.00  0.00     0.029 A 
ATOM     37  N   UNL A   1      43.017  28.865  28.405  1.00  0.00    -0.354 N 
ATOM     38  C   UNL A   1      39.111  30.122  29.712  1.00  0.00     0.074 A 
ATOM     39  C   UNL A   1      38.175  29.020  29.698  1.00  0.00     0.031 C 
ATOM     40  C   UNL A   1      44.557  27.447  27.619  1.00  0.00     0.029 A 
ATOM     41  C   UNL A   1      44.362  28.802  28.120  1.00  0.00     0.049 A 
ATOM     42  H   UNL A   1      42.585  29.666  28.780  1.00  0.00     0.167 HD
ATOM     43  C   UNL A   1      38.819  31.368  30.157  1.00  0.00     0.037 A 
ATOM     44  C   UNL A   1      45.332  29.731  28.214  1.00  0.00     0.037 A 
ATOM     45  C   UNL A   1      39.771  32.447  30.233  1.00  0.00     0.049 A 
ATOM     46  C   UNL A   1      44.976  31.115  28.672  1.00  0.00     0.074 A 
ATOM     47  C   UNL A   1      39.570  33.741  30.681  1.00  0.00     0.029 A 
ATOM     48  N   UNL A   1      41.107  32.349  29.877  1.00  0.00    -0.354 N 
ATOM     49  N   UNL A   1      43.820  31.571  29.088  1.00  0.00    -0.248 NA
ATOM     50  C   UNL A   1      46.046  32.122  28.643  1.00  0.00     0.031 C 
ATOM     51  C   UNL A   1      40.775  34.438  30.559  1.00  0.00     0.029 A 
ATOM     52  C   UNL A   1      41.738  33.565  30.079  1.00  0.00     0.049 A 
ATOM     53  H   UNL A   1      41.543  31.536  29.532  1.00  0.00     0.167 HD
ATOM     54  C   UNL A   1      44.024  32.913  29.377  1.00  0.00     0.074 A 
ATOM     55  C   UNL A   1      45.418  33.194  29.109  1.00  0.00     0.031 C 
ATOM     56  C   UNL A   1      43.130  33.829  29.818  1.00  0.00     0.037 A 
BRANCH  43  57
ATOM     57  C   UNL A   1      37.408  31.650  30.587  1.00  0.00     0.057 A 
ATOM     58  C   UNL A   1      37.011  31.586  31.928  1.00  0.00     0.134 A 
ATOM     59  C   UNL A   1      36.450  32.063  29.650  1.00  0.00     0.134 A 
ATOM     60  F   UNL A   1      37.875  31.188  32.873  1.00  0.00    -0.206 F 
ATOM     61  C   UNL A   1      35.710  31.904  32.320  1.00  0.00     0.040 A 
ATOM     62  C   UNL A   1      35.154  32.410  30.034  1.00  0.00     0.040 A 
ATOM     63  F   UNL A   1      36.765  32.159  28.350  1.00  0.00    -0.206 F 
ATOM     64  C   UNL A   1      34.779  32.328  31.373  1.00  0.00     0.006 A 
ENDBRANCH  43  57
BRANCH  44  65
ATOM     65  C   UNL A   1      46.728  29.383  27.839  1.00  0.00     0.057 A 
ATOM     66  C   UNL A   1      47.655  28.981  28.807  1.00  0.00     0.134 A 
ATOM     67  C   UNL A   1      47.159  29.407  26.506  1.00  0.00     0.134 A 
ATOM     68  F   UNL A   1      47.311  28.959  30.104  1.00  0.00    -0.206 F 
ATOM     69  C   UNL A   1      48.956  28.610  28.464  1.00  0.00     0.040 A 
ATOM     70  C   UNL A   1      48.447  29.011  26.145  1.00  0.00     0.040 A 
ATOM     71  F   UNL A   1      46.319  29.781  25.529  1.00  0.00    -0.206 F 
ATOM     72  C   UNL A   1      49.351  28.613  27.127  1.00  0.00     0.006 A 
ENDBRANCH  44  65
BRANCH  56  73
ATOM     73  C   UNL A   1      43.623  35.223  30.060  1.00  0.00     0.057 A 
ATOM     74  C   UNL A   1      43.538  36.210  29.072  1.00  0.00     0.134 A 
ATOM     75  C   UNL A   1      44.098  35.601  31.322  1.00  0.00     0.134 A 
ATOM     76  F   UNL A   1      43.102  35.905  27.841  1.00  0.00    -0.206 F 
ATOM     77  C   UNL A   1      43.909  37.530  29.332  1.00  0.00     0.040 A 
ATOM     78  C   UNL A   1      44.453  36.921  31.599  1.00  0.00     0.040 A 
ATOM     79  F   UNL A   1      44.195  34.701  32.312  1.00  0.00    -0.206 F 
ATOM     80  C   UNL A   1      44.357  37.891  30.602  1.00  0.00     0.006 A 
ENDBRANCH  56  73
ENDBRANCH  30  31
ENDBRANCH  23  25
ENDBRANCH  22  23
ENDBRANCH   1  22
TORSDOF 12
ENDMDL
MODEL 2
REMARK VINA RESULT:     -10.3      0.684      6.413
REMARK SMILES Cc1cc(Br)cc2c1O[C@H](C(F)(F)F)C(C(=O)OCCOC(=O)c1ccc(-c3c4nc(c(-c5c(F)cccc5F)c5ccc([nH]5)c(-c5c(F)cccc5F)c5nc(c(-c6c(F)cccc6F)c6ccc3[nH]6)C=C5)C=C4)cc1)=C2
REMARK SMILES IDX 20 1 19 2 18 3 16 4 17 5 15 6 1 7 2 8 3 9 8 10 4 11 7 12
REMARK SMILES IDX 9 13 5 14 6 15 78 16 10 17 11 18 12 19 13 20 14 21 21 22
REMARK SMILES IDX 22 23 23 24 24 25 25 26 77 27 26 28 76 29 27 30 28 31 29 32
REMARK SMILES IDX 70 33 30 34 75 35 69 36 71 37 31 38 74 39 68 40 67 41 32 43
REMARK SMILES IDX 58 44 41 45 57 46 42 47 45 48 56 49 72 50 43 51 44 52 55 54
REMARK SMILES IDX 73 55 46 56 33 57 34 58 39 59 35 60 36 61 38 62 40 63 37 64
REMARK SMILES IDX 59 65 60 66 65 67 61 68 62 69 64 70 66 71 63 72 47 73 48 74
REMARK SMILES IDX 53 75 49 76 50 77 52 78 54 79 51 80
REMARK H PARENT 71 42 45 53
REMARK Flexibility Score: inf
ROOT
ATOM      1  C   UNL A   1      40.812  20.505  26.509  1.00  0.00     0.275 C 
ENDROOT
BRANCH   1   2
ATOM      2  C   UNL A   1      42.232  20.395  27.063  1.00  0.00     0.275 C 
BRANCH   2   3
ATOM      3  O   UNL A   1      43.216  20.676  26.043  1.00  0.00    -0.459 OA
BRANCH   3   4
ATOM      4  C   UNL A   1      43.321  21.974  25.677  1.00  0.00     0.338 C 
ATOM      5  O   UNL A   1      42.634  22.558  24.853  1.00  0.00    -0.246 OA
BRANCH   4   6
ATOM      6  C   UNL A   1      44.389  22.642  26.443  1.00  0.00     0.087 C 
ATOM      7  C   UNL A   1      48.662  25.133  27.886  1.00  0.00     0.048 C 
ATOM      8  C   UNL A   1      47.274  24.938  28.427  1.00  0.00    -0.007 A 
ATOM      9  C   UNL A   1      46.922  25.569  29.633  1.00  0.00     0.023 A 
ATOM     10  C   UNL A   1      46.336  24.117  27.783  1.00  0.00     0.130 A 
ATOM     11  C   UNL A   1      45.651  25.394  30.176  1.00  0.00     0.019 A 
ATOM     12  C   UNL A   1      45.057  23.967  28.326  1.00  0.00     0.019 A 
ATOM     13  O   UNL A   1      46.733  23.470  26.642  1.00  0.00    -0.475 OA
ATOM     14  Br  UNL A   1      45.188  26.252  31.795  1.00  0.00    -0.051 Br
ATOM     15  C   UNL A   1      44.716  24.597  29.528  1.00  0.00     0.027 A 
ATOM     16  C   UNL A   1      44.065  23.180  27.622  1.00  0.00     0.027 C 
ATOM     17  C   UNL A   1      45.738  22.816  25.807  1.00  0.00     0.316 C 
BRANCH  17  18
ATOM     18  C   UNL A   1      45.629  23.575  24.476  1.00  0.00     0.430 C 
ATOM     19  F   UNL A   1      46.817  24.117  24.115  1.00  0.00    -0.167 F 
ATOM     20  F   UNL A   1      45.257  22.752  23.465  1.00  0.00    -0.167 F 
ATOM     21  F   UNL A   1      44.724  24.580  24.532  1.00  0.00    -0.167 F 
ENDBRANCH  17  18
ENDBRANCH   4   6
ENDBRANCH   3   4
ENDBRANCH   2   3
ENDBRANCH   1   2
BRANCH   1  22
ATOM     22  O   UNL A   1      40.052  21.451  27.284  1.00  0.00    -0.458 OA
BRANCH  22  23
ATOM     23  C   UNL A   1      39.461  22.442  26.578  1.00  0.00     0.338 C 
ATOM     24  O   UNL A   1      38.494  22.359  25.841  1.00  0.00    -0.246 OA
BRANCH  23  25
ATOM     25  C   UNL A   1      40.114  23.727  26.878  1.00  0.00     0.060 A 
ATOM     26  C   UNL A   1      40.716  23.892  28.118  1.00  0.00     0.016 A 
ATOM     27  C   UNL A   1      39.974  24.818  26.024  1.00  0.00     0.016 A 
ATOM     28  C   UNL A   1      41.030  25.166  28.578  1.00  0.00     0.010 A 
ATOM     29  C   UNL A   1      40.438  26.077  26.431  1.00  0.00     0.010 A 
ATOM     30  C   UNL A   1      40.923  26.280  27.735  1.00  0.00    -0.014 A 
BRANCH  30  31
ATOM     31  C   UNL A   1      41.294  27.637  28.242  1.00  0.00     0.031 A 
ATOM     32  C   UNL A   1      42.724  28.118  28.189  1.00  0.00     0.074 A 
ATOM     33  C   UNL A   1      40.338  28.470  28.709  1.00  0.00     0.049 A 
ATOM     34  N   UNL A   1      43.247  29.212  28.688  1.00  0.00    -0.248 NA
ATOM     35  C   UNL A   1      43.698  27.256  27.502  1.00  0.00     0.031 C 
ATOM     36  C   UNL A   1      38.908  28.161  28.786  1.00  0.00     0.029 A 
ATOM     37  N   UNL A   1      40.416  29.760  29.178  1.00  0.00    -0.354 N 
ATOM     38  C   UNL A   1      44.610  29.140  28.423  1.00  0.00     0.074 A 
ATOM     39  C   UNL A   1      44.839  27.890  27.732  1.00  0.00     0.031 C 
ATOM     40  C   UNL A   1      38.239  29.250  29.186  1.00  0.00     0.029 A 
ATOM     41  C   UNL A   1      39.195  30.303  29.507  1.00  0.00     0.049 A 
ATOM     42  H   UNL A   1      41.264  30.249  29.272  1.00  0.00     0.167 HD
ATOM     43  C   UNL A   1      45.580  30.039  28.719  1.00  0.00     0.037 A 
ATOM     44  C   UNL A   1      38.871  31.498  30.038  1.00  0.00     0.037 A 
ATOM     45  C   UNL A   1      45.342  31.313  29.346  1.00  0.00     0.049 A 
ATOM     46  C   UNL A   1      39.967  32.458  30.394  1.00  0.00     0.074 A 
ATOM     47  C   UNL A   1      46.261  32.294  29.677  1.00  0.00     0.029 A 
ATOM     48  N   UNL A   1      44.094  31.793  29.715  1.00  0.00    -0.354 N 
ATOM     49  N   UNL A   1      41.256  32.346  30.194  1.00  0.00    -0.248 NA
ATOM     50  C   UNL A   1      39.569  33.696  31.080  1.00  0.00     0.031 C 
ATOM     51  C   UNL A   1      45.574  33.351  30.280  1.00  0.00     0.029 A 
ATOM     52  C   UNL A   1      44.222  33.048  30.283  1.00  0.00     0.049 A 
ATOM     53  H   UNL A   1      43.244  31.312  29.590  1.00  0.00     0.167 HD
ATOM     54  C   UNL A   1      41.824  33.499  30.720  1.00  0.00     0.074 A 
ATOM     55  C   UNL A   1      40.737  34.307  31.232  1.00  0.00     0.031 C 
ATOM     56  C   UNL A   1      43.131  33.847  30.779  1.00  0.00     0.037 A 
BRANCH  43  57
ATOM     57  C   UNL A   1      46.999  29.679  28.386  1.00  0.00     0.057 A 
ATOM     58  C   UNL A   1      47.575  29.987  27.147  1.00  0.00     0.134 A 
ATOM     59  C   UNL A   1      47.824  29.079  29.348  1.00  0.00     0.134 A 
ATOM     60  F   UNL A   1      46.838  30.552  26.179  1.00  0.00    -0.206 F 
ATOM     61  C   UNL A   1      48.912  29.696  26.870  1.00  0.00     0.040 A 
ATOM     62  C   UNL A   1      49.169  28.808  29.092  1.00  0.00     0.040 A 
ATOM     63  F   UNL A   1      47.342  28.767  30.560  1.00  0.00    -0.206 F 
ATOM     64  C   UNL A   1      49.717  29.114  27.848  1.00  0.00     0.006 A 
ENDBRANCH  43  57
BRANCH  44  65
ATOM     65  C   UNL A   1      37.445  31.832  30.288  1.00  0.00     0.057 A 
ATOM     66  C   UNL A   1      36.816  31.460  31.482  1.00  0.00     0.134 A 
ATOM     67  C   UNL A   1      36.687  32.561  29.363  1.00  0.00     0.134 A 
ATOM     68  F   UNL A   1      37.481  30.740  32.399  1.00  0.00    -0.206 F 
ATOM     69  C   UNL A   1      35.490  31.804  31.748  1.00  0.00     0.040 A 
ATOM     70  C   UNL A   1      35.370  32.938  29.628  1.00  0.00     0.040 A 
ATOM     71  F   UNL A   1      37.230  32.952  28.200  1.00  0.00    -0.206 F 
ATOM     72  C   UNL A   1      34.767  32.556  30.823  1.00  0.00     0.006 A 
ENDBRANCH  44  65
BRANCH  56  73
ATOM     73  C   UNL A   1      43.471  35.168  31.400  1.00  0.00     0.057 A 
ATOM     74  C   UNL A   1      43.699  35.291  32.776  1.00  0.00     0.134 A 
ATOM     75  C   UNL A   1      43.665  36.302  30.603  1.00  0.00     0.134 A 
ATOM     76  F   UNL A   1      43.519  34.242  33.593  1.00  0.00    -0.206 F 
ATOM     77  C   UNL A   1      44.109  36.500  33.338  1.00  0.00     0.040 A 
ATOM     78  C   UNL A   1      44.095  37.511  31.150  1.00  0.00     0.040 A 
ATOM     79  F   UNL A   1      43.469  36.245  29.277  1.00  0.00    -0.206 F 
ATOM     80  C   UNL A   1      44.320  37.612  32.522  1.00  0.00     0.006 A 
ENDBRANCH  56  73
ENDBRANCH  30  31
ENDBRANCH  23  25
ENDBRANCH  22  23
ENDBRANCH   1  22
TORSDOF 12
ENDMDL
MODEL 3
REMARK VINA RESULT:     -10.3      4.712     10.239
REMARK SMILES Cc1cc(Br)cc2c1O[C@H](C(F)(F)F)C(C(=O)OCCOC(=O)c1ccc(-c3c4nc(c(-c5c(F)cccc5F)c5ccc([nH]5)c(-c5c(F)cccc5F)c5nc(c(-c6c(F)cccc6F)c6ccc3[nH]6)C=C5)C=C4)cc1)=C2
REMARK SMILES IDX 20 1 19 2 18 3 16 4 17 5 15 6 1 7 2 8 3 9 8 10 4 11 7 12
REMARK SMILES IDX 9 13 5 14 6 15 78 16 10 17 11 18 12 19 13 20 14 21 21 22
REMARK SMILES IDX 22 23 23 24 24 25 25 26 77 27 26 28 76 29 27 30 28 31 29 32
REMARK SMILES IDX 70 33 30 34 75 35 69 36 71 37 31 38 74 39 68 40 67 41 32 43
REMARK SMILES IDX 58 44 41 45 57 46 42 47 45 48 56 49 72 50 43 51 44 52 55 54
REMARK SMILES IDX 73 55 46 56 33 57 34 58 39 59 35 60 36 61 38 62 40 63 37 64
REMARK SMILES IDX 59 65 60 66 65 67 61 68 62 69 64 70 66 71 63 72 47 73 48 74
REMARK SMILES IDX 53 75 49 76 50 77 52 78 54 79 51 80
REMARK H PARENT 71 42 45 53
REMARK Flexibility Score: inf
ROOT
ATOM      1  C   UNL A   1      33.820  33.455  28.281  1.00  0.00     0.275 C 
ENDROOT
BRANCH   1   2
ATOM      2  C   UNL A   1      34.441  34.658  28.990  1.00  0.00     0.275 C 
BRANCH   2   3
ATOM      3  O   UNL A   1      34.202  34.607  30.415  1.00  0.00    -0.459 OA
BRANCH   3   4
ATOM      4  C   UNL A   1      34.795  33.582  31.069  1.00  0.00     0.338 C 
ATOM      5  O   UNL A   1      34.370  32.442  31.176  1.00  0.00    -0.246 OA
BRANCH   4   6
ATOM      6  C   UNL A   1      36.085  34.010  31.638  1.00  0.00     0.087 C 
ATOM      7  C   UNL A   1      39.936  35.325  34.798  1.00  0.00     0.048 C 
ATOM      8  C   UNL A   1      39.803  34.785  33.403  1.00  0.00    -0.007 A 
ATOM      9  C   UNL A   1      40.969  34.507  32.669  1.00  0.00     0.023 A 
ATOM     10  C   UNL A   1      38.550  34.587  32.802  1.00  0.00     0.130 A 
ATOM     11  C   UNL A   1      40.885  34.026  31.365  1.00  0.00     0.019 A 
ATOM     12  C   UNL A   1      38.478  34.082  31.501  1.00  0.00     0.019 A 
ATOM     13  O   UNL A   1      37.437  34.925  33.525  1.00  0.00    -0.475 OA
ATOM     14  Br  UNL A   1      42.460  33.650  30.391  1.00  0.00    -0.051 Br
ATOM     15  C   UNL A   1      39.645  33.811  30.777  1.00  0.00     0.027 A 
ATOM     16  C   UNL A   1      37.185  33.807  30.907  1.00  0.00     0.027 C 
ATOM     17  C   UNL A   1      36.125  34.510  33.053  1.00  0.00     0.316 C 
BRANCH  17  18
ATOM     18  C   UNL A   1      35.554  33.466  34.025  1.00  0.00     0.430 C 
ATOM     19  F   UNL A   1      35.907  33.736  35.305  1.00  0.00    -0.167 F 
ATOM     20  F   UNL A   1      34.199  33.447  33.995  1.00  0.00    -0.167 F 
ATOM     21  F   UNL A   1      35.981  32.214  33.741  1.00  0.00    -0.167 F 
ENDBRANCH  17  18
ENDBRANCH   4   6
ENDBRANCH   3   4
ENDBRANCH   2   3
ENDBRANCH   1   2
BRANCH   1  22
ATOM     22  O   UNL A   1      34.845  32.683  27.628  1.00  0.00    -0.458 OA
BRANCH  22  23
ATOM     23  C   UNL A   1      34.789  31.348  27.833  1.00  0.00     0.338 C 
ATOM     24  O   UNL A   1      33.955  30.564  27.416  1.00  0.00    -0.246 OA
BRANCH  23  25
ATOM     25  C   UNL A   1      35.965  30.910  28.602  1.00  0.00     0.060 A 
ATOM     26  C   UNL A   1      37.187  31.523  28.353  1.00  0.00     0.016 A 
ATOM     27  C   UNL A   1      35.907  29.787  29.423  1.00  0.00     0.016 A 
ATOM     28  C   UNL A   1      38.367  30.926  28.782  1.00  0.00     0.010 A 
ATOM     29  C   UNL A   1      37.088  29.280  29.984  1.00  0.00     0.010 A 
ATOM     30  C   UNL A   1      38.341  29.810  29.629  1.00  0.00    -0.014 A 
BRANCH  30  31
ATOM     31  C   UNL A   1      39.623  29.202  30.101  1.00  0.00     0.031 A 
ATOM     32  C   UNL A   1      40.270  29.664  31.385  1.00  0.00     0.074 A 
ATOM     33  C   UNL A   1      40.192  28.194  29.405  1.00  0.00     0.049 A 
ATOM     34  N   UNL A   1      41.436  29.336  31.887  1.00  0.00    -0.248 NA
ATOM     35  C   UNL A   1      39.522  30.629  32.206  1.00  0.00     0.031 C 
ATOM     36  C   UNL A   1      39.664  27.614  28.168  1.00  0.00     0.029 A 
ATOM     37  N   UNL A   1      41.322  27.452  29.653  1.00  0.00    -0.354 N 
ATOM     38  C   UNL A   1      41.580  30.092  33.046  1.00  0.00     0.074 A 
ATOM     39  C   UNL A   1      40.391  30.906  33.167  1.00  0.00     0.031 C 
ATOM     40  C   UNL A   1      40.412  26.561  27.815  1.00  0.00     0.029 A 
ATOM     41  C   UNL A   1      41.542  26.454  28.731  1.00  0.00     0.049 A 
ATOM     42  H   UNL A   1      41.920  27.619  30.416  1.00  0.00     0.167 HD
ATOM     43  C   UNL A   1      42.605  30.099  33.932  1.00  0.00     0.037 A 
ATOM     44  C   UNL A   1      42.550  25.570  28.606  1.00  0.00     0.037 A 
ATOM     45  C   UNL A   1      43.758  29.239  33.846  1.00  0.00     0.049 A 
ATOM     46  C   UNL A   1      43.693  25.625  29.576  1.00  0.00     0.074 A 
ATOM     47  C   UNL A   1      44.842  29.166  34.703  1.00  0.00     0.029 A 
ATOM     48  N   UNL A   1      43.962  28.286  32.860  1.00  0.00    -0.354 N 
ATOM     49  N   UNL A   1      43.842  26.390  30.629  1.00  0.00    -0.248 NA
ATOM     50  C   UNL A   1      44.823  24.719  29.324  1.00  0.00     0.031 C 
ATOM     51  C   UNL A   1      45.721  28.196  34.215  1.00  0.00     0.029 A 
ATOM     52  C   UNL A   1      45.163  27.633  33.079  1.00  0.00     0.049 A 
ATOM     53  H   UNL A   1      43.345  28.100  32.116  1.00  0.00     0.167 HD
ATOM     54  C   UNL A   1      45.075  26.054  31.170  1.00  0.00     0.074 A 
ATOM     55  C   UNL A   1      45.627  25.003  30.341  1.00  0.00     0.031 C 
ATOM     56  C   UNL A   1      45.696  26.580  32.253  1.00  0.00     0.037 A 
BRANCH  43  57
ATOM     57  C   UNL A   1      42.546  31.076  35.070  1.00  0.00     0.057 A 
ATOM     58  C   UNL A   1      42.127  30.700  36.352  1.00  0.00     0.134 A 
ATOM     59  C   UNL A   1      42.984  32.396  34.897  1.00  0.00     0.134 A 
ATOM     60  F   UNL A   1      41.685  29.455  36.585  1.00  0.00    -0.206 F 
ATOM     61  C   UNL A   1      42.129  31.605  37.416  1.00  0.00     0.040 A 
ATOM     62  C   UNL A   1      43.017  33.302  35.958  1.00  0.00     0.040 A 
ATOM     63  F   UNL A   1      43.411  32.820  33.698  1.00  0.00    -0.206 F 
ATOM     64  C   UNL A   1      42.585  32.908  37.222  1.00  0.00     0.006 A 
ENDBRANCH  43  57
BRANCH  44  65
ATOM     65  C   UNL A   1      42.530  24.579  27.498  1.00  0.00     0.057 A 
ATOM     66  C   UNL A   1      43.012  24.909  26.227  1.00  0.00     0.134 A 
ATOM     67  C   UNL A   1      42.065  23.272  27.690  1.00  0.00     0.134 A 
ATOM     68  F   UNL A   1      43.449  26.152  25.972  1.00  0.00    -0.206 F 
ATOM     69  C   UNL A   1      43.038  23.976  25.189  1.00  0.00     0.040 A 
ATOM     70  C   UNL A   1      42.112  22.319  26.671  1.00  0.00     0.040 A 
ATOM     71  F   UNL A   1      41.592  22.889  28.886  1.00  0.00    -0.206 F 
ATOM     72  C   UNL A   1      42.598  22.672  25.415  1.00  0.00     0.006 A 
ENDBRANCH  44  65
BRANCH  56  73
ATOM     73  C   UNL A   1      47.034  26.021  32.627  1.00  0.00     0.057 A 
ATOM     74  C   UNL A   1      47.162  25.008  33.584  1.00  0.00     0.134 A 
ATOM     75  C   UNL A   1      48.192  26.435  31.957  1.00  0.00     0.134 A 
ATOM     76  F   UNL A   1      46.090  24.578  34.267  1.00  0.00    -0.206 F 
ATOM     77  C   UNL A   1      48.398  24.423  33.861  1.00  0.00     0.040 A 
ATOM     78  C   UNL A   1      49.430  25.844  32.211  1.00  0.00     0.040 A 
ATOM     79  F   UNL A   1      48.133  27.397  31.024  1.00  0.00    -0.206 F 
ATOM     80  C   UNL A   1      49.535  24.833  33.165  1.00  0.00     0.006 A 
ENDBRANCH  56  73
ENDBRANCH  30  31
ENDBRANCH  23  25
ENDBRANCH  22  23
ENDBRANCH   1  22
TORSDOF 12
ENDMDL
