MODEL 1
REMARK VINA RESULT:     -12.3      0.000      0.000
REMARK SMILES O=C(OCCOC(=O)c1ccc2c(c1)[C@@H](C1CCOCC1)C(=O)N2)c1ccc(-c2c3nc(c(-c4c(F)cccc4F)c4ccc([nH]4)c(-c4c(F)cccc4F)c4nc(c(-c5c(F)cccc5F)c5ccc2[nH]5)C=C4)C=C3)cc1
REMARK SMILES IDX 4 1 3 2 2 3 1 4 25 5 26 6 78 7 27 8 77 9 28 10 29 11 30 12
REMARK SMILES IDX 71 13 31 14 76 15 70 16 72 17 32 18 75 19 69 20 68 21 33 23
REMARK SMILES IDX 59 24 42 25 58 26 43 27 46 28 57 29 73 30 44 31 45 32 56 34
REMARK SMILES IDX 74 35 47 36 34 37 35 38 40 39 36 40 37 41 39 42 41 43 38 44
REMARK SMILES IDX 60 45 61 46 66 47 62 48 63 49 65 50 67 51 64 52 48 53 49 54
REMARK SMILES IDX 54 55 50 56 51 57 53 58 55 59 52 60 5 61 6 62 7 63 8 64 9 65
REMARK SMILES IDX 10 66 14 67 11 68 13 69 12 70 15 71 24 72 22 73 23 75 16 76
REMARK SMILES IDX 17 77 21 78 18 79 20 80 19 81
REMARK H PARENT 72 22 46 33 24 74
REMARK Flexibility Score: inf
ROOT
ATOM      1  C   UNL A   1      32.449  32.612  26.886  1.00  0.00     0.275 C 
ENDROOT
BRANCH   1   2
ATOM      2  O   UNL A   1      32.175  33.815  27.624  1.00  0.00    -0.458 OA
BRANCH   2   3
ATOM      3  C   UNL A   1      32.941  34.500  28.500  1.00  0.00     0.338 C 
ATOM      4  O   UNL A   1      32.607  35.644  28.808  1.00  0.00    -0.246 OA
BRANCH   3   5
ATOM      5  C   UNL A   1      34.241  33.999  29.051  1.00  0.00     0.060 A 
ATOM      6  C   UNL A   1      35.523  34.399  28.665  1.00  0.00     0.016 A 
ATOM      7  C   UNL A   1      34.139  32.997  30.031  1.00  0.00     0.016 A 
ATOM      8  C   UNL A   1      36.667  33.859  29.267  1.00  0.00     0.010 A 
ATOM      9  C   UNL A   1      35.278  32.455  30.625  1.00  0.00     0.010 A 
ATOM     10  C   UNL A   1      36.553  32.875  30.246  1.00  0.00    -0.014 A 
BRANCH  10  11
ATOM     11  C   UNL A   1      37.753  32.165  30.744  1.00  0.00     0.031 A 
ATOM     12  C   UNL A   1      38.277  32.515  32.108  1.00  0.00     0.074 A 
ATOM     13  C   UNL A   1      38.351  31.214  30.002  1.00  0.00     0.049 A 
ATOM     14  N   UNL A   1      39.264  31.980  32.778  1.00  0.00    -0.248 NA
ATOM     15  C   UNL A   1      37.603  33.622  32.808  1.00  0.00     0.031 C 
ATOM     16  C   UNL A   1      37.933  30.799  28.664  1.00  0.00     0.029 A 
ATOM     17  N   UNL A   1      39.437  30.421  30.272  1.00  0.00    -0.354 N 
ATOM     18  C   UNL A   1      39.318  32.677  33.978  1.00  0.00     0.074 A 
ATOM     19  C   UNL A   1      38.323  33.722  33.913  1.00  0.00     0.031 C 
ATOM     20  C   UNL A   1      38.751  29.825  28.227  1.00  0.00     0.029 A 
ATOM     21  C   UNL A   1      39.746  29.544  29.258  1.00  0.00     0.049 A 
ATOM     22  H   UNL A   1      39.947  30.473  31.111  1.00  0.00     0.167 HD
ATOM     23  C   UNL A   1      40.096  32.440  35.059  1.00  0.00     0.037 A 
ATOM     24  C   UNL A   1      40.708  28.605  29.189  1.00  0.00     0.037 A 
ATOM     25  C   UNL A   1      41.076  31.394  35.122  1.00  0.00     0.049 A 
ATOM     26  C   UNL A   1      41.586  28.378  30.392  1.00  0.00     0.074 A 
ATOM     27  C   UNL A   1      41.906  31.044  36.170  1.00  0.00     0.029 A 
ATOM     28  N   UNL A   1      41.358  30.526  34.077  1.00  0.00    -0.354 N 
ATOM     29  N   UNL A   1      41.570  28.989  31.552  1.00  0.00    -0.248 NA
ATOM     30  C   UNL A   1      42.592  27.312  30.287  1.00  0.00     0.031 C 
ATOM     31  C   UNL A   1      42.712  29.981  35.747  1.00  0.00     0.029 A 
ATOM     32  C   UNL A   1      42.356  29.645  34.450  1.00  0.00     0.049 A 
ATOM     33  H   UNL A   1      40.913  30.536  33.197  1.00  0.00     0.167 HD
ATOM     34  C   UNL A   1      42.524  28.350  32.333  1.00  0.00     0.074 A 
ATOM     35  C   UNL A   1      43.101  27.305  31.511  1.00  0.00     0.031 C 
ATOM     36  C   UNL A   1      42.888  28.597  33.616  1.00  0.00     0.037 A 
BRANCH  23  37
ATOM     37  C   UNL A   1      39.894  33.339  36.243  1.00  0.00     0.057 A 
ATOM     38  C   UNL A   1      40.655  34.504  36.418  1.00  0.00     0.134 A 
ATOM     39  C   UNL A   1      38.971  33.013  37.242  1.00  0.00     0.134 A 
ATOM     40  F   UNL A   1      41.574  34.859  35.508  1.00  0.00    -0.206 F 
ATOM     41  C   UNL A   1      40.537  35.287  37.568  1.00  0.00     0.040 A 
ATOM     42  C   UNL A   1      38.826  33.803  38.384  1.00  0.00     0.040 A 
ATOM     43  F   UNL A   1      38.213  31.911  37.135  1.00  0.00    -0.206 F 
ATOM     44  C   UNL A   1      39.618  34.936  38.555  1.00  0.00     0.006 A 
ENDBRANCH  23  37
BRANCH  24  45
ATOM     45  C   UNL A   1      40.856  27.764  27.972  1.00  0.00     0.057 A 
ATOM     46  C   UNL A   1      40.223  26.519  27.869  1.00  0.00     0.134 A 
ATOM     47  C   UNL A   1      41.650  28.172  26.893  1.00  0.00     0.134 A 
ATOM     48  F   UNL A   1      39.459  26.067  28.875  1.00  0.00    -0.206 F 
ATOM     49  C   UNL A   1      40.396  25.697  26.754  1.00  0.00     0.040 A 
ATOM     50  C   UNL A   1      41.815  27.369  25.761  1.00  0.00     0.040 A 
ATOM     51  F   UNL A   1      42.272  29.359  26.920  1.00  0.00    -0.206 F 
ATOM     52  C   UNL A   1      41.194  26.123  25.694  1.00  0.00     0.006 A 
ENDBRANCH  24  45
BRANCH  36  53
ATOM     53  C   UNL A   1      43.909  27.685  34.225  1.00  0.00     0.057 A 
ATOM     54  C   UNL A   1      45.274  27.994  34.226  1.00  0.00     0.134 A 
ATOM     55  C   UNL A   1      43.509  26.503  34.863  1.00  0.00     0.134 A 
ATOM     56  F   UNL A   1      45.719  29.104  33.619  1.00  0.00    -0.206 F 
ATOM     57  C   UNL A   1      46.210  27.148  34.822  1.00  0.00     0.040 A 
ATOM     58  C   UNL A   1      44.433  25.663  35.485  1.00  0.00     0.040 A 
ATOM     59  F   UNL A   1      42.214  26.155  34.904  1.00  0.00    -0.206 F 
ATOM     60  C   UNL A   1      45.788  25.983  35.461  1.00  0.00     0.006 A 
ENDBRANCH  36  53
ENDBRANCH  10  11
ENDBRANCH   3   5
ENDBRANCH   2   3
ENDBRANCH   1   2
BRANCH   1  61
ATOM     61  C   UNL A   1      31.228  31.733  26.602  1.00  0.00     0.275 C 
BRANCH  61  62
ATOM     62  O   UNL A   1      31.395  30.837  25.492  1.00  0.00    -0.458 OA
BRANCH  62  63
ATOM     63  C   UNL A   1      31.654  29.546  25.830  1.00  0.00     0.338 C 
ATOM     64  O   UNL A   1      31.901  29.124  26.948  1.00  0.00    -0.246 OA
BRANCH  63  65
ATOM     65  C   UNL A   1      31.522  28.664  24.646  1.00  0.00     0.060 A 
ATOM     66  C   UNL A   1      30.445  28.827  23.750  1.00  0.00     0.018 A 
ATOM     67  C   UNL A   1      32.524  27.705  24.403  1.00  0.00     0.022 A 
ATOM     68  C   UNL A   1      30.380  28.065  22.579  1.00  0.00     0.027 A 
ATOM     69  C   UNL A   1      32.427  26.928  23.258  1.00  0.00    -0.011 A 
ATOM     70  C   UNL A   1      31.389  27.150  22.355  1.00  0.00     0.045 A 
ATOM     71  C   UNL A   1      33.355  25.864  22.703  1.00  0.00     0.114 C 
ATOM     72  N   UNL A   1      31.586  26.389  21.216  1.00  0.00    -0.325 N 
ATOM     73  C   UNL A   1      32.768  25.663  21.287  1.00  0.00     0.232 C 
ATOM     74  H   UNL A   1      30.965  26.365  20.452  1.00  0.00     0.169 HD
ATOM     75  O   UNL A   1      33.231  24.975  20.391  1.00  0.00    -0.274 OA
BRANCH  71  76
ATOM     76  C   UNL A   1      33.373  24.544  23.512  1.00  0.00     0.010 C 
ATOM     77  C   UNL A   1      34.675  23.752  23.293  1.00  0.00     0.033 C 
ATOM     78  C   UNL A   1      32.202  23.593  23.199  1.00  0.00     0.033 C 
ATOM     79  C   UNL A   1      34.664  22.442  24.084  1.00  0.00     0.160 C 
ATOM     80  C   UNL A   1      32.292  22.349  24.073  1.00  0.00     0.160 C 
ATOM     81  O   UNL A   1      33.508  21.656  23.800  1.00  0.00    -0.381 OA
ENDBRANCH  71  76
ENDBRANCH  63  65
ENDBRANCH  62  63
ENDBRANCH  61  62
ENDBRANCH   1  61
TORSDOF 12
ENDMDL
MODEL 2
REMARK VINA RESULT:     -12.2      4.879     10.071
REMARK SMILES O=C(OCCOC(=O)c1ccc2c(c1)[C@@H](C1CCOCC1)C(=O)N2)c1ccc(-c2c3nc(c(-c4c(F)cccc4F)c4ccc([nH]4)c(-c4c(F)cccc4F)c4nc(c(-c5c(F)cccc5F)c5ccc2[nH]5)C=C4)C=C3)cc1
REMARK SMILES IDX 4 1 3 2 2 3 1 4 25 5 26 6 78 7 27 8 77 9 28 10 29 11 30 12
REMARK SMILES IDX 71 13 31 14 76 15 70 16 72 17 32 18 75 19 69 20 68 21 33 23
REMARK SMILES IDX 59 24 42 25 58 26 43 27 46 28 57 29 73 30 44 31 45 32 56 34
REMARK SMILES IDX 74 35 47 36 34 37 35 38 40 39 36 40 37 41 39 42 41 43 38 44
REMARK SMILES IDX 60 45 61 46 66 47 62 48 63 49 65 50 67 51 64 52 48 53 49 54
REMARK SMILES IDX 54 55 50 56 51 57 53 58 55 59 52 60 5 61 6 62 7 63 8 64 9 65
REMARK SMILES IDX 10 66 14 67 11 68 13 69 12 70 15 71 24 72 22 73 23 75 16 76
REMARK SMILES IDX 17 77 21 78 18 79 20 80 19 81
REMARK H PARENT 72 22 46 33 24 74
REMARK Flexibility Score: inf
ROOT
ATOM      1  C   UNL A   1      38.984  19.756  25.152  1.00  0.00     0.275 C 
ENDROOT
BRANCH   1   2
ATOM      2  O   UNL A   1      40.027  18.979  25.764  1.00  0.00    -0.458 OA
BRANCH   2   3
ATOM      3  C   UNL A   1      41.334  19.263  25.957  1.00  0.00     0.338 C 
ATOM      4  O   UNL A   1      42.166  18.379  25.751  1.00  0.00    -0.246 OA
BRANCH   3   5
ATOM      5  C   UNL A   1      41.840  20.559  26.509  1.00  0.00     0.060 A 
ATOM      6  C   UNL A   1      41.962  20.904  27.858  1.00  0.00     0.016 A 
ATOM      7  C   UNL A   1      42.187  21.531  25.555  1.00  0.00     0.016 A 
ATOM      8  C   UNL A   1      42.462  22.153  28.249  1.00  0.00     0.010 A 
ATOM      9  C   UNL A   1      42.678  22.777  25.944  1.00  0.00     0.010 A 
ATOM     10  C   UNL A   1      42.815  23.104  27.293  1.00  0.00    -0.014 A 
BRANCH  10  11
ATOM     11  C   UNL A   1      43.156  24.487  27.697  1.00  0.00     0.031 A 
ATOM     12  C   UNL A   1      44.591  24.925  27.608  1.00  0.00     0.074 A 
ATOM     13  C   UNL A   1      42.203  25.340  28.115  1.00  0.00     0.049 A 
ATOM     14  N   UNL A   1      45.113  26.101  27.837  1.00  0.00    -0.248 NA
ATOM     15  C   UNL A   1      45.570  23.897  27.215  1.00  0.00     0.031 C 
ATOM     16  C   UNL A   1      40.782  25.020  28.247  1.00  0.00     0.029 A 
ATOM     17  N   UNL A   1      42.286  26.653  28.502  1.00  0.00    -0.354 N 
ATOM     18  C   UNL A   1      46.475  25.953  27.605  1.00  0.00     0.074 A 
ATOM     19  C   UNL A   1      46.710  24.562  27.296  1.00  0.00     0.031 C 
ATOM     20  C   UNL A   1      40.124  26.108  28.684  1.00  0.00     0.029 A 
ATOM     21  C   UNL A   1      41.075  27.203  28.855  1.00  0.00     0.049 A 
ATOM     22  H   UNL A   1      43.131  27.155  28.526  1.00  0.00     0.167 HD
ATOM     23  C   UNL A   1      47.439  26.902  27.602  1.00  0.00     0.037 A 
ATOM     24  C   UNL A   1      40.773  28.455  29.245  1.00  0.00     0.037 A 
ATOM     25  C   UNL A   1      47.198  28.285  27.900  1.00  0.00     0.049 A 
ATOM     26  C   UNL A   1      41.869  29.489  29.267  1.00  0.00     0.074 A 
ATOM     27  C   UNL A   1      48.091  29.340  27.906  1.00  0.00     0.029 A 
ATOM     28  N   UNL A   1      45.959  28.803  28.249  1.00  0.00    -0.354 N 
ATOM     29  N   UNL A   1      43.137  29.355  28.963  1.00  0.00    -0.248 NA
ATOM     30  C   UNL A   1      41.484  30.854  29.655  1.00  0.00     0.031 C 
ATOM     31  C   UNL A   1      47.396  30.492  28.290  1.00  0.00     0.029 A 
ATOM     32  C   UNL A   1      46.064  30.161  28.484  1.00  0.00     0.049 A 
ATOM     33  H   UNL A   1      45.127  28.279  28.321  1.00  0.00     0.167 HD
ATOM     34  C   UNL A   1      43.692  30.624  29.072  1.00  0.00     0.074 A 
ATOM     35  C   UNL A   1      42.620  31.513  29.473  1.00  0.00     0.031 C 
ATOM     36  C   UNL A   1      44.969  31.023  28.854  1.00  0.00     0.037 A 
BRANCH  23  37
ATOM     37  C   UNL A   1      48.828  26.447  27.262  1.00  0.00     0.057 A 
ATOM     38  C   UNL A   1      49.282  26.402  25.936  1.00  0.00     0.134 A 
ATOM     39  C   UNL A   1      49.701  26.000  28.260  1.00  0.00     0.134 A 
ATOM     40  F   UNL A   1      48.485  26.794  24.931  1.00  0.00    -0.206 F 
ATOM     41  C   UNL A   1      50.538  25.885  25.612  1.00  0.00     0.040 A 
ATOM     42  C   UNL A   1      50.968  25.505  27.950  1.00  0.00     0.040 A 
ATOM     43  F   UNL A   1      49.327  26.016  29.549  1.00  0.00    -0.206 F 
ATOM     44  C   UNL A   1      51.385  25.437  26.622  1.00  0.00     0.006 A 
ENDBRANCH  23  37
BRANCH  24  45
ATOM     45  C   UNL A   1      39.374  28.824  29.583  1.00  0.00     0.057 A 
ATOM     46  C   UNL A   1      38.868  28.639  30.876  1.00  0.00     0.134 A 
ATOM     47  C   UNL A   1      38.502  29.348  28.621  1.00  0.00     0.134 A 
ATOM     48  F   UNL A   1      39.649  28.130  31.839  1.00  0.00    -0.206 F 
ATOM     49  C   UNL A   1      37.540  28.934  31.193  1.00  0.00     0.040 A 
ATOM     50  C   UNL A   1      37.177  29.666  28.930  1.00  0.00     0.040 A 
ATOM     51  F   UNL A   1      38.927  29.563  27.367  1.00  0.00    -0.206 F 
ATOM     52  C   UNL A   1      36.691  29.450  30.217  1.00  0.00     0.006 A 
ENDBRANCH  24  45
BRANCH  36  53
ATOM     53  C   UNL A   1      45.260  32.487  28.981  1.00  0.00     0.057 A 
ATOM     54  C   UNL A   1      45.728  33.050  30.175  1.00  0.00     0.134 A 
ATOM     55  C   UNL A   1      45.113  33.335  27.876  1.00  0.00     0.134 A 
ATOM     56  F   UNL A   1      45.875  32.291  31.271  1.00  0.00    -0.206 F 
ATOM     57  C   UNL A   1      46.021  34.410  30.270  1.00  0.00     0.040 A 
ATOM     58  C   UNL A   1      45.429  34.692  27.952  1.00  0.00     0.040 A 
ATOM     59  F   UNL A   1      44.677  32.855  26.702  1.00  0.00    -0.206 F 
ATOM     60  C   UNL A   1      45.879  35.233  29.154  1.00  0.00     0.006 A 
ENDBRANCH  36  53
ENDBRANCH  10  11
ENDBRANCH   3   5
ENDBRANCH   2   3
ENDBRANCH   1   2
BRANCH   1  61
ATOM     61  C   UNL A   1      38.704  21.104  25.821  1.00  0.00     0.275 C 
BRANCH  61  62
ATOM     62  O   UNL A   1      37.706  21.894  25.155  1.00  0.00    -0.458 OA
BRANCH  62  63
ATOM     63  C   UNL A   1      37.403  23.070  25.766  1.00  0.00     0.338 C 
ATOM     64  O   UNL A   1      38.192  23.934  26.108  1.00  0.00    -0.246 OA
BRANCH  63  65
ATOM     65  C   UNL A   1      35.934  23.218  25.905  1.00  0.00     0.060 A 
ATOM     66  C   UNL A   1      35.150  22.148  26.384  1.00  0.00     0.018 A 
ATOM     67  C   UNL A   1      35.351  24.465  25.607  1.00  0.00     0.022 A 
ATOM     68  C   UNL A   1      33.782  22.325  26.614  1.00  0.00     0.027 A 
ATOM     69  C   UNL A   1      33.985  24.615  25.802  1.00  0.00    -0.011 A 
ATOM     70  C   UNL A   1      33.241  23.564  26.336  1.00  0.00     0.045 A 
ATOM     71  C   UNL A   1      33.086  25.824  25.623  1.00  0.00     0.114 C 
ATOM     72  N   UNL A   1      31.952  23.989  26.602  1.00  0.00    -0.325 N 
ATOM     73  C   UNL A   1      31.786  25.334  26.300  1.00  0.00     0.232 C 
ATOM     74  H   UNL A   1      31.241  23.409  26.961  1.00  0.00     0.169 HD
ATOM     75  O   UNL A   1      30.779  25.989  26.513  1.00  0.00    -0.274 OA
BRANCH  71  76
ATOM     76  C   UNL A   1      32.850  26.234  24.149  1.00  0.00     0.010 C 
ATOM     77  C   UNL A   1      33.032  25.048  23.184  1.00  0.00     0.033 C 
ATOM     78  C   UNL A   1      33.766  27.370  23.654  1.00  0.00     0.033 C 
ATOM     79  C   UNL A   1      32.816  25.479  21.732  1.00  0.00     0.160 C 
ATOM     80  C   UNL A   1      33.425  27.723  22.211  1.00  0.00     0.160 C 
ATOM     81  O   UNL A   1      33.640  26.588  21.375  1.00  0.00    -0.381 OA
ENDBRANCH  71  76
ENDBRANCH  63  65
ENDBRANCH  62  63
ENDBRANCH  61  62
ENDBRANCH   1  61
TORSDOF 12
ENDMDL
MODEL 3
REMARK VINA RESULT:     -12.2      1.187      2.008
REMARK SMILES O=C(OCCOC(=O)c1ccc2c(c1)[C@@H](C1CCOCC1)C(=O)N2)c1ccc(-c2c3nc(c(-c4c(F)cccc4F)c4ccc([nH]4)c(-c4c(F)cccc4F)c4nc(c(-c5c(F)cccc5F)c5ccc2[nH]5)C=C4)C=C3)cc1
REMARK SMILES IDX 4 1 3 2 2 3 1 4 25 5 26 6 78 7 27 8 77 9 28 10 29 11 30 12
REMARK SMILES IDX 71 13 31 14 76 15 70 16 72 17 32 18 75 19 69 20 68 21 33 23
REMARK SMILES IDX 59 24 42 25 58 26 43 27 46 28 57 29 73 30 44 31 45 32 56 34
REMARK SMILES IDX 74 35 47 36 34 37 35 38 40 39 36 40 37 41 39 42 41 43 38 44
REMARK SMILES IDX 60 45 61 46 66 47 62 48 63 49 65 50 67 51 64 52 48 53 49 54
REMARK SMILES IDX 54 55 50 56 51 57 53 58 55 59 52 60 5 61 6 62 7 63 8 64 9 65
REMARK SMILES IDX 10 66 14 67 11 68 13 69 12 70 15 71 24 72 22 73 23 75 16 76
REMARK SMILES IDX 17 77 21 78 18 79 20 80 19 81
REMARK H PARENT 72 22 46 33 24 74
REMARK Flexibility Score: inf
ROOT
ATOM      1  C   UNL A   1      31.852  32.390  27.226  1.00  0.00     0.275 C 
ENDROOT
BRANCH   1   2
ATOM      2  O   UNL A   1      32.237  33.766  27.378  1.00  0.00    -0.458 OA
BRANCH   2   3
ATOM      3  C   UNL A   1      32.922  34.381  28.366  1.00  0.00     0.338 C 
ATOM      4  O   UNL A   1      32.519  35.469  28.775  1.00  0.00    -0.246 OA
BRANCH   3   5
ATOM      5  C   UNL A   1      34.211  33.875  28.936  1.00  0.00     0.060 A 
ATOM      6  C   UNL A   1      35.502  34.224  28.527  1.00  0.00     0.016 A 
ATOM      7  C   UNL A   1      34.090  32.922  29.961  1.00  0.00     0.016 A 
ATOM      8  C   UNL A   1      36.635  33.686  29.150  1.00  0.00     0.010 A 
ATOM      9  C   UNL A   1      35.218  32.380  30.577  1.00  0.00     0.010 A 
ATOM     10  C   UNL A   1      36.501  32.751  30.174  1.00  0.00    -0.014 A 
BRANCH  10  11
ATOM     11  C   UNL A   1      37.686  32.036  30.701  1.00  0.00     0.031 A 
ATOM     12  C   UNL A   1      38.183  32.388  32.074  1.00  0.00     0.074 A 
ATOM     13  C   UNL A   1      38.294  31.078  29.976  1.00  0.00     0.049 A 
ATOM     14  N   UNL A   1      39.151  31.850  32.768  1.00  0.00    -0.248 NA
ATOM     15  C   UNL A   1      37.500  33.501  32.755  1.00  0.00     0.031 C 
ATOM     16  C   UNL A   1      37.902  30.660  28.631  1.00  0.00     0.029 A 
ATOM     17  N   UNL A   1      39.368  30.279  30.272  1.00  0.00    -0.354 N 
ATOM     18  C   UNL A   1      39.183  32.552  33.966  1.00  0.00     0.074 A 
ATOM     19  C   UNL A   1      38.196  33.602  33.875  1.00  0.00     0.031 C 
ATOM     20  C   UNL A   1      38.723  29.680  28.216  1.00  0.00     0.029 A 
ATOM     21  C   UNL A   1      39.694  29.397  29.269  1.00  0.00     0.049 A 
ATOM     22  H   UNL A   1      39.861  30.332  31.122  1.00  0.00     0.167 HD
ATOM     23  C   UNL A   1      39.936  32.314  35.065  1.00  0.00     0.037 A 
ATOM     24  C   UNL A   1      40.652  28.451  29.224  1.00  0.00     0.037 A 
ATOM     25  C   UNL A   1      40.908  31.262  35.153  1.00  0.00     0.049 A 
ATOM     26  C   UNL A   1      41.502  28.225  30.447  1.00  0.00     0.074 A 
ATOM     27  C   UNL A   1      41.714  30.911  36.219  1.00  0.00     0.029 A 
ATOM     28  N   UNL A   1      41.208  30.388  34.117  1.00  0.00    -0.354 N 
ATOM     29  N   UNL A   1      41.465  28.840  31.604  1.00  0.00    -0.248 NA
ATOM     30  C   UNL A   1      42.503  27.151  30.368  1.00  0.00     0.031 C 
ATOM     31  C   UNL A   1      42.522  29.842  35.819  1.00  0.00     0.029 A 
ATOM     32  C   UNL A   1      42.192  29.503  34.515  1.00  0.00     0.049 A 
ATOM     33  H   UNL A   1      40.782  30.397  33.228  1.00  0.00     0.167 HD
ATOM     34  C   UNL A   1      42.398  28.199  32.408  1.00  0.00     0.074 A 
ATOM     35  C   UNL A   1      42.986  27.147  31.603  1.00  0.00     0.031 C 
ATOM     36  C   UNL A   1      42.735  28.448  33.697  1.00  0.00     0.037 A 
BRANCH  23  37
ATOM     37  C   UNL A   1      39.714  33.219  36.240  1.00  0.00     0.057 A 
ATOM     38  C   UNL A   1      38.752  32.931  37.218  1.00  0.00     0.134 A 
ATOM     39  C   UNL A   1      40.428  34.416  36.368  1.00  0.00     0.134 A 
ATOM     40  F   UNL A   1      38.017  31.811  37.139  1.00  0.00    -0.206 F 
ATOM     41  C   UNL A   1      38.477  33.822  38.257  1.00  0.00     0.040 A 
ATOM     42  C   UNL A   1      40.179  35.302  37.418  1.00  0.00     0.040 A 
ATOM     43  F   UNL A   1      41.362  34.752  35.466  1.00  0.00    -0.206 F 
ATOM     44  C   UNL A   1      39.193  35.012  38.359  1.00  0.00     0.006 A 
ENDBRANCH  23  37
BRANCH  24  45
ATOM     45  C   UNL A   1      40.821  27.605  28.014  1.00  0.00     0.057 A 
ATOM     46  C   UNL A   1      40.167  26.373  27.894  1.00  0.00     0.134 A 
ATOM     47  C   UNL A   1      41.656  27.994  26.959  1.00  0.00     0.134 A 
ATOM     48  F   UNL A   1      39.363  25.938  28.876  1.00  0.00    -0.206 F 
ATOM     49  C   UNL A   1      40.358  25.545  26.786  1.00  0.00     0.040 A 
ATOM     50  C   UNL A   1      41.840  27.185  25.835  1.00  0.00     0.040 A 
ATOM     51  F   UNL A   1      42.301  29.169  27.004  1.00  0.00    -0.206 F 
ATOM     52  C   UNL A   1      41.197  25.952  25.751  1.00  0.00     0.006 A 
ENDBRANCH  24  45
BRANCH  36  53
ATOM     53  C   UNL A   1      43.737  27.533  34.332  1.00  0.00     0.057 A 
ATOM     54  C   UNL A   1      43.361  26.333  34.948  1.00  0.00     0.134 A 
ATOM     55  C   UNL A   1      45.104  27.837  34.279  1.00  0.00     0.134 A 
ATOM     56  F   UNL A   1      42.067  25.995  35.042  1.00  0.00    -0.206 F 
ATOM     57  C   UNL A   1      44.309  25.477  35.510  1.00  0.00     0.040 A 
ATOM     58  C   UNL A   1      46.063  26.975  34.814  1.00  0.00     0.040 A 
ATOM     59  F   UNL A   1      45.529  28.966  33.695  1.00  0.00    -0.206 F 
ATOM     60  C   UNL A   1      45.665  25.794  35.436  1.00  0.00     0.006 A 
ENDBRANCH  36  53
ENDBRANCH  10  11
ENDBRANCH   3   5
ENDBRANCH   2   3
ENDBRANCH   1   2
BRANCH   1  61
ATOM     61  C   UNL A   1      32.995  31.432  26.877  1.00  0.00     0.275 C 
BRANCH  61  62
ATOM     62  O   UNL A   1      32.593  30.058  26.756  1.00  0.00    -0.458 OA
BRANCH  62  63
ATOM     63  C   UNL A   1      33.611  29.157  26.796  1.00  0.00     0.338 C 
ATOM     64  O   UNL A   1      34.499  29.103  27.630  1.00  0.00    -0.246 OA
BRANCH  63  65
ATOM     65  C   UNL A   1      33.465  28.162  25.707  1.00  0.00     0.060 A 
ATOM     66  C   UNL A   1      32.847  28.519  24.490  1.00  0.00     0.018 A 
ATOM     67  C   UNL A   1      34.009  26.876  25.891  1.00  0.00     0.022 A 
ATOM     68  C   UNL A   1      32.806  27.611  23.428  1.00  0.00     0.027 A 
ATOM     69  C   UNL A   1      33.925  25.971  24.843  1.00  0.00    -0.011 A 
ATOM     70  C   UNL A   1      33.368  26.367  23.628  1.00  0.00     0.045 A 
ATOM     71  C   UNL A   1      34.449  24.553  24.715  1.00  0.00     0.114 C 
ATOM     72  N   UNL A   1      33.544  25.370  22.684  1.00  0.00    -0.325 N 
ATOM     73  C   UNL A   1      34.253  24.295  23.204  1.00  0.00     0.232 C 
ATOM     74  H   UNL A   1      33.209  25.418  21.759  1.00  0.00     0.169 HD
ATOM     75  O   UNL A   1      34.622  23.318  22.572  1.00  0.00    -0.274 OA
BRANCH  71  76
ATOM     76  C   UNL A   1      33.697  23.512  25.581  1.00  0.00     0.010 C 
ATOM     77  C   UNL A   1      32.307  24.016  26.010  1.00  0.00     0.033 C 
ATOM     78  C   UNL A   1      34.447  23.093  26.860  1.00  0.00     0.033 C 
ATOM     79  C   UNL A   1      31.590  22.983  26.882  1.00  0.00     0.160 C 
ATOM     80  C   UNL A   1      33.643  22.041  27.614  1.00  0.00     0.160 C 
ATOM     81  O   UNL A   1      32.382  22.585  28.000  1.00  0.00    -0.381 OA
ENDBRANCH  71  76
ENDBRANCH  63  65
ENDBRANCH  62  63
ENDBRANCH  61  62
ENDBRANCH   1  61
TORSDOF 12
ENDMDL
