MODEL 1
REMARK VINA RESULT:     -10.8      0.000      0.000
REMARK SMILES C[C@H]1CN(S(=O)(=O)N2CCO[C@H](CC(=O)OCCOC(=O)c3ccc(-c4c5nc(c(-c6c(F)cccc6F)c6ccc([nH]6)c(-c6c(F)cccc6F)c6nc(c(-c7c(F)cccc7F)c7ccc4[nH]7)C=C6)C=C5)cc3)C2)C[C@H](C)O1
REMARK SMILES IDX 17 1 16 2 14 3 15 4 13 5 12 6 8 7 9 8 76 9 10 10 11 11 5 12
REMARK SMILES IDX 6 13 7 14 4 15 1 16 2 17 3 18 80 19 78 20 77 21 79 22 18 23
REMARK SMILES IDX 19 24 20 25 21 26 22 27 23 28 75 29 24 30 74 31 25 32 26 33
REMARK SMILES IDX 27 34 68 35 28 36 73 37 67 38 69 39 29 40 72 41 66 42 65 43
REMARK SMILES IDX 30 45 56 46 39 47 55 48 40 49 43 50 54 51 70 52 41 53 42 54
REMARK SMILES IDX 53 56 71 57 44 58 31 59 32 60 37 61 33 62 34 63 36 64 38 65
REMARK SMILES IDX 35 66 57 67 58 68 63 69 59 70 60 71 62 72 64 73 61 74 45 75
REMARK SMILES IDX 46 76 51 77 47 78 48 79 50 80 52 81 49 82
REMARK H PARENT 69 44 43 55
REMARK Flexibility Score: inf
ROOT
ATOM      1  C   UNL A   1      33.081  29.666  25.977  1.00  0.00     0.274 C 
ENDROOT
BRANCH   1   2
ATOM      2  O   UNL A   1      31.820  28.989  26.055  1.00  0.00    -0.462 OA
BRANCH   2   3
ATOM      3  C   UNL A   1      31.817  27.933  26.902  1.00  0.00     0.308 C 
ATOM      4  O   UNL A   1      31.151  27.831  27.926  1.00  0.00    -0.252 OA
BRANCH   3   5
ATOM      5  C   UNL A   1      32.789  26.894  26.479  1.00  0.00     0.156 C 
BRANCH   5   6
ATOM      6  C   UNL A   1      32.251  25.790  25.591  1.00  0.00     0.144 C 
ATOM      7  N   UNL A   1      31.891  24.688  23.492  1.00  0.00    -0.184 NA
ATOM      8  C   UNL A   1      30.748  23.911  24.002  1.00  0.00     0.132 C 
ATOM      9  C   UNL A   1      31.927  26.042  24.135  1.00  0.00     0.136 C 
ATOM     10  C   UNL A   1      30.869  23.771  25.525  1.00  0.00     0.177 C 
ATOM     11  O   UNL A   1      31.253  24.980  26.234  1.00  0.00    -0.375 OA
BRANCH   7  12
ATOM     12  S   UNL A   1      33.301  23.890  23.046  1.00  0.00     0.282 S 
ATOM     13  O   UNL A   1      34.164  24.840  22.381  1.00  0.00    -0.195 OA
ATOM     14  O   UNL A   1      32.870  22.685  22.373  1.00  0.00    -0.195 OA
BRANCH  12  15
ATOM     15  N   UNL A   1      34.126  23.350  24.480  1.00  0.00    -0.184 NA
ATOM     16  C   UNL A   1      37.765  23.675  25.790  1.00  0.00     0.040 C 
ATOM     17  C   UNL A   1      36.323  23.162  25.826  1.00  0.00     0.130 C 
ATOM     18  C   UNL A   1      35.527  23.847  24.713  1.00  0.00     0.135 C 
ATOM     19  O   UNL A   1      36.296  21.747  25.696  1.00  0.00    -0.373 OA
ATOM     20  C   UNL A   1      34.943  21.259  25.671  1.00  0.00     0.130 C 
ATOM     21  C   UNL A   1      34.180  21.829  24.462  1.00  0.00     0.135 C 
ATOM     22  C   UNL A   1      34.217  21.511  26.995  1.00  0.00     0.040 C 
ENDBRANCH  12  15
ENDBRANCH   7  12
ENDBRANCH   5   6
ENDBRANCH   3   5
ENDBRANCH   2   3
ENDBRANCH   1   2
BRANCH   1  23
ATOM     23  C   UNL A   1      33.339  30.390  27.297  1.00  0.00     0.275 C 
BRANCH  23  24
ATOM     24  O   UNL A   1      34.719  30.801  27.373  1.00  0.00    -0.458 OA
BRANCH  24  25
ATOM     25  C   UNL A   1      35.213  30.966  28.621  1.00  0.00     0.338 C 
ATOM     26  O   UNL A   1      34.730  31.629  29.525  1.00  0.00    -0.246 OA
BRANCH  25  27
ATOM     27  C   UNL A   1      36.540  30.328  28.725  1.00  0.00     0.060 A 
ATOM     28  C   UNL A   1      37.069  29.890  29.942  1.00  0.00     0.016 A 
ATOM     29  C   UNL A   1      37.304  30.247  27.560  1.00  0.00     0.016 A 
ATOM     30  C   UNL A   1      38.382  29.401  29.997  1.00  0.00     0.010 A 
ATOM     31  C   UNL A   1      38.590  29.706  27.607  1.00  0.00     0.010 A 
ATOM     32  C   UNL A   1      39.155  29.298  28.828  1.00  0.00    -0.014 A 
BRANCH  32  33
ATOM     33  C   UNL A   1      40.553  28.779  28.841  1.00  0.00     0.031 A 
ATOM     34  C   UNL A   1      41.709  29.724  29.059  1.00  0.00     0.074 A 
ATOM     35  C   UNL A   1      40.802  27.481  28.578  1.00  0.00     0.049 A 
ATOM     36  N   UNL A   1      42.995  29.511  28.926  1.00  0.00    -0.248 NA
ATOM     37  C   UNL A   1      41.369  31.095  29.471  1.00  0.00     0.031 C 
ATOM     38  C   UNL A   1      39.786  26.453  28.355  1.00  0.00     0.029 A 
ATOM     39  N   UNL A   1      41.992  26.811  28.428  1.00  0.00    -0.354 N 
ATOM     40  C   UNL A   1      43.615  30.723  29.212  1.00  0.00     0.074 A 
ATOM     41  C   UNL A   1      42.562  31.674  29.498  1.00  0.00     0.031 C 
ATOM     42  C   UNL A   1      40.394  25.284  28.095  1.00  0.00     0.029 A 
ATOM     43  C   UNL A   1      41.839  25.491  28.073  1.00  0.00     0.049 A 
ATOM     44  H   UNL A   1      42.871  27.234  28.561  1.00  0.00     0.167 HD
ATOM     45  C   UNL A   1      44.938  31.015  29.239  1.00  0.00     0.037 A 
ATOM     46  C   UNL A   1      42.752  24.562  27.729  1.00  0.00     0.037 A 
ATOM     47  C   UNL A   1      45.988  30.066  28.966  1.00  0.00     0.049 A 
ATOM     48  C   UNL A   1      44.213  24.928  27.705  1.00  0.00     0.074 A 
ATOM     49  C   UNL A   1      47.359  30.264  29.000  1.00  0.00     0.029 A 
ATOM     50  N   UNL A   1      45.787  28.743  28.608  1.00  0.00    -0.354 N 
ATOM     51  N   UNL A   1      44.785  26.071  27.996  1.00  0.00    -0.248 NA
ATOM     52  C   UNL A   1      45.154  23.874  27.300  1.00  0.00     0.031 C 
ATOM     53  C   UNL A   1      47.985  29.076  28.611  1.00  0.00     0.029 A 
ATOM     54  C   UNL A   1      47.007  28.120  28.392  1.00  0.00     0.049 A 
ATOM     55  H   UNL A   1      44.908  28.309  28.519  1.00  0.00     0.167 HD
ATOM     56  C   UNL A   1      46.150  25.863  27.841  1.00  0.00     0.074 A 
ATOM     57  C   UNL A   1      46.322  24.482  27.445  1.00  0.00     0.031 C 
ATOM     58  C   UNL A   1      47.171  26.740  28.011  1.00  0.00     0.037 A 
BRANCH  45  59
ATOM     59  C   UNL A   1      45.336  32.428  29.563  1.00  0.00     0.057 A 
ATOM     60  C   UNL A   1      45.625  32.836  30.871  1.00  0.00     0.134 A 
ATOM     61  C   UNL A   1      45.488  33.379  28.544  1.00  0.00     0.134 A 
ATOM     62  F   UNL A   1      45.492  31.980  31.895  1.00  0.00    -0.206 F 
ATOM     63  C   UNL A   1      46.029  34.142  31.158  1.00  0.00     0.040 A 
ATOM     64  C   UNL A   1      45.919  34.680  28.814  1.00  0.00     0.040 A 
ATOM     65  F   UNL A   1      45.240  33.054  27.266  1.00  0.00    -0.206 F 
ATOM     66  C   UNL A   1      46.185  35.065  30.125  1.00  0.00     0.006 A 
ENDBRANCH  45  59
BRANCH  46  67
ATOM     67  C   UNL A   1      42.319  23.189  27.354  1.00  0.00     0.057 A 
ATOM     68  C   UNL A   1      42.069  22.219  28.331  1.00  0.00     0.134 A 
ATOM     69  C   UNL A   1      42.177  22.806  26.015  1.00  0.00     0.134 A 
ATOM     70  F   UNL A   1      42.213  22.517  29.631  1.00  0.00    -0.206 F 
ATOM     71  C   UNL A   1      41.719  20.911  27.991  1.00  0.00     0.040 A 
ATOM     72  C   UNL A   1      41.795  21.511  25.661  1.00  0.00     0.040 A 
ATOM     73  F   UNL A   1      42.400  23.688  25.029  1.00  0.00    -0.206 F 
ATOM     74  C   UNL A   1      41.576  20.556  26.652  1.00  0.00     0.006 A 
ENDBRANCH  46  67
BRANCH  58  75
ATOM     75  C   UNL A   1      48.567  26.221  27.818  1.00  0.00     0.057 A 
ATOM     76  C   UNL A   1      49.316  25.686  28.874  1.00  0.00     0.134 A 
ATOM     77  C   UNL A   1      49.159  26.229  26.547  1.00  0.00     0.134 A 
ATOM     78  F   UNL A   1      48.815  25.661  30.118  1.00  0.00    -0.206 F 
ATOM     79  C   UNL A   1      50.611  25.202  28.679  1.00  0.00     0.040 A 
ATOM     80  C   UNL A   1      50.441  25.720  26.334  1.00  0.00     0.040 A 
ATOM     81  F   UNL A   1      48.495  26.718  25.489  1.00  0.00    -0.206 F 
ATOM     82  C   UNL A   1      51.174  25.212  27.404  1.00  0.00     0.006 A 
ENDBRANCH  58  75
ENDBRANCH  32  33
ENDBRANCH  25  27
ENDBRANCH  24  25
ENDBRANCH  23  24
ENDBRANCH   1  23
TORSDOF 14
ENDMDL
MODEL 2
REMARK VINA RESULT:     -10.8      4.445      7.763
REMARK SMILES C[C@H]1CN(S(=O)(=O)N2CCO[C@H](CC(=O)OCCOC(=O)c3ccc(-c4c5nc(c(-c6c(F)cccc6F)c6ccc([nH]6)c(-c6c(F)cccc6F)c6nc(c(-c7c(F)cccc7F)c7ccc4[nH]7)C=C6)C=C5)cc3)C2)C[C@H](C)O1
REMARK SMILES IDX 17 1 16 2 14 3 15 4 13 5 12 6 8 7 9 8 76 9 10 10 11 11 5 12
REMARK SMILES IDX 6 13 7 14 4 15 1 16 2 17 3 18 80 19 78 20 77 21 79 22 18 23
REMARK SMILES IDX 19 24 20 25 21 26 22 27 23 28 75 29 24 30 74 31 25 32 26 33
REMARK SMILES IDX 27 34 68 35 28 36 73 37 67 38 69 39 29 40 72 41 66 42 65 43
REMARK SMILES IDX 30 45 56 46 39 47 55 48 40 49 43 50 54 51 70 52 41 53 42 54
REMARK SMILES IDX 53 56 71 57 44 58 31 59 32 60 37 61 33 62 34 63 36 64 38 65
REMARK SMILES IDX 35 66 57 67 58 68 63 69 59 70 60 71 62 72 64 73 61 74 45 75
REMARK SMILES IDX 46 76 51 77 47 78 48 79 50 80 52 81 49 82
REMARK H PARENT 69 44 43 55
REMARK Flexibility Score: inf
ROOT
ATOM      1  C   UNL A   1      31.756  31.074  26.610  1.00  0.00     0.274 C 
ENDROOT
BRANCH   1   2
ATOM      2  O   UNL A   1      33.104  30.662  26.869  1.00  0.00    -0.462 OA
BRANCH   2   3
ATOM      3  C   UNL A   1      33.255  29.321  26.977  1.00  0.00     0.308 C 
ATOM      4  O   UNL A   1      34.311  28.704  26.894  1.00  0.00    -0.252 OA
BRANCH   3   5
ATOM      5  C   UNL A   1      31.949  28.639  27.151  1.00  0.00     0.156 C 
BRANCH   5   6
ATOM      6  C   UNL A   1      31.666  27.478  26.220  1.00  0.00     0.144 C 
ATOM      7  N   UNL A   1      31.473  26.429  24.072  1.00  0.00    -0.184 NA
ATOM      8  C   UNL A   1      30.615  25.347  24.585  1.00  0.00     0.132 C 
ATOM      9  C   UNL A   1      31.190  27.707  24.802  1.00  0.00     0.136 C 
ATOM     10  C   UNL A   1      30.871  25.166  26.087  1.00  0.00     0.177 C 
ATOM     11  O   UNL A   1      30.966  26.396  26.856  1.00  0.00    -0.375 OA
BRANCH   7  12
ATOM     12  S   UNL A   1      33.011  26.065  23.502  1.00  0.00     0.282 S 
ATOM     13  O   UNL A   1      33.887  27.166  23.836  1.00  0.00    -0.195 OA
ATOM     14  O   UNL A   1      32.831  25.655  22.128  1.00  0.00    -0.195 OA
BRANCH  12  15
ATOM     15  N   UNL A   1      33.606  24.656  24.332  1.00  0.00    -0.184 NA
ATOM     16  C   UNL A   1      36.994  23.713  25.976  1.00  0.00     0.040 C 
ATOM     17  C   UNL A   1      35.567  23.438  25.493  1.00  0.00     0.130 C 
ATOM     18  C   UNL A   1      34.950  24.749  25.002  1.00  0.00     0.135 C 
ATOM     19  O   UNL A   1      35.569  22.446  24.475  1.00  0.00    -0.373 OA
ATOM     20  C   UNL A   1      34.239  22.221  23.974  1.00  0.00     0.130 C 
ATOM     21  C   UNL A   1      33.671  23.503  23.340  1.00  0.00     0.135 C 
ATOM     22  C   UNL A   1      33.315  21.635  25.042  1.00  0.00     0.040 C 
ENDBRANCH  12  15
ENDBRANCH   7  12
ENDBRANCH   5   6
ENDBRANCH   3   5
ENDBRANCH   2   3
ENDBRANCH   1   2
BRANCH   1  23
ATOM     23  C   UNL A   1      31.627  32.566  26.910  1.00  0.00     0.275 C 
BRANCH  23  24
ATOM     24  O   UNL A   1      32.935  33.159  27.042  1.00  0.00    -0.458 OA
BRANCH  24  25
ATOM     25  C   UNL A   1      33.123  33.926  28.140  1.00  0.00     0.338 C 
ATOM     26  O   UNL A   1      32.464  34.894  28.486  1.00  0.00    -0.246 OA
BRANCH  25  27
ATOM     27  C   UNL A   1      34.359  33.517  28.833  1.00  0.00     0.060 A 
ATOM     28  C   UNL A   1      35.563  34.213  28.693  1.00  0.00     0.016 A 
ATOM     29  C   UNL A   1      34.313  32.341  29.585  1.00  0.00     0.016 A 
ATOM     30  C   UNL A   1      36.733  33.709  29.280  1.00  0.00     0.010 A 
ATOM     31  C   UNL A   1      35.467  31.874  30.216  1.00  0.00     0.010 A 
ATOM     32  C   UNL A   1      36.696  32.537  30.054  1.00  0.00    -0.014 A 
BRANCH  32  33
ATOM     33  C   UNL A   1      37.915  31.970  30.700  1.00  0.00     0.031 A 
ATOM     34  C   UNL A   1      38.701  30.883  30.009  1.00  0.00     0.074 A 
ATOM     35  C   UNL A   1      38.279  32.364  31.936  1.00  0.00     0.049 A 
ATOM     36  N   UNL A   1      39.672  30.135  30.473  1.00  0.00    -0.248 NA
ATOM     37  C   UNL A   1      38.335  30.591  28.614  1.00  0.00     0.031 C 
ATOM     38  C   UNL A   1      37.620  33.408  32.719  1.00  0.00     0.029 A 
ATOM     39  N   UNL A   1      39.279  31.910  32.761  1.00  0.00    -0.354 N 
ATOM     40  C   UNL A   1      40.015  29.270  29.439  1.00  0.00     0.074 A 
ATOM     41  C   UNL A   1      39.129  29.567  28.333  1.00  0.00     0.031 C 
ATOM     42  C   UNL A   1      38.230  33.514  33.910  1.00  0.00     0.029 A 
ATOM     43  C   UNL A   1      39.283  32.508  33.999  1.00  0.00     0.049 A 
ATOM     44  H   UNL A   1      39.931  31.223  32.492  1.00  0.00     0.167 HD
ATOM     45  C   UNL A   1      40.982  28.320  29.411  1.00  0.00     0.037 A 
ATOM     46  C   UNL A   1      40.022  32.251  35.096  1.00  0.00     0.037 A 
ATOM     47  C   UNL A   1      41.873  28.031  30.507  1.00  0.00     0.049 A 
ATOM     48  C   UNL A   1      41.047  31.148  35.061  1.00  0.00     0.074 A 
ATOM     49  C   UNL A   1      42.904  27.107  30.558  1.00  0.00     0.029 A 
ATOM     50  N   UNL A   1      41.839  28.658  31.742  1.00  0.00    -0.354 N 
ATOM     51  N   UNL A   1      41.374  30.353  34.072  1.00  0.00    -0.248 NA
ATOM     52  C   UNL A   1      41.803  30.905  36.299  1.00  0.00     0.031 C 
ATOM     53  C   UNL A   1      43.458  27.139  31.842  1.00  0.00     0.029 A 
ATOM     54  C   UNL A   1      42.813  28.123  32.571  1.00  0.00     0.049 A 
ATOM     55  H   UNL A   1      41.215  29.377  31.994  1.00  0.00     0.167 HD
ATOM     56  C   UNL A   1      42.392  29.541  34.557  1.00  0.00     0.074 A 
ATOM     57  C   UNL A   1      42.639  29.949  35.923  1.00  0.00     0.031 C 
ATOM     58  C   UNL A   1      43.062  28.544  33.926  1.00  0.00     0.037 A 
BRANCH  45  59
ATOM     59  C   UNL A   1      41.125  27.505  28.156  1.00  0.00     0.057 A 
ATOM     60  C   UNL A   1      40.410  26.316  27.957  1.00  0.00     0.134 A 
ATOM     61  C   UNL A   1      41.945  27.945  27.107  1.00  0.00     0.134 A 
ATOM     62  F   UNL A   1      39.614  25.833  28.922  1.00  0.00    -0.206 F 
ATOM     63  C   UNL A   1      40.521  25.585  26.773  1.00  0.00     0.040 A 
ATOM     64  C   UNL A   1      42.043  27.238  25.907  1.00  0.00     0.040 A 
ATOM     65  F   UNL A   1      42.650  29.080  27.224  1.00  0.00    -0.206 F 
ATOM     66  C   UNL A   1      41.334  26.051  25.741  1.00  0.00     0.006 A 
ENDBRANCH  45  59
BRANCH  46  67
ATOM     67  C   UNL A   1      39.812  33.036  36.342  1.00  0.00     0.057 A 
ATOM     68  C   UNL A   1      38.842  32.660  37.278  1.00  0.00     0.134 A 
ATOM     69  C   UNL A   1      40.549  34.196  36.610  1.00  0.00     0.134 A 
ATOM     70  F   UNL A   1      38.085  31.574  37.066  1.00  0.00    -0.206 F 
ATOM     71  C   UNL A   1      38.595  33.420  38.422  1.00  0.00     0.040 A 
ATOM     72  C   UNL A   1      40.336  34.948  37.766  1.00  0.00     0.040 A 
ATOM     73  F   UNL A   1      41.495  34.611  35.754  1.00  0.00    -0.206 F 
ATOM     74  C   UNL A   1      39.347  34.565  38.671  1.00  0.00     0.006 A 
ENDBRANCH  46  67
BRANCH  58  75
ATOM     75  C   UNL A   1      44.160  27.859  34.689  1.00  0.00     0.057 A 
ATOM     76  C   UNL A   1      45.470  28.353  34.714  1.00  0.00     0.134 A 
ATOM     77  C   UNL A   1      43.893  26.703  35.435  1.00  0.00     0.134 A 
ATOM     78  F   UNL A   1      45.798  29.448  34.011  1.00  0.00    -0.206 F 
ATOM     79  C   UNL A   1      46.480  27.709  35.432  1.00  0.00     0.040 A 
ATOM     80  C   UNL A   1      44.886  26.067  36.181  1.00  0.00     0.040 A 
ATOM     81  F   UNL A   1      42.657  26.180  35.463  1.00  0.00    -0.206 F 
ATOM     82  C   UNL A   1      46.186  26.566  36.174  1.00  0.00     0.006 A 
ENDBRANCH  58  75
ENDBRANCH  32  33
ENDBRANCH  25  27
ENDBRANCH  24  25
ENDBRANCH  23  24
ENDBRANCH   1  23
TORSDOF 14
ENDMDL
MODEL 3
REMARK VINA RESULT:     -10.7      2.015      7.632
REMARK SMILES C[C@H]1CN(S(=O)(=O)N2CCO[C@H](CC(=O)OCCOC(=O)c3ccc(-c4c5nc(c(-c6c(F)cccc6F)c6ccc([nH]6)c(-c6c(F)cccc6F)c6nc(c(-c7c(F)cccc7F)c7ccc4[nH]7)C=C6)C=C5)cc3)C2)C[C@H](C)O1
REMARK SMILES IDX 17 1 16 2 14 3 15 4 13 5 12 6 8 7 9 8 76 9 10 10 11 11 5 12
REMARK SMILES IDX 6 13 7 14 4 15 1 16 2 17 3 18 80 19 78 20 77 21 79 22 18 23
REMARK SMILES IDX 19 24 20 25 21 26 22 27 23 28 75 29 24 30 74 31 25 32 26 33
REMARK SMILES IDX 27 34 68 35 28 36 73 37 67 38 69 39 29 40 72 41 66 42 65 43
REMARK SMILES IDX 30 45 56 46 39 47 55 48 40 49 43 50 54 51 70 52 41 53 42 54
REMARK SMILES IDX 53 56 71 57 44 58 31 59 32 60 37 61 33 62 34 63 36 64 38 65
REMARK SMILES IDX 35 66 57 67 58 68 63 69 59 70 60 71 62 72 64 73 61 74 45 75
REMARK SMILES IDX 46 76 51 77 47 78 48 79 50 80 52 81 49 82
REMARK H PARENT 69 44 43 55
REMARK Flexibility Score: inf
ROOT
ATOM      1  C   UNL A   1      37.584  20.539  25.068  1.00  0.00     0.274 C 
ENDROOT
BRANCH   1   2
ATOM      2  O   UNL A   1      38.035  21.867  25.366  1.00  0.00    -0.462 OA
BRANCH   2   3
ATOM      3  C   UNL A   1      37.074  22.812  25.241  1.00  0.00     0.308 C 
ATOM      4  O   UNL A   1      36.655  23.538  26.136  1.00  0.00    -0.252 OA
BRANCH   3   5
ATOM      5  C   UNL A   1      36.511  22.838  23.868  1.00  0.00     0.156 C 
BRANCH   5   6
ATOM      6  C   UNL A   1      35.001  22.798  23.758  1.00  0.00     0.144 C 
ATOM      7  N   UNL A   1      32.804  22.103  24.423  1.00  0.00    -0.184 NA
ATOM      8  C   UNL A   1      32.215  22.424  23.112  1.00  0.00     0.132 C 
ATOM      9  C   UNL A   1      34.209  21.608  24.256  1.00  0.00     0.136 C 
ATOM     10  C   UNL A   1      33.073  23.491  22.419  1.00  0.00     0.177 C 
ATOM     11  O   UNL A   1      34.509  23.286  22.499  1.00  0.00    -0.375 OA
BRANCH   7  12
ATOM     12  S   UNL A   1      32.339  22.984  25.777  1.00  0.00     0.282 S 
ATOM     13  O   UNL A   1      33.408  22.912  26.748  1.00  0.00    -0.195 OA
ATOM     14  O   UNL A   1      31.010  22.522  26.105  1.00  0.00    -0.195 OA
BRANCH  12  15
ATOM     15  N   UNL A   1      32.152  24.655  25.330  1.00  0.00    -0.184 NA
ATOM     16  C   UNL A   1      33.649  27.990  26.638  1.00  0.00     0.040 C 
ATOM     17  C   UNL A   1      32.718  27.137  25.770  1.00  0.00     0.130 C 
ATOM     18  C   UNL A   1      33.068  25.662  25.972  1.00  0.00     0.135 C 
ATOM     19  O   UNL A   1      31.359  27.403  26.092  1.00  0.00    -0.373 OA
ATOM     20  C   UNL A   1      30.477  26.566  25.323  1.00  0.00     0.130 C 
ATOM     21  C   UNL A   1      30.723  25.080  25.637  1.00  0.00     0.135 C 
ATOM     22  C   UNL A   1      30.557  26.870  23.825  1.00  0.00     0.040 C 
ENDBRANCH  12  15
ENDBRANCH   7  12
ENDBRANCH   5   6
ENDBRANCH   3   5
ENDBRANCH   2   3
ENDBRANCH   1   2
BRANCH   1  23
ATOM     23  C   UNL A   1      38.799  19.643  24.836  1.00  0.00     0.275 C 
BRANCH  23  24
ATOM     24  O   UNL A   1      39.513  19.449  26.074  1.00  0.00    -0.458 OA
BRANCH  24  25
ATOM     25  C   UNL A   1      40.852  19.632  26.014  1.00  0.00     0.338 C 
ATOM     26  O   UNL A   1      41.696  18.807  25.702  1.00  0.00    -0.246 OA
BRANCH  25  27
ATOM     27  C   UNL A   1      41.199  20.972  26.523  1.00  0.00     0.060 A 
ATOM     28  C   UNL A   1      41.686  21.987  25.695  1.00  0.00     0.016 A 
ATOM     29  C   UNL A   1      41.104  21.178  27.901  1.00  0.00     0.016 A 
ATOM     30  C   UNL A   1      42.112  23.200  26.254  1.00  0.00     0.010 A 
ATOM     31  C   UNL A   1      41.474  22.407  28.447  1.00  0.00     0.010 A 
ATOM     32  C   UNL A   1      42.004  23.426  27.637  1.00  0.00    -0.014 A 
BRANCH  32  33
ATOM     33  C   UNL A   1      42.441  24.703  28.272  1.00  0.00     0.031 A 
ATOM     34  C   UNL A   1      41.448  25.817  28.494  1.00  0.00     0.074 A 
ATOM     35  C   UNL A   1      43.738  24.905  28.578  1.00  0.00     0.049 A 
ATOM     36  N   UNL A   1      41.656  27.058  28.856  1.00  0.00    -0.248 NA
ATOM     37  C   UNL A   1      40.031  25.490  28.264  1.00  0.00     0.031 C 
ATOM     38  C   UNL A   1      44.806  23.918  28.426  1.00  0.00     0.029 A 
ATOM     39  N   UNL A   1      44.381  26.020  29.057  1.00  0.00    -0.354 N 
ATOM     40  C   UNL A   1      40.405  27.667  28.873  1.00  0.00     0.074 A 
ATOM     41  C   UNL A   1      39.447  26.665  28.458  1.00  0.00     0.031 C 
ATOM     42  C   UNL A   1      45.971  24.470  28.801  1.00  0.00     0.029 A 
ATOM     43  C   UNL A   1      45.743  25.866  29.163  1.00  0.00     0.049 A 
ATOM     44  H   UNL A   1      43.912  26.851  29.301  1.00  0.00     0.167 HD
ATOM     45  C   UNL A   1      40.084  28.940  29.210  1.00  0.00     0.037 A 
ATOM     46  C   UNL A   1      46.706  26.755  29.476  1.00  0.00     0.037 A 
ATOM     47  C   UNL A   1      41.035  29.936  29.636  1.00  0.00     0.049 A 
ATOM     48  C   UNL A   1      46.331  28.181  29.785  1.00  0.00     0.074 A 
ATOM     49  C   UNL A   1      40.798  31.243  30.026  1.00  0.00     0.029 A 
ATOM     50  N   UNL A   1      42.404  29.737  29.725  1.00  0.00    -0.354 N 
ATOM     51  N   UNL A   1      45.144  28.736  29.817  1.00  0.00    -0.248 NA
ATOM     52  C   UNL A   1      47.432  29.104  30.096  1.00  0.00     0.031 C 
ATOM     53  C   UNL A   1      42.027  31.850  30.301  1.00  0.00     0.029 A 
ATOM     54  C   UNL A   1      43.026  30.905  30.139  1.00  0.00     0.049 A 
ATOM     55  H   UNL A   1      42.866  28.891  29.524  1.00  0.00     0.167 HD
ATOM     56  C   UNL A   1      45.353  30.060  30.183  1.00  0.00     0.074 A 
ATOM     57  C   UNL A   1      46.778  30.222  30.376  1.00  0.00     0.031 C 
ATOM     58  C   UNL A   1      44.444  31.054  30.343  1.00  0.00     0.037 A 
BRANCH  45  59
ATOM     59  C   UNL A   1      38.638  29.343  29.120  1.00  0.00     0.057 A 
ATOM     60  C   UNL A   1      38.049  29.727  27.908  1.00  0.00     0.134 A 
ATOM     61  C   UNL A   1      37.810  29.291  30.250  1.00  0.00     0.134 A 
ATOM     62  F   UNL A   1      38.786  29.807  26.790  1.00  0.00    -0.206 F 
ATOM     63  C   UNL A   1      36.697  30.065  27.827  1.00  0.00     0.040 A 
ATOM     64  C   UNL A   1      36.450  29.598  30.176  1.00  0.00     0.040 A 
ATOM     65  F   UNL A   1      38.305  28.920  31.440  1.00  0.00    -0.206 F 
ATOM     66  C   UNL A   1      35.891  29.992  28.963  1.00  0.00     0.006 A 
ENDBRANCH  45  59
BRANCH  46  67
ATOM     67  C   UNL A   1      48.133  26.337  29.496  1.00  0.00     0.057 A 
ATOM     68  C   UNL A   1      48.722  25.830  30.660  1.00  0.00     0.134 A 
ATOM     69  C   UNL A   1      48.950  26.466  28.365  1.00  0.00     0.134 A 
ATOM     70  F   UNL A   1      47.999  25.707  31.782  1.00  0.00    -0.206 F 
ATOM     71  C   UNL A   1      50.074  25.488  30.708  1.00  0.00     0.040 A 
ATOM     72  C   UNL A   1      50.296  26.097  28.389  1.00  0.00     0.040 A 
ATOM     73  F   UNL A   1      48.449  26.944  27.217  1.00  0.00    -0.206 F 
ATOM     74  C   UNL A   1      50.864  25.617  29.568  1.00  0.00     0.006 A 
ENDBRANCH  46  67
BRANCH  58  75
ATOM     75  C   UNL A   1      44.956  32.392  30.795  1.00  0.00     0.057 A 
ATOM     76  C   UNL A   1      45.305  33.402  29.889  1.00  0.00     0.134 A 
ATOM     77  C   UNL A   1      45.073  32.684  32.161  1.00  0.00     0.134 A 
ATOM     78  F   UNL A   1      45.230  33.184  28.567  1.00  0.00    -0.206 F 
ATOM     79  C   UNL A   1      45.774  34.642  30.323  1.00  0.00     0.040 A 
ATOM     80  C   UNL A   1      45.512  33.930  32.608  1.00  0.00     0.040 A 
ATOM     81  F   UNL A   1      44.748  31.766  33.085  1.00  0.00    -0.206 F 
ATOM     82  C   UNL A   1      45.872  34.912  31.687  1.00  0.00     0.006 A 
ENDBRANCH  58  75
ENDBRANCH  32  33
ENDBRANCH  25  27
ENDBRANCH  24  25
ENDBRANCH  23  24
ENDBRANCH   1  23
TORSDOF 14
ENDMDL
