MODEL 1
REMARK VINA RESULT:     -12.4      0.000      0.000
REMARK SMILES Nn1c(S[C@@H](C(=O)OCCOC(=O)c2ccc(-c3c4nc(c(-c5c(F)cccc5F)c5ccc([nH]5)c(-c5c(F)cccc5F)c5nc(c(-c6c(F)cccc6F)c6ccc3[nH]6)C=C5)C=C4)cc2)c2ccccc2)nc2ccc(Br)cc2c1=O
REMARK SMILES IDX 9 1 8 2 6 3 7 4 5 5 4 6 3 7 2 8 82 9 74 10 81 11 83 12 75 13
REMARK SMILES IDX 80 14 76 15 78 16 77 17 79 18 1 19 68 22 69 23 73 24 70 25
REMARK SMILES IDX 72 26 71 27 10 28 11 29 12 30 13 31 14 32 15 33 67 34 16 35
REMARK SMILES IDX 66 36 17 37 18 38 19 39 60 40 20 41 65 42 59 43 61 44 21 45
REMARK SMILES IDX 64 46 58 47 57 48 22 50 48 51 31 52 47 53 32 54 35 55 46 56
REMARK SMILES IDX 62 57 33 58 34 59 45 61 63 62 36 63 23 64 24 65 29 66 25 67
REMARK SMILES IDX 26 68 28 69 30 70 27 71 49 72 50 73 55 74 51 75 52 76 54 77
REMARK SMILES IDX 56 78 53 79 37 80 38 81 43 82 39 83 40 84 42 85 44 86 41 87
REMARK H PARENT 1 20 1 21 61 49 35 60
REMARK Flexibility Score: inf
ROOT
ATOM      1  C   UNL A   1      36.257  21.492  24.774  1.00  0.00     0.274 C 
ENDROOT
BRANCH   1   2
ATOM      2  O   UNL A   1      35.558  21.635  26.035  1.00  0.00    -0.461 OA
BRANCH   2   3
ATOM      3  C   UNL A   1      34.291  21.120  26.086  1.00  0.00     0.324 C 
ATOM      4  O   UNL A   1      33.631  21.129  27.125  1.00  0.00    -0.251 OA
BRANCH   3   5
ATOM      5  C   UNL A   1      33.819  20.425  24.780  1.00  0.00     0.194 C 
BRANCH   5   6
ATOM      6  S   UNL A   1      32.612  21.372  23.807  1.00  0.00    -0.066 SA
BRANCH   6   7
ATOM      7  C   UNL A   1      32.285  22.955  24.488  1.00  0.00     0.191 A 
ATOM      8  N   UNL A   1      31.396  23.197  25.529  1.00  0.00    -0.202 N 
ATOM      9  C   UNL A   1      31.103  24.483  25.991  1.00  0.00     0.280 A 
ATOM     10  N   UNL A   1      32.950  23.918  23.926  1.00  0.00    -0.222 NA
ATOM     11  C   UNL A   1      31.875  25.570  25.388  1.00  0.00     0.069 A 
ATOM     12  O   UNL A   1      30.257  24.720  26.853  1.00  0.00    -0.267 OA
ATOM     13  C   UNL A   1      32.779  25.232  24.383  1.00  0.00     0.079 A 
ATOM     14  C   UNL A   1      31.716  26.889  25.831  1.00  0.00     0.031 A 
ATOM     15  C   UNL A   1      33.545  26.252  23.815  1.00  0.00     0.030 A 
ATOM     16  C   UNL A   1      32.487  27.888  25.251  1.00  0.00     0.018 A 
ATOM     17  C   UNL A   1      33.402  27.577  24.246  1.00  0.00     0.018 A 
ATOM     18  Br  UNL A   1      32.296  29.676  25.833  1.00  0.00    -0.051 Br
BRANCH   8  19
ATOM     19  N   UNL A   1      30.738  22.170  26.205  1.00  0.00    -0.334 N 
ATOM     20  H   UNL A   1      31.082  21.852  27.071  1.00  0.00     0.178 HD
ATOM     21  H   UNL A   1      29.932  21.762  25.815  1.00  0.00     0.178 HD
ENDBRANCH   8  19
ENDBRANCH   6   7
ENDBRANCH   5   6
BRANCH   5  22
ATOM     22  C   UNL A   1      33.685  18.888  24.858  1.00  0.00    -0.023 A 
ATOM     23  C   UNL A   1      32.587  18.223  25.431  1.00  0.00     0.005 A 
ATOM     24  C   UNL A   1      34.708  18.074  24.323  1.00  0.00     0.005 A 
ATOM     25  C   UNL A   1      32.562  16.827  25.555  1.00  0.00     0.000 A 
ATOM     26  C   UNL A   1      34.683  16.681  24.443  1.00  0.00     0.000 A 
ATOM     27  C   UNL A   1      33.617  16.059  25.076  1.00  0.00     0.000 A 
ENDBRANCH   5  22
ENDBRANCH   3   5
ENDBRANCH   2   3
ENDBRANCH   1   2
BRANCH   1  28
ATOM     28  C   UNL A   1      37.748  21.227  24.988  1.00  0.00     0.275 C 
BRANCH  28  29
ATOM     29  O   UNL A   1      38.198  21.985  26.122  1.00  0.00    -0.458 OA
BRANCH  29  30
ATOM     30  C   UNL A   1      39.514  21.897  26.425  1.00  0.00     0.338 C 
ATOM     31  O   UNL A   1      40.237  20.937  26.200  1.00  0.00    -0.246 OA
BRANCH  30  32
ATOM     32  C   UNL A   1      40.000  23.219  26.914  1.00  0.00     0.060 A 
ATOM     33  C   UNL A   1      39.326  24.380  26.527  1.00  0.00     0.016 A 
ATOM     34  C   UNL A   1      41.017  23.313  27.874  1.00  0.00     0.016 A 
ATOM     35  C   UNL A   1      39.694  25.619  27.068  1.00  0.00     0.010 A 
ATOM     36  C   UNL A   1      41.296  24.529  28.497  1.00  0.00     0.010 A 
ATOM     37  C   UNL A   1      40.683  25.710  28.063  1.00  0.00    -0.014 A 
BRANCH  37  38
ATOM     38  C   UNL A   1      41.126  27.034  28.582  1.00  0.00     0.031 A 
ATOM     39  C   UNL A   1      42.560  27.475  28.413  1.00  0.00     0.074 A 
ATOM     40  C   UNL A   1      40.254  27.863  29.190  1.00  0.00     0.049 A 
ATOM     41  N   UNL A   1      43.101  28.644  28.661  1.00  0.00    -0.248 NA
ATOM     42  C   UNL A   1      43.522  26.470  27.934  1.00  0.00     0.031 C 
ATOM     43  C   UNL A   1      38.862  27.550  29.519  1.00  0.00     0.029 A 
ATOM     44  N   UNL A   1      40.413  29.159  29.622  1.00  0.00    -0.354 N 
ATOM     45  C   UNL A   1      44.454  28.505  28.371  1.00  0.00     0.074 A 
ATOM     46  C   UNL A   1      44.670  27.123  28.016  1.00  0.00     0.031 C 
ATOM     47  C   UNL A   1      38.279  28.642  30.043  1.00  0.00     0.029 A 
ATOM     48  C   UNL A   1      39.254  29.730  30.088  1.00  0.00     0.049 A 
ATOM     49  H   UNL A   1      41.276  29.634  29.598  1.00  0.00     0.167 HD
ATOM     50  C   UNL A   1      45.428  29.445  28.346  1.00  0.00     0.037 A 
ATOM     51  C   UNL A   1      38.996  30.995  30.471  1.00  0.00     0.037 A 
ATOM     52  C   UNL A   1      45.224  30.834  28.645  1.00  0.00     0.049 A 
ATOM     53  C   UNL A   1      40.078  32.039  30.396  1.00  0.00     0.074 A 
ATOM     54  C   UNL A   1      46.125  31.880  28.551  1.00  0.00     0.029 A 
ATOM     55  N   UNL A   1      44.029  31.370  29.096  1.00  0.00    -0.354 N 
ATOM     56  N   UNL A   1      41.317  31.921  29.987  1.00  0.00    -0.248 NA
ATOM     57  C   UNL A   1      39.714  33.400  30.820  1.00  0.00     0.031 C 
ATOM     58  C   UNL A   1      45.481  33.049  28.970  1.00  0.00     0.029 A 
ATOM     59  C   UNL A   1      44.174  32.731  29.302  1.00  0.00     0.049 A 
ATOM     60  H   UNL A   1      43.202  30.860  29.247  1.00  0.00     0.167 HD
ATOM     61  C   UNL A   1      41.870  33.192  30.077  1.00  0.00     0.074 A 
ATOM     62  C   UNL A   1      40.829  34.070  30.567  1.00  0.00     0.031 C 
ATOM     63  C   UNL A   1      43.128  33.597  29.778  1.00  0.00     0.037 A 
BRANCH  50  64
ATOM     64  C   UNL A   1      46.796  28.991  27.937  1.00  0.00     0.057 A 
ATOM     65  C   UNL A   1      47.744  28.607  28.894  1.00  0.00     0.134 A 
ATOM     66  C   UNL A   1      47.169  28.919  26.588  1.00  0.00     0.134 A 
ATOM     67  F   UNL A   1      47.451  28.655  30.201  1.00  0.00    -0.206 F 
ATOM     68  C   UNL A   1      49.010  28.155  28.520  1.00  0.00     0.040 A 
ATOM     69  C   UNL A   1      48.423  28.446  26.202  1.00  0.00     0.040 A 
ATOM     70  F   UNL A   1      46.298  29.256  25.625  1.00  0.00    -0.206 F 
ATOM     71  C   UNL A   1      49.349  28.065  27.171  1.00  0.00     0.006 A 
ENDBRANCH  50  64
BRANCH  51  72
ATOM     72  C   UNL A   1      37.628  31.385  30.894  1.00  0.00     0.057 A 
ATOM     73  C   UNL A   1      37.252  31.391  32.240  1.00  0.00     0.134 A 
ATOM     74  C   UNL A   1      36.683  31.813  29.954  1.00  0.00     0.134 A 
ATOM     75  F   UNL A   1      38.116  30.994  33.186  1.00  0.00    -0.206 F 
ATOM     76  C   UNL A   1      35.984  31.817  32.640  1.00  0.00     0.040 A 
ATOM     77  C   UNL A   1      35.418  32.257  30.340  1.00  0.00     0.040 A 
ATOM     78  F   UNL A   1      36.997  31.850  28.650  1.00  0.00    -0.206 F 
ATOM     79  C   UNL A   1      35.066  32.260  31.688  1.00  0.00     0.006 A 
ENDBRANCH  51  72
BRANCH  63  80
ATOM     80  C   UNL A   1      43.445  35.051  29.951  1.00  0.00     0.057 A 
ATOM     81  C   UNL A   1      43.256  35.954  28.897  1.00  0.00     0.134 A 
ATOM     82  C   UNL A   1      43.974  35.548  31.147  1.00  0.00     0.134 A 
ATOM     83  F   UNL A   1      42.758  35.537  27.723  1.00  0.00    -0.206 F 
ATOM     84  C   UNL A   1      43.589  37.302  29.027  1.00  0.00     0.040 A 
ATOM     85  C   UNL A   1      44.292  36.899  31.296  1.00  0.00     0.040 A 
ATOM     86  F   UNL A   1      44.165  34.735  32.196  1.00  0.00    -0.206 F 
ATOM     87  C   UNL A   1      44.104  37.779  30.231  1.00  0.00     0.006 A 
ENDBRANCH  63  80
ENDBRANCH  37  38
ENDBRANCH  30  32
ENDBRANCH  29  30
ENDBRANCH  28  29
ENDBRANCH   1  28
TORSDOF 15
ENDMDL
MODEL 2
REMARK VINA RESULT:     -12.4      4.373      9.339
REMARK SMILES Nn1c(S[C@@H](C(=O)OCCOC(=O)c2ccc(-c3c4nc(c(-c5c(F)cccc5F)c5ccc([nH]5)c(-c5c(F)cccc5F)c5nc(c(-c6c(F)cccc6F)c6ccc3[nH]6)C=C5)C=C4)cc2)c2ccccc2)nc2ccc(Br)cc2c1=O
REMARK SMILES IDX 9 1 8 2 6 3 7 4 5 5 4 6 3 7 2 8 82 9 74 10 81 11 83 12 75 13
REMARK SMILES IDX 80 14 76 15 78 16 77 17 79 18 1 19 68 22 69 23 73 24 70 25
REMARK SMILES IDX 72 26 71 27 10 28 11 29 12 30 13 31 14 32 15 33 67 34 16 35
REMARK SMILES IDX 66 36 17 37 18 38 19 39 60 40 20 41 65 42 59 43 61 44 21 45
REMARK SMILES IDX 64 46 58 47 57 48 22 50 48 51 31 52 47 53 32 54 35 55 46 56
REMARK SMILES IDX 62 57 33 58 34 59 45 61 63 62 36 63 23 64 24 65 29 66 25 67
REMARK SMILES IDX 26 68 28 69 30 70 27 71 49 72 50 73 55 74 51 75 52 76 54 77
REMARK SMILES IDX 56 78 53 79 37 80 38 81 43 82 39 83 40 84 42 85 44 86 41 87
REMARK H PARENT 1 20 1 21 61 49 35 60
REMARK Flexibility Score: inf
ROOT
ATOM      1  C   UNL A   1      31.781  29.227  25.890  1.00  0.00     0.274 C 
ENDROOT
BRANCH   1   2
ATOM      2  O   UNL A   1      32.571  29.314  24.679  1.00  0.00    -0.461 OA
BRANCH   2   3
ATOM      3  C   UNL A   1      31.930  28.992  23.514  1.00  0.00     0.324 C 
ATOM      4  O   UNL A   1      32.526  28.953  22.437  1.00  0.00    -0.251 OA
BRANCH   3   5
ATOM      5  C   UNL A   1      30.393  28.810  23.647  1.00  0.00     0.194 C 
BRANCH   5   6
ATOM      6  S   UNL A   1      29.815  27.095  23.501  1.00  0.00    -0.066 SA
BRANCH   6   7
ATOM      7  C   UNL A   1      31.130  25.933  23.501  1.00  0.00     0.191 A 
ATOM      8  N   UNL A   1      31.852  25.561  22.375  1.00  0.00    -0.202 N 
ATOM      9  C   UNL A   1      32.841  24.573  22.401  1.00  0.00     0.280 A 
ATOM     10  N   UNL A   1      31.383  25.424  24.669  1.00  0.00    -0.222 NA
ATOM     11  C   UNL A   1      33.157  24.020  23.718  1.00  0.00     0.069 A 
ATOM     12  O   UNL A   1      33.431  24.173  21.398  1.00  0.00    -0.267 OA
ATOM     13  C   UNL A   1      32.415  24.485  24.802  1.00  0.00     0.079 A 
ATOM     14  C   UNL A   1      34.183  23.080  23.870  1.00  0.00     0.031 A 
ATOM     15  C   UNL A   1      32.720  23.990  26.071  1.00  0.00     0.030 A 
ATOM     16  C   UNL A   1      34.470  22.600  25.142  1.00  0.00     0.018 A 
ATOM     17  C   UNL A   1      33.745  23.051  26.244  1.00  0.00     0.018 A 
ATOM     18  Br  UNL A   1      35.853  21.334  25.376  1.00  0.00    -0.051 Br
BRANCH   8  19
ATOM     19  N   UNL A   1      31.658  26.158  21.130  1.00  0.00    -0.334 N 
ATOM     20  H   UNL A   1      31.227  25.653  20.403  1.00  0.00     0.178 HD
ATOM     21  H   UNL A   1      31.954  27.084  20.977  1.00  0.00     0.178 HD
ENDBRANCH   8  19
ENDBRANCH   6   7
ENDBRANCH   5   6
BRANCH   5  22
ATOM     22  C   UNL A   1      29.536  29.948  23.049  1.00  0.00    -0.023 A 
ATOM     23  C   UNL A   1      29.092  29.980  21.716  1.00  0.00     0.005 A 
ATOM     24  C   UNL A   1      29.153  31.032  23.869  1.00  0.00     0.005 A 
ATOM     25  C   UNL A   1      28.394  31.082  21.205  1.00  0.00     0.000 A 
ATOM     26  C   UNL A   1      28.454  32.132  23.361  1.00  0.00     0.000 A 
ATOM     27  C   UNL A   1      28.090  32.165  22.023  1.00  0.00     0.000 A 
ENDBRANCH   5  22
ENDBRANCH   3   5
ENDBRANCH   2   3
ENDBRANCH   1   2
BRANCH   1  28
ATOM     28  C   UNL A   1      31.775  30.553  26.650  1.00  0.00     0.275 C 
BRANCH  28  29
ATOM     29  O   UNL A   1      33.026  31.223  26.431  1.00  0.00    -0.458 OA
BRANCH  29  30
ATOM     30  C   UNL A   1      33.364  32.183  27.322  1.00  0.00     0.338 C 
ATOM     31  O   UNL A   1      32.689  33.162  27.609  1.00  0.00    -0.246 OA
BRANCH  30  32
ATOM     32  C   UNL A   1      34.606  31.779  28.041  1.00  0.00     0.060 A 
ATOM     33  C   UNL A   1      34.793  30.435  28.375  1.00  0.00     0.016 A 
ATOM     34  C   UNL A   1      35.656  32.684  28.251  1.00  0.00     0.016 A 
ATOM     35  C   UNL A   1      36.003  30.016  28.945  1.00  0.00     0.010 A 
ATOM     36  C   UNL A   1      36.897  32.238  28.704  1.00  0.00     0.010 A 
ATOM     37  C   UNL A   1      37.072  30.912  29.115  1.00  0.00    -0.014 A 
BRANCH  37  38
ATOM     38  C   UNL A   1      38.329  30.483  29.790  1.00  0.00     0.031 A 
ATOM     39  C   UNL A   1      38.599  30.884  31.221  1.00  0.00     0.074 A 
ATOM     40  C   UNL A   1      39.233  29.718  29.145  1.00  0.00     0.049 A 
ATOM     41  N   UNL A   1      39.556  30.489  32.026  1.00  0.00    -0.248 NA
ATOM     42  C   UNL A   1      37.698  31.881  31.822  1.00  0.00     0.031 C 
ATOM     43  C   UNL A   1      39.171  29.327  27.735  1.00  0.00     0.029 A 
ATOM     44  N   UNL A   1      40.377  29.112  29.608  1.00  0.00    -0.354 N 
ATOM     45  C   UNL A   1      39.368  31.190  33.211  1.00  0.00     0.074 A 
ATOM     46  C   UNL A   1      38.266  32.097  32.997  1.00  0.00     0.031 C 
ATOM     47  C   UNL A   1      40.195  28.498  27.465  1.00  0.00     0.029 A 
ATOM     48  C   UNL A   1      40.985  28.302  28.679  1.00  0.00     0.049 A 
ATOM     49  H   UNL A   1      40.727  29.245  30.518  1.00  0.00     0.167 HD
ATOM     50  C   UNL A   1      40.012  31.062  34.396  1.00  0.00     0.037 A 
ATOM     51  C   UNL A   1      42.033  27.466  28.803  1.00  0.00     0.037 A 
ATOM     52  C   UNL A   1      41.075  30.130  34.646  1.00  0.00     0.049 A 
ATOM     53  C   UNL A   1      42.710  27.301  30.137  1.00  0.00     0.074 A 
ATOM     54  C   UNL A   1      41.722  29.856  35.838  1.00  0.00     0.029 A 
ATOM     55  N   UNL A   1      41.646  29.317  33.681  1.00  0.00    -0.354 N 
ATOM     56  N   UNL A   1      42.431  27.869  31.285  1.00  0.00    -0.248 NA
ATOM     57  C   UNL A   1      43.840  26.361  30.194  1.00  0.00     0.031 C 
ATOM     58  C   UNL A   1      42.705  28.892  35.589  1.00  0.00     0.029 A 
ATOM     59  C   UNL A   1      42.651  28.552  34.247  1.00  0.00     0.049 A 
ATOM     60  H   UNL A   1      41.377  29.288  32.735  1.00  0.00     0.167 HD
ATOM     61  C   UNL A   1      43.328  27.335  32.202  1.00  0.00     0.074 A 
ATOM     62  C   UNL A   1      44.153  26.389  31.482  1.00  0.00     0.031 C 
ATOM     63  C   UNL A   1      43.456  27.604  33.523  1.00  0.00     0.037 A 
BRANCH  50  64
ATOM     64  C   UNL A   1      39.540  31.933  35.520  1.00  0.00     0.057 A 
ATOM     65  C   UNL A   1      38.494  31.528  36.356  1.00  0.00     0.134 A 
ATOM     66  C   UNL A   1      40.139  33.173  35.782  1.00  0.00     0.134 A 
ATOM     67  F   UNL A   1      37.878  30.353  36.156  1.00  0.00    -0.206 F 
ATOM     68  C   UNL A   1      38.068  32.321  37.422  1.00  0.00     0.040 A 
ATOM     69  C   UNL A   1      39.738  33.963  36.861  1.00  0.00     0.040 A 
ATOM     70  F   UNL A   1      41.160  33.608  35.027  1.00  0.00    -0.206 F 
ATOM     71  C   UNL A   1      38.697  33.537  37.682  1.00  0.00     0.006 A 
ENDBRANCH  50  64
BRANCH  51  72
ATOM     72  C   UNL A   1      42.477  26.645  27.649  1.00  0.00     0.057 A 
ATOM     73  C   UNL A   1      41.983  25.355  27.436  1.00  0.00     0.134 A 
ATOM     74  C   UNL A   1      43.369  27.164  26.703  1.00  0.00     0.134 A 
ATOM     75  F   UNL A   1      41.124  24.806  28.307  1.00  0.00    -0.206 F 
ATOM     76  C   UNL A   1      42.356  24.609  26.317  1.00  0.00     0.040 A 
ATOM     77  C   UNL A   1      43.738  26.436  25.571  1.00  0.00     0.040 A 
ATOM     78  F   UNL A   1      43.856  28.406  26.845  1.00  0.00    -0.206 F 
ATOM     79  C   UNL A   1      43.230  25.154  25.376  1.00  0.00     0.006 A 
ENDBRANCH  51  72
BRANCH  63  80
ATOM     80  C   UNL A   1      44.508  26.853  34.282  1.00  0.00     0.057 A 
ATOM     81  C   UNL A   1      45.808  27.361  34.394  1.00  0.00     0.134 A 
ATOM     82  C   UNL A   1      44.242  25.609  34.866  1.00  0.00     0.134 A 
ATOM     83  F   UNL A   1      46.127  28.545  33.850  1.00  0.00    -0.206 F 
ATOM     84  C   UNL A   1      46.810  26.653  35.057  1.00  0.00     0.040 A 
ATOM     85  C   UNL A   1      45.231  24.901  35.550  1.00  0.00     0.040 A 
ATOM     86  F   UNL A   1      43.013  25.077  34.803  1.00  0.00    -0.206 F 
ATOM     87  C   UNL A   1      46.522  25.421  35.642  1.00  0.00     0.006 A 
ENDBRANCH  63  80
ENDBRANCH  37  38
ENDBRANCH  30  32
ENDBRANCH  29  30
ENDBRANCH  28  29
ENDBRANCH   1  28
TORSDOF 15
ENDMDL
MODEL 3
REMARK VINA RESULT:     -12.4      4.360      9.288
REMARK SMILES Nn1c(S[C@@H](C(=O)OCCOC(=O)c2ccc(-c3c4nc(c(-c5c(F)cccc5F)c5ccc([nH]5)c(-c5c(F)cccc5F)c5nc(c(-c6c(F)cccc6F)c6ccc3[nH]6)C=C5)C=C4)cc2)c2ccccc2)nc2ccc(Br)cc2c1=O
REMARK SMILES IDX 9 1 8 2 6 3 7 4 5 5 4 6 3 7 2 8 82 9 74 10 81 11 83 12 75 13
REMARK SMILES IDX 80 14 76 15 78 16 77 17 79 18 1 19 68 22 69 23 73 24 70 25
REMARK SMILES IDX 72 26 71 27 10 28 11 29 12 30 13 31 14 32 15 33 67 34 16 35
REMARK SMILES IDX 66 36 17 37 18 38 19 39 60 40 20 41 65 42 59 43 61 44 21 45
REMARK SMILES IDX 64 46 58 47 57 48 22 50 48 51 31 52 47 53 32 54 35 55 46 56
REMARK SMILES IDX 62 57 33 58 34 59 45 61 63 62 36 63 23 64 24 65 29 66 25 67
REMARK SMILES IDX 26 68 28 69 30 70 27 71 49 72 50 73 55 74 51 75 52 76 54 77
REMARK SMILES IDX 56 78 53 79 37 80 38 81 43 82 39 83 40 84 42 85 44 86 41 87
REMARK H PARENT 1 20 1 21 61 49 35 60
REMARK Flexibility Score: inf
ROOT
ATOM      1  C   UNL A   1      31.857  29.075  25.954  1.00  0.00     0.274 C 
ENDROOT
BRANCH   1   2
ATOM      2  O   UNL A   1      32.639  29.178  24.738  1.00  0.00    -0.461 OA
BRANCH   2   3
ATOM      3  C   UNL A   1      31.993  28.860  23.575  1.00  0.00     0.324 C 
ATOM      4  O   UNL A   1      32.576  28.863  22.491  1.00  0.00    -0.251 OA
BRANCH   3   5
ATOM      5  C   UNL A   1      30.465  28.626  23.723  1.00  0.00     0.194 C 
BRANCH   5   6
ATOM      6  S   UNL A   1      29.942  26.894  23.562  1.00  0.00    -0.066 SA
BRANCH   6   7
ATOM      7  C   UNL A   1      31.296  25.784  23.449  1.00  0.00     0.191 A 
ATOM      8  N   UNL A   1      31.930  25.433  22.264  1.00  0.00    -0.202 N 
ATOM      9  C   UNL A   1      32.955  24.483  22.206  1.00  0.00     0.280 A 
ATOM     10  N   UNL A   1      31.670  25.292  24.591  1.00  0.00    -0.222 NA
ATOM     11  C   UNL A   1      33.407  23.951  23.492  1.00  0.00     0.069 A 
ATOM     12  O   UNL A   1      33.469  24.100  21.155  1.00  0.00    -0.267 OA
ATOM     13  C   UNL A   1      32.746  24.395  24.636  1.00  0.00     0.079 A 
ATOM     14  C   UNL A   1      34.478  23.053  23.555  1.00  0.00     0.031 A 
ATOM     15  C   UNL A   1      33.181  23.919  25.874  1.00  0.00     0.030 A 
ATOM     16  C   UNL A   1      34.895  22.592  24.798  1.00  0.00     0.018 A 
ATOM     17  C   UNL A   1      34.252  23.021  25.958  1.00  0.00     0.018 A 
ATOM     18  Br  UNL A   1      36.341  21.382  24.912  1.00  0.00    -0.051 Br
BRANCH   8  19
ATOM     19  N   UNL A   1      31.604  26.014  21.040  1.00  0.00    -0.334 N 
ATOM     20  H   UNL A   1      32.120  25.786  20.233  1.00  0.00     0.178 HD
ATOM     21  H   UNL A   1      30.858  26.654  20.982  1.00  0.00     0.178 HD
ENDBRANCH   8  19
ENDBRANCH   6   7
ENDBRANCH   5   6
BRANCH   5  22
ATOM     22  C   UNL A   1      29.564  29.742  23.149  1.00  0.00    -0.023 A 
ATOM     23  C   UNL A   1      28.835  29.626  21.954  1.00  0.00     0.005 A 
ATOM     24  C   UNL A   1      29.440  30.962  23.850  1.00  0.00     0.005 A 
ATOM     25  C   UNL A   1      28.106  30.705  21.435  1.00  0.00     0.000 A 
ATOM     26  C   UNL A   1      28.710  32.039  23.336  1.00  0.00     0.000 A 
ATOM     27  C   UNL A   1      28.058  31.915  22.118  1.00  0.00     0.000 A 
ENDBRANCH   5  22
ENDBRANCH   3   5
ENDBRANCH   2   3
ENDBRANCH   1   2
BRANCH   1  28
ATOM     28  C   UNL A   1      31.863  30.389  26.735  1.00  0.00     0.275 C 
BRANCH  28  29
ATOM     29  O   UNL A   1      33.072  31.105  26.436  1.00  0.00    -0.458 OA
BRANCH  29  30
ATOM     30  C   UNL A   1      33.435  32.072  27.309  1.00  0.00     0.338 C 
ATOM     31  O   UNL A   1      32.770  33.056  27.604  1.00  0.00    -0.246 OA
BRANCH  30  32
ATOM     32  C   UNL A   1      34.693  31.671  28.001  1.00  0.00     0.060 A 
ATOM     33  C   UNL A   1      34.875  30.334  28.364  1.00  0.00     0.016 A 
ATOM     34  C   UNL A   1      35.759  32.568  28.155  1.00  0.00     0.016 A 
ATOM     35  C   UNL A   1      36.096  29.915  28.909  1.00  0.00     0.010 A 
ATOM     36  C   UNL A   1      37.009  32.119  28.583  1.00  0.00     0.010 A 
ATOM     37  C   UNL A   1      37.181  30.802  29.022  1.00  0.00    -0.014 A 
BRANCH  37  38
ATOM     38  C   UNL A   1      38.452  30.375  29.670  1.00  0.00     0.031 A 
ATOM     39  C   UNL A   1      38.748  30.771  31.098  1.00  0.00     0.074 A 
ATOM     40  C   UNL A   1      39.346  29.618  29.004  1.00  0.00     0.049 A 
ATOM     41  N   UNL A   1      39.723  30.375  31.881  1.00  0.00    -0.248 NA
ATOM     42  C   UNL A   1      37.856  31.760  31.721  1.00  0.00     0.031 C 
ATOM     43  C   UNL A   1      39.258  29.233  27.593  1.00  0.00     0.029 A 
ATOM     44  N   UNL A   1      40.502  29.014  29.441  1.00  0.00    -0.354 N 
ATOM     45  C   UNL A   1      39.556  31.070  33.074  1.00  0.00     0.074 A 
ATOM     46  C   UNL A   1      38.446  31.973  32.885  1.00  0.00     0.031 C 
ATOM     47  C   UNL A   1      40.281  28.410  27.299  1.00  0.00     0.029 A 
ATOM     48  C   UNL A   1      41.094  28.211  28.496  1.00  0.00     0.049 A 
ATOM     49  H   UNL A   1      40.869  29.144  30.345  1.00  0.00     0.167 HD
ATOM     50  C   UNL A   1      40.224  30.938  34.244  1.00  0.00     0.037 A 
ATOM     51  C   UNL A   1      42.149  27.379  28.595  1.00  0.00     0.037 A 
ATOM     52  C   UNL A   1      41.296  30.010  34.469  1.00  0.00     0.049 A 
ATOM     53  C   UNL A   1      42.853  27.211  29.915  1.00  0.00     0.074 A 
ATOM     54  C   UNL A   1      41.968  29.733  35.647  1.00  0.00     0.029 A 
ATOM     55  N   UNL A   1      41.850  29.204  33.489  1.00  0.00    -0.354 N 
ATOM     56  N   UNL A   1      42.594  27.772  31.070  1.00  0.00    -0.248 NA
ATOM     57  C   UNL A   1      43.987  26.275  29.944  1.00  0.00     0.031 C 
ATOM     58  C   UNL A   1      42.949  28.774  35.373  1.00  0.00     0.029 A 
ATOM     59  C   UNL A   1      42.870  28.441  34.031  1.00  0.00     0.049 A 
ATOM     60  H   UNL A   1      41.563  29.178  32.548  1.00  0.00     0.167 HD
ATOM     61  C   UNL A   1      43.511  27.237  31.967  1.00  0.00     0.074 A 
ATOM     62  C   UNL A   1      44.326  26.298  31.226  1.00  0.00     0.031 C 
ATOM     63  C   UNL A   1      43.664  27.500  33.287  1.00  0.00     0.037 A 
BRANCH  50  64
ATOM     64  C   UNL A   1      39.771  31.803  35.382  1.00  0.00     0.057 A 
ATOM     65  C   UNL A   1      40.352  33.055  35.612  1.00  0.00     0.134 A 
ATOM     66  C   UNL A   1      38.743  31.396  36.243  1.00  0.00     0.134 A 
ATOM     67  F   UNL A   1      41.343  33.502  34.825  1.00  0.00    -0.206 F 
ATOM     68  C   UNL A   1      39.916  33.878  36.651  1.00  0.00     0.040 A 
ATOM     69  C   UNL A   1      38.282  32.220  37.270  1.00  0.00     0.040 A 
ATOM     70  F   UNL A   1      38.134  30.213  36.062  1.00  0.00    -0.206 F 
ATOM     71  C   UNL A   1      38.872  33.465  37.477  1.00  0.00     0.006 A 
ENDBRANCH  50  64
BRANCH  51  72
ATOM     72  C   UNL A   1      42.573  26.566  27.428  1.00  0.00     0.057 A 
ATOM     73  C   UNL A   1      43.500  27.048  26.499  1.00  0.00     0.134 A 
ATOM     74  C   UNL A   1      42.093  25.263  27.251  1.00  0.00     0.134 A 
ATOM     75  F   UNL A   1      43.996  28.288  26.619  1.00  0.00    -0.206 F 
ATOM     76  C   UNL A   1      43.943  26.258  25.437  1.00  0.00     0.040 A 
ATOM     77  C   UNL A   1      42.539  24.456  26.204  1.00  0.00     0.040 A 
ATOM     78  F   UNL A   1      41.219  24.741  28.126  1.00  0.00    -0.206 F 
ATOM     79  C   UNL A   1      43.468  24.955  25.293  1.00  0.00     0.006 A 
ENDBRANCH  51  72
BRANCH  63  80
ATOM     80  C   UNL A   1      44.734  26.750  34.020  1.00  0.00     0.057 A 
ATOM     81  C   UNL A   1      44.455  25.522  34.632  1.00  0.00     0.134 A 
ATOM     82  C   UNL A   1      46.029  27.265  34.155  1.00  0.00     0.134 A 
ATOM     83  F   UNL A   1      43.231  24.979  34.544  1.00  0.00    -0.206 F 
ATOM     84  C   UNL A   1      45.427  24.833  35.357  1.00  0.00     0.040 A 
ATOM     85  C   UNL A   1      47.016  26.575  34.861  1.00  0.00     0.040 A 
ATOM     86  F   UNL A   1      46.360  28.431  33.581  1.00  0.00    -0.206 F 
ATOM     87  C   UNL A   1      46.714  25.357  35.469  1.00  0.00     0.006 A 
ENDBRANCH  63  80
ENDBRANCH  37  38
ENDBRANCH  30  32
ENDBRANCH  29  30
ENDBRANCH  28  29
ENDBRANCH   1  28
TORSDOF 15
ENDMDL
