MODEL 1
REMARK VINA RESULT:     -11.8      0.000      0.000
REMARK SMILES NS(=O)(=O)c1ccc(/N=N/c2ccc(O)c(C(=O)OCCOC(=O)c3ccc(-c4c5nc(c(-c6c(F)cccc6F)c6ccc([nH]6)c(-c6c(F)cccc6F)c6nc(c(-c7c(F)cccc7F)c7ccc4[nH]7)C=C6)C=C5)cc3)c2)cc1
REMARK SMILES IDX 20 1 19 2 17 3 18 4 16 5 11 6 12 7 79 8 13 9 14 10 10 11
REMARK SMILES IDX 9 12 8 13 5 14 6 15 81 16 7 17 80 18 2 19 3 20 4 21 1 22
REMARK SMILES IDX 15 25 21 27 22 28 23 29 24 30 25 31 26 32 78 33 27 34 77 35
REMARK SMILES IDX 28 36 29 37 30 38 71 39 31 40 76 41 70 42 72 43 32 44 75 45
REMARK SMILES IDX 69 46 68 47 33 49 59 50 42 51 58 52 43 53 46 54 57 55 73 56
REMARK SMILES IDX 44 57 45 58 56 60 74 61 47 62 34 63 35 64 40 65 36 66 37 67
REMARK SMILES IDX 39 68 41 69 38 70 60 71 61 72 66 73 62 74 63 75 65 76 67 77
REMARK SMILES IDX 64 78 48 79 49 80 54 81 50 82 51 83 53 84 55 85 52 86
REMARK H PARENT 1 23 1 24 15 26 72 48 46 59
REMARK Flexibility Score: inf
ROOT
ATOM      1  C   UNL A   1      44.456  21.460  25.258  1.00  0.00     0.275 C 
ENDROOT
BRANCH   1   2
ATOM      2  O   UNL A   1      43.452  20.483  24.925  1.00  0.00    -0.458 OA
BRANCH   2   3
ATOM      3  C   UNL A   1      42.778  19.934  25.962  1.00  0.00     0.342 C 
ATOM      4  O   UNL A   1      43.036  18.877  26.521  1.00  0.00    -0.246 OA
BRANCH   3   5
ATOM      5  C   UNL A   1      41.701  20.828  26.450  1.00  0.00     0.104 A 
ATOM      6  C   UNL A   1      39.535  21.901  26.175  1.00  0.00     0.087 A 
ATOM      7  C   UNL A   1      39.768  22.652  27.333  1.00  0.00     0.034 A 
ATOM      8  C   UNL A   1      40.517  21.011  25.723  1.00  0.00     0.049 A 
ATOM      9  C   UNL A   1      40.935  22.467  28.073  1.00  0.00     0.049 A 
ATOM     10  C   UNL A   1      41.883  21.539  27.647  1.00  0.00     0.130 A 
BRANCH   6  11
ATOM     11  N   UNL A   1      38.327  22.052  25.474  1.00  0.00    -0.151 NA
ATOM     12  N   UNL A   1      37.845  23.177  25.732  1.00  0.00    -0.151 NA
BRANCH  12  13
ATOM     13  C   UNL A   1      36.631  23.432  25.065  1.00  0.00     0.086 A 
ATOM     14  C   UNL A   1      34.223  23.752  23.658  1.00  0.00     0.082 A 
ATOM     15  C   UNL A   1      35.273  23.040  23.076  1.00  0.00     0.024 A 
ATOM     16  C   UNL A   1      34.363  24.313  24.928  1.00  0.00     0.024 A 
ATOM     17  C   UNL A   1      36.469  22.885  23.784  1.00  0.00     0.031 A 
ATOM     18  C   UNL A   1      35.561  24.144  25.630  1.00  0.00     0.031 A 
BRANCH  14  19
ATOM     19  S   UNL A   1      32.701  23.967  22.786  1.00  0.00     0.238 S 
ATOM     20  O   UNL A   1      32.159  25.270  23.110  1.00  0.00    -0.207 OA
ATOM     21  O   UNL A   1      31.935  22.752  22.895  1.00  0.00    -0.207 OA
BRANCH  19  22
ATOM     22  N   UNL A   1      33.174  24.083  21.177  1.00  0.00    -0.225 NA
ATOM     23  H   UNL A   1      32.399  23.806  20.573  1.00  0.00     0.137 HD
ATOM     24  H   UNL A   1      33.970  23.467  21.010  1.00  0.00     0.137 HD
ENDBRANCH  19  22
ENDBRANCH  14  19
ENDBRANCH  12  13
ENDBRANCH   6  11
BRANCH  10  25
ATOM     25  O   UNL A   1      42.991  21.407  28.442  1.00  0.00    -0.507 OA
ATOM     26  H   UNL A   1      43.360  20.560  28.594  1.00  0.00     0.293 HD
ENDBRANCH  10  25
ENDBRANCH   3   5
ENDBRANCH   2   3
ENDBRANCH   1   2
BRANCH   1  27
ATOM     27  C   UNL A   1      44.575  22.534  24.173  1.00  0.00     0.275 C 
BRANCH  27  28
ATOM     28  O   UNL A   1      43.838  23.721  24.526  1.00  0.00    -0.458 OA
BRANCH  28  29
ATOM     29  C   UNL A   1      44.587  24.727  25.038  1.00  0.00     0.338 C 
ATOM     30  O   UNL A   1      45.662  25.126  24.618  1.00  0.00    -0.246 OA
BRANCH  29  31
ATOM     31  C   UNL A   1      43.838  25.431  26.098  1.00  0.00     0.060 A 
ATOM     32  C   UNL A   1      44.385  26.627  26.565  1.00  0.00     0.016 A 
ATOM     33  C   UNL A   1      42.655  24.935  26.653  1.00  0.00     0.016 A 
ATOM     34  C   UNL A   1      43.743  27.354  27.561  1.00  0.00     0.010 A 
ATOM     35  C   UNL A   1      42.025  25.652  27.683  1.00  0.00     0.010 A 
ATOM     36  C   UNL A   1      42.568  26.865  28.143  1.00  0.00    -0.014 A 
BRANCH  36  37
ATOM     37  C   UNL A   1      41.990  27.606  29.291  1.00  0.00     0.031 A 
ATOM     38  C   UNL A   1      42.656  27.526  30.636  1.00  0.00     0.074 A 
ATOM     39  C   UNL A   1      40.933  28.418  29.113  1.00  0.00     0.049 A 
ATOM     40  N   UNL A   1      42.362  28.156  31.745  1.00  0.00    -0.248 NA
ATOM     41  C   UNL A   1      43.812  26.624  30.743  1.00  0.00     0.031 C 
ATOM     42  C   UNL A   1      40.224  28.616  27.850  1.00  0.00     0.029 A 
ATOM     43  N   UNL A   1      40.279  29.238  29.999  1.00  0.00    -0.354 N 
ATOM     44  C   UNL A   1      43.295  27.731  32.681  1.00  0.00     0.074 A 
ATOM     45  C   UNL A   1      44.151  26.769  32.017  1.00  0.00     0.031 C 
ATOM     46  C   UNL A   1      39.227  29.498  28.044  1.00  0.00     0.029 A 
ATOM     47  C   UNL A   1      39.218  29.911  29.445  1.00  0.00     0.049 A 
ATOM     48  H   UNL A   1      40.546  29.334  30.942  1.00  0.00     0.167 HD
ATOM     49  C   UNL A   1      43.433  28.113  33.972  1.00  0.00     0.037 A 
ATOM     50  C   UNL A   1      38.333  30.757  30.009  1.00  0.00     0.037 A 
ATOM     51  C   UNL A   1      42.586  29.071  34.635  1.00  0.00     0.049 A 
ATOM     52  C   UNL A   1      38.481  31.126  31.462  1.00  0.00     0.074 A 
ATOM     53  C   UNL A   1      42.666  29.535  35.937  1.00  0.00     0.029 A 
ATOM     54  N   UNL A   1      41.498  29.704  34.053  1.00  0.00    -0.354 N 
ATOM     55  N   UNL A   1      39.393  30.749  32.326  1.00  0.00    -0.248 NA
ATOM     56  C   UNL A   1      37.480  32.051  32.014  1.00  0.00     0.031 C 
ATOM     57  C   UNL A   1      41.596  30.409  36.159  1.00  0.00     0.029 A 
ATOM     58  C   UNL A   1      40.882  30.532  34.979  1.00  0.00     0.049 A 
ATOM     59  H   UNL A   1      41.206  29.582  33.121  1.00  0.00     0.167 HD
ATOM     60  C   UNL A   1      39.092  31.411  33.511  1.00  0.00     0.074 A 
ATOM     61  C   UNL A   1      37.929  32.230  33.248  1.00  0.00     0.031 C 
ATOM     62  C   UNL A   1      39.724  31.345  34.709  1.00  0.00     0.037 A 
BRANCH  49  63
ATOM     63  C   UNL A   1      44.527  27.470  34.771  1.00  0.00     0.057 A 
ATOM     64  C   UNL A   1      45.776  28.079  34.946  1.00  0.00     0.134 A 
ATOM     65  C   UNL A   1      44.307  26.245  35.415  1.00  0.00     0.134 A 
ATOM     66  F   UNL A   1      46.054  29.245  34.346  1.00  0.00    -0.206 F 
ATOM     67  C   UNL A   1      46.774  27.484  35.722  1.00  0.00     0.040 A 
ATOM     68  C   UNL A   1      45.288  25.653  36.212  1.00  0.00     0.040 A 
ATOM     69  F   UNL A   1      43.132  25.612  35.291  1.00  0.00    -0.206 F 
ATOM     70  C   UNL A   1      46.528  26.272  36.363  1.00  0.00     0.006 A 
ENDBRANCH  49  63
BRANCH  50  71
ATOM     71  C   UNL A   1      37.208  31.306  29.209  1.00  0.00     0.057 A 
ATOM     72  C   UNL A   1      37.222  32.618  28.725  1.00  0.00     0.134 A 
ATOM     73  C   UNL A   1      36.060  30.540  28.962  1.00  0.00     0.134 A 
ATOM     74  F   UNL A   1      38.280  33.411  28.952  1.00  0.00    -0.206 F 
ATOM     75  C   UNL A   1      36.126  33.161  28.051  1.00  0.00     0.040 A 
ATOM     76  C   UNL A   1      34.970  31.061  28.265  1.00  0.00     0.040 A 
ATOM     77  F   UNL A   1      35.983  29.276  29.401  1.00  0.00    -0.206 F 
ATOM     78  C   UNL A   1      34.996  32.379  27.817  1.00  0.00     0.006 A 
ENDBRANCH  50  71
BRANCH  62  79
ATOM     79  C   UNL A   1      39.186  32.211  35.815  1.00  0.00     0.057 A 
ATOM     80  C   UNL A   1      38.266  31.728  36.755  1.00  0.00     0.134 A 
ATOM     81  C   UNL A   1      39.600  33.543  35.944  1.00  0.00     0.134 A 
ATOM     82  F   UNL A   1      37.819  30.466  36.684  1.00  0.00    -0.206 F 
ATOM     83  C   UNL A   1      37.747  32.551  37.758  1.00  0.00     0.040 A 
ATOM     84  C   UNL A   1      39.113  34.365  36.960  1.00  0.00     0.040 A 
ATOM     85  F   UNL A   1      40.490  34.067  35.086  1.00  0.00    -0.206 F 
ATOM     86  C   UNL A   1      38.174  33.873  37.864  1.00  0.00     0.006 A 
ENDBRANCH  62  79
ENDBRANCH  36  37
ENDBRANCH  29  31
ENDBRANCH  28  29
ENDBRANCH  27  28
ENDBRANCH   1  27
TORSDOF 16
ENDMDL
MODEL 2
REMARK VINA RESULT:     -11.7      5.204     10.746
REMARK SMILES NS(=O)(=O)c1ccc(/N=N/c2ccc(O)c(C(=O)OCCOC(=O)c3ccc(-c4c5nc(c(-c6c(F)cccc6F)c6ccc([nH]6)c(-c6c(F)cccc6F)c6nc(c(-c7c(F)cccc7F)c7ccc4[nH]7)C=C6)C=C5)cc3)c2)cc1
REMARK SMILES IDX 20 1 19 2 17 3 18 4 16 5 11 6 12 7 79 8 13 9 14 10 10 11
REMARK SMILES IDX 9 12 8 13 5 14 6 15 81 16 7 17 80 18 2 19 3 20 4 21 1 22
REMARK SMILES IDX 15 25 21 27 22 28 23 29 24 30 25 31 26 32 78 33 27 34 77 35
REMARK SMILES IDX 28 36 29 37 30 38 71 39 31 40 76 41 70 42 72 43 32 44 75 45
REMARK SMILES IDX 69 46 68 47 33 49 59 50 42 51 58 52 43 53 46 54 57 55 73 56
REMARK SMILES IDX 44 57 45 58 56 60 74 61 47 62 34 63 35 64 40 65 36 66 37 67
REMARK SMILES IDX 39 68 41 69 38 70 60 71 61 72 66 73 62 74 63 75 65 76 67 77
REMARK SMILES IDX 64 78 48 79 49 80 54 81 50 82 51 83 53 84 55 85 52 86
REMARK H PARENT 1 23 1 24 15 26 72 48 46 59
REMARK Flexibility Score: inf
ROOT
ATOM      1  C   UNL A   1      34.388  34.684  32.160  1.00  0.00     0.275 C 
ENDROOT
BRANCH   1   2
ATOM      2  O   UNL A   1      33.415  34.425  31.131  1.00  0.00    -0.458 OA
BRANCH   2   3
ATOM      3  C   UNL A   1      33.727  34.853  29.886  1.00  0.00     0.342 C 
ATOM      4  O   UNL A   1      33.653  36.001  29.470  1.00  0.00    -0.246 OA
BRANCH   3   5
ATOM      5  C   UNL A   1      34.291  33.761  29.057  1.00  0.00     0.104 A 
ATOM      6  C   UNL A   1      34.088  31.606  27.949  1.00  0.00     0.087 A 
ATOM      7  C   UNL A   1      35.450  31.650  27.629  1.00  0.00     0.034 A 
ATOM      8  C   UNL A   1      33.520  32.652  28.687  1.00  0.00     0.049 A 
ATOM      9  C   UNL A   1      36.223  32.756  27.979  1.00  0.00     0.049 A 
ATOM     10  C   UNL A   1      35.638  33.818  28.665  1.00  0.00     0.130 A 
BRANCH   6  11
ATOM     11  N   UNL A   1      33.306  30.513  27.535  1.00  0.00    -0.151 NA
ATOM     12  N   UNL A   1      34.060  29.549  27.275  1.00  0.00    -0.151 NA
BRANCH  12  13
ATOM     13  C   UNL A   1      33.369  28.395  26.861  1.00  0.00     0.086 A 
ATOM     14  C   UNL A   1      31.825  26.210  26.010  1.00  0.00     0.082 A 
ATOM     15  C   UNL A   1      31.248  27.190  26.819  1.00  0.00     0.024 A 
ATOM     16  C   UNL A   1      33.164  26.303  25.627  1.00  0.00     0.024 A 
ATOM     17  C   UNL A   1      32.023  28.275  27.238  1.00  0.00     0.031 A 
ATOM     18  C   UNL A   1      33.928  27.398  26.045  1.00  0.00     0.031 A 
BRANCH  14  19
ATOM     19  S   UNL A   1      30.871  24.825  25.468  1.00  0.00     0.238 S 
ATOM     20  O   UNL A   1      31.588  23.610  25.790  1.00  0.00    -0.207 OA
ATOM     21  O   UNL A   1      30.361  25.108  24.150  1.00  0.00    -0.207 OA
BRANCH  19  22
ATOM     22  N   UNL A   1      29.541  24.828  26.496  1.00  0.00    -0.225 NA
ATOM     23  H   UNL A   1      28.683  24.857  25.944  1.00  0.00     0.137 HD
ATOM     24  H   UNL A   1      29.581  25.647  27.103  1.00  0.00     0.137 HD
ENDBRANCH  19  22
ENDBRANCH  14  19
ENDBRANCH  12  13
ENDBRANCH   6  11
BRANCH  10  25
ATOM     25  O   UNL A   1      36.464  34.872  28.953  1.00  0.00    -0.507 OA
ATOM     26  H   UNL A   1      36.340  35.695  28.523  1.00  0.00     0.293 HD
ENDBRANCH  10  25
ENDBRANCH   3   5
ENDBRANCH   2   3
ENDBRANCH   1   2
BRANCH   1  27
ATOM     27  C   UNL A   1      34.380  33.587  33.229  1.00  0.00     0.275 C 
BRANCH  27  28
ATOM     28  O   UNL A   1      35.138  32.436  32.805  1.00  0.00    -0.458 OA
BRANCH  28  29
ATOM     29  C   UNL A   1      36.324  32.270  33.439  1.00  0.00     0.338 C 
ATOM     30  O   UNL A   1      36.545  32.421  34.629  1.00  0.00    -0.246 OA
BRANCH  29  31
ATOM     31  C   UNL A   1      37.317  31.687  32.515  1.00  0.00     0.060 A 
ATOM     32  C   UNL A   1      38.556  31.346  33.058  1.00  0.00     0.016 A 
ATOM     33  C   UNL A   1      37.074  31.504  31.150  1.00  0.00     0.016 A 
ATOM     34  C   UNL A   1      39.549  30.790  32.258  1.00  0.00     0.010 A 
ATOM     35  C   UNL A   1      38.088  30.975  30.335  1.00  0.00     0.010 A 
ATOM     36  C   UNL A   1      39.331  30.617  30.887  1.00  0.00    -0.014 A 
BRANCH  36  37
ATOM     37  C   UNL A   1      40.461  30.144  30.049  1.00  0.00     0.031 A 
ATOM     38  C   UNL A   1      41.602  31.076  29.750  1.00  0.00     0.074 A 
ATOM     39  C   UNL A   1      40.513  28.865  29.637  1.00  0.00     0.049 A 
ATOM     40  N   UNL A   1      42.719  30.838  29.109  1.00  0.00    -0.248 NA
ATOM     41  C   UNL A   1      41.472  32.454  30.246  1.00  0.00     0.031 C 
ATOM     42  C   UNL A   1      39.492  27.852  29.898  1.00  0.00     0.029 A 
ATOM     43  N   UNL A   1      41.474  28.198  28.919  1.00  0.00    -0.354 N 
ATOM     44  C   UNL A   1      43.426  32.033  29.127  1.00  0.00     0.074 A 
ATOM     45  C   UNL A   1      42.601  33.002  29.820  1.00  0.00     0.031 C 
ATOM     46  C   UNL A   1      39.879  26.690  29.341  1.00  0.00     0.029 A 
ATOM     47  C   UNL A   1      41.163  26.883  28.672  1.00  0.00     0.049 A 
ATOM     48  H   UNL A   1      42.308  28.622  28.612  1.00  0.00     0.167 HD
ATOM     49  C   UNL A   1      44.653  32.298  28.621  1.00  0.00     0.037 A 
ATOM     50  C   UNL A   1      41.835  25.945  27.976  1.00  0.00     0.037 A 
ATOM     51  C   UNL A   1      45.478  31.336  27.934  1.00  0.00     0.049 A 
ATOM     52  C   UNL A   1      43.177  26.282  27.380  1.00  0.00     0.074 A 
ATOM     53  C   UNL A   1      46.746  31.511  27.406  1.00  0.00     0.029 A 
ATOM     54  N   UNL A   1      45.113  30.026  27.669  1.00  0.00    -0.354 N 
ATOM     55  N   UNL A   1      43.854  27.404  27.439  1.00  0.00    -0.248 NA
ATOM     56  C   UNL A   1      43.855  25.214  26.630  1.00  0.00     0.031 C 
ATOM     57  C   UNL A   1      47.127  30.321  26.776  1.00  0.00     0.029 A 
ATOM     58  C   UNL A   1      46.120  29.388  26.960  1.00  0.00     0.049 A 
ATOM     59  H   UNL A   1      44.265  29.609  27.943  1.00  0.00     0.167 HD
ATOM     60  C   UNL A   1      45.044  27.167  26.761  1.00  0.00     0.074 A 
ATOM     61  C   UNL A   1      45.007  25.789  26.321  1.00  0.00     0.031 C 
ATOM     62  C   UNL A   1      46.075  28.016  26.525  1.00  0.00     0.037 A 
BRANCH  49  63
ATOM     63  C   UNL A   1      45.174  33.697  28.762  1.00  0.00     0.057 A 
ATOM     64  C   UNL A   1      44.890  34.694  27.821  1.00  0.00     0.134 A 
ATOM     65  C   UNL A   1      45.929  34.061  29.885  1.00  0.00     0.134 A 
ATOM     66  F   UNL A   1      44.184  34.407  26.718  1.00  0.00    -0.206 F 
ATOM     67  C   UNL A   1      45.352  36.002  27.983  1.00  0.00     0.040 A 
ATOM     68  C   UNL A   1      46.376  35.370  30.070  1.00  0.00     0.040 A 
ATOM     69  F   UNL A   1      46.232  33.154  30.825  1.00  0.00    -0.206 F 
ATOM     70  C   UNL A   1      46.091  36.344  29.115  1.00  0.00     0.006 A 
ENDBRANCH  49  63
BRANCH  50  71
ATOM     71  C   UNL A   1      41.247  24.595  27.779  1.00  0.00     0.057 A 
ATOM     72  C   UNL A   1      41.732  23.476  28.464  1.00  0.00     0.134 A 
ATOM     73  C   UNL A   1      40.220  24.387  26.850  1.00  0.00     0.134 A 
ATOM     74  F   UNL A   1      42.735  23.606  29.346  1.00  0.00    -0.206 F 
ATOM     75  C   UNL A   1      41.240  22.193  28.212  1.00  0.00     0.040 A 
ATOM     76  C   UNL A   1      39.698  23.115  26.609  1.00  0.00     0.040 A 
ATOM     77  F   UNL A   1      39.712  25.417  26.159  1.00  0.00    -0.206 F 
ATOM     78  C   UNL A   1      40.217  22.012  27.283  1.00  0.00     0.006 A 
ENDBRANCH  50  71
BRANCH  62  79
ATOM     79  C   UNL A   1      47.261  27.463  25.784  1.00  0.00     0.057 A 
ATOM     80  C   UNL A   1      47.390  27.581  24.394  1.00  0.00     0.134 A 
ATOM     81  C   UNL A   1      48.291  26.809  26.473  1.00  0.00     0.134 A 
ATOM     82  F   UNL A   1      46.436  28.185  23.671  1.00  0.00    -0.206 F 
ATOM     83  C   UNL A   1      48.479  27.033  23.712  1.00  0.00     0.040 A 
ATOM     84  C   UNL A   1      49.400  26.286  25.806  1.00  0.00     0.040 A 
ATOM     85  F   UNL A   1      48.240  26.672  27.807  1.00  0.00    -0.206 F 
ATOM     86  C   UNL A   1      49.490  26.387  24.419  1.00  0.00     0.006 A 
ENDBRANCH  62  79
ENDBRANCH  36  37
ENDBRANCH  29  31
ENDBRANCH  28  29
ENDBRANCH  27  28
ENDBRANCH   1  27
TORSDOF 16
ENDMDL
MODEL 3
REMARK VINA RESULT:     -11.6      1.423      2.103
REMARK SMILES NS(=O)(=O)c1ccc(/N=N/c2ccc(O)c(C(=O)OCCOC(=O)c3ccc(-c4c5nc(c(-c6c(F)cccc6F)c6ccc([nH]6)c(-c6c(F)cccc6F)c6nc(c(-c7c(F)cccc7F)c7ccc4[nH]7)C=C6)C=C5)cc3)c2)cc1
REMARK SMILES IDX 20 1 19 2 17 3 18 4 16 5 11 6 12 7 79 8 13 9 14 10 10 11
REMARK SMILES IDX 9 12 8 13 5 14 6 15 81 16 7 17 80 18 2 19 3 20 4 21 1 22
REMARK SMILES IDX 15 25 21 27 22 28 23 29 24 30 25 31 26 32 78 33 27 34 77 35
REMARK SMILES IDX 28 36 29 37 30 38 71 39 31 40 76 41 70 42 72 43 32 44 75 45
REMARK SMILES IDX 69 46 68 47 33 49 59 50 42 51 58 52 43 53 46 54 57 55 73 56
REMARK SMILES IDX 44 57 45 58 56 60 74 61 47 62 34 63 35 64 40 65 36 66 37 67
REMARK SMILES IDX 39 68 41 69 38 70 60 71 61 72 66 73 62 74 63 75 65 76 67 77
REMARK SMILES IDX 64 78 48 79 49 80 54 81 50 82 51 83 53 84 55 85 52 86
REMARK H PARENT 1 23 1 24 15 26 72 48 46 59
REMARK Flexibility Score: inf
ROOT
ATOM      1  C   UNL A   1      43.308  21.624  26.067  1.00  0.00     0.275 C 
ENDROOT
BRANCH   1   2
ATOM      2  O   UNL A   1      41.960  21.435  25.597  1.00  0.00    -0.458 OA
BRANCH   2   3
ATOM      3  C   UNL A   1      40.983  21.500  26.530  1.00  0.00     0.342 C 
ATOM      4  O   UNL A   1      41.107  21.863  27.692  1.00  0.00    -0.246 OA
BRANCH   3   5
ATOM      5  C   UNL A   1      39.656  21.166  25.958  1.00  0.00     0.104 A 
ATOM      6  C   UNL A   1      37.386  21.784  25.340  1.00  0.00     0.087 A 
ATOM      7  C   UNL A   1      37.116  20.447  25.025  1.00  0.00     0.034 A 
ATOM      8  C   UNL A   1      38.650  22.133  25.833  1.00  0.00     0.049 A 
ATOM      9  C   UNL A   1      38.114  19.480  25.131  1.00  0.00     0.049 A 
ATOM     10  C   UNL A   1      39.385  19.844  25.569  1.00  0.00     0.130 A 
BRANCH   6  11
ATOM     11  N   UNL A   1      36.389  22.760  25.168  1.00  0.00    -0.151 NA
ATOM     12  N   UNL A   1      35.581  22.687  26.120  1.00  0.00    -0.151 NA
BRANCH  12  13
ATOM     13  C   UNL A   1      34.544  23.637  26.046  1.00  0.00     0.086 A 
ATOM     14  C   UNL A   1      32.414  25.466  26.083  1.00  0.00     0.082 A 
ATOM     15  C   UNL A   1      32.236  24.188  26.615  1.00  0.00     0.024 A 
ATOM     16  C   UNL A   1      33.639  25.839  25.526  1.00  0.00     0.024 A 
ATOM     17  C   UNL A   1      33.302  23.283  26.593  1.00  0.00     0.031 A 
ATOM     18  C   UNL A   1      34.700  24.928  25.518  1.00  0.00     0.031 A 
BRANCH  14  19
ATOM     19  S   UNL A   1      31.085  26.630  26.094  1.00  0.00     0.238 S 
ATOM     20  O   UNL A   1      31.066  27.304  27.374  1.00  0.00    -0.207 OA
ATOM     21  O   UNL A   1      29.921  26.000  25.523  1.00  0.00    -0.207 OA
BRANCH  19  22
ATOM     22  N   UNL A   1      31.571  27.804  24.993  1.00  0.00    -0.225 NA
ATOM     23  H   UNL A   1      30.807  28.462  24.836  1.00  0.00     0.137 HD
ATOM     24  H   UNL A   1      31.822  27.360  24.109  1.00  0.00     0.137 HD
ENDBRANCH  19  22
ENDBRANCH  14  19
ENDBRANCH  12  13
ENDBRANCH   6  11
BRANCH  10  25
ATOM     25  O   UNL A   1      40.310  18.836  25.627  1.00  0.00    -0.507 OA
ATOM     26  H   UNL A   1      41.019  18.885  26.238  1.00  0.00     0.293 HD
ENDBRANCH  10  25
ENDBRANCH   3   5
ENDBRANCH   2   3
ENDBRANCH   1   2
BRANCH   1  27
ATOM     27  C   UNL A   1      44.180  22.306  25.008  1.00  0.00     0.275 C 
BRANCH  27  28
ATOM     28  O   UNL A   1      43.656  23.599  24.649  1.00  0.00    -0.458 OA
BRANCH  28  29
ATOM     29  C   UNL A   1      44.389  24.652  25.086  1.00  0.00     0.338 C 
ATOM     30  O   UNL A   1      45.431  25.068  24.606  1.00  0.00    -0.246 OA
BRANCH  29  31
ATOM     31  C   UNL A   1      43.657  25.377  26.144  1.00  0.00     0.060 A 
ATOM     32  C   UNL A   1      44.217  26.576  26.587  1.00  0.00     0.016 A 
ATOM     33  C   UNL A   1      42.478  24.898  26.721  1.00  0.00     0.016 A 
ATOM     34  C   UNL A   1      43.592  27.323  27.579  1.00  0.00     0.010 A 
ATOM     35  C   UNL A   1      41.865  25.634  27.748  1.00  0.00     0.010 A 
ATOM     36  C   UNL A   1      42.421  26.850  28.183  1.00  0.00    -0.014 A 
BRANCH  36  37
ATOM     37  C   UNL A   1      41.862  27.612  29.326  1.00  0.00     0.031 A 
ATOM     38  C   UNL A   1      42.536  27.538  30.667  1.00  0.00     0.074 A 
ATOM     39  C   UNL A   1      40.815  28.437  29.146  1.00  0.00     0.049 A 
ATOM     40  N   UNL A   1      42.259  28.185  31.771  1.00  0.00    -0.248 NA
ATOM     41  C   UNL A   1      43.680  26.621  30.776  1.00  0.00     0.031 C 
ATOM     42  C   UNL A   1      40.100  28.632  27.886  1.00  0.00     0.029 A 
ATOM     43  N   UNL A   1      40.179  29.276  30.027  1.00  0.00    -0.354 N 
ATOM     44  C   UNL A   1      43.193  27.758  32.705  1.00  0.00     0.074 A 
ATOM     45  C   UNL A   1      44.030  26.776  32.046  1.00  0.00     0.031 C 
ATOM     46  C   UNL A   1      39.117  29.530  28.077  1.00  0.00     0.029 A 
ATOM     47  C   UNL A   1      39.124  29.959  29.473  1.00  0.00     0.049 A 
ATOM     48  H   UNL A   1      40.454  29.380  30.967  1.00  0.00     0.167 HD
ATOM     49  C   UNL A   1      43.345  28.152  33.991  1.00  0.00     0.037 A 
ATOM     50  C   UNL A   1      38.255  30.823  30.033  1.00  0.00     0.037 A 
ATOM     51  C   UNL A   1      42.517  29.130  34.649  1.00  0.00     0.049 A 
ATOM     52  C   UNL A   1      38.419  31.206  31.481  1.00  0.00     0.074 A 
ATOM     53  C   UNL A   1      42.613  29.607  35.945  1.00  0.00     0.029 A 
ATOM     54  N   UNL A   1      41.434  29.771  34.067  1.00  0.00    -0.354 N 
ATOM     55  N   UNL A   1      39.331  30.826  32.343  1.00  0.00    -0.248 NA
ATOM     56  C   UNL A   1      37.435  32.152  32.030  1.00  0.00     0.031 C 
ATOM     57  C   UNL A   1      41.556  30.498  36.164  1.00  0.00     0.029 A 
ATOM     58  C   UNL A   1      40.836  30.619  34.988  1.00  0.00     0.049 A 
ATOM     59  H   UNL A   1      41.134  29.643  33.139  1.00  0.00     0.167 HD
ATOM     60  C   UNL A   1      39.049  31.506  33.522  1.00  0.00     0.074 A 
ATOM     61  C   UNL A   1      37.895  32.339  33.258  1.00  0.00     0.031 C 
ATOM     62  C   UNL A   1      39.687  31.445  34.716  1.00  0.00     0.037 A 
BRANCH  49  63
ATOM     63  C   UNL A   1      44.436  27.502  34.790  1.00  0.00     0.057 A 
ATOM     64  C   UNL A   1      45.719  28.054  34.880  1.00  0.00     0.134 A 
ATOM     65  C   UNL A   1      44.179  26.333  35.518  1.00  0.00     0.134 A 
ATOM     66  F   UNL A   1      46.033  29.164  34.197  1.00  0.00    -0.206 F 
ATOM     67  C   UNL A   1      46.716  27.456  35.656  1.00  0.00     0.040 A 
ATOM     68  C   UNL A   1      45.160  25.741  36.315  1.00  0.00     0.040 A 
ATOM     69  F   UNL A   1      42.969  25.757  35.477  1.00  0.00    -0.206 F 
ATOM     70  C   UNL A   1      46.434  26.300  36.382  1.00  0.00     0.006 A 
ENDBRANCH  49  63
BRANCH  50  71
ATOM     71  C   UNL A   1      37.132  31.379  29.235  1.00  0.00     0.057 A 
ATOM     72  C   UNL A   1      37.160  32.687  28.739  1.00  0.00     0.134 A 
ATOM     73  C   UNL A   1      35.974  30.625  29.001  1.00  0.00     0.134 A 
ATOM     74  F   UNL A   1      38.228  33.469  28.955  1.00  0.00    -0.206 F 
ATOM     75  C   UNL A   1      36.066  33.238  28.067  1.00  0.00     0.040 A 
ATOM     76  C   UNL A   1      34.886  31.153  28.305  1.00  0.00     0.040 A 
ATOM     77  F   UNL A   1      35.883  29.366  29.451  1.00  0.00    -0.206 F 
ATOM     78  C   UNL A   1      34.926  32.468  27.847  1.00  0.00     0.006 A 
ENDBRANCH  50  71
BRANCH  62  79
ATOM     79  C   UNL A   1      39.170  32.330  35.816  1.00  0.00     0.057 A 
ATOM     80  C   UNL A   1      39.575  33.665  35.948  1.00  0.00     0.134 A 
ATOM     81  C   UNL A   1      38.250  31.841  36.753  1.00  0.00     0.134 A 
ATOM     82  F   UNL A   1      40.461  34.195  35.093  1.00  0.00    -0.206 F 
ATOM     83  C   UNL A   1      39.115  34.468  36.994  1.00  0.00     0.040 A 
ATOM     84  C   UNL A   1      37.759  32.643  37.784  1.00  0.00     0.040 A 
ATOM     85  F   UNL A   1      37.809  30.575  36.679  1.00  0.00    -0.206 F 
ATOM     86  C   UNL A   1      38.201  33.958  37.914  1.00  0.00     0.006 A 
ENDBRANCH  62  79
ENDBRANCH  36  37
ENDBRANCH  29  31
ENDBRANCH  28  29
ENDBRANCH  27  28
ENDBRANCH   1  27
TORSDOF 16
ENDMDL
