MODEL 1
REMARK VINA RESULT:     -12.1      0.000      0.000
REMARK SMILES CC(C)(C(=O)OCCOC(=O)c1ccc(-c2c3nc(c(-c4c(F)cccc4F)c4ccc([nH]4)c(-c4c(F)cccc4F)c4nc(c(-c5c(F)cccc5F)c5ccc2[nH]5)C=C4)C=C3)cc1)c1ccc(NS(=O)(=O)c2c(F)cc(F)cc2F)cc1
REMARK SMILES IDX 7 1 6 2 4 3 5 4 2 5 1 6 3 7 66 8 67 9 84 10 68 11 83 12
REMARK SMILES IDX 69 13 70 14 71 16 72 17 73 18 74 19 75 20 81 21 76 22 77 23
REMARK SMILES IDX 80 24 82 25 78 26 79 27 8 28 9 29 10 30 11 31 12 32 13 33
REMARK SMILES IDX 65 34 14 35 64 36 15 37 16 38 17 39 58 40 18 41 63 42 57 43
REMARK SMILES IDX 59 44 19 45 62 46 56 47 55 48 20 50 46 51 29 52 45 53 30 54
REMARK SMILES IDX 33 55 44 56 60 57 31 58 32 59 43 61 61 62 34 63 21 64 22 65
REMARK SMILES IDX 27 66 23 67 24 68 26 69 28 70 25 71 47 72 48 73 53 74 49 75
REMARK SMILES IDX 50 76 52 77 54 78 51 79 35 80 36 81 41 82 37 83 38 84 40 85
REMARK SMILES IDX 42 86 39 87
REMARK H PARENT 70 15 59 49 33 60
REMARK Flexibility Score: inf
ROOT
ATOM      1  C   UNL A   1      32.393  30.392  26.875  1.00  0.00     0.274 C 
ENDROOT
BRANCH   1   2
ATOM      2  O   UNL A   1      32.851  29.042  26.648  1.00  0.00    -0.461 OA
BRANCH   2   3
ATOM      3  C   UNL A   1      31.919  28.046  26.687  1.00  0.00     0.316 C 
ATOM      4  O   UNL A   1      31.198  27.839  27.658  1.00  0.00    -0.251 OA
BRANCH   3   5
ATOM      5  C   UNL A   1      31.933  27.163  25.406  1.00  0.00     0.087 C 
ATOM      6  C   UNL A   1      30.539  27.188  24.729  1.00  0.00     0.028 C 
ATOM      7  C   UNL A   1      32.920  27.839  24.433  1.00  0.00     0.028 C 
BRANCH   5   8
ATOM      8  C   UNL A   1      32.418  25.715  25.701  1.00  0.00    -0.031 A 
ATOM      9  C   UNL A   1      33.778  25.397  25.866  1.00  0.00     0.007 A 
ATOM     10  C   UNL A   1      31.502  24.648  25.828  1.00  0.00     0.007 A 
ATOM     11  C   UNL A   1      34.207  24.077  26.062  1.00  0.00     0.027 A 
ATOM     12  C   UNL A   1      31.928  23.325  26.019  1.00  0.00     0.027 A 
ATOM     13  C   UNL A   1      33.284  23.038  26.105  1.00  0.00     0.049 A 
BRANCH  13  14
ATOM     14  N   UNL A   1      33.788  21.704  26.242  1.00  0.00    -0.279 N 
ATOM     15  H   UNL A   1      33.612  21.172  27.051  1.00  0.00     0.180 HD
BRANCH  14  16
ATOM     16  S   UNL A   1      34.707  21.074  24.949  1.00  0.00     0.267 S 
ATOM     17  O   UNL A   1      34.335  21.814  23.760  1.00  0.00    -0.201 OA
ATOM     18  O   UNL A   1      36.087  21.073  25.380  1.00  0.00    -0.201 OA
BRANCH  16  19
ATOM     19  C   UNL A   1      34.156  19.420  24.788  1.00  0.00     0.159 A 
ATOM     20  C   UNL A   1      35.083  18.393  24.638  1.00  0.00     0.149 A 
ATOM     21  C   UNL A   1      32.800  19.114  24.805  1.00  0.00     0.149 A 
ATOM     22  F   UNL A   1      36.400  18.631  24.626  1.00  0.00    -0.205 F 
ATOM     23  C   UNL A   1      34.668  17.081  24.444  1.00  0.00     0.080 A 
ATOM     24  C   UNL A   1      32.371  17.799  24.638  1.00  0.00     0.080 A 
ATOM     25  F   UNL A   1      31.863  20.059  24.948  1.00  0.00    -0.205 F 
ATOM     26  C   UNL A   1      33.311  16.796  24.445  1.00  0.00     0.129 A 
ATOM     27  F   UNL A   1      32.903  15.536  24.251  1.00  0.00    -0.207 F 
ENDBRANCH  16  19
ENDBRANCH  14  16
ENDBRANCH  13  14
ENDBRANCH   5   8
ENDBRANCH   3   5
ENDBRANCH   2   3
ENDBRANCH   1   2
BRANCH   1  28
ATOM     28  C   UNL A   1      33.461  31.184  27.622  1.00  0.00     0.275 C 
BRANCH  28  29
ATOM     29  O   UNL A   1      34.548  30.298  27.934  1.00  0.00    -0.458 OA
BRANCH  29  30
ATOM     30  C   UNL A   1      35.460  30.752  28.823  1.00  0.00     0.338 C 
ATOM     31  O   UNL A   1      35.310  31.626  29.658  1.00  0.00    -0.246 OA
BRANCH  30  32
ATOM     32  C   UNL A   1      36.717  29.999  28.651  1.00  0.00     0.060 A 
ATOM     33  C   UNL A   1      37.276  29.324  29.733  1.00  0.00     0.016 A 
ATOM     34  C   UNL A   1      37.400  30.041  27.434  1.00  0.00     0.016 A 
ATOM     35  C   UNL A   1      38.548  28.766  29.619  1.00  0.00     0.010 A 
ATOM     36  C   UNL A   1      38.646  29.409  27.309  1.00  0.00     0.010 A 
ATOM     37  C   UNL A   1      39.264  28.802  28.416  1.00  0.00    -0.014 A 
BRANCH  37  38
ATOM     38  C   UNL A   1      40.677  28.311  28.357  1.00  0.00     0.031 A 
ATOM     39  C   UNL A   1      41.811  29.239  28.725  1.00  0.00     0.074 A 
ATOM     40  C   UNL A   1      40.984  27.030  28.056  1.00  0.00     0.049 A 
ATOM     41  N   UNL A   1      43.094  29.111  28.498  1.00  0.00    -0.248 NA
ATOM     42  C   UNL A   1      41.448  30.474  29.435  1.00  0.00     0.031 C 
ATOM     43  C   UNL A   1      40.025  25.962  27.773  1.00  0.00     0.029 A 
ATOM     44  N   UNL A   1      42.206  26.402  27.966  1.00  0.00    -0.354 N 
ATOM     45  C   UNL A   1      43.678  30.288  28.951  1.00  0.00     0.074 A 
ATOM     46  C   UNL A   1      42.612  31.106  29.490  1.00  0.00     0.031 C 
ATOM     47  C   UNL A   1      40.687  24.805  27.614  1.00  0.00     0.029 A 
ATOM     48  C   UNL A   1      42.120  25.067  27.649  1.00  0.00     0.049 A 
ATOM     49  H   UNL A   1      43.061  26.867  28.115  1.00  0.00     0.167 HD
ATOM     50  C   UNL A   1      44.981  30.660  28.910  1.00  0.00     0.037 A 
ATOM     51  C   UNL A   1      43.077  24.164  27.355  1.00  0.00     0.037 A 
ATOM     52  C   UNL A   1      46.057  29.817  28.460  1.00  0.00     0.049 A 
ATOM     53  C   UNL A   1      44.513  24.601  27.278  1.00  0.00     0.074 A 
ATOM     54  C   UNL A   1      47.404  30.119  28.343  1.00  0.00     0.029 A 
ATOM     55  N   UNL A   1      45.915  28.486  28.099  1.00  0.00    -0.354 N 
ATOM     56  N   UNL A   1      45.035  25.775  27.533  1.00  0.00    -0.248 NA
ATOM     57  C   UNL A   1      45.488  23.598  26.820  1.00  0.00     0.031 C 
ATOM     58  C   UNL A   1      48.074  28.978  27.887  1.00  0.00     0.029 A 
ATOM     59  C   UNL A   1      47.148  27.957  27.755  1.00  0.00     0.049 A 
ATOM     60  H   UNL A   1      45.065  27.992  28.090  1.00  0.00     0.167 HD
ATOM     61  C   UNL A   1      46.394  25.651  27.270  1.00  0.00     0.074 A 
ATOM     62  C   UNL A   1      46.621  24.283  26.857  1.00  0.00     0.031 C 
ATOM     63  C   UNL A   1      47.364  26.593  27.346  1.00  0.00     0.037 A 
BRANCH  50  64
ATOM     64  C   UNL A   1      45.309  32.070  29.305  1.00  0.00     0.057 A 
ATOM     65  C   UNL A   1      45.215  33.144  28.413  1.00  0.00     0.134 A 
ATOM     66  C   UNL A   1      45.704  32.353  30.620  1.00  0.00     0.134 A 
ATOM     67  F   UNL A   1      44.864  32.939  27.136  1.00  0.00    -0.206 F 
ATOM     68  C   UNL A   1      45.522  34.448  28.811  1.00  0.00     0.040 A 
ATOM     69  C   UNL A   1      45.989  33.654  31.035  1.00  0.00     0.040 A 
ATOM     70  F   UNL A   1      45.809  31.368  31.526  1.00  0.00    -0.206 F 
ATOM     71  C   UNL A   1      45.904  34.705  30.126  1.00  0.00     0.006 A 
ENDBRANCH  50  64
BRANCH  51  72
ATOM     72  C   UNL A   1      42.704  22.763  27.023  1.00  0.00     0.057 A 
ATOM     73  C   UNL A   1      42.708  22.308  25.701  1.00  0.00     0.134 A 
ATOM     74  C   UNL A   1      42.318  21.853  28.016  1.00  0.00     0.134 A 
ATOM     75  F   UNL A   1      43.028  23.141  24.700  1.00  0.00    -0.206 F 
ATOM     76  C   UNL A   1      42.341  21.000  25.376  1.00  0.00     0.040 A 
ATOM     77  C   UNL A   1      41.977  20.536  27.710  1.00  0.00     0.040 A 
ATOM     78  F   UNL A   1      42.283  22.229  29.304  1.00  0.00    -0.206 F 
ATOM     79  C   UNL A   1      41.983  20.107  26.385  1.00  0.00     0.006 A 
ENDBRANCH  51  72
BRANCH  63  80
ATOM     80  C   UNL A   1      48.759  26.174  26.994  1.00  0.00     0.057 A 
ATOM     81  C   UNL A   1      49.267  26.332  25.698  1.00  0.00     0.134 A 
ATOM     82  C   UNL A   1      49.614  25.637  27.964  1.00  0.00     0.134 A 
ATOM     83  F   UNL A   1      48.494  26.828  24.721  1.00  0.00    -0.206 F 
ATOM     84  C   UNL A   1      50.571  25.953  25.376  1.00  0.00     0.040 A 
ATOM     85  C   UNL A   1      50.925  25.272  27.658  1.00  0.00     0.040 A 
ATOM     86  F   UNL A   1      49.191  25.467  29.225  1.00  0.00    -0.206 F 
ATOM     87  C   UNL A   1      51.407  25.426  26.359  1.00  0.00     0.006 A 
ENDBRANCH  63  80
ENDBRANCH  37  38
ENDBRANCH  30  32
ENDBRANCH  29  30
ENDBRANCH  28  29
ENDBRANCH   1  28
TORSDOF 15
ENDMDL
MODEL 2
REMARK VINA RESULT:     -12.1      1.512      2.309
REMARK SMILES CC(C)(C(=O)OCCOC(=O)c1ccc(-c2c3nc(c(-c4c(F)cccc4F)c4ccc([nH]4)c(-c4c(F)cccc4F)c4nc(c(-c5c(F)cccc5F)c5ccc2[nH]5)C=C4)C=C3)cc1)c1ccc(NS(=O)(=O)c2c(F)cc(F)cc2F)cc1
REMARK SMILES IDX 7 1 6 2 4 3 5 4 2 5 1 6 3 7 66 8 67 9 84 10 68 11 83 12
REMARK SMILES IDX 69 13 70 14 71 16 72 17 73 18 74 19 75 20 81 21 76 22 77 23
REMARK SMILES IDX 80 24 82 25 78 26 79 27 8 28 9 29 10 30 11 31 12 32 13 33
REMARK SMILES IDX 65 34 14 35 64 36 15 37 16 38 17 39 58 40 18 41 63 42 57 43
REMARK SMILES IDX 59 44 19 45 62 46 56 47 55 48 20 50 46 51 29 52 45 53 30 54
REMARK SMILES IDX 33 55 44 56 60 57 31 58 32 59 43 61 61 62 34 63 21 64 22 65
REMARK SMILES IDX 27 66 23 67 24 68 26 69 28 70 25 71 47 72 48 73 53 74 49 75
REMARK SMILES IDX 50 76 52 77 54 78 51 79 35 80 36 81 41 82 37 83 38 84 40 85
REMARK SMILES IDX 42 86 39 87
REMARK H PARENT 70 15 59 49 33 60
REMARK Flexibility Score: inf
ROOT
ATOM      1  C   UNL A   1      32.354  30.506  26.889  1.00  0.00     0.274 C 
ENDROOT
BRANCH   1   2
ATOM      2  O   UNL A   1      32.749  29.512  25.918  1.00  0.00    -0.461 OA
BRANCH   2   3
ATOM      3  C   UNL A   1      31.930  28.433  25.756  1.00  0.00     0.316 C 
ATOM      4  O   UNL A   1      31.391  27.851  26.691  1.00  0.00    -0.251 OA
BRANCH   3   5
ATOM      5  C   UNL A   1      31.828  27.979  24.270  1.00  0.00     0.087 C 
ATOM      6  C   UNL A   1      30.418  28.302  23.714  1.00  0.00     0.028 C 
ATOM      7  C   UNL A   1      32.832  28.849  23.488  1.00  0.00     0.028 C 
BRANCH   5   8
ATOM      8  C   UNL A   1      32.202  26.481  24.091  1.00  0.00    -0.031 A 
ATOM      9  C   UNL A   1      31.258  25.448  24.234  1.00  0.00     0.007 A 
ATOM     10  C   UNL A   1      33.518  26.089  23.761  1.00  0.00     0.007 A 
ATOM     11  C   UNL A   1      31.622  24.098  24.139  1.00  0.00     0.027 A 
ATOM     12  C   UNL A   1      33.888  24.738  23.670  1.00  0.00     0.027 A 
ATOM     13  C   UNL A   1      32.944  23.744  23.890  1.00  0.00     0.049 A 
BRANCH  13  14
ATOM     14  N   UNL A   1      33.267  22.348  23.868  1.00  0.00    -0.279 N 
ATOM     15  H   UNL A   1      33.244  21.831  23.031  1.00  0.00     0.180 HD
BRANCH  14  16
ATOM     16  S   UNL A   1      33.694  21.618  25.351  1.00  0.00     0.267 S 
ATOM     17  O   UNL A   1      33.065  22.388  26.403  1.00  0.00    -0.201 OA
ATOM     18  O   UNL A   1      33.390  20.210  25.224  1.00  0.00    -0.201 OA
BRANCH  16  19
ATOM     19  C   UNL A   1      35.430  21.822  25.453  1.00  0.00     0.159 A 
ATOM     20  C   UNL A   1      36.273  20.783  25.070  1.00  0.00     0.149 A 
ATOM     21  C   UNL A   1      35.983  23.011  25.916  1.00  0.00     0.149 A 
ATOM     22  F   UNL A   1      35.793  19.622  24.608  1.00  0.00    -0.205 F 
ATOM     23  C   UNL A   1      37.651  20.898  25.204  1.00  0.00     0.080 A 
ATOM     24  C   UNL A   1      37.365  23.149  26.030  1.00  0.00     0.080 A 
ATOM     25  F   UNL A   1      35.223  24.044  26.296  1.00  0.00    -0.205 F 
ATOM     26  C   UNL A   1      38.186  22.083  25.684  1.00  0.00     0.129 A 
ATOM     27  F   UNL A   1      39.512  22.199  25.823  1.00  0.00    -0.207 F 
ENDBRANCH  16  19
ENDBRANCH  14  16
ENDBRANCH  13  14
ENDBRANCH   5   8
ENDBRANCH   3   5
ENDBRANCH   2   3
ENDBRANCH   1   2
BRANCH   1  28
ATOM     28  C   UNL A   1      33.585  31.243  27.406  1.00  0.00     0.275 C 
BRANCH  28  29
ATOM     29  O   UNL A   1      34.522  30.273  27.900  1.00  0.00    -0.458 OA
BRANCH  29  30
ATOM     30  C   UNL A   1      35.414  30.710  28.818  1.00  0.00     0.338 C 
ATOM     31  O   UNL A   1      35.243  31.562  29.672  1.00  0.00    -0.246 OA
BRANCH  30  32
ATOM     32  C   UNL A   1      36.678  29.968  28.652  1.00  0.00     0.060 A 
ATOM     33  C   UNL A   1      37.228  29.280  29.730  1.00  0.00     0.016 A 
ATOM     34  C   UNL A   1      37.377  30.034  27.445  1.00  0.00     0.016 A 
ATOM     35  C   UNL A   1      38.505  28.733  29.625  1.00  0.00     0.010 A 
ATOM     36  C   UNL A   1      38.629  29.412  27.327  1.00  0.00     0.010 A 
ATOM     37  C   UNL A   1      39.237  28.792  28.432  1.00  0.00    -0.014 A 
BRANCH  37  38
ATOM     38  C   UNL A   1      40.654  28.311  28.384  1.00  0.00     0.031 A 
ATOM     39  C   UNL A   1      41.778  29.249  28.756  1.00  0.00     0.074 A 
ATOM     40  C   UNL A   1      40.972  27.032  28.091  1.00  0.00     0.049 A 
ATOM     41  N   UNL A   1      43.064  29.131  28.539  1.00  0.00    -0.248 NA
ATOM     42  C   UNL A   1      41.401  30.485  29.459  1.00  0.00     0.031 C 
ATOM     43  C   UNL A   1      40.024  25.955  27.806  1.00  0.00     0.029 A 
ATOM     44  N   UNL A   1      42.200  26.413  28.011  1.00  0.00    -0.354 N 
ATOM     45  C   UNL A   1      43.636  30.314  28.991  1.00  0.00     0.074 A 
ATOM     46  C   UNL A   1      42.560  31.126  29.519  1.00  0.00     0.031 C 
ATOM     47  C   UNL A   1      40.695  24.803  27.655  1.00  0.00     0.029 A 
ATOM     48  C   UNL A   1      42.126  25.076  27.699  1.00  0.00     0.049 A 
ATOM     49  H   UNL A   1      43.051  26.885  28.164  1.00  0.00     0.167 HD
ATOM     50  C   UNL A   1      44.936  30.696  28.957  1.00  0.00     0.037 A 
ATOM     51  C   UNL A   1      43.092  24.179  27.415  1.00  0.00     0.037 A 
ATOM     52  C   UNL A   1      46.021  29.859  28.518  1.00  0.00     0.049 A 
ATOM     53  C   UNL A   1      44.525  24.627  27.346  1.00  0.00     0.074 A 
ATOM     54  C   UNL A   1      47.367  30.171  28.409  1.00  0.00     0.029 A 
ATOM     55  N   UNL A   1      45.892  28.526  28.161  1.00  0.00    -0.354 N 
ATOM     56  N   UNL A   1      45.037  25.806  27.600  1.00  0.00    -0.248 NA
ATOM     57  C   UNL A   1      45.510  23.629  26.899  1.00  0.00     0.031 C 
ATOM     58  C   UNL A   1      48.048  29.033  27.962  1.00  0.00     0.029 A 
ATOM     59  C   UNL A   1      47.131  28.004  27.827  1.00  0.00     0.049 A 
ATOM     60  H   UNL A   1      45.046  28.025  28.148  1.00  0.00     0.167 HD
ATOM     61  C   UNL A   1      46.398  25.691  27.346  1.00  0.00     0.074 A 
ATOM     62  C   UNL A   1      46.639  24.323  26.941  1.00  0.00     0.031 C 
ATOM     63  C   UNL A   1      47.361  26.641  27.426  1.00  0.00     0.037 A 
BRANCH  50  64
ATOM     64  C   UNL A   1      45.250  32.110  29.349  1.00  0.00     0.057 A 
ATOM     65  C   UNL A   1      45.637  32.464  30.646  1.00  0.00     0.134 A 
ATOM     66  C   UNL A   1      45.184  33.131  28.391  1.00  0.00     0.134 A 
ATOM     67  F   UNL A   1      45.699  31.538  31.614  1.00  0.00    -0.206 F 
ATOM     68  C   UNL A   1      45.929  33.789  30.981  1.00  0.00     0.040 A 
ATOM     69  C   UNL A   1      45.497  34.453  28.708  1.00  0.00     0.040 A 
ATOM     70  F   UNL A   1      44.825  32.858  27.127  1.00  0.00    -0.206 F 
ATOM     71  C   UNL A   1      45.865  34.785  30.009  1.00  0.00     0.006 A 
ENDBRANCH  50  64
BRANCH  51  72
ATOM     72  C   UNL A   1      42.732  22.774  27.087  1.00  0.00     0.057 A 
ATOM     73  C   UNL A   1      42.751  22.313  25.766  1.00  0.00     0.134 A 
ATOM     74  C   UNL A   1      42.343  21.866  28.080  1.00  0.00     0.134 A 
ATOM     75  F   UNL A   1      43.075  23.144  24.765  1.00  0.00    -0.206 F 
ATOM     76  C   UNL A   1      42.396  21.002  25.444  1.00  0.00     0.040 A 
ATOM     77  C   UNL A   1      42.014  20.545  27.776  1.00  0.00     0.040 A 
ATOM     78  F   UNL A   1      42.293  22.248  29.365  1.00  0.00    -0.206 F 
ATOM     79  C   UNL A   1      42.035  20.110  26.454  1.00  0.00     0.006 A 
ENDBRANCH  51  72
BRANCH  63  80
ATOM     80  C   UNL A   1      48.761  26.232  27.084  1.00  0.00     0.057 A 
ATOM     81  C   UNL A   1      49.276  26.387  25.791  1.00  0.00     0.134 A 
ATOM     82  C   UNL A   1      49.614  25.705  28.063  1.00  0.00     0.134 A 
ATOM     83  F   UNL A   1      48.505  26.873  24.807  1.00  0.00    -0.206 F 
ATOM     84  C   UNL A   1      50.586  26.017  25.479  1.00  0.00     0.040 A 
ATOM     85  C   UNL A   1      50.929  25.350  27.767  1.00  0.00     0.040 A 
ATOM     86  F   UNL A   1      49.183  25.538  29.322  1.00  0.00    -0.206 F 
ATOM     87  C   UNL A   1      51.418  25.501  26.470  1.00  0.00     0.006 A 
ENDBRANCH  63  80
ENDBRANCH  37  38
ENDBRANCH  30  32
ENDBRANCH  29  30
ENDBRANCH  28  29
ENDBRANCH   1  28
TORSDOF 15
ENDMDL
MODEL 3
REMARK VINA RESULT:     -12.1      4.054      7.790
REMARK SMILES CC(C)(C(=O)OCCOC(=O)c1ccc(-c2c3nc(c(-c4c(F)cccc4F)c4ccc([nH]4)c(-c4c(F)cccc4F)c4nc(c(-c5c(F)cccc5F)c5ccc2[nH]5)C=C4)C=C3)cc1)c1ccc(NS(=O)(=O)c2c(F)cc(F)cc2F)cc1
REMARK SMILES IDX 7 1 6 2 4 3 5 4 2 5 1 6 3 7 66 8 67 9 84 10 68 11 83 12
REMARK SMILES IDX 69 13 70 14 71 16 72 17 73 18 74 19 75 20 81 21 76 22 77 23
REMARK SMILES IDX 80 24 82 25 78 26 79 27 8 28 9 29 10 30 11 31 12 32 13 33
REMARK SMILES IDX 65 34 14 35 64 36 15 37 16 38 17 39 58 40 18 41 63 42 57 43
REMARK SMILES IDX 59 44 19 45 62 46 56 47 55 48 20 50 46 51 29 52 45 53 30 54
REMARK SMILES IDX 33 55 44 56 60 57 31 58 32 59 43 61 61 62 34 63 21 64 22 65
REMARK SMILES IDX 27 66 23 67 24 68 26 69 28 70 25 71 47 72 48 73 53 74 49 75
REMARK SMILES IDX 50 76 52 77 54 78 51 79 35 80 36 81 41 82 37 83 38 84 40 85
REMARK SMILES IDX 42 86 39 87
REMARK H PARENT 70 15 59 49 33 60
REMARK Flexibility Score: inf
ROOT
ATOM      1  C   UNL A   1      31.430  28.216  26.058  1.00  0.00     0.274 C 
ENDROOT
BRANCH   1   2
ATOM      2  O   UNL A   1      30.909  27.281  25.089  1.00  0.00    -0.461 OA
BRANCH   2   3
ATOM      3  C   UNL A   1      31.026  25.951  25.373  1.00  0.00     0.316 C 
ATOM      4  O   UNL A   1      30.723  25.467  26.458  1.00  0.00    -0.251 OA
BRANCH   3   5
ATOM      5  C   UNL A   1      31.659  25.143  24.202  1.00  0.00     0.087 C 
ATOM      6  C   UNL A   1      30.582  24.254  23.530  1.00  0.00     0.028 C 
ATOM      7  C   UNL A   1      32.102  26.185  23.155  1.00  0.00     0.028 C 
BRANCH   5   8
ATOM      8  C   UNL A   1      32.896  24.322  24.662  1.00  0.00    -0.031 A 
ATOM      9  C   UNL A   1      32.936  22.918  24.586  1.00  0.00     0.007 A 
ATOM     10  C   UNL A   1      34.049  24.959  25.170  1.00  0.00     0.007 A 
ATOM     11  C   UNL A   1      34.029  22.186  25.069  1.00  0.00     0.027 A 
ATOM     12  C   UNL A   1      35.144  24.228  25.658  1.00  0.00     0.027 A 
ATOM     13  C   UNL A   1      35.118  22.840  25.634  1.00  0.00     0.049 A 
BRANCH  13  14
ATOM     14  N   UNL A   1      36.176  22.035  26.169  1.00  0.00    -0.279 N 
ATOM     15  H   UNL A   1      36.309  21.946  27.140  1.00  0.00     0.180 HD
BRANCH  14  16
ATOM     16  S   UNL A   1      37.196  21.238  25.057  1.00  0.00     0.267 S 
ATOM     17  O   UNL A   1      36.713  19.878  24.933  1.00  0.00    -0.201 OA
ATOM     18  O   UNL A   1      37.264  22.076  23.880  1.00  0.00    -0.201 OA
BRANCH  16  19
ATOM     19  C   UNL A   1      38.763  21.219  25.838  1.00  0.00     0.159 A 
ATOM     20  C   UNL A   1      39.264  22.384  26.410  1.00  0.00     0.149 A 
ATOM     21  C   UNL A   1      39.518  20.053  25.895  1.00  0.00     0.149 A 
ATOM     22  F   UNL A   1      38.574  23.530  26.393  1.00  0.00    -0.205 F 
ATOM     23  C   UNL A   1      40.532  22.409  26.978  1.00  0.00     0.080 A 
ATOM     24  C   UNL A   1      40.781  20.059  26.485  1.00  0.00     0.080 A 
ATOM     25  F   UNL A   1      39.086  18.903  25.364  1.00  0.00    -0.205 F 
ATOM     26  C   UNL A   1      41.281  21.243  27.010  1.00  0.00     0.129 A 
ATOM     27  F   UNL A   1      42.506  21.261  27.548  1.00  0.00    -0.207 F 
ENDBRANCH  16  19
ENDBRANCH  14  16
ENDBRANCH  13  14
ENDBRANCH   5   8
ENDBRANCH   3   5
ENDBRANCH   2   3
ENDBRANCH   1   2
BRANCH   1  28
ATOM     28  C   UNL A   1      31.599  29.588  25.415  1.00  0.00     0.275 C 
BRANCH  28  29
ATOM     29  O   UNL A   1      32.930  30.057  25.688  1.00  0.00    -0.458 OA
BRANCH  29  30
ATOM     30  C   UNL A   1      33.068  30.903  26.734  1.00  0.00     0.338 C 
ATOM     31  O   UNL A   1      32.236  31.675  27.179  1.00  0.00    -0.246 OA
BRANCH  30  32
ATOM     32  C   UNL A   1      34.419  30.745  27.306  1.00  0.00     0.060 A 
ATOM     33  C   UNL A   1      34.940  29.472  27.519  1.00  0.00     0.016 A 
ATOM     34  C   UNL A   1      35.138  31.866  27.726  1.00  0.00     0.016 A 
ATOM     35  C   UNL A   1      36.134  29.321  28.221  1.00  0.00     0.010 A 
ATOM     36  C   UNL A   1      36.377  31.704  28.364  1.00  0.00     0.010 A 
ATOM     37  C   UNL A   1      36.873  30.423  28.667  1.00  0.00    -0.014 A 
BRANCH  37  38
ATOM     38  C   UNL A   1      38.082  30.232  29.529  1.00  0.00     0.031 A 
ATOM     39  C   UNL A   1      39.294  29.520  28.976  1.00  0.00     0.074 A 
ATOM     40  C   UNL A   1      38.167  30.744  30.776  1.00  0.00     0.049 A 
ATOM     41  N   UNL A   1      40.325  29.022  29.611  1.00  0.00    -0.248 NA
ATOM     42  C   UNL A   1      39.344  29.339  27.517  1.00  0.00     0.031 C 
ATOM     43  C   UNL A   1      37.144  31.548  31.445  1.00  0.00     0.029 A 
ATOM     44  N   UNL A   1      39.187  30.682  31.699  1.00  0.00    -0.354 N 
ATOM     45  C   UNL A   1      41.097  28.389  28.644  1.00  0.00     0.074 A 
ATOM     46  C   UNL A   1      40.428  28.589  27.375  1.00  0.00     0.031 C 
ATOM     47  C   UNL A   1      37.614  31.961  32.632  1.00  0.00     0.029 A 
ATOM     48  C   UNL A   1      38.913  31.346  32.871  1.00  0.00     0.049 A 
ATOM     49  H   UNL A   1      40.033  30.206  31.534  1.00  0.00     0.167 HD
ATOM     50  C   UNL A   1      42.250  27.693  28.799  1.00  0.00     0.037 A 
ATOM     51  C   UNL A   1      39.593  31.407  34.033  1.00  0.00     0.037 A 
ATOM     52  C   UNL A   1      42.967  27.568  30.041  1.00  0.00     0.049 A 
ATOM     53  C   UNL A   1      40.851  30.601  34.202  1.00  0.00     0.074 A 
ATOM     54  C   UNL A   1      44.122  26.851  30.306  1.00  0.00     0.029 A 
ATOM     55  N   UNL A   1      42.624  28.218  31.216  1.00  0.00    -0.354 N 
ATOM     56  N   UNL A   1      41.477  29.853  33.327  1.00  0.00    -0.248 NA
ATOM     57  C   UNL A   1      41.468  30.606  35.538  1.00  0.00     0.031 C 
ATOM     58  C   UNL A   1      44.464  27.046  31.648  1.00  0.00     0.029 A 
ATOM     59  C   UNL A   1      43.541  27.913  32.209  1.00  0.00     0.049 A 
ATOM     60  H   UNL A   1      41.845  28.808  31.328  1.00  0.00     0.167 HD
ATOM     61  C   UNL A   1      42.559  29.303  34.004  1.00  0.00     0.074 A 
ATOM     62  C   UNL A   1      42.519  29.820  35.355  1.00  0.00     0.031 C 
ATOM     63  C   UNL A   1      43.493  28.433  33.550  1.00  0.00     0.037 A 
BRANCH  50  64
ATOM     64  C   UNL A   1      42.777  26.956  27.604  1.00  0.00     0.057 A 
ATOM     65  C   UNL A   1      42.467  25.615  27.349  1.00  0.00     0.134 A 
ATOM     66  C   UNL A   1      43.594  27.619  26.678  1.00  0.00     0.134 A 
ATOM     67  F   UNL A   1      41.709  24.917  28.205  1.00  0.00    -0.206 F 
ATOM     68  C   UNL A   1      42.969  24.955  26.224  1.00  0.00     0.040 A 
ATOM     69  C   UNL A   1      44.080  26.978  25.539  1.00  0.00     0.040 A 
ATOM     70  F   UNL A   1      43.924  28.907  26.861  1.00  0.00    -0.206 F 
ATOM     71  C   UNL A   1      43.772  25.639  25.313  1.00  0.00     0.006 A 
ENDBRANCH  50  64
BRANCH  51  72
ATOM     72  C   UNL A   1      39.056  32.198  35.172  1.00  0.00     0.057 A 
ATOM     73  C   UNL A   1      39.322  33.566  35.291  1.00  0.00     0.134 A 
ATOM     74  C   UNL A   1      38.281  31.604  36.177  1.00  0.00     0.134 A 
ATOM     75  F   UNL A   1      40.091  34.186  34.384  1.00  0.00    -0.206 F 
ATOM     76  C   UNL A   1      38.839  34.315  36.366  1.00  0.00     0.040 A 
ATOM     77  C   UNL A   1      37.767  32.345  37.241  1.00  0.00     0.040 A 
ATOM     78  F   UNL A   1      37.998  30.293  36.128  1.00  0.00    -0.206 F 
ATOM     79  C   UNL A   1      38.050  33.704  37.341  1.00  0.00     0.006 A 
ENDBRANCH  51  72
BRANCH  63  80
ATOM     80  C   UNL A   1      44.555  27.998  34.514  1.00  0.00     0.057 A 
ATOM     81  C   UNL A   1      44.406  26.847  35.298  1.00  0.00     0.134 A 
ATOM     82  C   UNL A   1      45.749  28.718  34.639  1.00  0.00     0.134 A 
ATOM     83  F   UNL A   1      43.280  26.122  35.234  1.00  0.00    -0.206 F 
ATOM     84  C   UNL A   1      45.403  26.437  36.186  1.00  0.00     0.040 A 
ATOM     85  C   UNL A   1      46.759  28.308  35.509  1.00  0.00     0.040 A 
ATOM     86  F   UNL A   1      45.955  29.826  33.912  1.00  0.00    -0.206 F 
ATOM     87  C   UNL A   1      46.586  27.166  36.289  1.00  0.00     0.006 A 
ENDBRANCH  63  80
ENDBRANCH  37  38
ENDBRANCH  30  32
ENDBRANCH  29  30
ENDBRANCH  28  29
ENDBRANCH   1  28
TORSDOF 15
ENDMDL
