MODEL 1
REMARK VINA RESULT:     -13.1      0.000      0.000
REMARK SMILES NS(=O)(=O)c1ccc(-c2cc(Cl)cc3c2O[C@H](C(F)(F)F)C(C(=O)OCCOC(=O)c2ccc(-c4c5nc(c(-c6c(F)cccc6F)c6ccc([nH]6)c(-c6c(F)cccc6F)c6nc(c(-c7c(F)cccc7F)c7ccc4[nH]7)C=C6)C=C5)cc2)=C3)cc1
REMARK SMILES IDX 26 1 25 2 23 3 24 4 22 5 9 6 10 7 15 8 11 9 14 10 16 11
REMARK SMILES IDX 12 12 13 13 85 14 17 15 8 16 5 17 6 18 87 19 7 20 86 21 2 22
REMARK SMILES IDX 3 23 4 24 1 25 18 28 19 29 20 30 21 31 27 32 28 33 29 34
REMARK SMILES IDX 30 35 31 36 32 37 84 38 33 39 83 40 34 41 35 42 36 43 77 44
REMARK SMILES IDX 37 45 82 46 76 47 78 48 38 49 81 50 75 51 74 52 39 54 65 55
REMARK SMILES IDX 48 56 64 57 49 58 52 59 63 60 79 61 50 62 51 63 62 65 80 66
REMARK SMILES IDX 53 67 40 68 41 69 46 70 42 71 43 72 45 73 47 74 44 75 66 76
REMARK SMILES IDX 67 77 72 78 68 79 69 80 71 81 73 82 70 83 54 84 55 85 60 86
REMARK SMILES IDX 56 87 57 88 59 89 61 90 58 91
REMARK H PARENT 1 26 1 27 78 53 52 64
REMARK Flexibility Score: inf
ROOT
ATOM      1  C   UNL A   1      31.065  29.139  24.285  1.00  0.00     0.275 C 
ENDROOT
BRANCH   1   2
ATOM      2  O   UNL A   1      30.617  27.972  25.014  1.00  0.00    -0.459 OA
BRANCH   2   3
ATOM      3  C   UNL A   1      30.465  26.896  24.195  1.00  0.00     0.338 C 
ATOM      4  O   UNL A   1      29.422  26.606  23.623  1.00  0.00    -0.246 OA
BRANCH   3   5
ATOM      5  C   UNL A   1      31.724  26.155  23.939  1.00  0.00     0.087 C 
ATOM      6  C   UNL A   1      31.917  22.135  24.602  1.00  0.00     0.026 A 
ATOM      7  C   UNL A   1      30.970  21.917  25.634  1.00  0.00     0.033 A 
ATOM      8  C   UNL A   1      32.206  23.478  24.345  1.00  0.00     0.135 A 
ATOM      9  C   UNL A   1      30.487  22.943  26.456  1.00  0.00     0.042 A 
ATOM     10  C   UNL A   1      31.901  24.452  25.324  1.00  0.00     0.019 A 
ATOM     11  O   UNL A   1      32.658  23.957  23.126  1.00  0.00    -0.475 OA
ATOM     12  Cl  UNL A   1      29.239  22.720  27.609  1.00  0.00    -0.084 Cl
ATOM     13  C   UNL A   1      31.031  24.200  26.365  1.00  0.00     0.032 A 
ATOM     14  C   UNL A   1      32.342  25.841  25.089  1.00  0.00     0.027 C 
ATOM     15  C   UNL A   1      31.950  25.232  22.752  1.00  0.00     0.316 C 
BRANCH   6  16
ATOM     16  C   UNL A   1      32.629  20.918  24.120  1.00  0.00    -0.015 A 
ATOM     17  C   UNL A   1      33.589  18.241  23.988  1.00  0.00     0.082 A 
ATOM     18  C   UNL A   1      32.571  18.669  23.131  1.00  0.00     0.022 A 
ATOM     19  C   UNL A   1      34.201  19.159  24.838  1.00  0.00     0.022 A 
ATOM     20  C   UNL A   1      32.122  20.011  23.177  1.00  0.00     0.010 A 
ATOM     21  C   UNL A   1      33.725  20.475  24.897  1.00  0.00     0.010 A 
BRANCH  17  22
ATOM     22  S   UNL A   1      34.114  16.542  24.034  1.00  0.00     0.238 S 
ATOM     23  O   UNL A   1      35.100  16.383  25.070  1.00  0.00    -0.207 OA
ATOM     24  O   UNL A   1      34.352  16.111  22.669  1.00  0.00    -0.207 OA
BRANCH  22  25
ATOM     25  N   UNL A   1      32.761  15.718  24.570  1.00  0.00    -0.225 NA
ATOM     26  H   UNL A   1      32.390  16.176  25.403  1.00  0.00     0.137 HD
ATOM     27  H   UNL A   1      33.015  14.756  24.796  1.00  0.00     0.137 HD
ENDBRANCH  22  25
ENDBRANCH  17  22
ENDBRANCH   6  16
BRANCH  15  28
ATOM     28  C   UNL A   1      32.772  26.026  21.733  1.00  0.00     0.430 C 
ATOM     29  F   UNL A   1      34.082  26.082  22.076  1.00  0.00    -0.167 F 
ATOM     30  F   UNL A   1      32.693  25.497  20.493  1.00  0.00    -0.167 F 
ATOM     31  F   UNL A   1      32.329  27.307  21.647  1.00  0.00    -0.167 F 
ENDBRANCH  15  28
ENDBRANCH   3   5
ENDBRANCH   2   3
ENDBRANCH   1   2
BRANCH   1  32
ATOM     32  C   UNL A   1      31.196  30.382  25.168  1.00  0.00     0.275 C 
BRANCH  32  33
ATOM     33  O   UNL A   1      32.488  30.419  25.803  1.00  0.00    -0.458 OA
BRANCH  33  34
ATOM     34  C   UNL A   1      32.629  31.418  26.705  1.00  0.00     0.338 C 
ATOM     35  O   UNL A   1      31.854  32.346  26.885  1.00  0.00    -0.246 OA
BRANCH  34  36
ATOM     36  C   UNL A   1      33.792  31.177  27.593  1.00  0.00     0.060 A 
ATOM     37  C   UNL A   1      34.085  29.844  27.859  1.00  0.00     0.016 A 
ATOM     38  C   UNL A   1      34.583  32.183  28.165  1.00  0.00     0.016 A 
ATOM     39  C   UNL A   1      35.178  29.524  28.659  1.00  0.00     0.010 A 
ATOM     40  C   UNL A   1      35.681  31.844  28.988  1.00  0.00     0.010 A 
ATOM     41  C   UNL A   1      36.006  30.503  29.229  1.00  0.00    -0.014 A 
BRANCH  41  42
ATOM     42  C   UNL A   1      37.179  30.015  30.028  1.00  0.00     0.031 A 
ATOM     43  C   UNL A   1      38.322  29.328  29.336  1.00  0.00     0.074 A 
ATOM     44  C   UNL A   1      37.362  30.401  31.309  1.00  0.00     0.049 A 
ATOM     45  N   UNL A   1      39.478  28.965  29.830  1.00  0.00    -0.248 NA
ATOM     46  C   UNL A   1      38.144  29.004  27.914  1.00  0.00     0.031 C 
ATOM     47  C   UNL A   1      36.366  31.083  32.111  1.00  0.00     0.029 A 
ATOM     48  N   UNL A   1      38.466  30.370  32.131  1.00  0.00    -0.354 N 
ATOM     49  C   UNL A   1      40.170  28.389  28.779  1.00  0.00     0.074 A 
ATOM     50  C   UNL A   1      39.317  28.466  27.612  1.00  0.00     0.031 C 
ATOM     51  C   UNL A   1      36.934  31.569  33.225  1.00  0.00     0.029 A 
ATOM     52  C   UNL A   1      38.308  31.088  33.301  1.00  0.00     0.049 A 
ATOM     53  H   UNL A   1      39.291  29.881  31.907  1.00  0.00     0.167 HD
ATOM     54  C   UNL A   1      41.394  27.815  28.791  1.00  0.00     0.037 A 
ATOM     55  C   UNL A   1      39.144  31.300  34.339  1.00  0.00     0.037 A 
ATOM     56  C   UNL A   1      42.211  27.652  29.961  1.00  0.00     0.049 A 
ATOM     57  C   UNL A   1      40.459  30.566  34.355  1.00  0.00     0.074 A 
ATOM     58  C   UNL A   1      43.399  26.957  30.097  1.00  0.00     0.029 A 
ATOM     59  N   UNL A   1      41.915  28.185  31.204  1.00  0.00    -0.354 N 
ATOM     60  N   UNL A   1      41.021  29.857  33.406  1.00  0.00    -0.248 NA
ATOM     61  C   UNL A   1      41.214  30.583  35.619  1.00  0.00     0.031 C 
ATOM     62  C   UNL A   1      43.836  27.092  31.419  1.00  0.00     0.029 A 
ATOM     63  C   UNL A   1      42.943  27.911  32.089  1.00  0.00     0.049 A 
ATOM     64  H   UNL A   1      41.096  28.686  31.425  1.00  0.00     0.167 HD
ATOM     65  C   UNL A   1      42.152  29.292  33.979  1.00  0.00     0.074 A 
ATOM     66  C   UNL A   1      42.247  29.804  35.328  1.00  0.00     0.031 C 
ATOM     67  C   UNL A   1      43.016  28.401  33.440  1.00  0.00     0.037 A 
BRANCH  54  68
ATOM     68  C   UNL A   1      41.882  27.266  27.491  1.00  0.00     0.057 A 
ATOM     69  C   UNL A   1      41.715  25.915  27.164  1.00  0.00     0.134 A 
ATOM     70  C   UNL A   1      42.546  28.087  26.575  1.00  0.00     0.134 A 
ATOM     71  F   UNL A   1      41.110  25.080  28.021  1.00  0.00    -0.206 F 
ATOM     72  C   UNL A   1      42.212  25.395  25.969  1.00  0.00     0.040 A 
ATOM     73  C   UNL A   1      43.030  27.583  25.369  1.00  0.00     0.040 A 
ATOM     74  F   UNL A   1      42.741  29.387  26.842  1.00  0.00    -0.206 F 
ATOM     75  C   UNL A   1      42.869  26.232  25.067  1.00  0.00     0.006 A 
ENDBRANCH  54  68
BRANCH  55  76
ATOM     76  C   UNL A   1      38.733  32.116  35.521  1.00  0.00     0.057 A 
ATOM     77  C   UNL A   1      39.028  33.483  35.604  1.00  0.00     0.134 A 
ATOM     78  C   UNL A   1      38.096  31.539  36.628  1.00  0.00     0.134 A 
ATOM     79  F   UNL A   1      39.675  34.097  34.604  1.00  0.00    -0.206 F 
ATOM     80  C   UNL A   1      38.715  34.237  36.741  1.00  0.00     0.040 A 
ATOM     81  C   UNL A   1      37.739  32.288  37.751  1.00  0.00     0.040 A 
ATOM     82  F   UNL A   1      37.808  30.228  36.639  1.00  0.00    -0.206 F 
ATOM     83  C   UNL A   1      38.058  33.641  37.815  1.00  0.00     0.006 A 
ENDBRANCH  55  76
BRANCH  67  84
ATOM     84  C   UNL A   1      44.149  27.938  34.301  1.00  0.00     0.057 A 
ATOM     85  C   UNL A   1      44.065  26.769  35.067  1.00  0.00     0.134 A 
ATOM     86  C   UNL A   1      45.352  28.653  34.335  1.00  0.00     0.134 A 
ATOM     87  F   UNL A   1      42.931  26.051  35.090  1.00  0.00    -0.206 F 
ATOM     88  C   UNL A   1      45.138  26.330  35.843  1.00  0.00     0.040 A 
ATOM     89  C   UNL A   1      46.438  28.215  35.093  1.00  0.00     0.040 A 
ATOM     90  F   UNL A   1      45.493  29.779  33.620  1.00  0.00    -0.206 F 
ATOM     91  C   UNL A   1      46.332  27.050  35.851  1.00  0.00     0.006 A 
ENDBRANCH  67  84
ENDBRANCH  41  42
ENDBRANCH  34  36
ENDBRANCH  33  34
ENDBRANCH  32  33
ENDBRANCH   1  32
TORSDOF 15
ENDMDL
MODEL 2
REMARK VINA RESULT:     -12.9      0.684      6.080
REMARK SMILES NS(=O)(=O)c1ccc(-c2cc(Cl)cc3c2O[C@H](C(F)(F)F)C(C(=O)OCCOC(=O)c2ccc(-c4c5nc(c(-c6c(F)cccc6F)c6ccc([nH]6)c(-c6c(F)cccc6F)c6nc(c(-c7c(F)cccc7F)c7ccc4[nH]7)C=C6)C=C5)cc2)=C3)cc1
REMARK SMILES IDX 26 1 25 2 23 3 24 4 22 5 9 6 10 7 15 8 11 9 14 10 16 11
REMARK SMILES IDX 12 12 13 13 85 14 17 15 8 16 5 17 6 18 87 19 7 20 86 21 2 22
REMARK SMILES IDX 3 23 4 24 1 25 18 28 19 29 20 30 21 31 27 32 28 33 29 34
REMARK SMILES IDX 30 35 31 36 32 37 84 38 33 39 83 40 34 41 35 42 36 43 77 44
REMARK SMILES IDX 37 45 82 46 76 47 78 48 38 49 81 50 75 51 74 52 39 54 65 55
REMARK SMILES IDX 48 56 64 57 49 58 52 59 63 60 79 61 50 62 51 63 62 65 80 66
REMARK SMILES IDX 53 67 40 68 41 69 46 70 42 71 43 72 45 73 47 74 44 75 66 76
REMARK SMILES IDX 67 77 72 78 68 79 69 80 71 81 73 82 70 83 54 84 55 85 60 86
REMARK SMILES IDX 56 87 57 88 59 89 61 90 58 91
REMARK H PARENT 1 26 1 27 78 53 52 64
REMARK Flexibility Score: inf
ROOT
ATOM      1  C   UNL A   1      31.221  29.296  24.494  1.00  0.00     0.275 C 
ENDROOT
BRANCH   1   2
ATOM      2  O   UNL A   1      30.903  28.095  25.237  1.00  0.00    -0.459 OA
BRANCH   2   3
ATOM      3  C   UNL A   1      30.719  27.029  24.413  1.00  0.00     0.338 C 
ATOM      4  O   UNL A   1      29.666  26.773  23.840  1.00  0.00    -0.246 OA
BRANCH   3   5
ATOM      5  C   UNL A   1      31.955  26.252  24.151  1.00  0.00     0.087 C 
ATOM      6  C   UNL A   1      31.988  22.205  24.658  1.00  0.00     0.026 A 
ATOM      7  C   UNL A   1      31.013  21.982  25.663  1.00  0.00     0.033 A 
ATOM      8  C   UNL A   1      32.331  23.545  24.460  1.00  0.00     0.135 A 
ATOM      9  C   UNL A   1      30.552  22.993  26.515  1.00  0.00     0.042 A 
ATOM     10  C   UNL A   1      32.042  24.491  25.470  1.00  0.00     0.019 A 
ATOM     11  O   UNL A   1      32.823  24.053  23.269  1.00  0.00    -0.475 OA
ATOM     12  Cl  UNL A   1      29.274  22.772  27.636  1.00  0.00    -0.084 Cl
ATOM     13  C   UNL A   1      31.142  24.232  26.485  1.00  0.00     0.032 A 
ATOM     14  C   UNL A   1      32.538  25.871  25.299  1.00  0.00     0.027 C 
ATOM     15  C   UNL A   1      32.170  25.368  22.933  1.00  0.00     0.316 C 
BRANCH   6  16
ATOM     16  C   UNL A   1      32.665  20.982  24.141  1.00  0.00    -0.015 A 
ATOM     17  C   UNL A   1      33.602  18.300  23.968  1.00  0.00     0.082 A 
ATOM     18  C   UNL A   1      32.538  18.728  23.170  1.00  0.00     0.022 A 
ATOM     19  C   UNL A   1      34.268  19.219  24.775  1.00  0.00     0.022 A 
ATOM     20  C   UNL A   1      32.097  20.072  23.235  1.00  0.00     0.010 A 
ATOM     21  C   UNL A   1      33.802  20.537  24.854  1.00  0.00     0.010 A 
BRANCH  17  22
ATOM     22  S   UNL A   1      34.122  16.598  23.992  1.00  0.00     0.238 S 
ATOM     23  O   UNL A   1      35.162  16.439  24.973  1.00  0.00    -0.207 OA
ATOM     24  O   UNL A   1      34.283  16.161  22.618  1.00  0.00    -0.207 OA
BRANCH  22  25
ATOM     25  N   UNL A   1      32.797  15.782  24.605  1.00  0.00    -0.225 NA
ATOM     26  H   UNL A   1      33.018  15.423  25.534  1.00  0.00     0.137 HD
ATOM     27  H   UNL A   1      32.559  15.006  23.988  1.00  0.00     0.137 HD
ENDBRANCH  22  25
ENDBRANCH  17  22
ENDBRANCH   6  16
BRANCH  15  28
ATOM     28  C   UNL A   1      33.041  26.170  21.961  1.00  0.00     0.430 C 
ATOM     29  F   UNL A   1      32.814  27.502  22.063  1.00  0.00    -0.167 F 
ATOM     30  F   UNL A   1      34.359  25.959  22.167  1.00  0.00    -0.167 F 
ATOM     31  F   UNL A   1      32.779  25.820  20.675  1.00  0.00    -0.167 F 
ENDBRANCH  15  28
ENDBRANCH   3   5
ENDBRANCH   2   3
ENDBRANCH   1   2
BRANCH   1  32
ATOM     32  C   UNL A   1      31.261  30.549  25.372  1.00  0.00     0.275 C 
BRANCH  32  33
ATOM     33  O   UNL A   1      32.351  30.477  26.311  1.00  0.00    -0.458 OA
BRANCH  33  34
ATOM     34  C   UNL A   1      32.630  31.652  26.921  1.00  0.00     0.338 C 
ATOM     35  O   UNL A   1      31.879  32.611  27.023  1.00  0.00    -0.246 OA
BRANCH  34  36
ATOM     36  C   UNL A   1      33.939  31.597  27.615  1.00  0.00     0.060 A 
ATOM     37  C   UNL A   1      34.384  30.328  27.969  1.00  0.00     0.016 A 
ATOM     38  C   UNL A   1      34.725  32.714  27.929  1.00  0.00     0.016 A 
ATOM     39  C   UNL A   1      35.617  30.178  28.597  1.00  0.00     0.010 A 
ATOM     40  C   UNL A   1      35.969  32.549  28.581  1.00  0.00     0.010 A 
ATOM     41  C   UNL A   1      36.441  31.271  28.906  1.00  0.00    -0.014 A 
BRANCH  41  42
ATOM     42  C   UNL A   1      37.767  30.962  29.537  1.00  0.00     0.031 A 
ATOM     43  C   UNL A   1      38.009  31.307  30.979  1.00  0.00     0.074 A 
ATOM     44  C   UNL A   1      38.659  30.151  28.928  1.00  0.00     0.049 A 
ATOM     45  N   UNL A   1      39.030  30.993  31.735  1.00  0.00    -0.248 NA
ATOM     46  C   UNL A   1      36.979  32.107  31.656  1.00  0.00     0.031 C 
ATOM     47  C   UNL A   1      38.565  29.715  27.549  1.00  0.00     0.029 A 
ATOM     48  N   UNL A   1      39.758  29.469  29.403  1.00  0.00    -0.354 N 
ATOM     49  C   UNL A   1      38.758  31.540  32.977  1.00  0.00     0.074 A 
ATOM     50  C   UNL A   1      37.467  32.189  32.884  1.00  0.00     0.031 C 
ATOM     51  C   UNL A   1      39.431  28.715  27.328  1.00  0.00     0.029 A 
ATOM     52  C   UNL A   1      40.268  28.547  28.509  1.00  0.00     0.049 A 
ATOM     53  H   UNL A   1      40.145  29.626  30.295  1.00  0.00     0.167 HD
ATOM     54  C   UNL A   1      39.529  31.533  34.087  1.00  0.00     0.037 A 
ATOM     55  C   UNL A   1      41.313  27.698  28.601  1.00  0.00     0.037 A 
ATOM     56  C   UNL A   1      40.848  30.971  34.165  1.00  0.00     0.049 A 
ATOM     57  C   UNL A   1      42.200  27.790  29.815  1.00  0.00     0.074 A 
ATOM     58  C   UNL A   1      41.760  31.042  35.202  1.00  0.00     0.029 A 
ATOM     59  N   UNL A   1      41.449  30.240  33.154  1.00  0.00    -0.354 N 
ATOM     60  N   UNL A   1      42.019  28.470  30.920  1.00  0.00    -0.248 NA
ATOM     61  C   UNL A   1      43.482  27.069  29.757  1.00  0.00     0.031 C 
ATOM     62  C   UNL A   1      42.905  30.331  34.829  1.00  0.00     0.029 A 
ATOM     63  C   UNL A   1      42.683  29.778  33.578  1.00  0.00     0.049 A 
ATOM     64  H   UNL A   1      41.057  30.072  32.267  1.00  0.00     0.167 HD
ATOM     65  C   UNL A   1      43.189  28.315  31.652  1.00  0.00     0.074 A 
ATOM     66  C   UNL A   1      44.038  27.410  30.911  1.00  0.00     0.031 C 
ATOM     67  C   UNL A   1      43.536  28.900  32.822  1.00  0.00     0.037 A 
BRANCH  54  68
ATOM     68  C   UNL A   1      38.968  32.217  35.290  1.00  0.00     0.057 A 
ATOM     69  C   UNL A   1      39.107  33.598  35.471  1.00  0.00     0.134 A 
ATOM     70  C   UNL A   1      38.308  31.487  36.283  1.00  0.00     0.134 A 
ATOM     71  F   UNL A   1      39.755  34.339  34.560  1.00  0.00    -0.206 F 
ATOM     72  C   UNL A   1      38.621  34.229  36.616  1.00  0.00     0.040 A 
ATOM     73  C   UNL A   1      37.802  32.109  37.423  1.00  0.00     0.040 A 
ATOM     74  F   UNL A   1      38.155  30.160  36.164  1.00  0.00    -0.206 F 
ATOM     75  C   UNL A   1      37.964  33.483  37.594  1.00  0.00     0.006 A 
ENDBRANCH  54  68
BRANCH  55  76
ATOM     76  C   UNL A   1      41.685  26.791  27.474  1.00  0.00     0.057 A 
ATOM     77  C   UNL A   1      41.309  25.440  27.468  1.00  0.00     0.134 A 
ATOM     78  C   UNL A   1      42.483  27.229  26.409  1.00  0.00     0.134 A 
ATOM     79  F   UNL A   1      40.583  24.936  28.475  1.00  0.00    -0.206 F 
ATOM     80  C   UNL A   1      41.720  24.566  26.455  1.00  0.00     0.040 A 
ATOM     81  C   UNL A   1      42.864  26.378  25.369  1.00  0.00     0.040 A 
ATOM     82  F   UNL A   1      42.911  28.499  26.359  1.00  0.00    -0.206 F 
ATOM     83  C   UNL A   1      42.491  25.038  25.395  1.00  0.00     0.006 A 
ENDBRANCH  55  76
BRANCH  67  84
ATOM     84  C   UNL A   1      44.883  28.566  33.382  1.00  0.00     0.057 A 
ATOM     85  C   UNL A   1      46.007  29.361  33.127  1.00  0.00     0.134 A 
ATOM     86  C   UNL A   1      45.048  27.454  34.216  1.00  0.00     0.134 A 
ATOM     87  F   UNL A   1      45.916  30.430  32.321  1.00  0.00    -0.206 F 
ATOM     88  C   UNL A   1      47.252  29.057  33.679  1.00  0.00     0.040 A 
ATOM     89  C   UNL A   1      46.283  27.149  34.787  1.00  0.00     0.040 A 
ATOM     90  F   UNL A   1      44.007  26.656  34.497  1.00  0.00    -0.206 F 
ATOM     91  C   UNL A   1      47.390  27.952  34.518  1.00  0.00     0.006 A 
ENDBRANCH  67  84
ENDBRANCH  41  42
ENDBRANCH  34  36
ENDBRANCH  33  34
ENDBRANCH  32  33
ENDBRANCH   1  32
TORSDOF 15
ENDMDL
MODEL 3
REMARK VINA RESULT:     -12.8      4.564      7.887
REMARK SMILES NS(=O)(=O)c1ccc(-c2cc(Cl)cc3c2O[C@H](C(F)(F)F)C(C(=O)OCCOC(=O)c2ccc(-c4c5nc(c(-c6c(F)cccc6F)c6ccc([nH]6)c(-c6c(F)cccc6F)c6nc(c(-c7c(F)cccc7F)c7ccc4[nH]7)C=C6)C=C5)cc2)=C3)cc1
REMARK SMILES IDX 26 1 25 2 23 3 24 4 22 5 9 6 10 7 15 8 11 9 14 10 16 11
REMARK SMILES IDX 12 12 13 13 85 14 17 15 8 16 5 17 6 18 87 19 7 20 86 21 2 22
REMARK SMILES IDX 3 23 4 24 1 25 18 28 19 29 20 30 21 31 27 32 28 33 29 34
REMARK SMILES IDX 30 35 31 36 32 37 84 38 33 39 83 40 34 41 35 42 36 43 77 44
REMARK SMILES IDX 37 45 82 46 76 47 78 48 38 49 81 50 75 51 74 52 39 54 65 55
REMARK SMILES IDX 48 56 64 57 49 58 52 59 63 60 79 61 50 62 51 63 62 65 80 66
REMARK SMILES IDX 53 67 40 68 41 69 46 70 42 71 43 72 45 73 47 74 44 75 66 76
REMARK SMILES IDX 67 77 72 78 68 79 69 80 71 81 73 82 70 83 54 84 55 85 60 86
REMARK SMILES IDX 56 87 57 88 59 89 61 90 58 91
REMARK H PARENT 1 26 1 27 78 53 52 64
REMARK Flexibility Score: inf
ROOT
ATOM      1  C   UNL A   1      34.848  20.999  25.090  1.00  0.00     0.275 C 
ENDROOT
BRANCH   1   2
ATOM      2  O   UNL A   1      34.416  21.686  23.892  1.00  0.00    -0.459 OA
BRANCH   2   3
ATOM      3  C   UNL A   1      33.103  22.035  23.958  1.00  0.00     0.338 C 
ATOM      4  O   UNL A   1      32.186  21.357  23.511  1.00  0.00    -0.246 OA
BRANCH   3   5
ATOM      5  C   UNL A   1      32.848  23.265  24.747  1.00  0.00     0.087 C 
ATOM      6  C   UNL A   1      31.004  26.468  23.022  1.00  0.00     0.026 A 
ATOM      7  C   UNL A   1      31.359  26.366  21.653  1.00  0.00     0.033 A 
ATOM      8  C   UNL A   1      31.699  25.607  23.875  1.00  0.00     0.135 A 
ATOM      9  C   UNL A   1      32.438  25.597  21.201  1.00  0.00     0.042 A 
ATOM     10  C   UNL A   1      32.917  25.035  23.439  1.00  0.00     0.019 A 
ATOM     11  O   UNL A   1      31.212  25.155  25.090  1.00  0.00    -0.475 OA
ATOM     12  Cl  UNL A   1      32.789  25.350  19.541  1.00  0.00    -0.084 Cl
ATOM     13  C   UNL A   1      33.282  25.008  22.108  1.00  0.00     0.032 A 
ATOM     14  C   UNL A   1      33.703  24.243  24.405  1.00  0.00     0.027 C 
ATOM     15  C   UNL A   1      31.482  23.683  25.265  1.00  0.00     0.316 C 
BRANCH   6  16
ATOM     16  C   UNL A   1      30.132  27.626  23.373  1.00  0.00    -0.015 A 
ATOM     17  C   UNL A   1      28.783  30.125  23.190  1.00  0.00     0.082 A 
ATOM     18  C   UNL A   1      28.080  28.930  23.017  1.00  0.00     0.022 A 
ATOM     19  C   UNL A   1      30.127  30.085  23.552  1.00  0.00     0.022 A 
ATOM     20  C   UNL A   1      28.749  27.688  23.143  1.00  0.00     0.010 A 
ATOM     21  C   UNL A   1      30.784  28.852  23.642  1.00  0.00     0.010 A 
BRANCH  17  22
ATOM     22  S   UNL A   1      28.006  31.706  22.942  1.00  0.00     0.238 S 
ATOM     23  O   UNL A   1      26.924  31.850  23.879  1.00  0.00    -0.207 OA
ATOM     24  O   UNL A   1      27.820  31.893  21.514  1.00  0.00    -0.207 OA
BRANCH  22  25
ATOM     25  N   UNL A   1      29.169  32.807  23.424  1.00  0.00    -0.225 NA
ATOM     26  H   UNL A   1      28.748  33.732  23.508  1.00  0.00     0.137 HD
ATOM     27  H   UNL A   1      29.918  32.835  22.732  1.00  0.00     0.137 HD
ENDBRANCH  22  25
ENDBRANCH  17  22
ENDBRANCH   6  16
BRANCH  15  28
ATOM     28  C   UNL A   1      31.442  23.301  26.747  1.00  0.00     0.430 C 
ATOM     29  F   UNL A   1      31.877  24.309  27.540  1.00  0.00    -0.167 F 
ATOM     30  F   UNL A   1      30.199  22.964  27.152  1.00  0.00    -0.167 F 
ATOM     31  F   UNL A   1      32.242  22.231  26.992  1.00  0.00    -0.167 F 
ENDBRANCH  15  28
ENDBRANCH   3   5
ENDBRANCH   2   3
ENDBRANCH   1   2
BRANCH   1  32
ATOM     32  C   UNL A   1      36.297  20.513  25.012  1.00  0.00     0.275 C 
BRANCH  32  33
ATOM     33  O   UNL A   1      37.193  21.495  25.568  1.00  0.00    -0.458 OA
BRANCH  33  34
ATOM     34  C   UNL A   1      38.441  21.029  25.804  1.00  0.00     0.338 C 
ATOM     35  O   UNL A   1      38.877  19.933  25.486  1.00  0.00    -0.246 OA
BRANCH  34  36
ATOM     36  C   UNL A   1      39.307  22.087  26.378  1.00  0.00     0.060 A 
ATOM     37  C   UNL A   1      38.983  23.392  26.024  1.00  0.00     0.016 A 
ATOM     38  C   UNL A   1      40.400  21.854  27.224  1.00  0.00     0.016 A 
ATOM     39  C   UNL A   1      39.724  24.452  26.541  1.00  0.00     0.010 A 
ATOM     40  C   UNL A   1      41.154  22.938  27.729  1.00  0.00     0.010 A 
ATOM     41  C   UNL A   1      40.810  24.258  27.408  1.00  0.00    -0.014 A 
BRANCH  41  42
ATOM     42  C   UNL A   1      41.487  25.492  27.930  1.00  0.00     0.031 A 
ATOM     43  C   UNL A   1      42.858  25.858  27.438  1.00  0.00     0.074 A 
ATOM     44  C   UNL A   1      40.803  26.421  28.631  1.00  0.00     0.049 A 
ATOM     45  N   UNL A   1      43.542  26.951  27.661  1.00  0.00    -0.248 NA
ATOM     46  C   UNL A   1      43.549  24.874  26.592  1.00  0.00     0.031 C 
ATOM     47  C   UNL A   1      39.469  26.230  29.165  1.00  0.00     0.029 A 
ATOM     48  N   UNL A   1      41.081  27.736  28.933  1.00  0.00    -0.354 N 
ATOM     49  C   UNL A   1      44.732  26.794  26.972  1.00  0.00     0.074 A 
ATOM     50  C   UNL A   1      44.674  25.512  26.304  1.00  0.00     0.031 C 
ATOM     51  C   UNL A   1      38.965  27.408  29.562  1.00  0.00     0.029 A 
ATOM     52  C   UNL A   1      40.007  28.422  29.467  1.00  0.00     0.049 A 
ATOM     53  H   UNL A   1      41.963  28.148  28.784  1.00  0.00     0.167 HD
ATOM     54  C   UNL A   1      45.795  27.629  26.928  1.00  0.00     0.037 A 
ATOM     55  C   UNL A   1      39.881  29.701  29.878  1.00  0.00     0.037 A 
ATOM     56  C   UNL A   1      45.901  28.861  27.658  1.00  0.00     0.049 A 
ATOM     57  C   UNL A   1      41.112  30.568  29.899  1.00  0.00     0.074 A 
ATOM     58  C   UNL A   1      46.993  29.699  27.787  1.00  0.00     0.029 A 
ATOM     59  N   UNL A   1      44.874  29.425  28.395  1.00  0.00    -0.354 N 
ATOM     60  N   UNL A   1      42.301  30.325  29.403  1.00  0.00    -0.248 NA
ATOM     61  C   UNL A   1      41.012  31.849  30.618  1.00  0.00     0.031 C 
ATOM     62  C   UNL A   1      46.618  30.787  28.583  1.00  0.00     0.029 A 
ATOM     63  C   UNL A   1      45.279  30.646  28.907  1.00  0.00     0.049 A 
ATOM     64  H   UNL A   1      43.987  29.019  28.534  1.00  0.00     0.167 HD
ATOM     65  C   UNL A   1      43.101  31.385  29.810  1.00  0.00     0.074 A 
ATOM     66  C   UNL A   1      42.249  32.314  30.518  1.00  0.00     0.031 C 
ATOM     67  C   UNL A   1      44.432  31.552  29.636  1.00  0.00     0.037 A 
BRANCH  54  68
ATOM     68  C   UNL A   1      46.953  27.185  26.096  1.00  0.00     0.057 A 
ATOM     69  C   UNL A   1      47.034  27.503  24.735  1.00  0.00     0.134 A 
ATOM     70  C   UNL A   1      47.977  26.412  26.652  1.00  0.00     0.134 A 
ATOM     71  F   UNL A   1      46.064  28.218  24.147  1.00  0.00    -0.206 F 
ATOM     72  C   UNL A   1      48.093  27.049  23.949  1.00  0.00     0.040 A 
ATOM     73  C   UNL A   1      49.050  25.969  25.882  1.00  0.00     0.040 A 
ATOM     74  F   UNL A   1      47.944  26.072  27.949  1.00  0.00    -0.206 F 
ATOM     75  C   UNL A   1      49.107  26.282  24.525  1.00  0.00     0.006 A 
ENDBRANCH  54  68
BRANCH  55  76
ATOM     76  C   UNL A   1      38.598  30.217  30.444  1.00  0.00     0.057 A 
ATOM     77  C   UNL A   1      38.264  30.028  31.792  1.00  0.00     0.134 A 
ATOM     78  C   UNL A   1      37.641  30.851  29.640  1.00  0.00     0.134 A 
ATOM     79  F   UNL A   1      39.109  29.391  32.615  1.00  0.00    -0.206 F 
ATOM     80  C   UNL A   1      37.031  30.439  32.311  1.00  0.00     0.040 A 
ATOM     81  C   UNL A   1      36.424  31.306  30.154  1.00  0.00     0.040 A 
ATOM     82  F   UNL A   1      37.871  31.040  28.332  1.00  0.00    -0.206 F 
ATOM     83  C   UNL A   1      36.112  31.091  31.493  1.00  0.00     0.006 A 
ENDBRANCH  55  76
BRANCH  67  84
ATOM     84  C   UNL A   1      45.047  32.793  30.204  1.00  0.00     0.057 A 
ATOM     85  C   UNL A   1      45.075  33.997  29.491  1.00  0.00     0.134 A 
ATOM     86  C   UNL A   1      45.585  32.790  31.497  1.00  0.00     0.134 A 
ATOM     87  F   UNL A   1      44.591  34.059  28.240  1.00  0.00    -0.206 F 
ATOM     88  C   UNL A   1      45.623  35.156  30.042  1.00  0.00     0.040 A 
ATOM     89  C   UNL A   1      46.120  33.945  32.065  1.00  0.00     0.040 A 
ATOM     90  F   UNL A   1      45.583  31.666  32.229  1.00  0.00    -0.206 F 
ATOM     91  C   UNL A   1      46.141  35.133  31.337  1.00  0.00     0.006 A 
ENDBRANCH  67  84
ENDBRANCH  41  42
ENDBRANCH  34  36
ENDBRANCH  33  34
ENDBRANCH  32  33
ENDBRANCH   1  32
TORSDOF 15
ENDMDL
