MODEL 1
REMARK VINA RESULT:     -12.7      0.000      0.000
REMARK SMILES Cc1n[nH]c2c1[C@@]1(C(=O)N([C@@H](C)C(=O)OCCOC(=O)c3ccc(-c4c5nc(c(-c6c(F)cccc6F)c6ccc([nH]6)c(-c6c(F)cccc6F)c6nc(c(-c7c(F)cccc7F)c7ccc4[nH]7)C=C6)C=C5)cc3)c3ccccc31)C(C#N)=C(N)O2
REMARK SMILES IDX 16 1 15 2 13 3 14 4 11 5 12 6 10 7 1 8 2 9 3 10 6 11 4 12
REMARK SMILES IDX 5 13 7 14 86 16 8 17 80 18 81 19 84 20 9 21 75 22 79 23
REMARK SMILES IDX 76 24 78 25 77 26 82 27 83 28 85 29 17 32 18 33 19 34 20 35
REMARK SMILES IDX 21 36 22 37 74 38 23 39 73 40 24 41 25 42 26 43 67 44 27 45
REMARK SMILES IDX 72 46 66 47 68 48 28 49 71 50 65 51 64 52 29 54 55 55 38 56
REMARK SMILES IDX 54 57 39 58 42 59 53 60 69 61 40 62 41 63 52 65 70 66 43 67
REMARK SMILES IDX 30 68 31 69 36 70 32 71 33 72 35 73 37 74 34 75 56 76 57 77
REMARK SMILES IDX 62 78 58 79 59 80 61 81 63 82 60 83 44 84 45 85 50 86 46 87
REMARK SMILES IDX 47 88 49 89 51 90 48 91
REMARK H PARENT 4 15 85 30 85 31 68 53 42 64
REMARK Flexibility Score: inf
ROOT
ATOM      1  C   UNL A   1      33.357  29.994  26.153  1.00  0.00     0.274 C 
ENDROOT
BRANCH   1   2
ATOM      2  O   UNL A   1      32.175  29.664  25.392  1.00  0.00    -0.461 OA
BRANCH   2   3
ATOM      3  C   UNL A   1      32.346  29.059  24.189  1.00  0.00     0.329 C 
ATOM      4  O   UNL A   1      31.538  29.117  23.267  1.00  0.00    -0.250 OA
BRANCH   3   5
ATOM      5  C   UNL A   1      33.658  28.238  24.099  1.00  0.00     0.197 C 
ATOM      6  C   UNL A   1      34.372  28.615  22.799  1.00  0.00     0.044 C 
BRANCH   5   7
ATOM      7  N   UNL A   1      33.533  26.797  24.264  1.00  0.00    -0.297 N 
ATOM      8  C   UNL A   1      30.161  26.205  24.934  1.00  0.00     0.069 C 
ATOM      9  C   UNL A   1      30.618  25.062  25.766  1.00  0.00     0.068 A 
ATOM     10  N   UNL A   1      29.720  24.441  26.548  1.00  0.00    -0.177 NA
ATOM     11  C   UNL A   1      31.905  24.471  25.906  1.00  0.00     0.063 A 
ATOM     12  N   UNL A   1      30.432  23.501  27.198  1.00  0.00    -0.246 N 
ATOM     13  C   UNL A   1      31.740  23.484  26.839  1.00  0.00     0.222 A 
ATOM     14  C   UNL A   1      33.276  24.727  25.370  1.00  0.00     0.149 C 
ATOM     15  H   UNL A   1      30.044  22.890  27.866  1.00  0.00     0.193 HD
ATOM     16  O   UNL A   1      32.663  22.679  27.352  1.00  0.00    -0.422 OA
ATOM     17  C   UNL A   1      33.600  26.216  25.542  1.00  0.00     0.248 C 
ATOM     18  C   UNL A   1      33.160  24.561  23.880  1.00  0.00     0.002 A 
ATOM     19  C   UNL A   1      34.319  23.844  26.021  1.00  0.00     0.114 C 
ATOM     20  C   UNL A   1      33.990  22.892  26.932  1.00  0.00     0.208 C 
ATOM     21  O   UNL A   1      33.805  26.795  26.599  1.00  0.00    -0.273 OA
ATOM     22  C   UNL A   1      33.237  25.817  23.280  1.00  0.00     0.050 A 
ATOM     23  C   UNL A   1      32.971  23.393  23.141  1.00  0.00     0.008 A 
ATOM     24  C   UNL A   1      32.990  25.917  21.926  1.00  0.00     0.027 A 
ATOM     25  C   UNL A   1      32.855  23.493  21.759  1.00  0.00     0.001 A 
ATOM     26  C   UNL A   1      32.851  24.752  21.154  1.00  0.00     0.002 A 
BRANCH  19  27
ATOM     27  C   UNL A   1      35.691  24.034  25.655  1.00  0.00     0.102 C 
ATOM     28  N   UNL A   1      36.807  24.133  25.398  1.00  0.00    -0.193 NA
ENDBRANCH  19  27
BRANCH  20  29
ATOM     29  N   UNL A   1      34.880  22.049  27.530  1.00  0.00    -0.369 N 
ATOM     30  H   UNL A   1      34.727  21.745  28.454  1.00  0.00     0.159 HD
ATOM     31  H   UNL A   1      35.676  21.742  27.037  1.00  0.00     0.159 HD
ENDBRANCH  20  29
ENDBRANCH   5   7
ENDBRANCH   3   5
ENDBRANCH   2   3
ENDBRANCH   1   2
BRANCH   1  32
ATOM     32  C   UNL A   1      33.045  31.183  27.064  1.00  0.00     0.275 C 
BRANCH  32  33
ATOM     33  O   UNL A   1      33.986  31.176  28.155  1.00  0.00    -0.458 OA
BRANCH  33  34
ATOM     34  C   UNL A   1      35.130  31.874  27.943  1.00  0.00     0.338 C 
ATOM     35  O   UNL A   1      35.225  33.032  27.573  1.00  0.00    -0.246 OA
BRANCH  34  36
ATOM     36  C   UNL A   1      36.228  31.142  28.617  1.00  0.00     0.060 A 
ATOM     37  C   UNL A   1      37.363  31.766  29.137  1.00  0.00     0.016 A 
ATOM     38  C   UNL A   1      36.222  29.760  28.471  1.00  0.00     0.016 A 
ATOM     39  C   UNL A   1      38.556  31.041  29.248  1.00  0.00     0.010 A 
ATOM     40  C   UNL A   1      37.415  29.055  28.591  1.00  0.00     0.010 A 
ATOM     41  C   UNL A   1      38.619  29.707  28.825  1.00  0.00    -0.014 A 
BRANCH  41  42
ATOM     42  C   UNL A   1      39.828  28.881  28.990  1.00  0.00     0.031 A 
ATOM     43  C   UNL A   1      40.064  28.704  30.435  1.00  0.00     0.074 A 
ATOM     44  C   UNL A   1      40.636  28.252  28.098  1.00  0.00     0.049 A 
ATOM     45  N   UNL A   1      40.780  29.510  31.141  1.00  0.00    -0.248 NA
ATOM     46  C   UNL A   1      39.232  27.784  31.222  1.00  0.00     0.031 C 
ATOM     47  C   UNL A   1      40.526  28.126  26.652  1.00  0.00     0.029 A 
ATOM     48  N   UNL A   1      41.807  27.564  28.342  1.00  0.00    -0.354 N 
ATOM     49  C   UNL A   1      40.692  29.039  32.436  1.00  0.00     0.074 A 
ATOM     50  C   UNL A   1      39.550  28.166  32.463  1.00  0.00     0.031 C 
ATOM     51  C   UNL A   1      41.424  27.225  26.169  1.00  0.00     0.029 A 
ATOM     52  C   UNL A   1      42.328  26.851  27.246  1.00  0.00     0.049 A 
ATOM     53  H   UNL A   1      42.249  27.572  29.222  1.00  0.00     0.167 HD
ATOM     54  C   UNL A   1      41.761  29.177  33.263  1.00  0.00     0.037 A 
ATOM     55  C   UNL A   1      43.505  26.157  27.169  1.00  0.00     0.037 A 
ATOM     56  C   UNL A   1      42.712  30.120  32.706  1.00  0.00     0.049 A 
ATOM     57  C   UNL A   1      44.395  26.699  28.221  1.00  0.00     0.074 A 
ATOM     58  C   UNL A   1      42.691  31.458  32.362  1.00  0.00     0.029 A 
ATOM     59  N   UNL A   1      43.779  29.580  32.031  1.00  0.00    -0.354 N 
ATOM     60  N   UNL A   1      44.902  27.897  28.179  1.00  0.00    -0.248 NA
ATOM     61  C   UNL A   1      44.296  26.096  29.536  1.00  0.00     0.031 C 
ATOM     62  C   UNL A   1      43.464  31.553  31.165  1.00  0.00     0.029 A 
ATOM     63  C   UNL A   1      43.990  30.293  30.880  1.00  0.00     0.049 A 
ATOM     64  H   UNL A   1      44.309  28.804  32.326  1.00  0.00     0.167 HD
ATOM     65  C   UNL A   1      44.728  28.384  29.464  1.00  0.00     0.074 A 
ATOM     66  C   UNL A   1      44.395  27.206  30.270  1.00  0.00     0.031 C 
ATOM     67  C   UNL A   1      44.577  29.722  29.689  1.00  0.00     0.037 A 
BRANCH  54  68
ATOM     68  C   UNL A   1      42.173  28.134  34.273  1.00  0.00     0.057 A 
ATOM     69  C   UNL A   1      42.911  26.968  33.985  1.00  0.00     0.134 A 
ATOM     70  C   UNL A   1      42.107  28.477  35.636  1.00  0.00     0.134 A 
ATOM     71  F   UNL A   1      43.111  26.516  32.743  1.00  0.00    -0.206 F 
ATOM     72  C   UNL A   1      43.585  26.237  34.964  1.00  0.00     0.040 A 
ATOM     73  C   UNL A   1      42.818  27.780  36.617  1.00  0.00     0.040 A 
ATOM     74  F   UNL A   1      41.427  29.560  36.041  1.00  0.00    -0.206 F 
ATOM     75  C   UNL A   1      43.574  26.664  36.280  1.00  0.00     0.006 A 
ENDBRANCH  54  68
BRANCH  55  76
ATOM     76  C   UNL A   1      43.830  24.847  26.529  1.00  0.00     0.057 A 
ATOM     77  C   UNL A   1      44.547  24.795  25.324  1.00  0.00     0.134 A 
ATOM     78  C   UNL A   1      43.169  23.653  26.890  1.00  0.00     0.134 A 
ATOM     79  F   UNL A   1      45.146  25.894  24.843  1.00  0.00    -0.206 F 
ATOM     80  C   UNL A   1      44.589  23.646  24.519  1.00  0.00     0.040 A 
ATOM     81  C   UNL A   1      43.208  22.493  26.095  1.00  0.00     0.040 A 
ATOM     82  F   UNL A   1      42.404  23.603  27.991  1.00  0.00    -0.206 F 
ATOM     83  C   UNL A   1      43.911  22.491  24.895  1.00  0.00     0.006 A 
ENDBRANCH  55  76
BRANCH  67  84
ATOM     84  C   UNL A   1      44.893  30.661  28.553  1.00  0.00     0.057 A 
ATOM     85  C   UNL A   1      46.141  31.294  28.546  1.00  0.00     0.134 A 
ATOM     86  C   UNL A   1      43.990  31.035  27.543  1.00  0.00     0.134 A 
ATOM     87  F   UNL A   1      47.039  31.020  29.505  1.00  0.00    -0.206 F 
ATOM     88  C   UNL A   1      46.485  32.245  27.583  1.00  0.00     0.040 A 
ATOM     89  C   UNL A   1      44.334  31.966  26.553  1.00  0.00     0.040 A 
ATOM     90  F   UNL A   1      42.744  30.548  27.508  1.00  0.00    -0.206 F 
ATOM     91  C   UNL A   1      45.585  32.576  26.575  1.00  0.00     0.006 A 
ENDBRANCH  67  84
ENDBRANCH  41  42
ENDBRANCH  34  36
ENDBRANCH  33  34
ENDBRANCH  32  33
ENDBRANCH   1  32
TORSDOF 14
ENDMDL
MODEL 2
REMARK VINA RESULT:     -12.3      2.482      7.687
REMARK SMILES Cc1n[nH]c2c1[C@@]1(C(=O)N([C@@H](C)C(=O)OCCOC(=O)c3ccc(-c4c5nc(c(-c6c(F)cccc6F)c6ccc([nH]6)c(-c6c(F)cccc6F)c6nc(c(-c7c(F)cccc7F)c7ccc4[nH]7)C=C6)C=C5)cc3)c3ccccc31)C(C#N)=C(N)O2
REMARK SMILES IDX 16 1 15 2 13 3 14 4 11 5 12 6 10 7 1 8 2 9 3 10 6 11 4 12
REMARK SMILES IDX 5 13 7 14 86 16 8 17 80 18 81 19 84 20 9 21 75 22 79 23
REMARK SMILES IDX 76 24 78 25 77 26 82 27 83 28 85 29 17 32 18 33 19 34 20 35
REMARK SMILES IDX 21 36 22 37 74 38 23 39 73 40 24 41 25 42 26 43 67 44 27 45
REMARK SMILES IDX 72 46 66 47 68 48 28 49 71 50 65 51 64 52 29 54 55 55 38 56
REMARK SMILES IDX 54 57 39 58 42 59 53 60 69 61 40 62 41 63 52 65 70 66 43 67
REMARK SMILES IDX 30 68 31 69 36 70 32 71 33 72 35 73 37 74 34 75 56 76 57 77
REMARK SMILES IDX 62 78 58 79 59 80 61 81 63 82 60 83 44 84 45 85 50 86 46 87
REMARK SMILES IDX 47 88 49 89 51 90 48 91
REMARK H PARENT 4 15 85 30 85 31 68 53 42 64
REMARK Flexibility Score: inf
ROOT
ATOM      1  C   UNL A   1      36.973  22.303  25.726  1.00  0.00     0.274 C 
ENDROOT
BRANCH   1   2
ATOM      2  O   UNL A   1      35.868  21.590  25.128  1.00  0.00    -0.461 OA
BRANCH   2   3
ATOM      3  C   UNL A   1      34.655  21.688  25.727  1.00  0.00     0.329 C 
ATOM      4  O   UNL A   1      33.753  20.866  25.596  1.00  0.00    -0.250 OA
BRANCH   3   5
ATOM      5  C   UNL A   1      34.493  22.978  26.573  1.00  0.00     0.197 C 
ATOM      6  C   UNL A   1      33.983  22.582  27.960  1.00  0.00     0.044 C 
BRANCH   5   7
ATOM      7  N   UNL A   1      33.706  24.049  25.978  1.00  0.00    -0.297 N 
ATOM      8  C   UNL A   1      32.897  22.961  22.763  1.00  0.00     0.069 C 
ATOM      9  C   UNL A   1      32.949  24.391  22.362  1.00  0.00     0.068 A 
ATOM     10  N   UNL A   1      32.901  24.690  21.053  1.00  0.00    -0.177 NA
ATOM     11  C   UNL A   1      33.056  25.573  23.148  1.00  0.00     0.063 A 
ATOM     12  N   UNL A   1      33.014  26.031  21.010  1.00  0.00    -0.246 N 
ATOM     13  C   UNL A   1      33.104  26.595  22.240  1.00  0.00     0.222 A 
ATOM     14  C   UNL A   1      33.198  25.896  24.599  1.00  0.00     0.149 C 
ATOM     15  H   UNL A   1      33.029  26.549  20.172  1.00  0.00     0.193 HD
ATOM     16  O   UNL A   1      33.254  27.893  22.476  1.00  0.00    -0.422 OA
ATOM     17  C   UNL A   1      34.321  25.033  25.187  1.00  0.00     0.248 C 
ATOM     18  C   UNL A   1      31.957  25.354  25.253  1.00  0.00     0.002 A 
ATOM     19  C   UNL A   1      33.438  27.371  24.836  1.00  0.00     0.114 C 
ATOM     20  C   UNL A   1      33.445  28.273  23.819  1.00  0.00     0.208 C 
ATOM     21  O   UNL A   1      35.516  25.141  24.951  1.00  0.00    -0.273 OA
ATOM     22  C   UNL A   1      32.296  24.219  25.989  1.00  0.00     0.050 A 
ATOM     23  C   UNL A   1      30.646  25.821  25.166  1.00  0.00     0.008 A 
ATOM     24  C   UNL A   1      31.281  23.464  26.541  1.00  0.00     0.027 A 
ATOM     25  C   UNL A   1      29.646  25.124  25.837  1.00  0.00     0.001 A 
ATOM     26  C   UNL A   1      29.961  23.943  26.511  1.00  0.00     0.002 A 
BRANCH  19  27
ATOM     27  C   UNL A   1      33.667  27.814  26.179  1.00  0.00     0.102 C 
ATOM     28  N   UNL A   1      33.795  28.206  27.252  1.00  0.00    -0.193 NA
ENDBRANCH  19  27
BRANCH  20  29
ATOM     29  N   UNL A   1      33.627  29.616  23.973  1.00  0.00    -0.369 N 
ATOM     30  H   UNL A   1      33.282  30.070  24.775  1.00  0.00     0.159 HD
ATOM     31  H   UNL A   1      34.104  30.131  23.282  1.00  0.00     0.159 HD
ENDBRANCH  20  29
ENDBRANCH   5   7
ENDBRANCH   3   5
ENDBRANCH   2   3
ENDBRANCH   1   2
BRANCH   1  32
ATOM     32  C   UNL A   1      38.201  21.390  25.742  1.00  0.00     0.275 C 
BRANCH  32  33
ATOM     33  O   UNL A   1      39.380  22.218  25.761  1.00  0.00    -0.458 OA
BRANCH  33  34
ATOM     34  C   UNL A   1      40.004  22.316  26.961  1.00  0.00     0.338 C 
ATOM     35  O   UNL A   1      40.451  21.403  27.633  1.00  0.00    -0.246 OA
BRANCH  34  36
ATOM     36  C   UNL A   1      40.415  23.730  27.134  1.00  0.00     0.060 A 
ATOM     37  C   UNL A   1      41.511  24.124  27.902  1.00  0.00     0.016 A 
ATOM     38  C   UNL A   1      39.497  24.688  26.722  1.00  0.00     0.016 A 
ATOM     39  C   UNL A   1      41.530  25.405  28.467  1.00  0.00     0.010 A 
ATOM     40  C   UNL A   1      39.534  25.958  27.289  1.00  0.00     0.010 A 
ATOM     41  C   UNL A   1      40.452  26.279  28.282  1.00  0.00    -0.014 A 
BRANCH  41  42
ATOM     42  C   UNL A   1      40.456  27.662  28.792  1.00  0.00     0.031 A 
ATOM     43  C   UNL A   1      41.552  28.390  28.124  1.00  0.00     0.074 A 
ATOM     44  C   UNL A   1      39.635  28.325  29.645  1.00  0.00     0.049 A 
ATOM     45  N   UNL A   1      42.754  28.443  28.585  1.00  0.00    -0.248 NA
ATOM     46  C   UNL A   1      41.419  28.822  26.726  1.00  0.00     0.031 C 
ATOM     47  C   UNL A   1      38.405  27.896  30.296  1.00  0.00     0.029 A 
ATOM     48  N   UNL A   1      39.769  29.608  30.137  1.00  0.00    -0.354 N 
ATOM     49  C   UNL A   1      43.477  29.148  27.643  1.00  0.00     0.074 A 
ATOM     50  C   UNL A   1      42.690  29.121  26.440  1.00  0.00     0.031 C 
ATOM     51  C   UNL A   1      37.776  28.944  30.893  1.00  0.00     0.029 A 
ATOM     52  C   UNL A   1      38.660  30.098  30.852  1.00  0.00     0.049 A 
ATOM     53  H   UNL A   1      40.583  30.143  29.998  1.00  0.00     0.167 HD
ATOM     54  C   UNL A   1      44.498  29.944  28.054  1.00  0.00     0.037 A 
ATOM     55  C   UNL A   1      38.541  31.288  31.519  1.00  0.00     0.037 A 
ATOM     56  C   UNL A   1      44.857  29.637  29.426  1.00  0.00     0.049 A 
ATOM     57  C   UNL A   1      39.914  31.750  31.826  1.00  0.00     0.074 A 
ATOM     58  C   UNL A   1      45.331  28.527  30.099  1.00  0.00     0.029 A 
ATOM     59  N   UNL A   1      44.326  30.458  30.390  1.00  0.00    -0.354 N 
ATOM     60  N   UNL A   1      40.693  31.153  32.681  1.00  0.00    -0.248 NA
ATOM     61  C   UNL A   1      40.576  32.552  30.814  1.00  0.00     0.031 C 
ATOM     62  C   UNL A   1      44.665  28.539  31.363  1.00  0.00     0.029 A 
ATOM     63  C   UNL A   1      43.886  29.693  31.438  1.00  0.00     0.049 A 
ATOM     64  H   UNL A   1      44.271  31.439  30.338  1.00  0.00     0.167 HD
ATOM     65  C   UNL A   1      41.919  31.096  32.040  1.00  0.00     0.074 A 
ATOM     66  C   UNL A   1      41.797  32.022  30.911  1.00  0.00     0.031 C 
ATOM     67  C   UNL A   1      42.801  30.088  32.308  1.00  0.00     0.037 A 
BRANCH  54  68
ATOM     68  C   UNL A   1      44.818  31.278  27.427  1.00  0.00     0.057 A 
ATOM     69  C   UNL A   1      44.155  32.490  27.707  1.00  0.00     0.134 A 
ATOM     70  C   UNL A   1      46.049  31.412  26.760  1.00  0.00     0.134 A 
ATOM     71  F   UNL A   1      42.995  32.555  28.369  1.00  0.00    -0.206 F 
ATOM     72  C   UNL A   1      44.702  33.739  27.410  1.00  0.00     0.040 A 
ATOM     73  C   UNL A   1      46.627  32.659  26.501  1.00  0.00     0.040 A 
ATOM     74  F   UNL A   1      46.774  30.333  26.428  1.00  0.00    -0.206 F 
ATOM     75  C   UNL A   1      45.960  33.829  26.841  1.00  0.00     0.006 A 
ENDBRANCH  54  68
BRANCH  55  76
ATOM     76  C   UNL A   1      37.400  32.247  31.616  1.00  0.00     0.057 A 
ATOM     77  C   UNL A   1      36.578  32.272  32.753  1.00  0.00     0.134 A 
ATOM     78  C   UNL A   1      36.885  32.914  30.484  1.00  0.00     0.134 A 
ATOM     79  F   UNL A   1      36.931  31.603  33.860  1.00  0.00    -0.206 F 
ATOM     80  C   UNL A   1      35.321  32.896  32.763  1.00  0.00     0.040 A 
ATOM     81  C   UNL A   1      35.628  33.548  30.483  1.00  0.00     0.040 A 
ATOM     82  F   UNL A   1      37.555  32.905  29.322  1.00  0.00    -0.206 F 
ATOM     83  C   UNL A   1      34.835  33.529  31.624  1.00  0.00     0.006 A 
ENDBRANCH  55  76
BRANCH  67  84
ATOM     84  C   UNL A   1      42.528  29.224  33.512  1.00  0.00     0.057 A 
ATOM     85  C   UNL A   1      43.238  29.486  34.689  1.00  0.00     0.134 A 
ATOM     86  C   UNL A   1      41.683  28.101  33.523  1.00  0.00     0.134 A 
ATOM     87  F   UNL A   1      44.098  30.515  34.741  1.00  0.00    -0.206 F 
ATOM     88  C   UNL A   1      43.115  28.682  35.824  1.00  0.00     0.040 A 
ATOM     89  C   UNL A   1      41.527  27.304  34.665  1.00  0.00     0.040 A 
ATOM     90  F   UNL A   1      41.020  27.719  32.424  1.00  0.00    -0.206 F 
ATOM     91  C   UNL A   1      42.249  27.594  35.820  1.00  0.00     0.006 A 
ENDBRANCH  67  84
ENDBRANCH  41  42
ENDBRANCH  34  36
ENDBRANCH  33  34
ENDBRANCH  32  33
ENDBRANCH   1  32
TORSDOF 14
ENDMDL
MODEL 3
REMARK VINA RESULT:     -12.0      1.221      2.307
REMARK SMILES Cc1n[nH]c2c1[C@@]1(C(=O)N([C@@H](C)C(=O)OCCOC(=O)c3ccc(-c4c5nc(c(-c6c(F)cccc6F)c6ccc([nH]6)c(-c6c(F)cccc6F)c6nc(c(-c7c(F)cccc7F)c7ccc4[nH]7)C=C6)C=C5)cc3)c3ccccc31)C(C#N)=C(N)O2
REMARK SMILES IDX 16 1 15 2 13 3 14 4 11 5 12 6 10 7 1 8 2 9 3 10 6 11 4 12
REMARK SMILES IDX 5 13 7 14 86 16 8 17 80 18 81 19 84 20 9 21 75 22 79 23
REMARK SMILES IDX 76 24 78 25 77 26 82 27 83 28 85 29 17 32 18 33 19 34 20 35
REMARK SMILES IDX 21 36 22 37 74 38 23 39 73 40 24 41 25 42 26 43 67 44 27 45
REMARK SMILES IDX 72 46 66 47 68 48 28 49 71 50 65 51 64 52 29 54 55 55 38 56
REMARK SMILES IDX 54 57 39 58 42 59 53 60 69 61 40 62 41 63 52 65 70 66 43 67
REMARK SMILES IDX 30 68 31 69 36 70 32 71 33 72 35 73 37 74 34 75 56 76 57 77
REMARK SMILES IDX 62 78 58 79 59 80 61 81 63 82 60 83 44 84 45 85 50 86 46 87
REMARK SMILES IDX 47 88 49 89 51 90 48 91
REMARK H PARENT 4 15 85 30 85 31 68 53 42 64
REMARK Flexibility Score: inf
ROOT
ATOM      1  C   UNL A   1      32.507  30.466  26.961  1.00  0.00     0.274 C 
ENDROOT
BRANCH   1   2
ATOM      2  O   UNL A   1      33.190  30.049  25.760  1.00  0.00    -0.461 OA
BRANCH   2   3
ATOM      3  C   UNL A   1      33.875  28.878  25.796  1.00  0.00     0.329 C 
ATOM      4  O   UNL A   1      34.380  28.406  26.810  1.00  0.00    -0.250 OA
BRANCH   3   5
ATOM      5  C   UNL A   1      34.002  28.201  24.406  1.00  0.00     0.197 C 
ATOM      6  C   UNL A   1      34.012  29.296  23.338  1.00  0.00     0.044 C 
BRANCH   5   7
ATOM      7  N   UNL A   1      33.044  27.146  24.109  1.00  0.00    -0.297 N 
ATOM      8  C   UNL A   1      31.850  26.049  27.199  1.00  0.00     0.069 C 
ATOM      9  C   UNL A   1      31.717  24.709  26.571  1.00  0.00     0.068 A 
ATOM     10  N   UNL A   1      31.444  23.657  27.362  1.00  0.00    -0.177 NA
ATOM     11  C   UNL A   1      31.840  24.302  25.213  1.00  0.00     0.063 A 
ATOM     12  N   UNL A   1      31.433  22.602  26.526  1.00  0.00    -0.246 N 
ATOM     13  C   UNL A   1      31.661  22.946  25.234  1.00  0.00     0.222 A 
ATOM     14  C   UNL A   1      32.174  24.960  23.914  1.00  0.00     0.149 C 
ATOM     15  H   UNL A   1      31.275  21.675  26.822  1.00  0.00     0.193 HD
ATOM     16  O   UNL A   1      31.733  22.094  24.218  1.00  0.00    -0.422 OA
ATOM     17  C   UNL A   1      33.444  25.799  24.101  1.00  0.00     0.248 C 
ATOM     18  C   UNL A   1      31.099  25.989  23.700  1.00  0.00     0.002 A 
ATOM     19  C   UNL A   1      32.320  23.961  22.787  1.00  0.00     0.114 C 
ATOM     20  C   UNL A   1      32.093  22.633  22.967  1.00  0.00     0.208 C 
ATOM     21  O   UNL A   1      34.575  25.371  24.280  1.00  0.00    -0.273 OA
ATOM     22  C   UNL A   1      31.643  27.257  23.905  1.00  0.00     0.050 A 
ATOM     23  C   UNL A   1      29.754  25.798  23.382  1.00  0.00     0.008 A 
ATOM     24  C   UNL A   1      30.793  28.344  23.920  1.00  0.00     0.027 A 
ATOM     25  C   UNL A   1      28.933  26.915  23.269  1.00  0.00     0.001 A 
ATOM     26  C   UNL A   1      29.448  28.183  23.550  1.00  0.00     0.002 A 
BRANCH  19  27
ATOM     27  C   UNL A   1      32.712  24.446  21.498  1.00  0.00     0.102 C 
ATOM     28  N   UNL A   1      32.983  24.884  20.470  1.00  0.00    -0.193 NA
ENDBRANCH  19  27
BRANCH  20  29
ATOM     29  N   UNL A   1      32.180  21.690  21.985  1.00  0.00    -0.369 N 
ATOM     30  H   UNL A   1      31.604  21.754  21.189  1.00  0.00     0.159 HD
ATOM     31  H   UNL A   1      32.820  20.946  22.072  1.00  0.00     0.159 HD
ENDBRANCH  20  29
ENDBRANCH   5   7
ENDBRANCH   3   5
ENDBRANCH   2   3
ENDBRANCH   1   2
BRANCH   1  32
ATOM     32  C   UNL A   1      33.038  31.837  27.385  1.00  0.00     0.275 C 
BRANCH  32  33
ATOM     33  O   UNL A   1      34.100  31.635  28.337  1.00  0.00    -0.458 OA
BRANCH  33  34
ATOM     34  C   UNL A   1      35.269  32.261  28.047  1.00  0.00     0.338 C 
ATOM     35  O   UNL A   1      35.408  33.391  27.611  1.00  0.00    -0.246 OA
BRANCH  34  36
ATOM     36  C   UNL A   1      36.354  31.511  28.723  1.00  0.00     0.060 A 
ATOM     37  C   UNL A   1      37.532  32.104  29.176  1.00  0.00     0.016 A 
ATOM     38  C   UNL A   1      36.279  30.126  28.645  1.00  0.00     0.016 A 
ATOM     39  C   UNL A   1      38.694  31.330  29.286  1.00  0.00     0.010 A 
ATOM     40  C   UNL A   1      37.442  29.371  28.764  1.00  0.00     0.010 A 
ATOM     41  C   UNL A   1      38.682  29.976  28.928  1.00  0.00    -0.014 A 
BRANCH  41  42
ATOM     42  C   UNL A   1      39.856  29.102  29.096  1.00  0.00     0.031 A 
ATOM     43  C   UNL A   1      40.097  28.937  30.542  1.00  0.00     0.074 A 
ATOM     44  C   UNL A   1      40.630  28.426  28.208  1.00  0.00     0.049 A 
ATOM     45  N   UNL A   1      40.851  29.722  31.231  1.00  0.00    -0.248 NA
ATOM     46  C   UNL A   1      39.233  28.065  31.349  1.00  0.00     0.031 C 
ATOM     47  C   UNL A   1      40.504  28.284  26.765  1.00  0.00     0.029 A 
ATOM     48  N   UNL A   1      41.774  27.694  28.454  1.00  0.00    -0.354 N 
ATOM     49  C   UNL A   1      40.754  29.275  32.533  1.00  0.00     0.074 A 
ATOM     50  C   UNL A   1      39.577  28.451  32.581  1.00  0.00     0.031 C 
ATOM     51  C   UNL A   1      41.359  27.340  26.289  1.00  0.00     0.029 A 
ATOM     52  C   UNL A   1      42.255  26.944  27.365  1.00  0.00     0.049 A 
ATOM     53  H   UNL A   1      42.222  27.697  29.330  1.00  0.00     0.167 HD
ATOM     54  C   UNL A   1      41.835  29.380  33.351  1.00  0.00     0.037 A 
ATOM     55  C   UNL A   1      43.402  26.200  27.289  1.00  0.00     0.037 A 
ATOM     56  C   UNL A   1      42.820  30.274  32.772  1.00  0.00     0.049 A 
ATOM     57  C   UNL A   1      44.322  26.719  28.327  1.00  0.00     0.074 A 
ATOM     58  C   UNL A   1      42.852  31.606  32.408  1.00  0.00     0.029 A 
ATOM     59  N   UNL A   1      43.857  29.679  32.097  1.00  0.00    -0.354 N 
ATOM     60  N   UNL A   1      44.878  27.894  28.263  1.00  0.00    -0.248 NA
ATOM     61  C   UNL A   1      44.208  26.140  29.652  1.00  0.00     0.031 C 
ATOM     62  C   UNL A   1      43.619  31.651  31.204  1.00  0.00     0.029 A 
ATOM     63  C   UNL A   1      44.089  30.366  30.935  1.00  0.00     0.049 A 
ATOM     64  H   UNL A   1      44.356  28.887  32.400  1.00  0.00     0.167 HD
ATOM     65  C   UNL A   1      44.735  28.407  29.542  1.00  0.00     0.074 A 
ATOM     66  C   UNL A   1      44.359  27.256  30.368  1.00  0.00     0.031 C 
ATOM     67  C   UNL A   1      44.642  29.753  29.748  1.00  0.00     0.037 A 
BRANCH  54  68
ATOM     68  C   UNL A   1      42.210  28.336  34.373  1.00  0.00     0.057 A 
ATOM     69  C   UNL A   1      41.926  28.407  35.752  1.00  0.00     0.134 A 
ATOM     70  C   UNL A   1      42.582  27.062  33.906  1.00  0.00     0.134 A 
ATOM     71  F   UNL A   1      41.519  29.526  36.360  1.00  0.00    -0.206 F 
ATOM     72  C   UNL A   1      41.945  27.289  36.588  1.00  0.00     0.040 A 
ATOM     73  C   UNL A   1      42.556  25.929  34.724  1.00  0.00     0.040 A 
ATOM     74  F   UNL A   1      42.887  26.865  32.614  1.00  0.00    -0.206 F 
ATOM     75  C   UNL A   1      42.221  26.037  36.067  1.00  0.00     0.006 A 
ENDBRANCH  54  68
BRANCH  55  76
ATOM     76  C   UNL A   1      43.666  24.868  26.667  1.00  0.00     0.057 A 
ATOM     77  C   UNL A   1      44.316  24.772  25.428  1.00  0.00     0.134 A 
ATOM     78  C   UNL A   1      43.002  23.697  27.093  1.00  0.00     0.134 A 
ATOM     79  F   UNL A   1      44.910  25.845  24.888  1.00  0.00    -0.206 F 
ATOM     80  C   UNL A   1      44.293  23.603  24.651  1.00  0.00     0.040 A 
ATOM     81  C   UNL A   1      42.976  22.517  26.326  1.00  0.00     0.040 A 
ATOM     82  F   UNL A   1      42.296  23.690  28.234  1.00  0.00    -0.206 F 
ATOM     83  C   UNL A   1      43.614  22.472  25.092  1.00  0.00     0.006 A 
ENDBRANCH  55  76
BRANCH  67  84
ATOM     84  C   UNL A   1      44.988  30.661  28.596  1.00  0.00     0.057 A 
ATOM     85  C   UNL A   1      43.956  31.074  27.746  1.00  0.00     0.134 A 
ATOM     86  C   UNL A   1      46.291  31.050  28.239  1.00  0.00     0.134 A 
ATOM     87  F   UNL A   1      42.690  30.704  27.996  1.00  0.00    -0.206 F 
ATOM     88  C   UNL A   1      44.197  31.840  26.604  1.00  0.00     0.040 A 
ATOM     89  C   UNL A   1      46.543  31.844  27.113  1.00  0.00     0.040 A 
ATOM     90  F   UNL A   1      47.354  30.640  28.942  1.00  0.00    -0.206 F 
ATOM     91  C   UNL A   1      45.492  32.238  26.289  1.00  0.00     0.006 A 
ENDBRANCH  67  84
ENDBRANCH  41  42
ENDBRANCH  34  36
ENDBRANCH  33  34
ENDBRANCH  32  33
ENDBRANCH   1  32
TORSDOF 14
ENDMDL
