MODEL 1
REMARK VINA RESULT:     -10.3      0.000      0.000
REMARK SMILES CC1=C(CC(=O)OCCOC(=O)c2ccc(-c3c4nc(c(-c5c(F)cccc5F)c5ccc([nH]5)c(-c5c(F)cccc5F)c5nc(c(-c6c(F)cccc6F)c6ccc3[nH]6)C=C5)C=C4)cc2)c2cc(F)ccc2/C1=C\c1ccc([S@@+](C)[O-])cc1
REMARK SMILES IDX 8 1 7 2 5 3 6 4 4 5 3 6 1 7 2 8 74 9 67 10 73 11 75 12 68 13
REMARK SMILES IDX 72 14 69 15 71 16 70 17 76 18 77 19 84 20 78 21 83 22 79 23
REMARK SMILES IDX 80 24 81 25 82 26 9 27 10 28 11 29 12 30 13 31 14 32 66 33
REMARK SMILES IDX 15 34 65 35 16 36 17 37 18 38 59 39 19 40 64 41 58 42 60 43
REMARK SMILES IDX 20 44 63 45 57 46 56 47 21 49 47 50 30 51 46 52 31 53 34 54
REMARK SMILES IDX 45 55 61 56 32 57 33 58 44 60 62 61 35 62 22 63 23 64 28 65
REMARK SMILES IDX 24 66 25 67 27 68 29 69 26 70 48 71 49 72 54 73 50 74 51 75
REMARK SMILES IDX 53 76 55 77 52 78 36 79 37 80 42 81 38 82 39 83 41 84 43 85
REMARK SMILES IDX 40 86
REMARK H PARENT 60 48 34 59
REMARK Flexibility Score: inf
ROOT
ATOM      1  C   UNL A   1      35.559  33.512  32.277  1.00  0.00     0.274 C 
ENDROOT
BRANCH   1   2
ATOM      2  O   UNL A   1      34.614  33.077  31.276  1.00  0.00    -0.462 OA
BRANCH   2   3
ATOM      3  C   UNL A   1      34.385  33.949  30.260  1.00  0.00     0.310 C 
ATOM      4  O   UNL A   1      33.382  34.652  30.160  1.00  0.00    -0.252 OA
BRANCH   3   5
ATOM      5  C   UNL A   1      35.501  34.024  29.228  1.00  0.00     0.159 C 
BRANCH   5   6
ATOM      6  C   UNL A   1      36.217  32.757  28.897  1.00  0.00    -0.025 C 
ATOM      7  C   UNL A   1      38.494  33.201  29.951  1.00  0.00     0.045 C 
ATOM      8  C   UNL A   1      37.483  32.395  29.208  1.00  0.00    -0.039 C 
ATOM      9  C   UNL A   1      37.738  31.027  28.727  1.00  0.00    -0.014 C 
ATOM     10  C   UNL A   1      35.567  31.606  28.249  1.00  0.00    -0.011 A 
ATOM     11  C   UNL A   1      36.475  30.540  28.133  1.00  0.00    -0.010 A 
ATOM     12  C   UNL A   1      38.922  30.393  28.837  1.00  0.00     0.017 C 
ATOM     13  C   UNL A   1      34.254  31.457  27.826  1.00  0.00     0.048 A 
ATOM     14  C   UNL A   1      36.069  29.329  27.583  1.00  0.00     0.012 A 
ATOM     15  C   UNL A   1      33.864  30.251  27.253  1.00  0.00     0.123 A 
ATOM     16  C   UNL A   1      34.758  29.191  27.123  1.00  0.00     0.040 A 
ATOM     17  F   UNL A   1      32.598  30.094  26.844  1.00  0.00    -0.207 F 
BRANCH  12  18
ATOM     18  C   UNL A   1      39.183  29.035  28.360  1.00  0.00    -0.025 A 
ATOM     19  C   UNL A   1      38.804  27.932  29.131  1.00  0.00     0.013 A 
ATOM     20  C   UNL A   1      39.944  28.845  27.204  1.00  0.00     0.013 A 
ATOM     21  C   UNL A   1      39.282  26.657  28.813  1.00  0.00     0.061 A 
ATOM     22  C   UNL A   1      40.401  27.566  26.875  1.00  0.00     0.061 A 
ATOM     23  C   UNL A   1      40.106  26.470  27.696  1.00  0.00     0.152 A 
BRANCH  23  24
ATOM     24  S   UNL A   1      40.940  24.891  27.401  1.00  0.00    -0.018 S 
ATOM     25  C   UNL A   1      39.509  23.846  27.065  1.00  0.00     0.346 C 
ATOM     26  O   UNL A   1      41.753  25.043  26.066  1.00  0.00    -0.612 OA
ENDBRANCH  23  24
ENDBRANCH  12  18
ENDBRANCH   5   6
ENDBRANCH   3   5
ENDBRANCH   2   3
ENDBRANCH   1   2
BRANCH   1  27
ATOM     27  C   UNL A   1      35.885  32.375  33.241  1.00  0.00     0.275 C 
BRANCH  27  28
ATOM     28  O   UNL A   1      37.147  31.787  32.879  1.00  0.00    -0.458 OA
BRANCH  28  29
ATOM     29  C   UNL A   1      37.074  30.569  32.296  1.00  0.00     0.338 C 
ATOM     30  O   UNL A   1      36.098  30.043  31.790  1.00  0.00    -0.246 OA
BRANCH  29  31
ATOM     31  C   UNL A   1      38.391  29.914  32.369  1.00  0.00     0.060 A 
ATOM     32  C   UNL A   1      39.532  30.712  32.420  1.00  0.00     0.016 A 
ATOM     33  C   UNL A   1      38.495  28.525  32.485  1.00  0.00     0.016 A 
ATOM     34  C   UNL A   1      40.785  30.113  32.544  1.00  0.00     0.010 A 
ATOM     35  C   UNL A   1      39.738  27.936  32.709  1.00  0.00     0.010 A 
ATOM     36  C   UNL A   1      40.899  28.720  32.701  1.00  0.00    -0.014 A 
BRANCH  36  37
ATOM     37  C   UNL A   1      42.236  28.085  32.814  1.00  0.00     0.031 A 
ATOM     38  C   UNL A   1      43.005  27.721  31.574  1.00  0.00     0.074 A 
ATOM     39  C   UNL A   1      42.756  27.828  34.028  1.00  0.00     0.049 A 
ATOM     40  N   UNL A   1      44.209  27.216  31.465  1.00  0.00    -0.248 NA
ATOM     41  C   UNL A   1      42.328  27.930  30.284  1.00  0.00     0.031 C 
ATOM     42  C   UNL A   1      42.083  28.072  35.306  1.00  0.00     0.029 A 
ATOM     43  N   UNL A   1      43.974  27.309  34.386  1.00  0.00    -0.354 N 
ATOM     44  C   UNL A   1      44.427  27.048  30.105  1.00  0.00     0.074 A 
ATOM     45  C   UNL A   1      43.210  27.440  29.429  1.00  0.00     0.031 C 
ATOM     46  C   UNL A   1      42.908  27.726  36.308  1.00  0.00     0.029 A 
ATOM     47  C   UNL A   1      44.156  27.220  35.744  1.00  0.00     0.049 A 
ATOM     48  H   UNL A   1      44.653  27.026  33.731  1.00  0.00     0.167 HD
ATOM     49  C   UNL A   1      45.550  26.637  29.469  1.00  0.00     0.037 A 
ATOM     50  C   UNL A   1      45.213  26.781  36.454  1.00  0.00     0.037 A 
ATOM     51  C   UNL A   1      46.767  26.264  30.140  1.00  0.00     0.049 A 
ATOM     52  C   UNL A   1      46.445  26.317  35.730  1.00  0.00     0.074 A 
ATOM     53  C   UNL A   1      47.988  25.923  29.588  1.00  0.00     0.029 A 
ATOM     54  N   UNL A   1      46.907  26.171  31.516  1.00  0.00    -0.354 N 
ATOM     55  N   UNL A   1      46.678  26.270  34.440  1.00  0.00    -0.248 NA
ATOM     56  C   UNL A   1      47.563  25.846  36.560  1.00  0.00     0.031 C 
ATOM     57  C   UNL A   1      48.856  25.578  30.631  1.00  0.00     0.029 A 
ATOM     58  C   UNL A   1      48.184  25.739  31.833  1.00  0.00     0.049 A 
ATOM     59  H   UNL A   1      46.203  26.381  32.171  1.00  0.00     0.167 HD
ATOM     60  C   UNL A   1      47.966  25.770  34.303  1.00  0.00     0.074 A 
ATOM     61  C   UNL A   1      48.474  25.555  35.643  1.00  0.00     0.031 C 
ATOM     62  C   UNL A   1      48.663  25.507  33.172  1.00  0.00     0.037 A 
BRANCH  49  63
ATOM     63  C   UNL A   1      45.504  26.577  27.970  1.00  0.00     0.057 A 
ATOM     64  C   UNL A   1      45.195  25.383  27.309  1.00  0.00     0.134 A 
ATOM     65  C   UNL A   1      45.760  27.706  27.180  1.00  0.00     0.134 A 
ATOM     66  F   UNL A   1      44.943  24.264  28.005  1.00  0.00    -0.206 F 
ATOM     67  C   UNL A   1      45.132  25.316  25.917  1.00  0.00     0.040 A 
ATOM     68  C   UNL A   1      45.675  27.658  25.788  1.00  0.00     0.040 A 
ATOM     69  F   UNL A   1      46.050  28.885  27.751  1.00  0.00    -0.206 F 
ATOM     70  C   UNL A   1      45.363  26.458  25.151  1.00  0.00     0.006 A 
ENDBRANCH  49  63
BRANCH  50  71
ATOM     71  C   UNL A   1      45.154  26.773  37.936  1.00  0.00     0.057 A 
ATOM     72  C   UNL A   1      45.613  27.861  38.687  1.00  0.00     0.134 A 
ATOM     73  C   UNL A   1      44.637  25.676  38.635  1.00  0.00     0.134 A 
ATOM     74  F   UNL A   1      46.122  28.940  38.074  1.00  0.00    -0.206 F 
ATOM     75  C   UNL A   1      45.571  27.855  40.081  1.00  0.00     0.040 A 
ATOM     76  C   UNL A   1      44.569  25.666  40.029  1.00  0.00     0.040 A 
ATOM     77  F   UNL A   1      44.162  24.614  37.968  1.00  0.00    -0.206 F 
ATOM     78  C   UNL A   1      45.043  26.756  40.757  1.00  0.00     0.006 A 
ENDBRANCH  50  71
BRANCH  62  79
ATOM     79  C   UNL A   1      50.041  24.941  33.337  1.00  0.00     0.057 A 
ATOM     80  C   UNL A   1      51.172  25.763  33.268  1.00  0.00     0.134 A 
ATOM     81  C   UNL A   1      50.247  23.569  33.536  1.00  0.00     0.134 A 
ATOM     82  F   UNL A   1      51.043  27.084  33.074  1.00  0.00    -0.206 F 
ATOM     83  C   UNL A   1      52.460  25.240  33.385  1.00  0.00     0.040 A 
ATOM     84  C   UNL A   1      51.529  23.038  33.676  1.00  0.00     0.040 A 
ATOM     85  F   UNL A   1      49.202  22.732  33.626  1.00  0.00    -0.206 F 
ATOM     86  C   UNL A   1      52.641  23.874  33.595  1.00  0.00     0.006 A 
ENDBRANCH  62  79
ENDBRANCH  36  37
ENDBRANCH  29  31
ENDBRANCH  28  29
ENDBRANCH  27  28
ENDBRANCH   1  27
TORSDOF 14
ENDMDL
MODEL 2
REMARK VINA RESULT:     -10.3      3.980      9.291
REMARK SMILES CC1=C(CC(=O)OCCOC(=O)c2ccc(-c3c4nc(c(-c5c(F)cccc5F)c5ccc([nH]5)c(-c5c(F)cccc5F)c5nc(c(-c6c(F)cccc6F)c6ccc3[nH]6)C=C5)C=C4)cc2)c2cc(F)ccc2/C1=C\c1ccc([S@@+](C)[O-])cc1
REMARK SMILES IDX 8 1 7 2 5 3 6 4 4 5 3 6 1 7 2 8 74 9 67 10 73 11 75 12 68 13
REMARK SMILES IDX 72 14 69 15 71 16 70 17 76 18 77 19 84 20 78 21 83 22 79 23
REMARK SMILES IDX 80 24 81 25 82 26 9 27 10 28 11 29 12 30 13 31 14 32 66 33
REMARK SMILES IDX 15 34 65 35 16 36 17 37 18 38 59 39 19 40 64 41 58 42 60 43
REMARK SMILES IDX 20 44 63 45 57 46 56 47 21 49 47 50 30 51 46 52 31 53 34 54
REMARK SMILES IDX 45 55 61 56 32 57 33 58 44 60 62 61 35 62 22 63 23 64 28 65
REMARK SMILES IDX 24 66 25 67 27 68 29 69 26 70 48 71 49 72 54 73 50 74 51 75
REMARK SMILES IDX 53 76 55 77 52 78 36 79 37 80 42 81 38 82 39 83 41 84 43 85
REMARK SMILES IDX 40 86
REMARK H PARENT 60 48 34 59
REMARK Flexibility Score: inf
ROOT
ATOM      1  C   UNL A   1      44.852  19.961  25.213  1.00  0.00     0.274 C 
ENDROOT
BRANCH   1   2
ATOM      2  O   UNL A   1      43.763  20.741  25.751  1.00  0.00    -0.462 OA
BRANCH   2   3
ATOM      3  C   UNL A   1      42.612  20.063  25.994  1.00  0.00     0.310 C 
ATOM      4  O   UNL A   1      42.122  19.230  25.235  1.00  0.00    -0.252 OA
BRANCH   3   5
ATOM      5  C   UNL A   1      41.955  20.390  27.328  1.00  0.00     0.159 C 
BRANCH   5   6
ATOM      6  C   UNL A   1      41.409  21.767  27.506  1.00  0.00    -0.025 C 
ATOM      7  C   UNL A   1      43.313  22.878  28.784  1.00  0.00     0.045 C 
ATOM      8  C   UNL A   1      41.982  22.832  28.113  1.00  0.00    -0.039 C 
ATOM      9  C   UNL A   1      41.099  24.004  27.993  1.00  0.00    -0.014 C 
ATOM     10  C   UNL A   1      40.145  22.221  26.903  1.00  0.00    -0.011 A 
ATOM     11  C   UNL A   1      39.934  23.580  27.189  1.00  0.00    -0.010 A 
ATOM     12  C   UNL A   1      41.360  25.209  28.536  1.00  0.00     0.017 C 
ATOM     13  C   UNL A   1      39.245  21.523  26.110  1.00  0.00     0.048 A 
ATOM     14  C   UNL A   1      38.814  24.237  26.687  1.00  0.00     0.012 A 
ATOM     15  C   UNL A   1      38.115  22.181  25.636  1.00  0.00     0.123 A 
ATOM     16  C   UNL A   1      37.890  23.525  25.920  1.00  0.00     0.040 A 
ATOM     17  F   UNL A   1      37.241  21.519  24.866  1.00  0.00    -0.207 F 
BRANCH  12  18
ATOM     18  C   UNL A   1      40.487  26.376  28.422  1.00  0.00    -0.025 A 
ATOM     19  C   UNL A   1      40.720  27.338  27.434  1.00  0.00     0.013 A 
ATOM     20  C   UNL A   1      39.511  26.605  29.396  1.00  0.00     0.013 A 
ATOM     21  C   UNL A   1      40.064  28.571  27.487  1.00  0.00     0.061 A 
ATOM     22  C   UNL A   1      38.839  27.830  29.433  1.00  0.00     0.061 A 
ATOM     23  C   UNL A   1      39.136  28.835  28.503  1.00  0.00     0.152 A 
BRANCH  23  24
ATOM     24  S   UNL A   1      38.461  30.496  28.747  1.00  0.00    -0.018 S 
ATOM     25  C   UNL A   1      36.849  30.290  27.967  1.00  0.00     0.346 C 
ATOM     26  O   UNL A   1      38.233  30.678  30.290  1.00  0.00    -0.612 OA
ENDBRANCH  23  24
ENDBRANCH  12  18
ENDBRANCH   5   6
ENDBRANCH   3   5
ENDBRANCH   2   3
ENDBRANCH   1   2
BRANCH   1  27
ATOM     27  C   UNL A   1      46.057  20.848  24.915  1.00  0.00     0.275 C 
BRANCH  27  28
ATOM     28  O   UNL A   1      45.988  22.036  25.723  1.00  0.00    -0.458 OA
BRANCH  28  29
ATOM     29  C   UNL A   1      46.098  23.203  25.049  1.00  0.00     0.338 C 
ATOM     30  O   UNL A   1      46.389  23.362  23.877  1.00  0.00    -0.246 OA
BRANCH  29  31
ATOM     31  C   UNL A   1      45.824  24.323  25.966  1.00  0.00     0.060 A 
ATOM     32  C   UNL A   1      44.583  24.954  25.897  1.00  0.00     0.016 A 
ATOM     33  C   UNL A   1      46.746  24.684  26.952  1.00  0.00     0.016 A 
ATOM     34  C   UNL A   1      44.283  25.980  26.793  1.00  0.00     0.010 A 
ATOM     35  C   UNL A   1      46.406  25.640  27.907  1.00  0.00     0.010 A 
ATOM     36  C   UNL A   1      45.187  26.325  27.813  1.00  0.00    -0.014 A 
BRANCH  36  37
ATOM     37  C   UNL A   1      44.872  27.430  28.753  1.00  0.00     0.031 A 
ATOM     38  C   UNL A   1      45.018  28.860  28.310  1.00  0.00     0.074 A 
ATOM     39  C   UNL A   1      44.463  27.150  30.004  1.00  0.00     0.049 A 
ATOM     40  N   UNL A   1      44.735  29.961  28.962  1.00  0.00    -0.248 NA
ATOM     41  C   UNL A   1      45.576  29.089  26.968  1.00  0.00     0.031 C 
ATOM     42  C   UNL A   1      44.344  25.808  30.576  1.00  0.00     0.029 A 
ATOM     43  N   UNL A   1      44.065  27.983  31.019  1.00  0.00    -0.354 N 
ATOM     44  C   UNL A   1      45.081  31.003  28.113  1.00  0.00     0.074 A 
ATOM     45  C   UNL A   1      45.656  30.409  26.926  1.00  0.00     0.031 C 
ATOM     46  C   UNL A   1      43.879  25.906  31.832  1.00  0.00     0.029 A 
ATOM     47  C   UNL A   1      43.686  27.316  32.159  1.00  0.00     0.049 A 
ATOM     48  H   UNL A   1      44.054  28.964  30.940  1.00  0.00     0.167 HD
ATOM     49  C   UNL A   1      44.905  32.334  28.287  1.00  0.00     0.037 A 
ATOM     50  C   UNL A   1      43.232  27.791  33.334  1.00  0.00     0.037 A 
ATOM     51  C   UNL A   1      44.317  32.924  29.459  1.00  0.00     0.049 A 
ATOM     52  C   UNL A   1      43.056  29.272  33.512  1.00  0.00     0.074 A 
ATOM     53  C   UNL A   1      44.008  34.251  29.697  1.00  0.00     0.029 A 
ATOM     54  N   UNL A   1      43.960  32.219  30.598  1.00  0.00    -0.354 N 
ATOM     55  N   UNL A   1      43.281  30.240  32.657  1.00  0.00    -0.248 NA
ATOM     56  C   UNL A   1      42.560  29.728  34.819  1.00  0.00     0.031 C 
ATOM     57  C   UNL A   1      43.508  34.356  31.000  1.00  0.00     0.029 A 
ATOM     58  C   UNL A   1      43.472  33.088  31.559  1.00  0.00     0.049 A 
ATOM     59  H   UNL A   1      44.043  31.244  30.708  1.00  0.00     0.167 HD
ATOM     60  C   UNL A   1      42.953  31.417  33.317  1.00  0.00     0.074 A 
ATOM     61  C   UNL A   1      42.486  31.039  34.636  1.00  0.00     0.031 C 
ATOM     62  C   UNL A   1      43.035  32.695  32.875  1.00  0.00     0.037 A 
BRANCH  49  63
ATOM     63  C   UNL A   1      45.355  33.235  27.174  1.00  0.00     0.057 A 
ATOM     64  C   UNL A   1      44.566  33.412  26.032  1.00  0.00     0.134 A 
ATOM     65  C   UNL A   1      46.569  33.933  27.236  1.00  0.00     0.134 A 
ATOM     66  F   UNL A   1      43.394  32.771  25.905  1.00  0.00    -0.206 F 
ATOM     67  C   UNL A   1      44.963  34.259  24.995  1.00  0.00     0.040 A 
ATOM     68  C   UNL A   1      46.965  34.802  26.218  1.00  0.00     0.040 A 
ATOM     69  F   UNL A   1      47.366  33.817  28.309  1.00  0.00    -0.206 F 
ATOM     70  C   UNL A   1      46.161  34.965  25.091  1.00  0.00     0.006 A 
ENDBRANCH  49  63
BRANCH  50  71
ATOM     71  C   UNL A   1      42.900  26.849  34.431  1.00  0.00     0.057 A 
ATOM     72  C   UNL A   1      41.575  26.484  34.698  1.00  0.00     0.134 A 
ATOM     73  C   UNL A   1      43.900  26.293  35.237  1.00  0.00     0.134 A 
ATOM     74  F   UNL A   1      40.573  26.986  33.962  1.00  0.00    -0.206 F 
ATOM     75  C   UNL A   1      41.255  25.608  35.735  1.00  0.00     0.040 A 
ATOM     76  C   UNL A   1      43.594  25.398  36.264  1.00  0.00     0.040 A 
ATOM     77  F   UNL A   1      45.188  26.589  35.014  1.00  0.00    -0.206 F 
ATOM     78  C   UNL A   1      42.268  25.058  36.519  1.00  0.00     0.006 A 
ENDBRANCH  50  71
BRANCH  62  79
ATOM     79  C   UNL A   1      42.630  33.774  33.833  1.00  0.00     0.057 A 
ATOM     80  C   UNL A   1      41.311  34.242  33.876  1.00  0.00     0.134 A 
ATOM     81  C   UNL A   1      43.559  34.372  34.694  1.00  0.00     0.134 A 
ATOM     82  F   UNL A   1      40.374  33.715  33.073  1.00  0.00    -0.206 F 
ATOM     83  C   UNL A   1      40.932  35.271  34.739  1.00  0.00     0.040 A 
ATOM     84  C   UNL A   1      43.187  35.386  35.577  1.00  0.00     0.040 A 
ATOM     85  F   UNL A   1      44.835  33.957  34.710  1.00  0.00    -0.206 F 
ATOM     86  C   UNL A   1      41.871  35.842  35.596  1.00  0.00     0.006 A 
ENDBRANCH  62  79
ENDBRANCH  36  37
ENDBRANCH  29  31
ENDBRANCH  28  29
ENDBRANCH  27  28
ENDBRANCH   1  27
TORSDOF 14
ENDMDL
MODEL 3
REMARK VINA RESULT:     -10.2      3.906     10.904
REMARK SMILES CC1=C(CC(=O)OCCOC(=O)c2ccc(-c3c4nc(c(-c5c(F)cccc5F)c5ccc([nH]5)c(-c5c(F)cccc5F)c5nc(c(-c6c(F)cccc6F)c6ccc3[nH]6)C=C5)C=C4)cc2)c2cc(F)ccc2/C1=C\c1ccc([S@@+](C)[O-])cc1
REMARK SMILES IDX 8 1 7 2 5 3 6 4 4 5 3 6 1 7 2 8 74 9 67 10 73 11 75 12 68 13
REMARK SMILES IDX 72 14 69 15 71 16 70 17 76 18 77 19 84 20 78 21 83 22 79 23
REMARK SMILES IDX 80 24 81 25 82 26 9 27 10 28 11 29 12 30 13 31 14 32 66 33
REMARK SMILES IDX 15 34 65 35 16 36 17 37 18 38 59 39 19 40 64 41 58 42 60 43
REMARK SMILES IDX 20 44 63 45 57 46 56 47 21 49 47 50 30 51 46 52 31 53 34 54
REMARK SMILES IDX 45 55 61 56 32 57 33 58 44 60 62 61 35 62 22 63 23 64 28 65
REMARK SMILES IDX 24 66 25 67 27 68 29 69 26 70 48 71 49 72 54 73 50 74 51 75
REMARK SMILES IDX 53 76 55 77 52 78 36 79 37 80 42 81 38 82 39 83 41 84 43 85
REMARK SMILES IDX 40 86
REMARK H PARENT 60 48 34 59
REMARK Flexibility Score: inf
ROOT
ATOM      1  C   UNL A   1      44.214  21.926  25.432  1.00  0.00     0.274 C 
ENDROOT
BRANCH   1   2
ATOM      2  O   UNL A   1      42.859  21.443  25.315  1.00  0.00    -0.462 OA
BRANCH   2   3
ATOM      3  C   UNL A   1      42.538  20.385  26.104  1.00  0.00     0.310 C 
ATOM      4  O   UNL A   1      43.119  19.302  26.086  1.00  0.00    -0.252 OA
BRANCH   3   5
ATOM      5  C   UNL A   1      41.387  20.642  27.067  1.00  0.00     0.159 C 
BRANCH   5   6
ATOM      6  C   UNL A   1      40.108  21.148  26.490  1.00  0.00    -0.025 C 
ATOM      7  C   UNL A   1      39.236  19.050  25.335  1.00  0.00     0.045 C 
ATOM      8  C   UNL A   1      39.184  20.478  25.762  1.00  0.00    -0.039 C 
ATOM      9  C   UNL A   1      38.051  21.368  25.460  1.00  0.00    -0.014 C 
ATOM     10  C   UNL A   1      39.581  22.498  26.749  1.00  0.00    -0.011 A 
ATOM     11  C   UNL A   1      38.330  22.656  26.130  1.00  0.00    -0.010 A 
ATOM     12  C   UNL A   1      36.989  21.016  24.710  1.00  0.00     0.017 C 
ATOM     13  C   UNL A   1      40.118  23.523  27.515  1.00  0.00     0.048 A 
ATOM     14  C   UNL A   1      37.622  23.846  26.271  1.00  0.00     0.012 A 
ATOM     15  C   UNL A   1      39.416  24.718  27.628  1.00  0.00     0.123 A 
ATOM     16  C   UNL A   1      38.180  24.891  27.011  1.00  0.00     0.040 A 
ATOM     17  F   UNL A   1      39.923  25.713  28.368  1.00  0.00    -0.207 F 
BRANCH  12  18
ATOM     18  C   UNL A   1      35.862  21.897  24.404  1.00  0.00    -0.025 A 
ATOM     19  C   UNL A   1      35.983  22.881  23.419  1.00  0.00     0.013 A 
ATOM     20  C   UNL A   1      34.714  21.850  25.201  1.00  0.00     0.013 A 
ATOM     21  C   UNL A   1      35.017  23.886  23.309  1.00  0.00     0.061 A 
ATOM     22  C   UNL A   1      33.738  22.841  25.072  1.00  0.00     0.061 A 
ATOM     23  C   UNL A   1      33.899  23.886  24.153  1.00  0.00     0.152 A 
BRANCH  23  24
ATOM     24  S   UNL A   1      32.767  25.298  24.207  1.00  0.00    -0.018 S 
ATOM     25  C   UNL A   1      32.656  25.534  25.991  1.00  0.00     0.346 C 
ATOM     26  O   UNL A   1      33.536  26.526  23.603  1.00  0.00    -0.612 OA
ENDBRANCH  23  24
ENDBRANCH  12  18
ENDBRANCH   5   6
ENDBRANCH   3   5
ENDBRANCH   2   3
ENDBRANCH   1   2
BRANCH   1  27
ATOM     27  C   UNL A   1      44.518  22.952  24.345  1.00  0.00     0.275 C 
BRANCH  27  28
ATOM     28  O   UNL A   1      43.871  24.196  24.665  1.00  0.00    -0.458 OA
BRANCH  28  29
ATOM     29  C   UNL A   1      44.690  25.183  25.093  1.00  0.00     0.338 C 
ATOM     30  O   UNL A   1      45.798  25.466  24.672  1.00  0.00    -0.246 OA
BRANCH  29  31
ATOM     31  C   UNL A   1      44.046  25.904  26.205  1.00  0.00     0.060 A 
ATOM     32  C   UNL A   1      43.404  25.165  27.196  1.00  0.00     0.016 A 
ATOM     33  C   UNL A   1      44.158  27.292  26.320  1.00  0.00     0.016 A 
ATOM     34  C   UNL A   1      42.836  25.825  28.285  1.00  0.00     0.010 A 
ATOM     35  C   UNL A   1      43.678  27.938  27.456  1.00  0.00     0.010 A 
ATOM     36  C   UNL A   1      42.976  27.216  28.431  1.00  0.00    -0.014 A 
BRANCH  36  37
ATOM     37  C   UNL A   1      42.354  27.916  29.582  1.00  0.00     0.031 A 
ATOM     38  C   UNL A   1      42.984  27.836  30.945  1.00  0.00     0.074 A 
ATOM     39  C   UNL A   1      41.219  28.618  29.406  1.00  0.00     0.049 A 
ATOM     40  N   UNL A   1      42.626  28.424  32.059  1.00  0.00    -0.248 NA
ATOM     41  C   UNL A   1      44.160  26.961  31.084  1.00  0.00     0.031 C 
ATOM     42  C   UNL A   1      40.472  28.720  28.150  1.00  0.00     0.029 A 
ATOM     43  N   UNL A   1      40.497  29.383  30.287  1.00  0.00    -0.354 N 
ATOM     44  C   UNL A   1      43.527  27.991  33.023  1.00  0.00     0.074 A 
ATOM     45  C   UNL A   1      44.407  27.040  32.382  1.00  0.00     0.031 C 
ATOM     46  C   UNL A   1      39.412  29.524  28.335  1.00  0.00     0.029 A 
ATOM     47  C   UNL A   1      39.393  29.976  29.723  1.00  0.00     0.049 A 
ATOM     48  H   UNL A   1      40.745  29.495  31.233  1.00  0.00     0.167 HD
ATOM     49  C   UNL A   1      43.635  28.375  34.317  1.00  0.00     0.037 A 
ATOM     50  C   UNL A   1      38.473  30.794  30.266  1.00  0.00     0.037 A 
ATOM     51  C   UNL A   1      42.772  29.335  34.950  1.00  0.00     0.049 A 
ATOM     52  C   UNL A   1      38.604  31.198  31.708  1.00  0.00     0.074 A 
ATOM     53  C   UNL A   1      42.853  29.862  36.225  1.00  0.00     0.029 A 
ATOM     54  N   UNL A   1      41.656  29.901  34.351  1.00  0.00    -0.354 N 
ATOM     55  N   UNL A   1      39.528  30.868  32.577  1.00  0.00    -0.248 NA
ATOM     56  C   UNL A   1      37.565  32.090  32.243  1.00  0.00     0.031 C 
ATOM     57  C   UNL A   1      41.758  30.713  36.416  1.00  0.00     0.029 A 
ATOM     58  C   UNL A   1      41.016  30.742  35.245  1.00  0.00     0.049 A 
ATOM     59  H   UNL A   1      41.362  29.729  33.427  1.00  0.00     0.167 HD
ATOM     60  C   UNL A   1      39.186  31.513  33.759  1.00  0.00     0.074 A 
ATOM     61  C   UNL A   1      37.985  32.275  33.486  1.00  0.00     0.031 C 
ATOM     62  C   UNL A   1      39.807  31.473  34.963  1.00  0.00     0.037 A 
BRANCH  49  63
ATOM     63  C   UNL A   1      44.736  27.751  35.124  1.00  0.00     0.057 A 
ATOM     64  C   UNL A   1      46.003  28.342  35.187  1.00  0.00     0.134 A 
ATOM     65  C   UNL A   1      44.539  26.566  35.847  1.00  0.00     0.134 A 
ATOM     66  F   UNL A   1      46.261  29.475  34.516  1.00  0.00    -0.206 F 
ATOM     67  C   UNL A   1      47.032  27.784  35.947  1.00  0.00     0.040 A 
ATOM     68  C   UNL A   1      45.552  26.012  36.632  1.00  0.00     0.040 A 
ATOM     69  F   UNL A   1      43.344  25.956  35.841  1.00  0.00    -0.206 F 
ATOM     70  C   UNL A   1      46.805  26.620  36.681  1.00  0.00     0.006 A 
ENDBRANCH  49  63
BRANCH  50  71
ATOM     71  C   UNL A   1      37.351  31.296  29.436  1.00  0.00     0.057 A 
ATOM     72  C   UNL A   1      37.386  32.572  28.861  1.00  0.00     0.134 A 
ATOM     73  C   UNL A   1      36.217  30.510  29.198  1.00  0.00     0.134 A 
ATOM     74  F   UNL A   1      38.444  33.372  29.056  1.00  0.00    -0.206 F 
ATOM     75  C   UNL A   1      36.329  33.054  28.089  1.00  0.00     0.040 A 
ATOM     76  C   UNL A   1      35.163  30.972  28.409  1.00  0.00     0.040 A 
ATOM     77  F   UNL A   1      36.136  29.271  29.704  1.00  0.00    -0.206 F 
ATOM     78  C   UNL A   1      35.214  32.251  27.856  1.00  0.00     0.006 A 
ENDBRANCH  50  71
BRANCH  62  79
ATOM     79  C   UNL A   1      39.185  32.261  36.076  1.00  0.00     0.057 A 
ATOM     80  C   UNL A   1      39.558  33.588  36.316  1.00  0.00     0.134 A 
ATOM     81  C   UNL A   1      38.233  31.689  36.931  1.00  0.00     0.134 A 
ATOM     82  F   UNL A   1      40.468  34.192  35.536  1.00  0.00    -0.206 F 
ATOM     83  C   UNL A   1      39.011  34.319  37.372  1.00  0.00     0.040 A 
ATOM     84  C   UNL A   1      37.663  32.417  37.976  1.00  0.00     0.040 A 
ATOM     85  F   UNL A   1      37.824  30.425  36.743  1.00  0.00    -0.206 F 
ATOM     86  C   UNL A   1      38.057  33.734  38.202  1.00  0.00     0.006 A 
ENDBRANCH  62  79
ENDBRANCH  36  37
ENDBRANCH  29  31
ENDBRANCH  28  29
ENDBRANCH  27  28
ENDBRANCH   1  27
TORSDOF 14
ENDMDL
