MODEL 1
REMARK VINA RESULT:     -11.2      0.000      0.000
REMARK SMILES Cc1cccc(CN(C)c2nc(C)c(C(=O)OCCOC(=O)c3ccc(-c4c5nc(c(-c6c(F)cccc6F)c6ccc([nH]6)c(-c6c(F)cccc6F)c6nc(c(-c7c(F)cccc7F)c7ccc4[nH]7)C=C6)C=C5)cc3)s2)n1
REMARK SMILES IDX 18 1 17 2 15 3 16 4 14 5 10 6 11 7 77 8 12 9 13 10 8 11 9 12
REMARK SMILES IDX 7 13 6 14 1 15 2 16 3 17 78 18 4 19 5 20 19 21 20 22 21 23
REMARK SMILES IDX 22 24 23 25 24 26 76 27 25 28 75 29 26 30 27 31 28 32 69 33
REMARK SMILES IDX 29 34 74 35 68 36 70 37 30 38 73 39 67 40 66 41 31 43 57 44
REMARK SMILES IDX 40 45 56 46 41 47 44 48 55 49 71 50 42 51 43 52 54 54 72 55
REMARK SMILES IDX 45 56 32 57 33 58 38 59 34 60 35 61 37 62 39 63 36 64 58 65
REMARK SMILES IDX 59 66 64 67 60 68 61 69 63 70 65 71 62 72 46 73 47 74 52 75
REMARK SMILES IDX 48 76 49 77 51 78 53 79 50 80
REMARK H PARENT 70 42 44 53
REMARK Flexibility Score: inf
ROOT
ATOM      1  C   UNL A   1      42.443  21.209  26.070  1.00  0.00     0.275 C 
ENDROOT
BRANCH   1   2
ATOM      2  O   UNL A   1      41.129  21.665  25.688  1.00  0.00    -0.458 OA
BRANCH   2   3
ATOM      3  C   UNL A   1      40.182  21.653  26.672  1.00  0.00     0.350 C 
ATOM      4  O   UNL A   1      40.399  21.269  27.813  1.00  0.00    -0.245 OA
BRANCH   3   5
ATOM      5  C   UNL A   1      38.937  22.222  26.205  1.00  0.00     0.137 A 
ATOM      6  C   UNL A   1      36.715  22.448  25.199  1.00  0.00     0.186 A 
ATOM      7  N   UNL A   1      37.116  23.597  25.692  1.00  0.00    -0.225 NA
ATOM      8  S   UNL A   1      37.884  21.203  25.312  1.00  0.00    -0.089 S 
ATOM      9  C   UNL A   1      38.372  23.483  26.291  1.00  0.00     0.065 A 
ATOM     10  C   UNL A   1      38.950  24.725  26.871  1.00  0.00     0.069 C 
BRANCH   6  11
ATOM     11  N   UNL A   1      35.542  22.251  24.547  1.00  0.00    -0.345 N 
ATOM     12  C   UNL A   1      35.333  22.952  23.300  1.00  0.00     0.146 C 
BRANCH  11  13
ATOM     13  C   UNL A   1      34.387  21.692  25.249  1.00  0.00     0.174 C 
BRANCH  13  14
ATOM     14  C   UNL A   1      33.820  20.406  24.652  1.00  0.00     0.060 A 
ATOM     15  C   UNL A   1      34.752  16.840  24.487  1.00  0.00     0.067 C 
ATOM     16  C   UNL A   1      33.998  18.114  24.252  1.00  0.00     0.038 A 
ATOM     17  C   UNL A   1      32.858  18.118  23.458  1.00  0.00     0.023 A 
ATOM     18  N   UNL A   1      34.502  19.240  24.814  1.00  0.00    -0.256 NA
ATOM     19  C   UNL A   1      32.185  19.317  23.268  1.00  0.00     0.004 A 
ATOM     20  C   UNL A   1      32.660  20.474  23.878  1.00  0.00     0.026 A 
ENDBRANCH  13  14
ENDBRANCH  11  13
ENDBRANCH   6  11
ENDBRANCH   3   5
ENDBRANCH   2   3
ENDBRANCH   1   2
BRANCH   1  21
ATOM     21  C   UNL A   1      43.533  21.984  25.330  1.00  0.00     0.275 C 
BRANCH  21  22
ATOM     22  O   UNL A   1      43.066  23.299  24.973  1.00  0.00    -0.458 OA
BRANCH  22  23
ATOM     23  C   UNL A   1      43.918  24.317  25.233  1.00  0.00     0.338 C 
ATOM     24  O   UNL A   1      44.967  24.576  24.671  1.00  0.00    -0.246 OA
BRANCH  23  25
ATOM     25  C   UNL A   1      43.339  25.163  26.285  1.00  0.00     0.060 A 
ATOM     26  C   UNL A   1      43.641  26.519  26.268  1.00  0.00     0.016 A 
ATOM     27  C   UNL A   1      42.592  24.625  27.330  1.00  0.00     0.016 A 
ATOM     28  C   UNL A   1      43.253  27.340  27.318  1.00  0.00     0.010 A 
ATOM     29  C   UNL A   1      42.129  25.472  28.349  1.00  0.00     0.010 A 
ATOM     30  C   UNL A   1      42.470  26.838  28.363  1.00  0.00    -0.014 A 
BRANCH  30  31
ATOM     31  C   UNL A   1      42.025  27.746  29.458  1.00  0.00     0.031 A 
ATOM     32  C   UNL A   1      42.791  27.820  30.751  1.00  0.00     0.074 A 
ATOM     33  C   UNL A   1      40.961  28.555  29.276  1.00  0.00     0.049 A 
ATOM     34  N   UNL A   1      42.504  28.481  31.845  1.00  0.00    -0.248 NA
ATOM     35  C   UNL A   1      44.056  27.071  30.820  1.00  0.00     0.031 C 
ATOM     36  C   UNL A   1      40.170  28.651  28.046  1.00  0.00     0.029 A 
ATOM     37  N   UNL A   1      40.363  29.461  30.121  1.00  0.00    -0.354 N 
ATOM     38  C   UNL A   1      43.533  28.209  32.737  1.00  0.00     0.074 A 
ATOM     39  C   UNL A   1      44.453  27.320  32.061  1.00  0.00     0.031 C 
ATOM     40  C   UNL A   1      39.214  29.578  28.207  1.00  0.00     0.029 A 
ATOM     41  C   UNL A   1      39.258  30.071  29.578  1.00  0.00     0.049 A 
ATOM     42  H   UNL A   1      40.696  29.652  31.027  1.00  0.00     0.167 HD
ATOM     43  C   UNL A   1      43.696  28.658  34.005  1.00  0.00     0.037 A 
ATOM     44  C   UNL A   1      38.341  30.890  30.131  1.00  0.00     0.037 A 
ATOM     45  C   UNL A   1      42.785  29.546  34.679  1.00  0.00     0.049 A 
ATOM     46  C   UNL A   1      38.466  31.256  31.582  1.00  0.00     0.074 A 
ATOM     47  C   UNL A   1      42.868  30.053  35.966  1.00  0.00     0.029 A 
ATOM     48  N   UNL A   1      41.619  30.052  34.126  1.00  0.00    -0.354 N 
ATOM     49  N   UNL A   1      39.426  30.967  32.426  1.00  0.00    -0.248 NA
ATOM     50  C   UNL A   1      37.365  32.036  32.167  1.00  0.00     0.031 C 
ATOM     51  C   UNL A   1      41.723  30.819  36.209  1.00  0.00     0.029 A 
ATOM     52  C   UNL A   1      40.952  30.830  35.060  1.00  0.00     0.049 A 
ATOM     53  H   UNL A   1      41.311  29.885  33.207  1.00  0.00     0.167 HD
ATOM     54  C   UNL A   1      39.048  31.529  33.638  1.00  0.00     0.074 A 
ATOM     55  C   UNL A   1      37.784  32.199  33.414  1.00  0.00     0.031 C 
ATOM     56  C   UNL A   1      39.689  31.485  34.830  1.00  0.00     0.037 A 
BRANCH  43  57
ATOM     57  C   UNL A   1      44.885  28.159  34.772  1.00  0.00     0.057 A 
ATOM     58  C   UNL A   1      44.852  26.965  35.502  1.00  0.00     0.134 A 
ATOM     59  C   UNL A   1      46.096  28.863  34.736  1.00  0.00     0.134 A 
ATOM     60  F   UNL A   1      43.719  26.252  35.588  1.00  0.00    -0.206 F 
ATOM     61  C   UNL A   1      45.978  26.496  36.183  1.00  0.00     0.040 A 
ATOM     62  C   UNL A   1      47.233  28.394  35.393  1.00  0.00     0.040 A 
ATOM     63  F   UNL A   1      46.196  30.011  34.049  1.00  0.00    -0.206 F 
ATOM     64  C   UNL A   1      47.176  27.208  36.123  1.00  0.00     0.006 A 
ENDBRANCH  43  57
BRANCH  44  65
ATOM     65  C   UNL A   1      37.179  31.351  29.328  1.00  0.00     0.057 A 
ATOM     66  C   UNL A   1      36.066  30.531  29.120  1.00  0.00     0.134 A 
ATOM     67  C   UNL A   1      37.159  32.626  28.744  1.00  0.00     0.134 A 
ATOM     68  F   UNL A   1      36.037  29.290  29.628  1.00  0.00    -0.206 F 
ATOM     69  C   UNL A   1      34.976  30.958  28.358  1.00  0.00     0.040 A 
ATOM     70  C   UNL A   1      36.065  33.077  28.006  1.00  0.00     0.040 A 
ATOM     71  F   UNL A   1      38.199  33.458  28.898  1.00  0.00    -0.206 F 
ATOM     72  C   UNL A   1      34.971  32.240  27.807  1.00  0.00     0.006 A 
ENDBRANCH  44  65
BRANCH  56  73
ATOM     73  C   UNL A   1      39.039  32.183  35.987  1.00  0.00     0.057 A 
ATOM     74  C   UNL A   1      39.258  33.543  36.238  1.00  0.00     0.134 A 
ATOM     75  C   UNL A   1      38.150  31.504  36.829  1.00  0.00     0.134 A 
ATOM     76  F   UNL A   1      40.111  34.246  35.477  1.00  0.00    -0.206 F 
ATOM     77  C   UNL A   1      38.625  34.200  37.295  1.00  0.00     0.040 A 
ATOM     78  C   UNL A   1      37.493  32.156  37.874  1.00  0.00     0.040 A 
ATOM     79  F   UNL A   1      37.893  30.201  36.639  1.00  0.00    -0.206 F 
ATOM     80  C   UNL A   1      37.733  33.508  38.110  1.00  0.00     0.006 A 
ENDBRANCH  56  73
ENDBRANCH  30  31
ENDBRANCH  23  25
ENDBRANCH  22  23
ENDBRANCH  21  22
ENDBRANCH   1  21
TORSDOF 14
ENDMDL
MODEL 2
REMARK VINA RESULT:     -10.8      0.603      6.247
REMARK SMILES Cc1cccc(CN(C)c2nc(C)c(C(=O)OCCOC(=O)c3ccc(-c4c5nc(c(-c6c(F)cccc6F)c6ccc([nH]6)c(-c6c(F)cccc6F)c6nc(c(-c7c(F)cccc7F)c7ccc4[nH]7)C=C6)C=C5)cc3)s2)n1
REMARK SMILES IDX 18 1 17 2 15 3 16 4 14 5 10 6 11 7 77 8 12 9 13 10 8 11 9 12
REMARK SMILES IDX 7 13 6 14 1 15 2 16 3 17 78 18 4 19 5 20 19 21 20 22 21 23
REMARK SMILES IDX 22 24 23 25 24 26 76 27 25 28 75 29 26 30 27 31 28 32 69 33
REMARK SMILES IDX 29 34 74 35 68 36 70 37 30 38 73 39 67 40 66 41 31 43 57 44
REMARK SMILES IDX 40 45 56 46 41 47 44 48 55 49 71 50 42 51 43 52 54 54 72 55
REMARK SMILES IDX 45 56 32 57 33 58 38 59 34 60 35 61 37 62 39 63 36 64 58 65
REMARK SMILES IDX 59 66 64 67 60 68 61 69 63 70 65 71 62 72 46 73 47 74 52 75
REMARK SMILES IDX 48 76 49 77 51 78 53 79 50 80
REMARK H PARENT 70 42 44 53
REMARK Flexibility Score: inf
ROOT
ATOM      1  C   UNL A   1      42.809  21.909  25.730  1.00  0.00     0.275 C 
ENDROOT
BRANCH   1   2
ATOM      2  O   UNL A   1      41.507  22.526  25.810  1.00  0.00    -0.458 OA
BRANCH   2   3
ATOM      3  C   UNL A   1      40.592  21.889  26.598  1.00  0.00     0.350 C 
ATOM      4  O   UNL A   1      40.895  21.124  27.503  1.00  0.00    -0.245 OA
BRANCH   3   5
ATOM      5  C   UNL A   1      39.245  22.305  26.273  1.00  0.00     0.137 A 
ATOM      6  C   UNL A   1      36.931  22.276  25.469  1.00  0.00     0.186 A 
ATOM      7  N   UNL A   1      37.218  23.441  26.003  1.00  0.00    -0.225 NA
ATOM      8  S   UNL A   1      38.260  21.200  25.406  1.00  0.00    -0.089 S 
ATOM      9  C   UNL A   1      38.528  23.470  26.488  1.00  0.00     0.065 A 
ATOM     10  C   UNL A   1      38.984  24.747  27.099  1.00  0.00     0.069 C 
BRANCH   6  11
ATOM     11  N   UNL A   1      35.740  21.954  24.905  1.00  0.00    -0.345 N 
ATOM     12  C   UNL A   1      35.298  22.729  23.767  1.00  0.00     0.146 C 
BRANCH  11  13
ATOM     13  C   UNL A   1      34.764  21.148  25.637  1.00  0.00     0.174 C 
BRANCH  13  14
ATOM     14  C   UNL A   1      33.997  20.129  24.797  1.00  0.00     0.060 A 
ATOM     15  C   UNL A   1      34.400  16.618  23.739  1.00  0.00     0.067 C 
ATOM     16  C   UNL A   1      33.830  17.999  23.862  1.00  0.00     0.038 A 
ATOM     17  C   UNL A   1      32.673  18.343  23.172  1.00  0.00     0.023 A 
ATOM     18  N   UNL A   1      34.510  18.880  24.635  1.00  0.00    -0.256 NA
ATOM     19  C   UNL A   1      32.173  19.630  23.315  1.00  0.00     0.004 A 
ATOM     20  C   UNL A   1      32.832  20.533  24.145  1.00  0.00     0.026 A 
ENDBRANCH  13  14
ENDBRANCH  11  13
ENDBRANCH   6  11
ENDBRANCH   3   5
ENDBRANCH   2   3
ENDBRANCH   1   2
BRANCH   1  21
ATOM     21  C   UNL A   1      43.763  22.744  24.874  1.00  0.00     0.275 C 
BRANCH  21  22
ATOM     22  O   UNL A   1      43.350  24.123  24.855  1.00  0.00    -0.458 OA
BRANCH  22  23
ATOM     23  C   UNL A   1      44.294  25.025  25.205  1.00  0.00     0.338 C 
ATOM     24  O   UNL A   1      45.337  25.278  24.630  1.00  0.00    -0.246 OA
BRANCH  23  25
ATOM     25  C   UNL A   1      43.833  25.758  26.392  1.00  0.00     0.060 A 
ATOM     26  C   UNL A   1      43.063  25.070  27.322  1.00  0.00     0.016 A 
ATOM     27  C   UNL A   1      44.066  27.122  26.548  1.00  0.00     0.016 A 
ATOM     28  C   UNL A   1      42.471  25.743  28.382  1.00  0.00     0.010 A 
ATOM     29  C   UNL A   1      43.537  27.785  27.666  1.00  0.00     0.010 A 
ATOM     30  C   UNL A   1      42.717  27.105  28.587  1.00  0.00    -0.014 A 
BRANCH  30  31
ATOM     31  C   UNL A   1      42.108  27.800  29.757  1.00  0.00     0.031 A 
ATOM     32  C   UNL A   1      40.844  28.600  29.600  1.00  0.00     0.074 A 
ATOM     33  C   UNL A   1      42.657  27.669  30.982  1.00  0.00     0.049 A 
ATOM     34  N   UNL A   1      40.222  29.344  30.481  1.00  0.00    -0.248 NA
ATOM     35  C   UNL A   1      40.177  28.542  28.289  1.00  0.00     0.031 C 
ATOM     36  C   UNL A   1      43.836  26.859  31.301  1.00  0.00     0.029 A 
ATOM     37  N   UNL A   1      42.291  28.205  32.194  1.00  0.00    -0.354 N 
ATOM     38  C   UNL A   1      39.110  29.861  29.828  1.00  0.00     0.074 A 
ATOM     39  C   UNL A   1      39.141  29.351  28.474  1.00  0.00     0.031 C 
ATOM     40  C   UNL A   1      44.079  26.931  32.617  1.00  0.00     0.029 A 
ATOM     41  C   UNL A   1      43.138  27.866  33.222  1.00  0.00     0.049 A 
ATOM     42  H   UNL A   1      41.499  28.777  32.313  1.00  0.00     0.167 HD
ATOM     43  C   UNL A   1      38.152  30.688  30.312  1.00  0.00     0.037 A 
ATOM     44  C   UNL A   1      43.198  28.301  34.496  1.00  0.00     0.037 A 
ATOM     45  C   UNL A   1      38.116  31.194  31.659  1.00  0.00     0.049 A 
ATOM     46  C   UNL A   1      42.209  29.330  34.967  1.00  0.00     0.074 A 
ATOM     47  C   UNL A   1      37.184  32.039  32.239  1.00  0.00     0.029 A 
ATOM     48  N   UNL A   1      39.058  30.911  32.636  1.00  0.00    -0.354 N 
ATOM     49  N   UNL A   1      41.182  29.837  34.331  1.00  0.00    -0.248 NA
ATOM     50  C   UNL A   1      42.407  29.870  36.320  1.00  0.00     0.031 C 
ATOM     51  C   UNL A   1      37.594  32.312  33.548  1.00  0.00     0.029 A 
ATOM     52  C   UNL A   1      38.753  31.599  33.801  1.00  0.00     0.049 A 
ATOM     53  H   UNL A   1      39.828  30.309  32.521  1.00  0.00     0.167 HD
ATOM     54  C   UNL A   1      40.609  30.752  35.204  1.00  0.00     0.074 A 
ATOM     55  C   UNL A   1      41.387  30.712  36.425  1.00  0.00     0.031 C 
ATOM     56  C   UNL A   1      39.540  31.559  35.007  1.00  0.00     0.037 A 
BRANCH  43  57
ATOM     57  C   UNL A   1      37.081  31.140  29.364  1.00  0.00     0.057 A 
ATOM     58  C   UNL A   1      35.990  30.328  29.033  1.00  0.00     0.134 A 
ATOM     59  C   UNL A   1      37.121  32.429  28.814  1.00  0.00     0.134 A 
ATOM     60  F   UNL A   1      35.900  29.080  29.514  1.00  0.00    -0.206 F 
ATOM     61  C   UNL A   1      34.982  30.777  28.175  1.00  0.00     0.040 A 
ATOM     62  C   UNL A   1      36.110  32.895  27.974  1.00  0.00     0.040 A 
ATOM     63  F   UNL A   1      38.137  33.258  29.096  1.00  0.00    -0.206 F 
ATOM     64  C   UNL A   1      35.037  32.067  27.649  1.00  0.00     0.006 A 
ENDBRANCH  43  57
BRANCH  44  65
ATOM     65  C   UNL A   1      44.283  27.825  35.393  1.00  0.00     0.057 A 
ATOM     66  C   UNL A   1      44.115  26.699  36.205  1.00  0.00     0.134 A 
ATOM     67  C   UNL A   1      45.513  28.494  35.464  1.00  0.00     0.134 A 
ATOM     68  F   UNL A   1      42.951  26.034  36.207  1.00  0.00    -0.206 F 
ATOM     69  C   UNL A   1      45.130  26.256  37.057  1.00  0.00     0.040 A 
ATOM     70  C   UNL A   1      46.546  28.044  36.286  1.00  0.00     0.040 A 
ATOM     71  F   UNL A   1      45.735  29.585  34.716  1.00  0.00    -0.206 F 
ATOM     72  C   UNL A   1      46.353  26.924  37.091  1.00  0.00     0.006 A 
ENDBRANCH  44  65
BRANCH  56  73
ATOM     73  C   UNL A   1      39.143  32.463  36.135  1.00  0.00     0.057 A 
ATOM     74  C   UNL A   1      39.644  33.767  36.240  1.00  0.00     0.134 A 
ATOM     75  C   UNL A   1      38.216  32.047  37.098  1.00  0.00     0.134 A 
ATOM     76  F   UNL A   1      40.547  34.220  35.357  1.00  0.00    -0.206 F 
ATOM     77  C   UNL A   1      39.247  34.620  37.271  1.00  0.00     0.040 A 
ATOM     78  C   UNL A   1      37.793  32.899  38.120  1.00  0.00     0.040 A 
ATOM     79  F   UNL A   1      37.693  30.812  37.052  1.00  0.00    -0.206 F 
ATOM     80  C   UNL A   1      38.312  34.189  38.209  1.00  0.00     0.006 A 
ENDBRANCH  56  73
ENDBRANCH  30  31
ENDBRANCH  23  25
ENDBRANCH  22  23
ENDBRANCH  21  22
ENDBRANCH   1  21
TORSDOF 14
ENDMDL
MODEL 3
REMARK VINA RESULT:     -10.8      1.089      2.224
REMARK SMILES Cc1cccc(CN(C)c2nc(C)c(C(=O)OCCOC(=O)c3ccc(-c4c5nc(c(-c6c(F)cccc6F)c6ccc([nH]6)c(-c6c(F)cccc6F)c6nc(c(-c7c(F)cccc7F)c7ccc4[nH]7)C=C6)C=C5)cc3)s2)n1
REMARK SMILES IDX 18 1 17 2 15 3 16 4 14 5 10 6 11 7 77 8 12 9 13 10 8 11 9 12
REMARK SMILES IDX 7 13 6 14 1 15 2 16 3 17 78 18 4 19 5 20 19 21 20 22 21 23
REMARK SMILES IDX 22 24 23 25 24 26 76 27 25 28 75 29 26 30 27 31 28 32 69 33
REMARK SMILES IDX 29 34 74 35 68 36 70 37 30 38 73 39 67 40 66 41 31 43 57 44
REMARK SMILES IDX 40 45 56 46 41 47 44 48 55 49 71 50 42 51 43 52 54 54 72 55
REMARK SMILES IDX 45 56 32 57 33 58 38 59 34 60 35 61 37 62 39 63 36 64 58 65
REMARK SMILES IDX 59 66 64 67 60 68 61 69 63 70 65 71 62 72 46 73 47 74 52 75
REMARK SMILES IDX 48 76 49 77 51 78 53 79 50 80
REMARK H PARENT 70 42 44 53
REMARK Flexibility Score: inf
ROOT
ATOM      1  C   UNL A   1      42.552  20.888  26.090  1.00  0.00     0.275 C 
ENDROOT
BRANCH   1   2
ATOM      2  O   UNL A   1      41.199  21.257  25.753  1.00  0.00    -0.458 OA
BRANCH   2   3
ATOM      3  C   UNL A   1      40.407  21.644  26.796  1.00  0.00     0.350 C 
ATOM      4  O   UNL A   1      40.746  21.559  27.969  1.00  0.00    -0.245 OA
BRANCH   3   5
ATOM      5  C   UNL A   1      39.172  22.231  26.324  1.00  0.00     0.137 A 
ATOM      6  C   UNL A   1      36.967  22.496  25.290  1.00  0.00     0.186 A 
ATOM      7  N   UNL A   1      37.368  23.630  25.817  1.00  0.00    -0.225 NA
ATOM      8  S   UNL A   1      38.127  21.241  25.392  1.00  0.00    -0.089 S 
ATOM      9  C   UNL A   1      38.614  23.494  26.432  1.00  0.00     0.065 A 
ATOM     10  C   UNL A   1      39.191  24.719  27.050  1.00  0.00     0.069 C 
BRANCH   6  11
ATOM     11  N   UNL A   1      35.803  22.322  24.617  1.00  0.00    -0.345 N 
ATOM     12  C   UNL A   1      34.983  21.183  24.963  1.00  0.00     0.146 C 
BRANCH  11  13
ATOM     13  C   UNL A   1      35.574  23.001  23.342  1.00  0.00     0.174 C 
BRANCH  13  14
ATOM     14  C   UNL A   1      34.553  24.137  23.381  1.00  0.00     0.060 A 
ATOM     15  C   UNL A   1      32.328  25.879  21.010  1.00  0.00     0.067 C 
ATOM     16  C   UNL A   1      33.040  25.531  22.283  1.00  0.00     0.038 A 
ATOM     17  C   UNL A   1      32.815  26.272  23.437  1.00  0.00     0.023 A 
ATOM     18  N   UNL A   1      33.921  24.502  22.234  1.00  0.00    -0.256 NA
ATOM     19  C   UNL A   1      33.489  25.915  24.597  1.00  0.00     0.004 A 
ATOM     20  C   UNL A   1      34.360  24.830  24.577  1.00  0.00     0.026 A 
ENDBRANCH  13  14
ENDBRANCH  11  13
ENDBRANCH   6  11
ENDBRANCH   3   5
ENDBRANCH   2   3
ENDBRANCH   1   2
BRANCH   1  21
ATOM     21  C   UNL A   1      43.560  21.840  25.444  1.00  0.00     0.275 C 
BRANCH  21  22
ATOM     22  O   UNL A   1      43.005  23.164  25.331  1.00  0.00    -0.458 OA
BRANCH  22  23
ATOM     23  C   UNL A   1      43.899  24.178  25.312  1.00  0.00     0.338 C 
ATOM     24  O   UNL A   1      44.797  24.368  24.511  1.00  0.00    -0.246 OA
BRANCH  23  25
ATOM     25  C   UNL A   1      43.577  25.116  26.395  1.00  0.00     0.060 A 
ATOM     26  C   UNL A   1      42.878  24.626  27.491  1.00  0.00     0.016 A 
ATOM     27  C   UNL A   1      43.867  26.474  26.300  1.00  0.00     0.016 A 
ATOM     28  C   UNL A   1      42.411  25.490  28.473  1.00  0.00     0.010 A 
ATOM     29  C   UNL A   1      43.468  27.335  27.334  1.00  0.00     0.010 A 
ATOM     30  C   UNL A   1      42.718  26.855  28.425  1.00  0.00    -0.014 A 
BRANCH  30  31
ATOM     31  C   UNL A   1      42.246  27.759  29.511  1.00  0.00     0.031 A 
ATOM     32  C   UNL A   1      43.002  27.857  30.809  1.00  0.00     0.074 A 
ATOM     33  C   UNL A   1      41.166  28.544  29.316  1.00  0.00     0.049 A 
ATOM     34  N   UNL A   1      42.693  28.519  31.897  1.00  0.00    -0.248 NA
ATOM     35  C   UNL A   1      44.282  27.137  30.890  1.00  0.00     0.031 C 
ATOM     36  C   UNL A   1      40.382  28.616  28.081  1.00  0.00     0.029 A 
ATOM     37  N   UNL A   1      40.544  29.442  30.152  1.00  0.00    -0.354 N 
ATOM     38  C   UNL A   1      43.722  28.274  32.798  1.00  0.00     0.074 A 
ATOM     39  C   UNL A   1      44.665  27.401  32.133  1.00  0.00     0.031 C 
ATOM     40  C   UNL A   1      39.406  29.522  28.229  1.00  0.00     0.029 A 
ATOM     41  C   UNL A   1      39.429  30.025  29.598  1.00  0.00     0.049 A 
ATOM     42  H   UNL A   1      40.866  29.646  31.060  1.00  0.00     0.167 HD
ATOM     43  C   UNL A   1      43.866  28.734  34.064  1.00  0.00     0.037 A 
ATOM     44  C   UNL A   1      38.491  30.826  30.139  1.00  0.00     0.037 A 
ATOM     45  C   UNL A   1      42.931  29.606  34.726  1.00  0.00     0.049 A 
ATOM     46  C   UNL A   1      38.598  31.204  31.589  1.00  0.00     0.074 A 
ATOM     47  C   UNL A   1      42.994  30.123  36.010  1.00  0.00     0.029 A 
ATOM     48  N   UNL A   1      41.758  30.084  34.162  1.00  0.00    -0.354 N 
ATOM     49  N   UNL A   1      39.558  30.941  32.441  1.00  0.00    -0.248 NA
ATOM     50  C   UNL A   1      37.476  31.963  32.162  1.00  0.00     0.031 C 
ATOM     51  C   UNL A   1      41.831  30.865  36.241  1.00  0.00     0.029 A 
ATOM     52  C   UNL A   1      41.068  30.853  35.087  1.00  0.00     0.049 A 
ATOM     53  H   UNL A   1      41.461  29.905  33.242  1.00  0.00     0.167 HD
ATOM     54  C   UNL A   1      39.160  31.502  33.647  1.00  0.00     0.074 A 
ATOM     55  C   UNL A   1      37.883  32.143  33.411  1.00  0.00     0.031 C 
ATOM     56  C   UNL A   1      39.793  31.479  34.844  1.00  0.00     0.037 A 
BRANCH  43  57
ATOM     57  C   UNL A   1      45.060  28.265  34.841  1.00  0.00     0.057 A 
ATOM     58  C   UNL A   1      45.079  27.032  35.504  1.00  0.00     0.134 A 
ATOM     59  C   UNL A   1      46.225  29.043  34.885  1.00  0.00     0.134 A 
ATOM     60  F   UNL A   1      43.991  26.249  35.513  1.00  0.00    -0.206 F 
ATOM     61  C   UNL A   1      46.212  26.595  36.196  1.00  0.00     0.040 A 
ATOM     62  C   UNL A   1      47.369  28.606  35.554  1.00  0.00     0.040 A 
ATOM     63  F   UNL A   1      46.274  30.231  34.265  1.00  0.00    -0.206 F 
ATOM     64  C   UNL A   1      47.364  27.380  36.215  1.00  0.00     0.006 A 
ENDBRANCH  43  57
BRANCH  44  65
ATOM     65  C   UNL A   1      37.325  31.258  29.326  1.00  0.00     0.057 A 
ATOM     66  C   UNL A   1      36.257  30.393  29.069  1.00  0.00     0.134 A 
ATOM     67  C   UNL A   1      37.256  32.548  28.781  1.00  0.00     0.134 A 
ATOM     68  F   UNL A   1      36.276  29.137  29.537  1.00  0.00    -0.206 F 
ATOM     69  C   UNL A   1      35.163  30.793  28.296  1.00  0.00     0.040 A 
ATOM     70  C   UNL A   1      36.157  32.970  28.034  1.00  0.00     0.040 A 
ATOM     71  F   UNL A   1      38.252  33.423  28.984  1.00  0.00    -0.206 F 
ATOM     72  C   UNL A   1      35.108  32.089  27.785  1.00  0.00     0.006 A 
ENDBRANCH  44  65
BRANCH  56  73
ATOM     73  C   UNL A   1      39.120  32.169  35.992  1.00  0.00     0.057 A 
ATOM     74  C   UNL A   1      39.308  33.535  36.237  1.00  0.00     0.134 A 
ATOM     75  C   UNL A   1      38.240  31.476  36.832  1.00  0.00     0.134 A 
ATOM     76  F   UNL A   1      40.151  34.252  35.478  1.00  0.00    -0.206 F 
ATOM     77  C   UNL A   1      38.654  34.185  37.285  1.00  0.00     0.040 A 
ATOM     78  C   UNL A   1      37.562  32.120  37.869  1.00  0.00     0.040 A 
ATOM     79  F   UNL A   1      38.012  30.167  36.648  1.00  0.00    -0.206 F 
ATOM     80  C   UNL A   1      37.771  33.478  38.099  1.00  0.00     0.006 A 
ENDBRANCH  56  73
ENDBRANCH  30  31
ENDBRANCH  23  25
ENDBRANCH  22  23
ENDBRANCH  21  22
ENDBRANCH   1  21
TORSDOF 14
ENDMDL
