MODEL 1
REMARK VINA RESULT:     -13.0      0.000      0.000
REMARK SMILES Cc1ccccc1OC1(C(=O)OCCOC(=O)c2ccc(-c3c4nc(c(-c5c(F)cccc5F)c5ccc([nH]5)c(-c5c(F)cccc5F)c5nc(c(-c6c(F)cccc6F)c6ccc3[nH]6)C=C5)C=C4)cc2)CCN(C(=O)[C@H]2CCCCO2)CC1
REMARK SMILES IDX 13 1 12 2 10 3 11 4 9 5 72 6 84 7 73 8 83 9 74 10 75 11
REMARK SMILES IDX 76 12 8 13 7 14 1 15 2 16 3 17 4 18 6 19 5 20 77 21 78 22
REMARK SMILES IDX 82 23 79 24 81 25 80 26 14 27 15 28 16 29 17 30 18 31 19 32
REMARK SMILES IDX 71 33 20 34 70 35 21 36 22 37 23 38 64 39 24 40 69 41 63 42
REMARK SMILES IDX 65 43 25 44 68 45 62 46 61 47 26 49 52 50 35 51 51 52 36 53
REMARK SMILES IDX 39 54 50 55 66 56 37 57 38 58 49 60 67 61 40 62 27 63 28 64
REMARK SMILES IDX 33 65 29 66 30 67 32 68 34 69 31 70 53 71 54 72 59 73 55 74
REMARK SMILES IDX 56 75 58 76 60 77 57 78 41 79 42 80 47 81 43 82 44 83 46 84
REMARK SMILES IDX 48 85 45 86
REMARK H PARENT 65 48 39 59
REMARK Flexibility Score: inf
ROOT
ATOM      1  C   UNL A   1      32.604  28.894  26.917  1.00  0.00     0.274 C 
ENDROOT
BRANCH   1   2
ATOM      2  O   UNL A   1      32.230  28.409  25.616  1.00  0.00    -0.459 OA
BRANCH   2   3
ATOM      3  C   UNL A   1      31.516  27.238  25.687  1.00  0.00     0.350 C 
ATOM      4  O   UNL A   1      30.969  26.876  26.728  1.00  0.00    -0.247 OA
BRANCH   3   5
ATOM      5  C   UNL A   1      31.656  26.318  24.419  1.00  0.00     0.209 C 
ATOM      6  C   UNL A   1      33.173  26.149  24.390  1.00  0.00     0.082 C 
ATOM      7  C   UNL A   1      30.776  25.092  24.743  1.00  0.00     0.082 C 
ATOM      8  C   UNL A   1      33.683  24.871  25.022  1.00  0.00     0.124 C 
ATOM      9  C   UNL A   1      31.443  23.745  24.607  1.00  0.00     0.124 C 
ATOM     10  N   UNL A   1      32.874  23.666  24.866  1.00  0.00    -0.340 N 
ATOM     11  C   UNL A   1      33.571  22.453  24.972  1.00  0.00     0.251 C 
ATOM     12  O   UNL A   1      34.796  22.455  25.138  1.00  0.00    -0.272 OA
BRANCH   5  13
ATOM     13  O   UNL A   1      31.237  26.959  23.194  1.00  0.00    -0.475 OA
BRANCH  13  14
ATOM     14  C   UNL A   1      30.195  27.852  23.040  1.00  0.00     0.123 A 
ATOM     15  C   UNL A   1      27.997  26.623  23.820  1.00  0.00     0.048 C 
ATOM     16  C   UNL A   1      28.818  27.778  23.337  1.00  0.00    -0.009 A 
ATOM     17  C   UNL A   1      27.978  28.887  23.031  1.00  0.00     0.007 A 
ATOM     18  C   UNL A   1      28.442  30.025  22.393  1.00  0.00     0.001 A 
ATOM     19  C   UNL A   1      30.627  29.017  22.367  1.00  0.00     0.047 A 
ATOM     20  C   UNL A   1      29.776  30.084  22.045  1.00  0.00     0.004 A 
ENDBRANCH  13  14
ENDBRANCH   5  13
BRANCH  11  21
ATOM     21  C   UNL A   1      32.784  21.121  24.887  1.00  0.00     0.207 C 
ATOM     22  C   UNL A   1      32.713  20.617  23.439  1.00  0.00     0.042 C 
ATOM     23  O   UNL A   1      33.468  20.168  25.714  1.00  0.00    -0.368 OA
ATOM     24  C   UNL A   1      32.181  19.192  23.350  1.00  0.00     0.006 C 
ATOM     25  C   UNL A   1      32.884  18.875  25.710  1.00  0.00     0.161 C 
ATOM     26  C   UNL A   1      32.931  18.285  24.312  1.00  0.00     0.029 C 
ENDBRANCH  11  21
ENDBRANCH   3   5
ENDBRANCH   2   3
ENDBRANCH   1   2
BRANCH   1  27
ATOM     27  C   UNL A   1      34.080  28.687  27.272  1.00  0.00     0.275 C 
BRANCH  27  28
ATOM     28  O   UNL A   1      34.968  29.836  27.283  1.00  0.00    -0.458 OA
BRANCH  28  29
ATOM     29  C   UNL A   1      35.844  30.220  28.237  1.00  0.00     0.338 C 
ATOM     30  O   UNL A   1      35.578  31.094  29.063  1.00  0.00    -0.246 OA
BRANCH  29  31
ATOM     31  C   UNL A   1      37.129  29.521  28.307  1.00  0.00     0.060 A 
ATOM     32  C   UNL A   1      38.053  29.724  27.273  1.00  0.00     0.016 A 
ATOM     33  C   UNL A   1      37.446  28.748  29.417  1.00  0.00     0.016 A 
ATOM     34  C   UNL A   1      39.341  29.214  27.377  1.00  0.00     0.010 A 
ATOM     35  C   UNL A   1      38.747  28.320  29.570  1.00  0.00     0.010 A 
ATOM     36  C   UNL A   1      39.682  28.524  28.540  1.00  0.00    -0.014 A 
BRANCH  36  37
ATOM     37  C   UNL A   1      40.851  27.662  28.614  1.00  0.00     0.031 A 
ATOM     38  C   UNL A   1      40.839  26.227  28.293  1.00  0.00     0.074 A 
ATOM     39  C   UNL A   1      41.956  28.338  28.991  1.00  0.00     0.049 A 
ATOM     40  N   UNL A   1      41.612  25.355  28.847  1.00  0.00    -0.248 NA
ATOM     41  C   UNL A   1      39.912  25.637  27.333  1.00  0.00     0.031 C 
ATOM     42  C   UNL A   1      43.349  27.945  28.990  1.00  0.00     0.029 A 
ATOM     43  N   UNL A   1      41.939  29.574  29.655  1.00  0.00    -0.354 N 
ATOM     44  C   UNL A   1      41.499  24.180  28.128  1.00  0.00     0.074 A 
ATOM     45  C   UNL A   1      40.342  24.369  27.285  1.00  0.00     0.031 C 
ATOM     46  C   UNL A   1      44.014  28.758  29.834  1.00  0.00     0.029 A 
ATOM     47  C   UNL A   1      43.020  29.576  30.528  1.00  0.00     0.049 A 
ATOM     48  H   UNL A   1      41.287  30.300  29.526  1.00  0.00     0.167 HD
ATOM     49  C   UNL A   1      42.507  23.258  28.180  1.00  0.00     0.037 A 
ATOM     50  C   UNL A   1      42.780  29.559  31.872  1.00  0.00     0.037 A 
ATOM     51  C   UNL A   1      43.594  23.764  29.010  1.00  0.00     0.049 A 
ATOM     52  C   UNL A   1      43.363  28.323  32.500  1.00  0.00     0.074 A 
ATOM     53  C   UNL A   1      44.707  24.513  28.662  1.00  0.00     0.029 A 
ATOM     54  N   UNL A   1      43.452  23.868  30.386  1.00  0.00    -0.354 N 
ATOM     55  N   UNL A   1      43.399  27.155  31.918  1.00  0.00    -0.248 NA
ATOM     56  C   UNL A   1      44.017  28.340  33.803  1.00  0.00     0.031 C 
ATOM     57  C   UNL A   1      45.181  25.152  29.829  1.00  0.00     0.029 A 
ATOM     58  C   UNL A   1      44.383  24.758  30.889  1.00  0.00     0.049 A 
ATOM     59  H   UNL A   1      42.788  23.381  30.924  1.00  0.00     0.167 HD
ATOM     60  C   UNL A   1      44.137  26.304  32.697  1.00  0.00     0.074 A 
ATOM     61  C   UNL A   1      44.477  27.081  33.875  1.00  0.00     0.031 C 
ATOM     62  C   UNL A   1      44.468  25.038  32.309  1.00  0.00     0.037 A 
BRANCH  49  63
ATOM     63  C   UNL A   1      42.694  22.118  27.196  1.00  0.00     0.057 A 
ATOM     64  C   UNL A   1      41.882  20.964  27.265  1.00  0.00     0.134 A 
ATOM     65  C   UNL A   1      43.672  22.070  26.190  1.00  0.00     0.134 A 
ATOM     66  F   UNL A   1      40.819  20.895  28.078  1.00  0.00    -0.206 F 
ATOM     67  C   UNL A   1      42.111  19.813  26.498  1.00  0.00     0.040 A 
ATOM     68  C   UNL A   1      43.938  20.912  25.438  1.00  0.00     0.040 A 
ATOM     69  F   UNL A   1      44.383  23.156  25.859  1.00  0.00    -0.206 F 
ATOM     70  C   UNL A   1      43.169  19.769  25.607  1.00  0.00     0.006 A 
ENDBRANCH  49  63
BRANCH  50  71
ATOM     71  C   UNL A   1      41.509  30.218  32.316  1.00  0.00     0.057 A 
ATOM     72  C   UNL A   1      41.417  31.627  32.313  1.00  0.00     0.134 A 
ATOM     73  C   UNL A   1      40.312  29.524  32.525  1.00  0.00     0.134 A 
ATOM     74  F   UNL A   1      42.518  32.373  32.127  1.00  0.00    -0.206 F 
ATOM     75  C   UNL A   1      40.197  32.302  32.424  1.00  0.00     0.040 A 
ATOM     76  C   UNL A   1      39.083  30.191  32.655  1.00  0.00     0.040 A 
ATOM     77  F   UNL A   1      40.293  28.184  32.550  1.00  0.00    -0.206 F 
ATOM     78  C   UNL A   1      39.019  31.581  32.579  1.00  0.00     0.006 A 
ENDBRANCH  50  71
BRANCH  62  79
ATOM     79  C   UNL A   1      45.035  23.983  33.215  1.00  0.00     0.057 A 
ATOM     80  C   UNL A   1      46.330  24.043  33.746  1.00  0.00     0.134 A 
ATOM     81  C   UNL A   1      44.216  22.951  33.725  1.00  0.00     0.134 A 
ATOM     82  F   UNL A   1      47.172  25.037  33.429  1.00  0.00    -0.206 F 
ATOM     83  C   UNL A   1      46.801  23.109  34.674  1.00  0.00     0.040 A 
ATOM     84  C   UNL A   1      44.657  22.050  34.695  1.00  0.00     0.040 A 
ATOM     85  F   UNL A   1      42.945  22.793  33.327  1.00  0.00    -0.206 F 
ATOM     86  C   UNL A   1      45.959  22.118  35.163  1.00  0.00     0.006 A 
ENDBRANCH  62  79
ENDBRANCH  36  37
ENDBRANCH  29  31
ENDBRANCH  28  29
ENDBRANCH  27  28
ENDBRANCH   1  27
TORSDOF 14
ENDMDL
MODEL 2
REMARK VINA RESULT:     -12.8      1.355      4.505
REMARK SMILES Cc1ccccc1OC1(C(=O)OCCOC(=O)c2ccc(-c3c4nc(c(-c5c(F)cccc5F)c5ccc([nH]5)c(-c5c(F)cccc5F)c5nc(c(-c6c(F)cccc6F)c6ccc3[nH]6)C=C5)C=C4)cc2)CCN(C(=O)[C@H]2CCCCO2)CC1
REMARK SMILES IDX 13 1 12 2 10 3 11 4 9 5 72 6 84 7 73 8 83 9 74 10 75 11
REMARK SMILES IDX 76 12 8 13 7 14 1 15 2 16 3 17 4 18 6 19 5 20 77 21 78 22
REMARK SMILES IDX 82 23 79 24 81 25 80 26 14 27 15 28 16 29 17 30 18 31 19 32
REMARK SMILES IDX 71 33 20 34 70 35 21 36 22 37 23 38 64 39 24 40 69 41 63 42
REMARK SMILES IDX 65 43 25 44 68 45 62 46 61 47 26 49 52 50 35 51 51 52 36 53
REMARK SMILES IDX 39 54 50 55 66 56 37 57 38 58 49 60 67 61 40 62 27 63 28 64
REMARK SMILES IDX 33 65 29 66 30 67 32 68 34 69 31 70 53 71 54 72 59 73 55 74
REMARK SMILES IDX 56 75 58 76 60 77 57 78 41 79 42 80 47 81 43 82 44 83 46 84
REMARK SMILES IDX 48 85 45 86
REMARK H PARENT 65 48 39 59
REMARK Flexibility Score: inf
ROOT
ATOM      1  C   UNL A   1      32.595  28.666  27.323  1.00  0.00     0.274 C 
ENDROOT
BRANCH   1   2
ATOM      2  O   UNL A   1      33.162  27.548  26.618  1.00  0.00    -0.459 OA
BRANCH   2   3
ATOM      3  C   UNL A   1      32.196  26.718  26.107  1.00  0.00     0.350 C 
ATOM      4  O   UNL A   1      31.610  25.896  26.812  1.00  0.00    -0.247 OA
BRANCH   3   5
ATOM      5  C   UNL A   1      32.077  26.752  24.539  1.00  0.00     0.209 C 
ATOM      6  C   UNL A   1      30.680  26.156  24.375  1.00  0.00     0.082 C 
ATOM      7  C   UNL A   1      32.301  28.234  24.175  1.00  0.00     0.082 C 
ATOM      8  C   UNL A   1      29.572  27.172  24.197  1.00  0.00     0.124 C 
ATOM      9  C   UNL A   1      31.240  28.871  23.310  1.00  0.00     0.124 C 
ATOM     10  N   UNL A   1      29.875  28.381  23.439  1.00  0.00    -0.340 N 
ATOM     11  C   UNL A   1      28.772  29.016  22.848  1.00  0.00     0.251 C 
ATOM     12  O   UNL A   1      27.644  28.519  22.950  1.00  0.00    -0.272 OA
BRANCH   5  13
ATOM     13  O   UNL A   1      33.028  25.894  23.871  1.00  0.00    -0.475 OA
BRANCH  13  14
ATOM     14  C   UNL A   1      33.087  24.516  23.933  1.00  0.00     0.123 A 
ATOM     15  C   UNL A   1      34.458  23.893  26.097  1.00  0.00     0.048 C 
ATOM     16  C   UNL A   1      33.633  23.622  24.876  1.00  0.00    -0.009 A 
ATOM     17  C   UNL A   1      33.552  22.219  24.637  1.00  0.00     0.007 A 
ATOM     18  C   UNL A   1      33.009  21.688  23.480  1.00  0.00     0.001 A 
ATOM     19  C   UNL A   1      32.565  23.938  22.753  1.00  0.00     0.047 A 
ATOM     20  C   UNL A   1      32.526  22.555  22.522  1.00  0.00     0.004 A 
ENDBRANCH  13  14
ENDBRANCH   5  13
BRANCH  11  21
ATOM     21  C   UNL A   1      28.987  30.345  22.079  1.00  0.00     0.207 C 
ATOM     22  C   UNL A   1      27.981  30.481  20.928  1.00  0.00     0.042 C 
ATOM     23  O   UNL A   1      28.815  31.414  23.021  1.00  0.00    -0.368 OA
ATOM     24  C   UNL A   1      27.989  31.878  20.320  1.00  0.00     0.006 C 
ATOM     25  C   UNL A   1      28.946  32.709  22.455  1.00  0.00     0.161 C 
ATOM     26  C   UNL A   1      27.868  32.931  21.408  1.00  0.00     0.029 C 
ENDBRANCH  11  21
ENDBRANCH   3   5
ENDBRANCH   2   3
ENDBRANCH   1   2
BRANCH   1  27
ATOM     27  C   UNL A   1      33.565  29.831  27.550  1.00  0.00     0.275 C 
BRANCH  27  28
ATOM     28  O   UNL A   1      34.993  29.570  27.536  1.00  0.00    -0.458 OA
BRANCH  28  29
ATOM     29  C   UNL A   1      35.964  30.129  28.289  1.00  0.00     0.338 C 
ATOM     30  O   UNL A   1      35.784  31.161  28.938  1.00  0.00    -0.246 OA
BRANCH  29  31
ATOM     31  C   UNL A   1      37.253  29.439  28.366  1.00  0.00     0.060 A 
ATOM     32  C   UNL A   1      38.179  29.641  27.334  1.00  0.00     0.016 A 
ATOM     33  C   UNL A   1      37.573  28.674  29.482  1.00  0.00     0.016 A 
ATOM     34  C   UNL A   1      39.470  29.140  27.444  1.00  0.00     0.010 A 
ATOM     35  C   UNL A   1      38.876  28.255  29.640  1.00  0.00     0.010 A 
ATOM     36  C   UNL A   1      39.812  28.459  28.611  1.00  0.00    -0.014 A 
BRANCH  36  37
ATOM     37  C   UNL A   1      40.987  27.605  28.693  1.00  0.00     0.031 A 
ATOM     38  C   UNL A   1      40.996  26.180  28.329  1.00  0.00     0.074 A 
ATOM     39  C   UNL A   1      42.073  28.277  29.123  1.00  0.00     0.049 A 
ATOM     40  N   UNL A   1      41.761  25.298  28.879  1.00  0.00    -0.248 NA
ATOM     41  C   UNL A   1      40.103  25.612  27.325  1.00  0.00     0.031 C 
ATOM     42  C   UNL A   1      43.470  27.896  29.151  1.00  0.00     0.029 A 
ATOM     43  N   UNL A   1      42.026  29.492  29.823  1.00  0.00    -0.354 N 
ATOM     44  C   UNL A   1      41.679  24.144  28.122  1.00  0.00     0.074 A 
ATOM     45  C   UNL A   1      40.545  24.350  27.250  1.00  0.00     0.031 C 
ATOM     46  C   UNL A   1      44.103  28.688  30.038  1.00  0.00     0.029 A 
ATOM     47  C   UNL A   1      43.082  29.476  30.728  1.00  0.00     0.049 A 
ATOM     48  H   UNL A   1      41.372  30.216  29.698  1.00  0.00     0.167 HD
ATOM     49  C   UNL A   1      42.694  23.230  28.174  1.00  0.00     0.037 A 
ATOM     50  C   UNL A   1      42.803  29.416  32.063  1.00  0.00     0.037 A 
ATOM     51  C   UNL A   1      43.752  23.718  29.051  1.00  0.00     0.049 A 
ATOM     52  C   UNL A   1      43.379  28.166  32.670  1.00  0.00     0.074 A 
ATOM     53  C   UNL A   1      44.867  24.487  28.758  1.00  0.00     0.029 A 
ATOM     54  N   UNL A   1      43.569  23.779  30.424  1.00  0.00    -0.354 N 
ATOM     55  N   UNL A   1      43.442  27.017  32.053  1.00  0.00    -0.248 NA
ATOM     56  C   UNL A   1      43.994  28.149  33.991  1.00  0.00     0.031 C 
ATOM     57  C   UNL A   1      45.302  25.093  29.957  1.00  0.00     0.029 A 
ATOM     58  C   UNL A   1      44.477  24.661  30.981  1.00  0.00     0.049 A 
ATOM     59  H   UNL A   1      42.894  23.270  30.928  1.00  0.00     0.167 HD
ATOM     60  C   UNL A   1      44.165  26.148  32.827  1.00  0.00     0.074 A 
ATOM     61  C   UNL A   1      44.463  26.892  34.038  1.00  0.00     0.031 C 
ATOM     62  C   UNL A   1      44.518  24.898  32.411  1.00  0.00     0.037 A 
BRANCH  49  63
ATOM     63  C   UNL A   1      42.919  22.121  27.162  1.00  0.00     0.057 A 
ATOM     64  C   UNL A   1      42.144  20.941  27.199  1.00  0.00     0.134 A 
ATOM     65  C   UNL A   1      43.901  22.131  26.159  1.00  0.00     0.134 A 
ATOM     66  F   UNL A   1      41.082  20.818  28.006  1.00  0.00    -0.206 F 
ATOM     67  C   UNL A   1      42.411  19.818  26.404  1.00  0.00     0.040 A 
ATOM     68  C   UNL A   1      44.205  21.002  25.378  1.00  0.00     0.040 A 
ATOM     69  F   UNL A   1      44.578  23.247  25.858  1.00  0.00    -0.206 F 
ATOM     70  C   UNL A   1      43.472  19.830  25.515  1.00  0.00     0.006 A 
ENDBRANCH  49  63
BRANCH  50  71
ATOM     71  C   UNL A   1      41.513  30.051  32.489  1.00  0.00     0.057 A 
ATOM     72  C   UNL A   1      41.399  31.458  32.497  1.00  0.00     0.134 A 
ATOM     73  C   UNL A   1      40.325  29.336  32.670  1.00  0.00     0.134 A 
ATOM     74  F   UNL A   1      42.492  32.223  32.337  1.00  0.00    -0.206 F 
ATOM     75  C   UNL A   1      40.167  32.113  32.592  1.00  0.00     0.040 A 
ATOM     76  C   UNL A   1      39.083  29.982  32.784  1.00  0.00     0.040 A 
ATOM     77  F   UNL A   1      40.326  27.996  32.683  1.00  0.00    -0.206 F 
ATOM     78  C   UNL A   1      38.998  31.372  32.719  1.00  0.00     0.006 A 
ENDBRANCH  50  71
BRANCH  62  79
ATOM     79  C   UNL A   1      45.068  23.820  33.301  1.00  0.00     0.057 A 
ATOM     80  C   UNL A   1      46.377  23.831  33.801  1.00  0.00     0.134 A 
ATOM     81  C   UNL A   1      44.225  22.816  33.827  1.00  0.00     0.134 A 
ATOM     82  F   UNL A   1      47.246  24.796  33.467  1.00  0.00    -0.206 F 
ATOM     83  C   UNL A   1      46.835  22.879  34.716  1.00  0.00     0.040 A 
ATOM     84  C   UNL A   1      44.656  21.896  34.784  1.00  0.00     0.040 A 
ATOM     85  F   UNL A   1      42.940  22.704  33.459  1.00  0.00    -0.206 F 
ATOM     86  C   UNL A   1      45.970  21.916  35.222  1.00  0.00     0.006 A 
ENDBRANCH  62  79
ENDBRANCH  36  37
ENDBRANCH  29  31
ENDBRANCH  28  29
ENDBRANCH  27  28
ENDBRANCH   1  27
TORSDOF 14
ENDMDL
MODEL 3
REMARK VINA RESULT:     -12.7      2.960      8.783
REMARK SMILES Cc1ccccc1OC1(C(=O)OCCOC(=O)c2ccc(-c3c4nc(c(-c5c(F)cccc5F)c5ccc([nH]5)c(-c5c(F)cccc5F)c5nc(c(-c6c(F)cccc6F)c6ccc3[nH]6)C=C5)C=C4)cc2)CCN(C(=O)[C@H]2CCCCO2)CC1
REMARK SMILES IDX 13 1 12 2 10 3 11 4 9 5 72 6 84 7 73 8 83 9 74 10 75 11
REMARK SMILES IDX 76 12 8 13 7 14 1 15 2 16 3 17 4 18 6 19 5 20 77 21 78 22
REMARK SMILES IDX 82 23 79 24 81 25 80 26 14 27 15 28 16 29 17 30 18 31 19 32
REMARK SMILES IDX 71 33 20 34 70 35 21 36 22 37 23 38 64 39 24 40 69 41 63 42
REMARK SMILES IDX 65 43 25 44 68 45 62 46 61 47 26 49 52 50 35 51 51 52 36 53
REMARK SMILES IDX 39 54 50 55 66 56 37 57 38 58 49 60 67 61 40 62 27 63 28 64
REMARK SMILES IDX 33 65 29 66 30 67 32 68 34 69 31 70 53 71 54 72 59 73 55 74
REMARK SMILES IDX 56 75 58 76 60 77 57 78 41 79 42 80 47 81 43 82 44 83 46 84
REMARK SMILES IDX 48 85 45 86
REMARK H PARENT 65 48 39 59
REMARK Flexibility Score: inf
ROOT
ATOM      1  C   UNL A   1      35.975  20.363  25.002  1.00  0.00     0.274 C 
ENDROOT
BRANCH   1   2
ATOM      2  O   UNL A   1      35.106  21.504  24.897  1.00  0.00    -0.459 OA
BRANCH   2   3
ATOM      3  C   UNL A   1      34.239  21.591  25.958  1.00  0.00     0.350 C 
ATOM      4  O   UNL A   1      34.586  21.304  27.104  1.00  0.00    -0.247 OA
BRANCH   3   5
ATOM      5  C   UNL A   1      32.743  21.858  25.550  1.00  0.00     0.209 C 
ATOM      6  C   UNL A   1      32.239  22.507  26.837  1.00  0.00     0.082 C 
ATOM      7  C   UNL A   1      32.847  22.718  24.274  1.00  0.00     0.082 C 
ATOM      8  C   UNL A   1      32.216  24.020  26.820  1.00  0.00     0.124 C 
ATOM      9  C   UNL A   1      32.069  24.012  24.283  1.00  0.00     0.124 C 
ATOM     10  N   UNL A   1      31.878  24.680  25.562  1.00  0.00    -0.340 N 
ATOM     11  C   UNL A   1      31.355  25.976  25.683  1.00  0.00     0.251 C 
ATOM     12  O   UNL A   1      31.166  26.467  26.802  1.00  0.00    -0.272 OA
BRANCH   5  13
ATOM     13  O   UNL A   1      31.987  20.650  25.313  1.00  0.00    -0.475 OA
BRANCH  13  14
ATOM     14  C   UNL A   1      32.421  19.517  24.652  1.00  0.00     0.123 A 
ATOM     15  C   UNL A   1      32.049  19.931  22.075  1.00  0.00     0.048 C 
ATOM     16  C   UNL A   1      32.516  19.183  23.285  1.00  0.00    -0.009 A 
ATOM     17  C   UNL A   1      32.994  17.893  22.914  1.00  0.00     0.007 A 
ATOM     18  C   UNL A   1      33.317  16.919  23.843  1.00  0.00     0.001 A 
ATOM     19  C   UNL A   1      32.734  18.489  25.570  1.00  0.00     0.047 A 
ATOM     20  C   UNL A   1      33.171  17.214  25.183  1.00  0.00     0.004 A 
ENDBRANCH  13  14
ENDBRANCH   5  13
BRANCH  11  21
ATOM     21  C   UNL A   1      31.029  26.781  24.398  1.00  0.00     0.207 C 
ATOM     22  C   UNL A   1      29.513  26.868  24.175  1.00  0.00     0.042 C 
ATOM     23  O   UNL A   1      31.586  28.094  24.566  1.00  0.00    -0.368 OA
ATOM     24  C   UNL A   1      29.149  27.863  23.080  1.00  0.00     0.006 C 
ATOM     25  C   UNL A   1      31.336  28.970  23.477  1.00  0.00     0.161 C 
ATOM     26  C   UNL A   1      29.842  29.194  23.321  1.00  0.00     0.029 C 
ENDBRANCH  11  21
ENDBRANCH   3   5
ENDBRANCH   2   3
ENDBRANCH   1   2
BRANCH   1  27
ATOM     27  C   UNL A   1      37.461  20.676  24.794  1.00  0.00     0.275 C 
BRANCH  27  28
ATOM     28  O   UNL A   1      38.142  21.527  25.753  1.00  0.00    -0.458 OA
BRANCH  28  29
ATOM     29  C   UNL A   1      39.393  21.414  26.248  1.00  0.00     0.338 C 
ATOM     30  O   UNL A   1      40.065  20.390  26.114  1.00  0.00    -0.246 OA
BRANCH  29  31
ATOM     31  C   UNL A   1      39.972  22.580  26.917  1.00  0.00     0.060 A 
ATOM     32  C   UNL A   1      40.880  22.365  27.963  1.00  0.00     0.016 A 
ATOM     33  C   UNL A   1      39.688  23.863  26.460  1.00  0.00     0.016 A 
ATOM     34  C   UNL A   1      41.576  23.433  28.516  1.00  0.00     0.010 A 
ATOM     35  C   UNL A   1      40.442  24.912  26.938  1.00  0.00     0.010 A 
ATOM     36  C   UNL A   1      41.358  24.703  27.984  1.00  0.00    -0.014 A 
BRANCH  36  37
ATOM     37  C   UNL A   1      41.747  25.914  28.690  1.00  0.00     0.031 A 
ATOM     38  C   UNL A   1      40.826  27.019  28.999  1.00  0.00     0.074 A 
ATOM     39  C   UNL A   1      43.047  25.898  29.048  1.00  0.00     0.049 A 
ATOM     40  N   UNL A   1      41.183  28.256  29.084  1.00  0.00    -0.248 NA
ATOM     41  C   UNL A   1      39.395  26.825  29.204  1.00  0.00     0.031 C 
ATOM     42  C   UNL A   1      43.794  26.769  29.930  1.00  0.00     0.029 A 
ATOM     43  N   UNL A   1      44.018  25.074  28.461  1.00  0.00    -0.354 N 
ATOM     44  C   UNL A   1      40.126  28.959  29.631  1.00  0.00     0.074 A 
ATOM     45  C   UNL A   1      39.003  28.053  29.567  1.00  0.00     0.031 C 
ATOM     46  C   UNL A   1      45.104  26.632  29.643  1.00  0.00     0.029 A 
ATOM     47  C   UNL A   1      45.205  25.798  28.446  1.00  0.00     0.049 A 
ATOM     48  H   UNL A   1      43.886  24.159  28.125  1.00  0.00     0.167 HD
ATOM     49  C   UNL A   1      40.361  30.151  30.258  1.00  0.00     0.037 A 
ATOM     50  C   UNL A   1      45.717  26.196  27.245  1.00  0.00     0.037 A 
ATOM     51  C   UNL A   1      41.792  30.433  30.257  1.00  0.00     0.049 A 
ATOM     52  C   UNL A   1      45.792  27.696  27.171  1.00  0.00     0.074 A 
ATOM     53  C   UNL A   1      42.766  30.100  31.186  1.00  0.00     0.029 A 
ATOM     54  N   UNL A   1      42.451  30.777  29.086  1.00  0.00    -0.354 N 
ATOM     55  N   UNL A   1      44.910  28.499  27.703  1.00  0.00    -0.248 NA
ATOM     56  C   UNL A   1      46.913  28.395  26.554  1.00  0.00     0.031 C 
ATOM     57  C   UNL A   1      44.019  30.152  30.536  1.00  0.00     0.029 A 
ATOM     58  C   UNL A   1      43.808  30.556  29.228  1.00  0.00     0.049 A 
ATOM     59  H   UNL A   1      42.018  31.127  28.275  1.00  0.00     0.167 HD
ATOM     60  C   UNL A   1      45.369  29.785  27.589  1.00  0.00     0.074 A 
ATOM     61  C   UNL A   1      46.608  29.671  26.840  1.00  0.00     0.031 C 
ATOM     62  C   UNL A   1      44.737  30.854  28.155  1.00  0.00     0.037 A 
BRANCH  49  63
ATOM     63  C   UNL A   1      39.392  30.846  31.196  1.00  0.00     0.057 A 
ATOM     64  C   UNL A   1      39.206  30.380  32.517  1.00  0.00     0.134 A 
ATOM     65  C   UNL A   1      38.586  31.944  30.857  1.00  0.00     0.134 A 
ATOM     66  F   UNL A   1      39.984  29.426  33.046  1.00  0.00    -0.206 F 
ATOM     67  C   UNL A   1      38.212  30.871  33.374  1.00  0.00     0.040 A 
ATOM     68  C   UNL A   1      37.561  32.425  31.691  1.00  0.00     0.040 A 
ATOM     69  F   UNL A   1      38.785  32.630  29.724  1.00  0.00    -0.206 F 
ATOM     70  C   UNL A   1      37.356  31.873  32.948  1.00  0.00     0.006 A 
ENDBRANCH  49  63
BRANCH  50  71
ATOM     71  C   UNL A   1      45.418  25.302  26.079  1.00  0.00     0.057 A 
ATOM     72  C   UNL A   1      46.332  24.285  25.730  1.00  0.00     0.134 A 
ATOM     73  C   UNL A   1      44.175  25.259  25.440  1.00  0.00     0.134 A 
ATOM     74  F   UNL A   1      47.553  24.254  26.291  1.00  0.00    -0.206 F 
ATOM     75  C   UNL A   1      45.999  23.238  24.863  1.00  0.00     0.040 A 
ATOM     76  C   UNL A   1      43.834  24.223  24.554  1.00  0.00     0.040 A 
ATOM     77  F   UNL A   1      43.238  26.182  25.699  1.00  0.00    -0.206 F 
ATOM     78  C   UNL A   1      44.736  23.195  24.284  1.00  0.00     0.006 A 
ENDBRANCH  50  71
BRANCH  62  79
ATOM     79  C   UNL A   1      45.037  32.292  27.845  1.00  0.00     0.057 A 
ATOM     80  C   UNL A   1      44.513  32.962  26.732  1.00  0.00     0.134 A 
ATOM     81  C   UNL A   1      45.732  33.102  28.770  1.00  0.00     0.134 A 
ATOM     82  F   UNL A   1      43.740  32.333  25.835  1.00  0.00    -0.206 F 
ATOM     83  C   UNL A   1      44.714  34.329  26.520  1.00  0.00     0.040 A 
ATOM     84  C   UNL A   1      45.889  34.478  28.598  1.00  0.00     0.040 A 
ATOM     85  F   UNL A   1      46.263  32.599  29.895  1.00  0.00    -0.206 F 
ATOM     86  C   UNL A   1      45.390  35.095  27.462  1.00  0.00     0.006 A 
ENDBRANCH  62  79
ENDBRANCH  36  37
ENDBRANCH  29  31
ENDBRANCH  28  29
ENDBRANCH  27  28
ENDBRANCH   1  27
TORSDOF 14
ENDMDL
