MODEL 1
REMARK VINA RESULT:     -12.3      0.000      0.000
REMARK SMILES Cc1cccc(N2CCN(c3ncc(NC(=O)c4ccccc4F)cc3C(=O)OCCOC(=O)c3ccc(-c4c5nc(c(-c6c(F)cccc6F)c6ccc([nH]6)c(-c6c(F)cccc6F)c6nc(c(-c7c(F)cccc7F)c7ccc4[nH]7)C=C6)C=C5)cc3)C[C@@H]2C)c1
REMARK SMILES IDX 30 1 29 2 27 3 28 4 26 5 11 6 12 7 13 8 25 9 14 10 10 11
REMARK SMILES IDX 7 12 8 13 90 14 9 15 89 16 91 17 6 18 1 19 2 20 3 21 92 22
REMARK SMILES IDX 4 23 5 24 15 25 16 26 17 28 18 29 19 30 23 31 20 32 22 33
REMARK SMILES IDX 24 34 21 35 31 36 32 37 33 38 34 39 35 40 36 41 88 42 37 43
REMARK SMILES IDX 87 44 38 45 39 46 40 47 81 48 41 49 86 50 80 51 82 52 42 53
REMARK SMILES IDX 85 54 79 55 78 56 43 58 69 59 52 60 68 61 53 62 56 63 67 64
REMARK SMILES IDX 83 65 54 66 55 67 66 69 84 70 57 71 44 72 45 73 50 74 46 75
REMARK SMILES IDX 47 76 49 77 51 78 48 79 70 80 71 81 76 82 72 83 73 84 75 85
REMARK SMILES IDX 77 86 74 87 58 88 59 89 64 90 60 91 61 92 63 93 65 94 62 95
REMARK H PARENT 15 27 82 57 56 68
REMARK Flexibility Score: inf
ROOT
ATOM      1  C   UNL A   1      33.350  27.029  26.557  1.00  0.00     0.275 C 
ENDROOT
BRANCH   1   2
ATOM      2  O   UNL A   1      32.036  26.518  26.930  1.00  0.00    -0.458 OA
BRANCH   2   3
ATOM      3  C   UNL A   1      31.840  25.225  26.531  1.00  0.00     0.342 C 
ATOM      4  O   UNL A   1      31.838  24.279  27.323  1.00  0.00    -0.246 OA
BRANCH   3   5
ATOM      5  C   UNL A   1      31.998  24.880  25.096  1.00  0.00     0.104 A 
ATOM      6  C   UNL A   1      31.399  25.346  23.881  1.00  0.00     0.143 A 
ATOM      7  N   UNL A   1      31.387  24.458  22.832  1.00  0.00    -0.236 NA
ATOM      8  C   UNL A   1      31.803  23.167  22.967  1.00  0.00     0.139 A 
ATOM      9  C   UNL A   1      32.488  23.547  25.159  1.00  0.00     0.047 A 
ATOM     10  C   UNL A   1      32.346  22.661  24.122  1.00  0.00     0.061 A 
BRANCH   6  11
ATOM     11  N   UNL A   1      30.657  26.542  23.615  1.00  0.00    -0.352 N 
ATOM     12  N   UNL A   1      29.468  29.259  23.234  1.00  0.00    -0.365 N 
ATOM     13  C   UNL A   1      30.935  29.105  23.209  1.00  0.00     0.138 C 
ATOM     14  C   UNL A   1      28.662  28.232  23.974  1.00  0.00     0.098 C 
ATOM     15  C   UNL A   1      31.561  27.731  23.537  1.00  0.00     0.139 C 
ATOM     16  C   UNL A   1      29.477  26.914  24.456  1.00  0.00     0.142 C 
ATOM     17  C   UNL A   1      27.386  27.847  23.206  1.00  0.00     0.033 C 
BRANCH  12  18
ATOM     18  C   UNL A   1      28.934  30.457  22.694  1.00  0.00     0.037 A 
ATOM     19  C   UNL A   1      27.691  32.009  19.383  1.00  0.00     0.044 C 
ATOM     20  C   UNL A   1      28.184  31.870  20.795  1.00  0.00    -0.049 A 
ATOM     21  C   UNL A   1      28.247  33.023  21.577  1.00  0.00     0.003 A 
ATOM     22  C   UNL A   1      28.556  30.615  21.346  1.00  0.00     0.029 A 
ATOM     23  C   UNL A   1      28.535  32.903  22.920  1.00  0.00     0.002 A 
ATOM     24  C   UNL A   1      28.808  31.637  23.466  1.00  0.00     0.026 A 
ENDBRANCH  12  18
ENDBRANCH   6  11
BRANCH  10  25
ATOM     25  N   UNL A   1      32.745  21.337  24.358  1.00  0.00    -0.320 N 
ATOM     26  C   UNL A   1      34.009  20.836  24.550  1.00  0.00     0.258 C 
ATOM     27  H   UNL A   1      32.017  20.674  24.389  1.00  0.00     0.170 HD
ATOM     28  O   UNL A   1      34.199  19.624  24.593  1.00  0.00    -0.269 OA
BRANCH  26  29
ATOM     29  C   UNL A   1      35.136  21.758  24.770  1.00  0.00     0.075 A 
ATOM     30  C   UNL A   1      35.779  22.299  23.656  1.00  0.00     0.017 A 
ATOM     31  C   UNL A   1      35.564  22.104  26.055  1.00  0.00     0.135 A 
ATOM     32  C   UNL A   1      36.769  23.263  23.839  1.00  0.00     0.001 A 
ATOM     33  C   UNL A   1      36.512  23.100  26.239  1.00  0.00     0.040 A 
ATOM     34  F   UNL A   1      35.068  21.499  27.144  1.00  0.00    -0.206 F 
ATOM     35  C   UNL A   1      37.108  23.689  25.127  1.00  0.00     0.003 A 
ENDBRANCH  26  29
ENDBRANCH  10  25
ENDBRANCH   3   5
ENDBRANCH   2   3
ENDBRANCH   1   2
BRANCH   1  36
ATOM     36  C   UNL A   1      33.555  28.560  26.654  1.00  0.00     0.275 C 
BRANCH  36  37
ATOM     37  O   UNL A   1      33.753  29.195  27.931  1.00  0.00    -0.458 OA
BRANCH  37  38
ATOM     38  C   UNL A   1      34.486  30.318  27.948  1.00  0.00     0.338 C 
ATOM     39  O   UNL A   1      33.982  31.433  27.894  1.00  0.00    -0.246 OA
BRANCH  38  40
ATOM     40  C   UNL A   1      35.920  30.035  28.178  1.00  0.00     0.060 A 
ATOM     41  C   UNL A   1      36.289  29.535  29.427  1.00  0.00     0.016 A 
ATOM     42  C   UNL A   1      36.829  30.026  27.132  1.00  0.00     0.016 A 
ATOM     43  C   UNL A   1      37.494  28.893  29.640  1.00  0.00     0.010 A 
ATOM     44  C   UNL A   1      38.043  29.410  27.329  1.00  0.00     0.010 A 
ATOM     45  C   UNL A   1      38.367  28.858  28.580  1.00  0.00    -0.014 A 
BRANCH  45  46
ATOM     46  C   UNL A   1      39.730  28.415  28.744  1.00  0.00     0.031 A 
ATOM     47  C   UNL A   1      40.089  27.002  28.492  1.00  0.00     0.074 A 
ATOM     48  C   UNL A   1      40.558  29.457  28.983  1.00  0.00     0.049 A 
ATOM     49  N   UNL A   1      41.113  26.415  29.013  1.00  0.00    -0.248 NA
ATOM     50  C   UNL A   1      39.270  26.070  27.702  1.00  0.00     0.031 C 
ATOM     51  C   UNL A   1      41.964  29.611  28.692  1.00  0.00     0.029 A 
ATOM     52  N   UNL A   1      40.246  30.683  29.584  1.00  0.00    -0.354 N 
ATOM     53  C   UNL A   1      41.330  25.279  28.252  1.00  0.00     0.074 A 
ATOM     54  C   UNL A   1      40.061  24.989  27.635  1.00  0.00     0.031 C 
ATOM     55  C   UNL A   1      42.433  30.684  29.362  1.00  0.00     0.029 A 
ATOM     56  C   UNL A   1      41.384  31.124  30.266  1.00  0.00     0.049 A 
ATOM     57  H   UNL A   1      39.381  31.150  29.536  1.00  0.00     0.167 HD
ATOM     58  C   UNL A   1      42.620  24.913  27.991  1.00  0.00     0.037 A 
ATOM     59  C   UNL A   1      41.503  31.210  31.634  1.00  0.00     0.037 A 
ATOM     60  C   UNL A   1      43.524  25.843  28.653  1.00  0.00     0.049 A 
ATOM     61  C   UNL A   1      42.576  30.292  32.169  1.00  0.00     0.074 A 
ATOM     62  C   UNL A   1      44.093  27.016  28.187  1.00  0.00     0.029 A 
ATOM     63  N   UNL A   1      43.621  25.866  30.032  1.00  0.00    -0.354 N 
ATOM     64  N   UNL A   1      42.995  29.257  31.508  1.00  0.00    -0.248 NA
ATOM     65  C   UNL A   1      43.112  30.354  33.526  1.00  0.00     0.031 C 
ATOM     66  C   UNL A   1      44.509  27.770  29.305  1.00  0.00     0.029 A 
ATOM     67  C   UNL A   1      44.173  27.063  30.444  1.00  0.00     0.049 A 
ATOM     68  H   UNL A   1      43.338  25.137  30.630  1.00  0.00     0.167 HD
ATOM     69  C   UNL A   1      43.812  28.513  32.303  1.00  0.00     0.074 A 
ATOM     70  C   UNL A   1      43.874  29.246  33.553  1.00  0.00     0.031 C 
ATOM     71  C   UNL A   1      44.340  27.340  31.857  1.00  0.00     0.037 A 
BRANCH  58  72
ATOM     72  C   UNL A   1      43.095  24.026  26.860  1.00  0.00     0.057 A 
ATOM     73  C   UNL A   1      43.262  22.637  27.073  1.00  0.00     0.134 A 
ATOM     74  C   UNL A   1      43.412  24.451  25.562  1.00  0.00     0.134 A 
ATOM     75  F   UNL A   1      42.938  22.048  28.231  1.00  0.00    -0.206 F 
ATOM     76  C   UNL A   1      43.770  21.760  26.110  1.00  0.00     0.040 A 
ATOM     77  C   UNL A   1      43.935  23.581  24.586  1.00  0.00     0.040 A 
ATOM     78  F   UNL A   1      43.194  25.711  25.164  1.00  0.00    -0.206 F 
ATOM     79  C   UNL A   1      44.124  22.233  24.862  1.00  0.00     0.006 A 
ENDBRANCH  58  72
BRANCH  59  80
ATOM     80  C   UNL A   1      40.204  31.280  32.362  1.00  0.00     0.057 A 
ATOM     81  C   UNL A   1      39.699  30.081  32.887  1.00  0.00     0.134 A 
ATOM     82  C   UNL A   1      39.951  32.479  33.040  1.00  0.00     0.134 A 
ATOM     83  F   UNL A   1      39.827  28.930  32.214  1.00  0.00    -0.206 F 
ATOM     84  C   UNL A   1      39.288  30.035  34.207  1.00  0.00     0.040 A 
ATOM     85  C   UNL A   1      39.582  32.445  34.360  1.00  0.00     0.040 A 
ATOM     86  F   UNL A   1      40.210  33.675  32.496  1.00  0.00    -0.206 F 
ATOM     87  C   UNL A   1      39.312  31.214  34.945  1.00  0.00     0.006 A 
ENDBRANCH  59  80
BRANCH  71  88
ATOM     88  C   UNL A   1      45.165  26.412  32.678  1.00  0.00     0.057 A 
ATOM     89  C   UNL A   1      44.654  25.597  33.692  1.00  0.00     0.134 A 
ATOM     90  C   UNL A   1      46.537  26.259  32.389  1.00  0.00     0.134 A 
ATOM     91  F   UNL A   1      43.340  25.541  33.950  1.00  0.00    -0.206 F 
ATOM     92  C   UNL A   1      45.482  24.772  34.456  1.00  0.00     0.040 A 
ATOM     93  C   UNL A   1      47.358  25.390  33.098  1.00  0.00     0.040 A 
ATOM     94  F   UNL A   1      47.132  26.941  31.398  1.00  0.00    -0.206 F 
ATOM     95  C   UNL A   1      46.837  24.669  34.162  1.00  0.00     0.006 A 
ENDBRANCH  71  88
ENDBRANCH  45  46
ENDBRANCH  38  40
ENDBRANCH  37  38
ENDBRANCH  36  37
ENDBRANCH   1  36
TORSDOF 15
ENDMDL
MODEL 2
REMARK VINA RESULT:     -12.0      2.370      6.310
REMARK SMILES Cc1cccc(N2CCN(c3ncc(NC(=O)c4ccccc4F)cc3C(=O)OCCOC(=O)c3ccc(-c4c5nc(c(-c6c(F)cccc6F)c6ccc([nH]6)c(-c6c(F)cccc6F)c6nc(c(-c7c(F)cccc7F)c7ccc4[nH]7)C=C6)C=C5)cc3)C[C@@H]2C)c1
REMARK SMILES IDX 30 1 29 2 27 3 28 4 26 5 11 6 12 7 13 8 25 9 14 10 10 11
REMARK SMILES IDX 7 12 8 13 90 14 9 15 89 16 91 17 6 18 1 19 2 20 3 21 92 22
REMARK SMILES IDX 4 23 5 24 15 25 16 26 17 28 18 29 19 30 23 31 20 32 22 33
REMARK SMILES IDX 24 34 21 35 31 36 32 37 33 38 34 39 35 40 36 41 88 42 37 43
REMARK SMILES IDX 87 44 38 45 39 46 40 47 81 48 41 49 86 50 80 51 82 52 42 53
REMARK SMILES IDX 85 54 79 55 78 56 43 58 69 59 52 60 68 61 53 62 56 63 67 64
REMARK SMILES IDX 83 65 54 66 55 67 66 69 84 70 57 71 44 72 45 73 50 74 46 75
REMARK SMILES IDX 47 76 49 77 51 78 48 79 70 80 71 81 76 82 72 83 73 84 75 85
REMARK SMILES IDX 77 86 74 87 58 88 59 89 64 90 60 91 61 92 63 93 65 94 62 95
REMARK H PARENT 15 27 82 57 56 68
REMARK Flexibility Score: inf
ROOT
ATOM      1  C   UNL A   1      32.680  26.961  26.516  1.00  0.00     0.275 C 
ENDROOT
BRANCH   1   2
ATOM      2  O   UNL A   1      31.471  26.299  26.992  1.00  0.00    -0.458 OA
BRANCH   2   3
ATOM      3  C   UNL A   1      31.459  24.960  26.719  1.00  0.00     0.342 C 
ATOM      4  O   UNL A   1      31.489  24.102  27.604  1.00  0.00    -0.246 OA
BRANCH   3   5
ATOM      5  C   UNL A   1      31.790  24.501  25.346  1.00  0.00     0.104 A 
ATOM      6  C   UNL A   1      31.501  24.986  24.030  1.00  0.00     0.143 A 
ATOM      7  N   UNL A   1      31.502  24.049  23.025  1.00  0.00    -0.236 NA
ATOM      8  C   UNL A   1      31.642  22.716  23.274  1.00  0.00     0.139 A 
ATOM      9  C   UNL A   1      32.007  23.109  25.539  1.00  0.00     0.047 A 
ATOM     10  C   UNL A   1      31.879  22.197  24.523  1.00  0.00     0.061 A 
BRANCH   6  11
ATOM     11  N   UNL A   1      31.051  26.275  23.597  1.00  0.00    -0.352 N 
ATOM     12  N   UNL A   1      29.703  28.761  22.625  1.00  0.00    -0.365 N 
ATOM     13  C   UNL A   1      28.901  27.725  23.300  1.00  0.00     0.138 C 
ATOM     14  C   UNL A   1      30.982  28.343  21.959  1.00  0.00     0.098 C 
ATOM     15  C   UNL A   1      29.561  26.382  23.687  1.00  0.00     0.139 C 
ATOM     16  C   UNL A   1      31.475  26.829  22.274  1.00  0.00     0.142 C 
ATOM     17  C   UNL A   1      32.111  29.358  22.205  1.00  0.00     0.033 C 
BRANCH  12  18
ATOM     18  C   UNL A   1      29.129  30.053  22.513  1.00  0.00     0.037 A 
ATOM     19  C   UNL A   1      27.699  32.531  19.918  1.00  0.00     0.044 C 
ATOM     20  C   UNL A   1      28.266  31.970  21.191  1.00  0.00    -0.049 A 
ATOM     21  C   UNL A   1      28.358  32.821  22.291  1.00  0.00     0.003 A 
ATOM     22  C   UNL A   1      28.680  30.615  21.303  1.00  0.00     0.029 A 
ATOM     23  C   UNL A   1      28.717  32.294  23.514  1.00  0.00     0.002 A 
ATOM     24  C   UNL A   1      29.031  30.928  23.622  1.00  0.00     0.026 A 
ENDBRANCH  12  18
ENDBRANCH   6  11
BRANCH  10  25
ATOM     25  N   UNL A   1      31.979  20.841  24.869  1.00  0.00    -0.320 N 
ATOM     26  C   UNL A   1      33.097  20.111  25.186  1.00  0.00     0.258 C 
ATOM     27  H   UNL A   1      31.129  20.344  24.886  1.00  0.00     0.170 HD
ATOM     28  O   UNL A   1      33.028  18.891  25.318  1.00  0.00    -0.269 OA
BRANCH  26  29
ATOM     29  C   UNL A   1      34.375  20.799  25.435  1.00  0.00     0.075 A 
ATOM     30  C   UNL A   1      35.346  20.778  24.433  1.00  0.00     0.017 A 
ATOM     31  C   UNL A   1      34.628  21.471  26.634  1.00  0.00     0.135 A 
ATOM     32  C   UNL A   1      36.514  21.519  24.598  1.00  0.00     0.001 A 
ATOM     33  C   UNL A   1      35.767  22.251  26.779  1.00  0.00     0.040 A 
ATOM     34  F   UNL A   1      33.783  21.394  27.671  1.00  0.00    -0.206 F 
ATOM     35  C   UNL A   1      36.707  22.284  25.752  1.00  0.00     0.003 A 
ENDBRANCH  26  29
ENDBRANCH  10  25
ENDBRANCH   3   5
ENDBRANCH   2   3
ENDBRANCH   1   2
BRANCH   1  36
ATOM     36  C   UNL A   1      33.072  28.284  27.218  1.00  0.00     0.275 C 
BRANCH  36  37
ATOM     37  O   UNL A   1      33.714  29.343  26.483  1.00  0.00    -0.458 OA
BRANCH  37  38
ATOM     38  C   UNL A   1      33.734  30.558  27.052  1.00  0.00     0.338 C 
ATOM     39  O   UNL A   1      32.761  31.301  27.047  1.00  0.00    -0.246 OA
BRANCH  38  40
ATOM     40  C   UNL A   1      34.998  30.803  27.780  1.00  0.00     0.060 A 
ATOM     41  C   UNL A   1      34.920  31.478  28.999  1.00  0.00     0.016 A 
ATOM     42  C   UNL A   1      36.178  30.181  27.406  1.00  0.00     0.016 A 
ATOM     43  C   UNL A   1      35.940  31.439  29.931  1.00  0.00     0.010 A 
ATOM     44  C   UNL A   1      37.213  30.148  28.311  1.00  0.00     0.010 A 
ATOM     45  C   UNL A   1      37.088  30.784  29.559  1.00  0.00    -0.014 A 
BRANCH  45  46
ATOM     46  C   UNL A   1      38.291  30.864  30.352  1.00  0.00     0.031 A 
ATOM     47  C   UNL A   1      38.885  32.181  30.673  1.00  0.00     0.074 A 
ATOM     48  C   UNL A   1      38.641  29.650  30.834  1.00  0.00     0.049 A 
ATOM     49  N   UNL A   1      40.129  32.357  30.963  1.00  0.00    -0.248 NA
ATOM     50  C   UNL A   1      38.155  33.456  30.601  1.00  0.00     0.031 C 
ATOM     51  C   UNL A   1      39.373  29.302  32.028  1.00  0.00     0.029 A 
ATOM     52  N   UNL A   1      38.366  28.393  30.280  1.00  0.00    -0.354 N 
ATOM     53  C   UNL A   1      40.207  33.599  31.572  1.00  0.00     0.074 A 
ATOM     54  C   UNL A   1      39.046  34.317  31.113  1.00  0.00     0.031 C 
ATOM     55  C   UNL A   1      39.736  28.004  31.955  1.00  0.00     0.029 A 
ATOM     56  C   UNL A   1      39.422  27.541  30.613  1.00  0.00     0.049 A 
ATOM     57  H   UNL A   1      37.571  28.153  29.752  1.00  0.00     0.167 HD
ATOM     58  C   UNL A   1      41.064  33.749  32.626  1.00  0.00     0.037 A 
ATOM     59  C   UNL A   1      40.335  27.025  29.721  1.00  0.00     0.037 A 
ATOM     60  C   UNL A   1      41.772  32.497  32.848  1.00  0.00     0.049 A 
ATOM     61  C   UNL A   1      41.739  27.496  30.011  1.00  0.00     0.074 A 
ATOM     62  C   UNL A   1      41.453  31.426  33.666  1.00  0.00     0.029 A 
ATOM     63  N   UNL A   1      42.698  32.041  31.928  1.00  0.00    -0.354 N 
ATOM     64  N   UNL A   1      41.983  28.572  30.696  1.00  0.00    -0.248 NA
ATOM     65  C   UNL A   1      42.941  26.919  29.414  1.00  0.00     0.031 C 
ATOM     66  C   UNL A   1      42.174  30.302  33.211  1.00  0.00     0.029 A 
ATOM     67  C   UNL A   1      42.912  30.688  32.107  1.00  0.00     0.049 A 
ATOM     68  H   UNL A   1      43.140  32.599  31.247  1.00  0.00     0.167 HD
ATOM     69  C   UNL A   1      43.313  28.855  30.635  1.00  0.00     0.074 A 
ATOM     70  C   UNL A   1      43.880  27.785  29.837  1.00  0.00     0.031 C 
ATOM     71  C   UNL A   1      43.816  29.971  31.230  1.00  0.00     0.037 A 
BRANCH  58  72
ATOM     72  C   UNL A   1      40.997  34.816  33.698  1.00  0.00     0.057 A 
ATOM     73  C   UNL A   1      42.053  35.748  33.833  1.00  0.00     0.134 A 
ATOM     74  C   UNL A   1      39.958  34.984  34.623  1.00  0.00     0.134 A 
ATOM     75  F   UNL A   1      43.092  35.779  32.989  1.00  0.00    -0.206 F 
ATOM     76  C   UNL A   1      42.110  36.714  34.843  1.00  0.00     0.040 A 
ATOM     77  C   UNL A   1      40.007  35.945  35.651  1.00  0.00     0.040 A 
ATOM     78  F   UNL A   1      38.832  34.262  34.553  1.00  0.00    -0.206 F 
ATOM     79  C   UNL A   1      41.090  36.807  35.769  1.00  0.00     0.006 A 
ENDBRANCH  58  72
BRANCH  59  80
ATOM     80  C   UNL A   1      39.870  27.012  28.305  1.00  0.00     0.057 A 
ATOM     81  C   UNL A   1      40.334  28.039  27.469  1.00  0.00     0.134 A 
ATOM     82  C   UNL A   1      39.628  25.746  27.757  1.00  0.00     0.134 A 
ATOM     83  F   UNL A   1      40.475  29.288  27.931  1.00  0.00    -0.206 F 
ATOM     84  C   UNL A   1      40.883  27.721  26.240  1.00  0.00     0.040 A 
ATOM     85  C   UNL A   1      40.200  25.408  26.558  1.00  0.00     0.040 A 
ATOM     86  F   UNL A   1      38.987  24.785  28.434  1.00  0.00    -0.206 F 
ATOM     87  C   UNL A   1      40.874  26.389  25.840  1.00  0.00     0.006 A 
ENDBRANCH  59  80
BRANCH  71  88
ATOM     88  C   UNL A   1      45.234  30.417  31.142  1.00  0.00     0.057 A 
ATOM     89  C   UNL A   1      46.204  30.142  32.109  1.00  0.00     0.134 A 
ATOM     90  C   UNL A   1      45.681  31.090  29.986  1.00  0.00     0.134 A 
ATOM     91  F   UNL A   1      45.933  29.377  33.176  1.00  0.00    -0.206 F 
ATOM     92  C   UNL A   1      47.511  30.618  31.992  1.00  0.00     0.040 A 
ATOM     93  C   UNL A   1      46.997  31.508  29.827  1.00  0.00     0.040 A 
ATOM     94  F   UNL A   1      44.859  31.357  28.960  1.00  0.00    -0.206 F 
ATOM     95  C   UNL A   1      47.910  31.305  30.850  1.00  0.00     0.006 A 
ENDBRANCH  71  88
ENDBRANCH  45  46
ENDBRANCH  38  40
ENDBRANCH  37  38
ENDBRANCH  36  37
ENDBRANCH   1  36
TORSDOF 15
ENDMDL
MODEL 3
REMARK VINA RESULT:     -12.0      2.696      4.169
REMARK SMILES Cc1cccc(N2CCN(c3ncc(NC(=O)c4ccccc4F)cc3C(=O)OCCOC(=O)c3ccc(-c4c5nc(c(-c6c(F)cccc6F)c6ccc([nH]6)c(-c6c(F)cccc6F)c6nc(c(-c7c(F)cccc7F)c7ccc4[nH]7)C=C6)C=C5)cc3)C[C@@H]2C)c1
REMARK SMILES IDX 30 1 29 2 27 3 28 4 26 5 11 6 12 7 13 8 25 9 14 10 10 11
REMARK SMILES IDX 7 12 8 13 90 14 9 15 89 16 91 17 6 18 1 19 2 20 3 21 92 22
REMARK SMILES IDX 4 23 5 24 15 25 16 26 17 28 18 29 19 30 23 31 20 32 22 33
REMARK SMILES IDX 24 34 21 35 31 36 32 37 33 38 34 39 35 40 36 41 88 42 37 43
REMARK SMILES IDX 87 44 38 45 39 46 40 47 81 48 41 49 86 50 80 51 82 52 42 53
REMARK SMILES IDX 85 54 79 55 78 56 43 58 69 59 52 60 68 61 53 62 56 63 67 64
REMARK SMILES IDX 83 65 54 66 55 67 66 69 84 70 57 71 44 72 45 73 50 74 46 75
REMARK SMILES IDX 47 76 49 77 51 78 48 79 70 80 71 81 76 82 72 83 73 84 75 85
REMARK SMILES IDX 77 86 74 87 58 88 59 89 64 90 60 91 61 92 63 93 65 94 62 95
REMARK H PARENT 15 27 82 57 56 68
REMARK Flexibility Score: inf
ROOT
ATOM      1  C   UNL A   1      32.483  26.849  26.754  1.00  0.00     0.275 C 
ENDROOT
BRANCH   1   2
ATOM      2  O   UNL A   1      31.236  26.153  27.053  1.00  0.00    -0.458 OA
BRANCH   2   3
ATOM      3  C   UNL A   1      31.291  24.819  26.759  1.00  0.00     0.342 C 
ATOM      4  O   UNL A   1      31.315  23.948  27.631  1.00  0.00    -0.246 OA
BRANCH   3   5
ATOM      5  C   UNL A   1      31.704  24.398  25.396  1.00  0.00     0.104 A 
ATOM      6  C   UNL A   1      31.487  24.915  24.079  1.00  0.00     0.143 A 
ATOM      7  N   UNL A   1      31.553  24.003  23.052  1.00  0.00    -0.236 NA
ATOM      8  C   UNL A   1      31.690  22.666  23.275  1.00  0.00     0.139 A 
ATOM      9  C   UNL A   1      31.921  23.003  25.566  1.00  0.00     0.047 A 
ATOM     10  C   UNL A   1      31.860  22.116  24.522  1.00  0.00     0.061 A 
BRANCH   6  11
ATOM     11  N   UNL A   1      31.050  26.211  23.653  1.00  0.00    -0.352 N 
ATOM     12  N   UNL A   1      29.735  28.713  22.678  1.00  0.00    -0.365 N 
ATOM     13  C   UNL A   1      28.910  27.664  23.306  1.00  0.00     0.138 C 
ATOM     14  C   UNL A   1      31.037  28.308  22.050  1.00  0.00     0.098 C 
ATOM     15  C   UNL A   1      29.558  26.315  23.691  1.00  0.00     0.139 C 
ATOM     16  C   UNL A   1      31.520  26.789  22.355  1.00  0.00     0.142 C 
ATOM     17  C   UNL A   1      32.156  29.318  22.354  1.00  0.00     0.033 C 
BRANCH  12  18
ATOM     18  C   UNL A   1      29.164  30.007  22.569  1.00  0.00     0.037 A 
ATOM     19  C   UNL A   1      27.777  32.510  19.975  1.00  0.00     0.044 C 
ATOM     20  C   UNL A   1      28.323  31.936  21.251  1.00  0.00    -0.049 A 
ATOM     21  C   UNL A   1      28.398  32.777  22.360  1.00  0.00     0.003 A 
ATOM     22  C   UNL A   1      28.734  30.580  21.357  1.00  0.00     0.029 A 
ATOM     23  C   UNL A   1      28.737  32.239  23.584  1.00  0.00     0.002 A 
ATOM     24  C   UNL A   1      29.048  30.872  23.684  1.00  0.00     0.026 A 
ENDBRANCH  12  18
ENDBRANCH   6  11
BRANCH  10  25
ATOM     25  N   UNL A   1      31.952  20.754  24.839  1.00  0.00    -0.320 N 
ATOM     26  C   UNL A   1      33.062  20.015  25.165  1.00  0.00     0.258 C 
ATOM     27  H   UNL A   1      31.102  20.256  24.824  1.00  0.00     0.170 HD
ATOM     28  O   UNL A   1      32.991  18.793  25.268  1.00  0.00    -0.269 OA
BRANCH  26  29
ATOM     29  C   UNL A   1      34.334  20.697  25.459  1.00  0.00     0.075 A 
ATOM     30  C   UNL A   1      35.353  20.640  24.507  1.00  0.00     0.017 A 
ATOM     31  C   UNL A   1      34.536  21.397  26.651  1.00  0.00     0.135 A 
ATOM     32  C   UNL A   1      36.520  21.374  24.711  1.00  0.00     0.001 A 
ATOM     33  C   UNL A   1      35.674  22.170  26.833  1.00  0.00     0.040 A 
ATOM     34  F   UNL A   1      33.639  21.356  27.647  1.00  0.00    -0.206 F 
ATOM     35  C   UNL A   1      36.664  22.167  25.854  1.00  0.00     0.003 A 
ENDBRANCH  26  29
ENDBRANCH  10  25
ENDBRANCH   3   5
ENDBRANCH   2   3
ENDBRANCH   1   2
BRANCH   1  36
ATOM     36  C   UNL A   1      32.390  28.377  26.529  1.00  0.00     0.275 C 
BRANCH  36  37
ATOM     37  O   UNL A   1      32.652  29.295  27.608  1.00  0.00    -0.458 OA
BRANCH  37  38
ATOM     38  C   UNL A   1      33.120  30.508  27.278  1.00  0.00     0.338 C 
ATOM     39  O   UNL A   1      32.398  31.395  26.841  1.00  0.00    -0.246 OA
BRANCH  38  40
ATOM     40  C   UNL A   1      34.547  30.664  27.637  1.00  0.00     0.060 A 
ATOM     41  C   UNL A   1      35.072  31.957  27.655  1.00  0.00     0.016 A 
ATOM     42  C   UNL A   1      35.273  29.613  28.174  1.00  0.00     0.016 A 
ATOM     43  C   UNL A   1      36.244  32.269  28.318  1.00  0.00     0.010 A 
ATOM     44  C   UNL A   1      36.453  29.900  28.821  1.00  0.00     0.010 A 
ATOM     45  C   UNL A   1      36.931  31.221  28.879  1.00  0.00    -0.014 A 
BRANCH  45  46
ATOM     46  C   UNL A   1      38.264  31.389  29.401  1.00  0.00     0.031 A 
ATOM     47  C   UNL A   1      39.253  30.294  29.290  1.00  0.00     0.074 A 
ATOM     48  C   UNL A   1      38.470  32.660  29.817  1.00  0.00     0.049 A 
ATOM     49  N   UNL A   1      40.267  30.157  30.074  1.00  0.00    -0.248 NA
ATOM     50  C   UNL A   1      39.141  29.175  28.341  1.00  0.00     0.031 C 
ATOM     51  C   UNL A   1      39.692  33.425  29.895  1.00  0.00     0.029 A 
ATOM     52  N   UNL A   1      37.519  33.576  30.283  1.00  0.00    -0.354 N 
ATOM     53  C   UNL A   1      41.137  29.294  29.427  1.00  0.00     0.074 A 
ATOM     54  C   UNL A   1      40.314  28.546  28.511  1.00  0.00     0.031 C 
ATOM     55  C   UNL A   1      39.468  34.531  30.633  1.00  0.00     0.029 A 
ATOM     56  C   UNL A   1      38.146  34.399  31.223  1.00  0.00     0.049 A 
ATOM     57  H   UNL A   1      36.578  33.631  29.999  1.00  0.00     0.167 HD
ATOM     58  C   UNL A   1      42.478  29.540  29.518  1.00  0.00     0.037 A 
ATOM     59  C   UNL A   1      37.878  34.407  32.573  1.00  0.00     0.037 A 
ATOM     60  C   UNL A   1      42.694  30.704  30.364  1.00  0.00     0.049 A 
ATOM     61  C   UNL A   1      39.076  33.992  33.391  1.00  0.00     0.074 A 
ATOM     62  C   UNL A   1      42.790  32.044  30.029  1.00  0.00     0.029 A 
ATOM     63  N   UNL A   1      42.431  30.644  31.720  1.00  0.00    -0.354 N 
ATOM     64  N   UNL A   1      40.052  33.297  32.890  1.00  0.00    -0.248 NA
ATOM     65  C   UNL A   1      39.182  34.157  34.839  1.00  0.00     0.031 C 
ATOM     66  C   UNL A   1      42.550  32.801  31.195  1.00  0.00     0.029 A 
ATOM     67  C   UNL A   1      42.288  31.921  32.228  1.00  0.00     0.049 A 
ATOM     68  H   UNL A   1      42.357  29.814  32.246  1.00  0.00     0.167 HD
ATOM     69  C   UNL A   1      40.890  32.907  33.890  1.00  0.00     0.074 A 
ATOM     70  C   UNL A   1      40.318  33.482  35.092  1.00  0.00     0.031 C 
ATOM     71  C   UNL A   1      41.966  32.117  33.628  1.00  0.00     0.037 A 
BRANCH  58  72
ATOM     72  C   UNL A   1      43.551  29.045  28.573  1.00  0.00     0.057 A 
ATOM     73  C   UNL A   1      44.180  27.798  28.808  1.00  0.00     0.134 A 
ATOM     74  C   UNL A   1      44.022  29.722  27.439  1.00  0.00     0.134 A 
ATOM     75  F   UNL A   1      43.804  26.986  29.804  1.00  0.00    -0.206 F 
ATOM     76  C   UNL A   1      45.232  27.302  28.033  1.00  0.00     0.040 A 
ATOM     77  C   UNL A   1      45.089  29.240  26.657  1.00  0.00     0.040 A 
ATOM     78  F   UNL A   1      43.450  30.855  27.011  1.00  0.00    -0.206 F 
ATOM     79  C   UNL A   1      45.704  28.031  26.959  1.00  0.00     0.006 A 
ENDBRANCH  58  72
BRANCH  59  80
ATOM     80  C   UNL A   1      36.544  33.850  32.937  1.00  0.00     0.057 A 
ATOM     81  C   UNL A   1      35.419  34.630  32.631  1.00  0.00     0.134 A 
ATOM     82  C   UNL A   1      36.435  32.454  32.894  1.00  0.00     0.134 A 
ATOM     83  F   UNL A   1      35.452  35.963  32.765  1.00  0.00    -0.206 F 
ATOM     84  C   UNL A   1      34.356  34.058  31.956  1.00  0.00     0.040 A 
ATOM     85  C   UNL A   1      35.408  31.877  32.193  1.00  0.00     0.040 A 
ATOM     86  F   UNL A   1      37.390  31.648  33.376  1.00  0.00    -0.206 F 
ATOM     87  C   UNL A   1      34.408  32.695  31.681  1.00  0.00     0.006 A 
ENDBRANCH  59  80
BRANCH  71  88
ATOM     88  C   UNL A   1      42.885  31.561  34.660  1.00  0.00     0.057 A 
ATOM     89  C   UNL A   1      43.989  32.245  35.176  1.00  0.00     0.134 A 
ATOM     90  C   UNL A   1      42.607  30.304  35.235  1.00  0.00     0.134 A 
ATOM     91  F   UNL A   1      44.260  33.508  34.820  1.00  0.00    -0.206 F 
ATOM     92  C   UNL A   1      44.839  31.659  36.117  1.00  0.00     0.040 A 
ATOM     93  C   UNL A   1      43.407  29.740  36.221  1.00  0.00     0.040 A 
ATOM     94  F   UNL A   1      41.541  29.577  34.867  1.00  0.00    -0.206 F 
ATOM     95  C   UNL A   1      44.550  30.404  36.640  1.00  0.00     0.006 A 
ENDBRANCH  71  88
ENDBRANCH  45  46
ENDBRANCH  38  40
ENDBRANCH  37  38
ENDBRANCH  36  37
ENDBRANCH   1  36
TORSDOF 15
ENDMDL
