MODEL 1
REMARK VINA RESULT:     -13.5      0.000      0.000
REMARK SMILES O=C(OCCOC(=O)[C@H]1Cc2c([nH]c3ccccc23)[C@H](c2c[nH]c3ccccc23)[NH2+]1)c1ccc(-c2c3nc(c(-c4c(F)cccc4F)c4ccc([nH]4)c(-c4c(F)cccc4F)c4nc(c(-c5c(F)cccc5F)c5ccc2[nH]5)C=C4)C=C3)cc1
REMARK SMILES IDX 4 1 3 2 2 3 1 4 31 5 32 6 84 7 33 8 83 9 34 10 35 11 36 12
REMARK SMILES IDX 77 13 37 14 82 15 76 16 78 17 38 18 81 19 75 20 74 21 39 23
REMARK SMILES IDX 65 24 48 25 64 26 49 27 52 28 63 29 79 30 50 31 51 32 62 34
REMARK SMILES IDX 80 35 53 36 40 37 41 38 46 39 42 40 43 41 45 42 47 43 44 44
REMARK SMILES IDX 66 45 67 46 72 47 68 48 69 49 71 50 73 51 70 52 54 53 55 54
REMARK SMILES IDX 60 55 56 56 57 57 59 58 61 59 58 60 5 61 6 62 7 63 8 64 9 65
REMARK SMILES IDX 10 66 30 67 11 68 20 69 12 72 19 73 13 74 14 75 18 76 15 78
REMARK SMILES IDX 17 79 16 80 21 81 22 82 29 83 23 84 24 85 28 86 25 88 27 89
REMARK SMILES IDX 26 90
REMARK H PARENT 78 22 52 33 30 70 30 71 13 77 23 87
REMARK Flexibility Score: inf
ROOT
ATOM      1  C   UNL A   1      39.011  19.675  25.339  1.00  0.00     0.275 C 
ENDROOT
BRANCH   1   2
ATOM      2  O   UNL A   1      40.156  18.931  25.779  1.00  0.00    -0.458 OA
BRANCH   2   3
ATOM      3  C   UNL A   1      41.449  19.304  25.877  1.00  0.00     0.338 C 
ATOM      4  O   UNL A   1      42.306  18.517  25.471  1.00  0.00    -0.246 OA
BRANCH   3   5
ATOM      5  C   UNL A   1      41.925  20.580  26.514  1.00  0.00     0.060 A 
ATOM      6  C   UNL A   1      42.062  20.877  27.869  1.00  0.00     0.016 A 
ATOM      7  C   UNL A   1      42.299  21.582  25.610  1.00  0.00     0.016 A 
ATOM      8  C   UNL A   1      42.584  22.110  28.290  1.00  0.00     0.010 A 
ATOM      9  C   UNL A   1      42.897  22.776  26.007  1.00  0.00     0.010 A 
ATOM     10  C   UNL A   1      42.994  23.073  27.362  1.00  0.00    -0.014 A 
BRANCH  10  11
ATOM     11  C   UNL A   1      43.313  24.447  27.808  1.00  0.00     0.031 A 
ATOM     12  C   UNL A   1      44.748  24.901  27.750  1.00  0.00     0.074 A 
ATOM     13  C   UNL A   1      42.339  25.296  28.189  1.00  0.00     0.049 A 
ATOM     14  N   UNL A   1      45.248  26.093  27.950  1.00  0.00    -0.248 NA
ATOM     15  C   UNL A   1      45.758  23.880  27.425  1.00  0.00     0.031 C 
ATOM     16  C   UNL A   1      40.921  24.962  28.310  1.00  0.00     0.029 A 
ATOM     17  N   UNL A   1      42.399  26.623  28.528  1.00  0.00    -0.354 N 
ATOM     18  C   UNL A   1      46.617  25.960  27.756  1.00  0.00     0.074 A 
ATOM     19  C   UNL A   1      46.885  24.562  27.519  1.00  0.00     0.031 C 
ATOM     20  C   UNL A   1      40.240  26.065  28.667  1.00  0.00     0.029 A 
ATOM     21  C   UNL A   1      41.173  27.173  28.814  1.00  0.00     0.049 A 
ATOM     22  H   UNL A   1      43.240  27.134  28.561  1.00  0.00     0.167 HD
ATOM     23  C   UNL A   1      47.566  26.922  27.724  1.00  0.00     0.037 A 
ATOM     24  C   UNL A   1      40.845  28.435  29.142  1.00  0.00     0.037 A 
ATOM     25  C   UNL A   1      47.296  28.311  27.963  1.00  0.00     0.049 A 
ATOM     26  C   UNL A   1      41.922  29.479  29.163  1.00  0.00     0.074 A 
ATOM     27  C   UNL A   1      48.169  29.380  27.934  1.00  0.00     0.029 A 
ATOM     28  N   UNL A   1      46.044  28.816  28.288  1.00  0.00    -0.354 N 
ATOM     29  N   UNL A   1      43.203  29.352  28.913  1.00  0.00    -0.248 NA
ATOM     30  C   UNL A   1      41.500  30.849  29.480  1.00  0.00     0.031 C 
ATOM     31  C   UNL A   1      47.454  30.530  28.288  1.00  0.00     0.029 A 
ATOM     32  C   UNL A   1      46.125  30.182  28.483  1.00  0.00     0.049 A 
ATOM     33  H   UNL A   1      45.222  28.280  28.367  1.00  0.00     0.167 HD
ATOM     34  C   UNL A   1      43.735  30.629  29.004  1.00  0.00     0.074 A 
ATOM     35  C   UNL A   1      42.636  31.515  29.334  1.00  0.00     0.031 C 
ATOM     36  C   UNL A   1      45.014  31.036  28.813  1.00  0.00     0.037 A 
BRANCH  23  37
ATOM     37  C   UNL A   1      48.968  26.476  27.425  1.00  0.00     0.057 A 
ATOM     38  C   UNL A   1      49.448  26.383  26.109  1.00  0.00     0.134 A 
ATOM     39  C   UNL A   1      49.830  26.084  28.455  1.00  0.00     0.134 A 
ATOM     40  F   UNL A   1      48.662  26.716  25.074  1.00  0.00    -0.206 F 
ATOM     41  C   UNL A   1      50.717  25.876  25.828  1.00  0.00     0.040 A 
ATOM     42  C   UNL A   1      51.113  25.604  28.188  1.00  0.00     0.040 A 
ATOM     43  F   UNL A   1      49.433  26.143  29.735  1.00  0.00    -0.206 F 
ATOM     44  C   UNL A   1      51.556  25.488  26.872  1.00  0.00     0.006 A 
ENDBRANCH  23  37
BRANCH  24  45
ATOM     45  C   UNL A   1      39.440  28.803  29.441  1.00  0.00     0.057 A 
ATOM     46  C   UNL A   1      38.907  28.668  30.728  1.00  0.00     0.134 A 
ATOM     47  C   UNL A   1      38.583  29.247  28.430  1.00  0.00     0.134 A 
ATOM     48  F   UNL A   1      39.671  28.210  31.730  1.00  0.00    -0.206 F 
ATOM     49  C   UNL A   1      37.568  28.957  30.999  1.00  0.00     0.040 A 
ATOM     50  C   UNL A   1      37.244  29.551  28.689  1.00  0.00     0.040 A 
ATOM     51  F   UNL A   1      39.028  29.368  27.171  1.00  0.00    -0.206 F 
ATOM     52  C   UNL A   1      36.733  29.405  29.976  1.00  0.00     0.006 A 
ENDBRANCH  24  45
BRANCH  36  53
ATOM     53  C   UNL A   1      45.272  32.508  28.909  1.00  0.00     0.057 A 
ATOM     54  C   UNL A   1      45.096  33.366  27.818  1.00  0.00     0.134 A 
ATOM     55  C   UNL A   1      45.685  33.071  30.122  1.00  0.00     0.134 A 
ATOM     56  F   UNL A   1      44.717  32.883  26.626  1.00  0.00    -0.206 F 
ATOM     57  C   UNL A   1      45.351  34.734  27.923  1.00  0.00     0.040 A 
ATOM     58  C   UNL A   1      45.914  34.441  30.248  1.00  0.00     0.040 A 
ATOM     59  F   UNL A   1      45.864  32.300  31.206  1.00  0.00    -0.206 F 
ATOM     60  C   UNL A   1      45.754  35.274  29.144  1.00  0.00     0.006 A 
ENDBRANCH  36  53
ENDBRANCH  10  11
ENDBRANCH   3   5
ENDBRANCH   2   3
ENDBRANCH   1   2
BRANCH   1  61
ATOM     61  C   UNL A   1      38.891  21.067  25.964  1.00  0.00     0.274 C 
BRANCH  61  62
ATOM     62  O   UNL A   1      38.292  22.043  25.089  1.00  0.00    -0.458 OA
BRANCH  62  63
ATOM     63  C   UNL A   1      37.624  23.083  25.685  1.00  0.00     0.365 C 
ATOM     64  O   UNL A   1      38.176  24.098  26.103  1.00  0.00    -0.245 OA
BRANCH  63  65
ATOM     65  C   UNL A   1      36.106  22.805  25.733  1.00  0.00     0.298 C 
ATOM     66  C   UNL A   1      35.396  24.174  25.653  1.00  0.00     0.115 C 
ATOM     67  N   UNL A   1      35.715  21.828  24.674  1.00  0.00    -0.323 N 
ATOM     68  C   UNL A   1      33.950  23.976  25.401  1.00  0.00    -0.006 A 
ATOM     69  C   UNL A   1      34.281  21.564  24.480  1.00  0.00     0.264 C 
ATOM     70  H   UNL A   1      36.159  20.938  24.902  1.00  0.00     0.347 HD
ATOM     71  H   UNL A   1      36.017  22.261  23.802  1.00  0.00     0.347 HD
ATOM     72  C   UNL A   1      33.479  22.788  24.874  1.00  0.00     0.083 A 
ATOM     73  C   UNL A   1      32.848  24.856  25.588  1.00  0.00     0.003 A 
ATOM     74  N   UNL A   1      32.129  22.939  24.715  1.00  0.00    -0.353 N 
ATOM     75  C   UNL A   1      31.712  24.163  25.180  1.00  0.00     0.046 A 
ATOM     76  C   UNL A   1      32.693  26.174  26.060  1.00  0.00     0.010 A 
ATOM     77  H   UNL A   1      31.534  22.261  24.319  1.00  0.00     0.166 HD
ATOM     78  C   UNL A   1      30.422  24.697  25.247  1.00  0.00     0.026 A 
ATOM     79  C   UNL A   1      31.410  26.733  26.120  1.00  0.00     0.001 A 
ATOM     80  C   UNL A   1      30.293  26.001  25.725  1.00  0.00     0.002 A 
BRANCH  69  81
ATOM     81  C   UNL A   1      33.731  20.260  25.085  1.00  0.00     0.041 A 
ATOM     82  C   UNL A   1      33.119  20.221  26.339  1.00  0.00     0.093 A 
ATOM     83  C   UNL A   1      33.549  18.908  24.580  1.00  0.00     0.009 A 
ATOM     84  N   UNL A   1      32.906  18.930  26.713  1.00  0.00    -0.361 N 
ATOM     85  C   UNL A   1      33.164  18.100  25.660  1.00  0.00     0.046 A 
ATOM     86  C   UNL A   1      33.663  18.253  23.336  1.00  0.00     0.011 A 
ATOM     87  H   UNL A   1      32.610  18.639  27.606  1.00  0.00     0.166 HD
ATOM     88  C   UNL A   1      33.044  16.705  25.604  1.00  0.00     0.026 A 
ATOM     89  C   UNL A   1      33.511  16.853  23.249  1.00  0.00     0.001 A 
ATOM     90  C   UNL A   1      33.248  16.087  24.376  1.00  0.00     0.002 A 
ENDBRANCH  69  81
ENDBRANCH  63  65
ENDBRANCH  62  63
ENDBRANCH  61  62
ENDBRANCH   1  61
TORSDOF 12
ENDMDL
MODEL 2
REMARK VINA RESULT:     -13.4      4.189      8.584
REMARK SMILES O=C(OCCOC(=O)[C@H]1Cc2c([nH]c3ccccc23)[C@H](c2c[nH]c3ccccc23)[NH2+]1)c1ccc(-c2c3nc(c(-c4c(F)cccc4F)c4ccc([nH]4)c(-c4c(F)cccc4F)c4nc(c(-c5c(F)cccc5F)c5ccc2[nH]5)C=C4)C=C3)cc1
REMARK SMILES IDX 4 1 3 2 2 3 1 4 31 5 32 6 84 7 33 8 83 9 34 10 35 11 36 12
REMARK SMILES IDX 77 13 37 14 82 15 76 16 78 17 38 18 81 19 75 20 74 21 39 23
REMARK SMILES IDX 65 24 48 25 64 26 49 27 52 28 63 29 79 30 50 31 51 32 62 34
REMARK SMILES IDX 80 35 53 36 40 37 41 38 46 39 42 40 43 41 45 42 47 43 44 44
REMARK SMILES IDX 66 45 67 46 72 47 68 48 69 49 71 50 73 51 70 52 54 53 55 54
REMARK SMILES IDX 60 55 56 56 57 57 59 58 61 59 58 60 5 61 6 62 7 63 8 64 9 65
REMARK SMILES IDX 10 66 30 67 11 68 20 69 12 72 19 73 13 74 14 75 18 76 15 78
REMARK SMILES IDX 17 79 16 80 21 81 22 82 29 83 23 84 24 85 28 86 25 88 27 89
REMARK SMILES IDX 26 90
REMARK H PARENT 78 22 52 33 30 70 30 71 13 77 23 87
REMARK Flexibility Score: inf
ROOT
ATOM      1  C   UNL A   1      41.808  21.324  26.123  1.00  0.00     0.275 C 
ENDROOT
BRANCH   1   2
ATOM      2  O   UNL A   1      42.098  22.604  25.543  1.00  0.00    -0.458 OA
BRANCH   2   3
ATOM      3  C   UNL A   1      43.012  23.531  25.896  1.00  0.00     0.338 C 
ATOM      4  O   UNL A   1      44.170  23.372  25.508  1.00  0.00    -0.246 OA
BRANCH   3   5
ATOM      5  C   UNL A   1      42.736  24.706  26.792  1.00  0.00     0.060 A 
ATOM      6  C   UNL A   1      43.248  26.000  26.712  1.00  0.00     0.016 A 
ATOM      7  C   UNL A   1      41.820  24.456  27.821  1.00  0.00     0.016 A 
ATOM      8  C   UNL A   1      42.831  26.999  27.605  1.00  0.00     0.010 A 
ATOM      9  C   UNL A   1      41.331  25.454  28.661  1.00  0.00     0.010 A 
ATOM     10  C   UNL A   1      41.878  26.731  28.593  1.00  0.00    -0.014 A 
BRANCH  10  11
ATOM     11  C   UNL A   1      41.627  27.713  29.671  1.00  0.00     0.031 A 
ATOM     12  C   UNL A   1      40.471  28.666  29.512  1.00  0.00     0.074 A 
ATOM     13  C   UNL A   1      42.365  27.711  30.797  1.00  0.00     0.049 A 
ATOM     14  N   UNL A   1      39.971  29.512  30.375  1.00  0.00    -0.248 NA
ATOM     15  C   UNL A   1      39.786  28.672  28.208  1.00  0.00     0.031 C 
ATOM     16  C   UNL A   1      43.522  26.854  31.052  1.00  0.00     0.029 A 
ATOM     17  N   UNL A   1      42.234  28.447  31.947  1.00  0.00    -0.354 N 
ATOM     18  C   UNL A   1      38.910  30.126  29.722  1.00  0.00     0.074 A 
ATOM     19  C   UNL A   1      38.894  29.633  28.366  1.00  0.00     0.031 C 
ATOM     20  C   UNL A   1      43.978  27.093  32.295  1.00  0.00     0.029 A 
ATOM     21  C   UNL A   1      43.157  28.125  32.912  1.00  0.00     0.049 A 
ATOM     22  H   UNL A   1      41.545  29.138  32.069  1.00  0.00     0.167 HD
ATOM     23  C   UNL A   1      37.993  30.986  30.217  1.00  0.00     0.037 A 
ATOM     24  C   UNL A   1      43.308  28.603  34.160  1.00  0.00     0.037 A 
ATOM     25  C   UNL A   1      38.013  31.476  31.567  1.00  0.00     0.049 A 
ATOM     26  C   UNL A   1      42.317  29.605  34.673  1.00  0.00     0.074 A 
ATOM     27  C   UNL A   1      37.126  32.330  32.191  1.00  0.00     0.029 A 
ATOM     28  N   UNL A   1      38.990  31.153  32.497  1.00  0.00    -0.354 N 
ATOM     29  N   UNL A   1      41.279  30.129  34.067  1.00  0.00    -0.248 NA
ATOM     30  C   UNL A   1      42.501  30.056  36.059  1.00  0.00     0.031 C 
ATOM     31  C   UNL A   1      37.592  32.562  33.490  1.00  0.00     0.029 A 
ATOM     32  C   UNL A   1      38.739  31.808  33.689  1.00  0.00     0.049 A 
ATOM     33  H   UNL A   1      39.749  30.546  32.334  1.00  0.00     0.167 HD
ATOM     34  C   UNL A   1      40.663  30.942  35.006  1.00  0.00     0.074 A 
ATOM     35  C   UNL A   1      41.446  30.841  36.222  1.00  0.00     0.031 C 
ATOM     36  C   UNL A   1      39.539  31.690  34.880  1.00  0.00     0.037 A 
BRANCH  23  37
ATOM     37  C   UNL A   1      36.913  31.436  29.278  1.00  0.00     0.057 A 
ATOM     38  C   UNL A   1      36.887  32.737  28.750  1.00  0.00     0.134 A 
ATOM     39  C   UNL A   1      35.857  30.583  28.939  1.00  0.00     0.134 A 
ATOM     40  F   UNL A   1      37.854  33.614  29.059  1.00  0.00    -0.206 F 
ATOM     41  C   UNL A   1      35.831  33.183  27.955  1.00  0.00     0.040 A 
ATOM     42  C   UNL A   1      34.810  31.009  28.119  1.00  0.00     0.040 A 
ATOM     43  F   UNL A   1      35.817  29.328  29.413  1.00  0.00    -0.206 F 
ATOM     44  C   UNL A   1      34.789  32.315  27.636  1.00  0.00     0.006 A 
ENDBRANCH  23  37
BRANCH  24  45
ATOM     45  C   UNL A   1      44.409  28.124  35.031  1.00  0.00     0.057 A 
ATOM     46  C   UNL A   1      45.656  28.757  35.046  1.00  0.00     0.134 A 
ATOM     47  C   UNL A   1      44.251  26.987  35.828  1.00  0.00     0.134 A 
ATOM     48  F   UNL A   1      45.879  29.830  34.272  1.00  0.00    -0.206 F 
ATOM     49  C   UNL A   1      46.713  28.272  35.819  1.00  0.00     0.040 A 
ATOM     50  C   UNL A   1      45.295  26.497  36.616  1.00  0.00     0.040 A 
ATOM     51  F   UNL A   1      43.088  26.320  35.833  1.00  0.00    -0.206 F 
ATOM     52  C   UNL A   1      46.531  27.140  36.613  1.00  0.00     0.006 A 
ENDBRANCH  24  45
BRANCH  36  53
ATOM     53  C   UNL A   1      39.072  32.412  36.106  1.00  0.00     0.057 A 
ATOM     54  C   UNL A   1      39.466  33.724  36.392  1.00  0.00     0.134 A 
ATOM     55  C   UNL A   1      38.197  31.783  37.001  1.00  0.00     0.134 A 
ATOM     56  F   UNL A   1      40.315  34.371  35.581  1.00  0.00    -0.206 F 
ATOM     57  C   UNL A   1      39.029  34.377  37.545  1.00  0.00     0.040 A 
ATOM     58  C   UNL A   1      37.729  32.436  38.140  1.00  0.00     0.040 A 
ATOM     59  F   UNL A   1      37.777  30.529  36.776  1.00  0.00    -0.206 F 
ATOM     60  C   UNL A   1      38.152  33.734  38.419  1.00  0.00     0.006 A 
ENDBRANCH  36  53
ENDBRANCH  10  11
ENDBRANCH   3   5
ENDBRANCH   2   3
ENDBRANCH   1   2
BRANCH   1  61
ATOM     61  C   UNL A   1      40.476  21.263  26.872  1.00  0.00     0.274 C 
BRANCH  61  62
ATOM     62  O   UNL A   1      39.324  21.352  26.010  1.00  0.00    -0.458 OA
BRANCH  62  63
ATOM     63  C   UNL A   1      38.615  22.526  26.040  1.00  0.00     0.365 C 
ATOM     64  O   UNL A   1      39.045  23.571  26.524  1.00  0.00    -0.245 OA
BRANCH  63  65
ATOM     65  C   UNL A   1      37.235  22.350  25.371  1.00  0.00     0.298 C 
ATOM     66  C   UNL A   1      36.903  20.842  25.414  1.00  0.00     0.115 C 
ATOM     67  N   UNL A   1      36.221  23.239  26.012  1.00  0.00    -0.323 N 
ATOM     68  C   UNL A   1      35.481  20.631  25.059  1.00  0.00    -0.006 A 
ATOM     69  C   UNL A   1      34.818  23.090  25.598  1.00  0.00     0.264 C 
ATOM     70  H   UNL A   1      36.495  24.202  25.818  1.00  0.00     0.347 HD
ATOM     71  H   UNL A   1      36.229  22.968  26.995  1.00  0.00     0.347 HD
ATOM     72  C   UNL A   1      34.567  21.665  25.150  1.00  0.00     0.083 A 
ATOM     73  C   UNL A   1      34.798  19.461  24.625  1.00  0.00     0.003 A 
ATOM     74  N   UNL A   1      33.350  21.141  24.808  1.00  0.00    -0.353 N 
ATOM     75  C   UNL A   1      33.467  19.822  24.442  1.00  0.00     0.046 A 
ATOM     76  C   UNL A   1      35.170  18.127  24.368  1.00  0.00     0.010 A 
ATOM     77  H   UNL A   1      32.502  21.642  24.822  1.00  0.00     0.166 HD
ATOM     78  C   UNL A   1      32.487  18.936  23.986  1.00  0.00     0.026 A 
ATOM     79  C   UNL A   1      34.200  17.219  23.925  1.00  0.00     0.001 A 
ATOM     80  C   UNL A   1      32.880  17.622  23.731  1.00  0.00     0.002 A 
BRANCH  69  81
ATOM     81  C   UNL A   1      34.275  24.138  24.611  1.00  0.00     0.041 A 
ATOM     82  C   UNL A   1      33.850  23.801  23.324  1.00  0.00     0.093 A 
ATOM     83  C   UNL A   1      33.932  25.547  24.718  1.00  0.00     0.009 A 
ATOM     84  N   UNL A   1      33.607  24.928  22.603  1.00  0.00    -0.361 N 
ATOM     85  C   UNL A   1      33.654  26.017  23.425  1.00  0.00     0.046 A 
ATOM     86  C   UNL A   1      33.819  26.501  25.752  1.00  0.00     0.011 A 
ATOM     87  H   UNL A   1      33.425  24.956  21.635  1.00  0.00     0.166 HD
ATOM     88  C   UNL A   1      33.433  27.362  23.100  1.00  0.00     0.026 A 
ATOM     89  C   UNL A   1      33.563  27.855  25.451  1.00  0.00     0.001 A 
ATOM     90  C   UNL A   1      33.414  28.285  24.139  1.00  0.00     0.002 A 
ENDBRANCH  69  81
ENDBRANCH  63  65
ENDBRANCH  62  63
ENDBRANCH  61  62
ENDBRANCH   1  61
TORSDOF 12
ENDMDL
MODEL 3
REMARK VINA RESULT:     -13.4      5.202     10.288
REMARK SMILES O=C(OCCOC(=O)[C@H]1Cc2c([nH]c3ccccc23)[C@H](c2c[nH]c3ccccc23)[NH2+]1)c1ccc(-c2c3nc(c(-c4c(F)cccc4F)c4ccc([nH]4)c(-c4c(F)cccc4F)c4nc(c(-c5c(F)cccc5F)c5ccc2[nH]5)C=C4)C=C3)cc1
REMARK SMILES IDX 4 1 3 2 2 3 1 4 31 5 32 6 84 7 33 8 83 9 34 10 35 11 36 12
REMARK SMILES IDX 77 13 37 14 82 15 76 16 78 17 38 18 81 19 75 20 74 21 39 23
REMARK SMILES IDX 65 24 48 25 64 26 49 27 52 28 63 29 79 30 50 31 51 32 62 34
REMARK SMILES IDX 80 35 53 36 40 37 41 38 46 39 42 40 43 41 45 42 47 43 44 44
REMARK SMILES IDX 66 45 67 46 72 47 68 48 69 49 71 50 73 51 70 52 54 53 55 54
REMARK SMILES IDX 60 55 56 56 57 57 59 58 61 59 58 60 5 61 6 62 7 63 8 64 9 65
REMARK SMILES IDX 10 66 30 67 11 68 20 69 12 72 19 73 13 74 14 75 18 76 15 78
REMARK SMILES IDX 17 79 16 80 21 81 22 82 29 83 23 84 24 85 28 86 25 88 27 89
REMARK SMILES IDX 26 90
REMARK H PARENT 78 22 52 33 30 70 30 71 13 77 23 87
REMARK Flexibility Score: inf
ROOT
ATOM      1  C   UNL A   1      32.083  32.573  27.271  1.00  0.00     0.275 C 
ENDROOT
BRANCH   1   2
ATOM      2  O   UNL A   1      32.421  33.918  27.637  1.00  0.00    -0.458 OA
BRANCH   2   3
ATOM      3  C   UNL A   1      33.074  34.386  28.720  1.00  0.00     0.338 C 
ATOM      4  O   UNL A   1      32.545  35.295  29.361  1.00  0.00    -0.246 OA
BRANCH   3   5
ATOM      5  C   UNL A   1      34.437  33.929  29.160  1.00  0.00     0.060 A 
ATOM      6  C   UNL A   1      35.685  34.357  28.711  1.00  0.00     0.016 A 
ATOM      7  C   UNL A   1      34.432  32.964  30.175  1.00  0.00     0.016 A 
ATOM      8  C   UNL A   1      36.868  33.861  29.281  1.00  0.00     0.010 A 
ATOM      9  C   UNL A   1      35.592  32.525  30.810  1.00  0.00     0.010 A 
ATOM     10  C   UNL A   1      36.830  32.933  30.327  1.00  0.00    -0.014 A 
BRANCH  10  11
ATOM     11  C   UNL A   1      38.068  32.242  30.753  1.00  0.00     0.031 A 
ATOM     12  C   UNL A   1      38.673  32.618  32.080  1.00  0.00     0.074 A 
ATOM     13  C   UNL A   1      38.601  31.253  30.011  1.00  0.00     0.049 A 
ATOM     14  N   UNL A   1      39.663  32.058  32.727  1.00  0.00    -0.248 NA
ATOM     15  C   UNL A   1      38.090  33.779  32.775  1.00  0.00     0.031 C 
ATOM     16  C   UNL A   1      38.118  30.821  28.700  1.00  0.00     0.029 A 
ATOM     17  N   UNL A   1      39.659  30.421  30.267  1.00  0.00    -0.354 N 
ATOM     18  C   UNL A   1      39.799  32.787  33.901  1.00  0.00     0.074 A 
ATOM     19  C   UNL A   1      38.864  33.884  33.840  1.00  0.00     0.031 C 
ATOM     20  C   UNL A   1      38.861  29.782  28.280  1.00  0.00     0.029 A 
ATOM     21  C   UNL A   1      39.877  29.489  29.282  1.00  0.00     0.049 A 
ATOM     22  H   UNL A   1      40.210  30.484  31.080  1.00  0.00     0.167 HD
ATOM     23  C   UNL A   1      40.596  32.540  34.965  1.00  0.00     0.037 A 
ATOM     24  C   UNL A   1      40.785  28.500  29.209  1.00  0.00     0.037 A 
ATOM     25  C   UNL A   1      41.528  31.449  35.021  1.00  0.00     0.049 A 
ATOM     26  C   UNL A   1      41.704  28.278  30.374  1.00  0.00     0.074 A 
ATOM     27  C   UNL A   1      42.370  31.081  36.051  1.00  0.00     0.029 A 
ATOM     28  N   UNL A   1      41.741  30.553  33.982  1.00  0.00    -0.354 N 
ATOM     29  N   UNL A   1      41.779  28.934  31.506  1.00  0.00    -0.248 NA
ATOM     30  C   UNL A   1      42.643  27.155  30.261  1.00  0.00     0.031 C 
ATOM     31  C   UNL A   1      43.129  29.988  35.619  1.00  0.00     0.029 A 
ATOM     32  C   UNL A   1      42.719  29.643  34.340  1.00  0.00     0.049 A 
ATOM     33  H   UNL A   1      41.266  30.564  33.119  1.00  0.00     0.167 HD
ATOM     34  C   UNL A   1      42.744  28.283  32.258  1.00  0.00     0.074 A 
ATOM     35  C   UNL A   1      43.227  27.180  31.450  1.00  0.00     0.031 C 
ATOM     36  C   UNL A   1      43.180  28.559  33.512  1.00  0.00     0.037 A 
BRANCH  23  37
ATOM     37  C   UNL A   1      40.478  33.478  36.129  1.00  0.00     0.057 A 
ATOM     38  C   UNL A   1      39.521  33.286  37.138  1.00  0.00     0.134 A 
ATOM     39  C   UNL A   1      41.288  34.615  36.218  1.00  0.00     0.134 A 
ATOM     40  F   UNL A   1      38.692  32.231  37.097  1.00  0.00    -0.206 F 
ATOM     41  C   UNL A   1      39.347  34.212  38.167  1.00  0.00     0.040 A 
ATOM     42  C   UNL A   1      41.144  35.533  37.261  1.00  0.00     0.040 A 
ATOM     43  F   UNL A   1      42.220  34.862  35.285  1.00  0.00    -0.206 F 
ATOM     44  C   UNL A   1      40.164  35.339  38.231  1.00  0.00     0.006 A 
ENDBRANCH  23  37
BRANCH  24  45
ATOM     45  C   UNL A   1      40.857  27.618  28.020  1.00  0.00     0.057 A 
ATOM     46  C   UNL A   1      40.189  26.389  27.980  1.00  0.00     0.134 A 
ATOM     47  C   UNL A   1      41.643  27.962  26.916  1.00  0.00     0.134 A 
ATOM     48  F   UNL A   1      39.452  25.987  29.026  1.00  0.00    -0.206 F 
ATOM     49  C   UNL A   1      40.304  25.529  26.886  1.00  0.00     0.040 A 
ATOM     50  C   UNL A   1      41.757  27.118  25.810  1.00  0.00     0.040 A 
ATOM     51  F   UNL A   1      42.330  29.113  26.908  1.00  0.00    -0.206 F 
ATOM     52  C   UNL A   1      41.088  25.896  25.792  1.00  0.00     0.006 A 
ENDBRANCH  24  45
BRANCH  36  53
ATOM     53  C   UNL A   1      44.191  27.621  34.094  1.00  0.00     0.057 A 
ATOM     54  C   UNL A   1      45.567  27.866  34.013  1.00  0.00     0.134 A 
ATOM     55  C   UNL A   1      43.773  26.464  34.763  1.00  0.00     0.134 A 
ATOM     56  F   UNL A   1      46.028  28.949  33.371  1.00  0.00    -0.206 F 
ATOM     57  C   UNL A   1      46.494  26.975  34.552  1.00  0.00     0.040 A 
ATOM     58  C   UNL A   1      44.689  25.581  35.333  1.00  0.00     0.040 A 
ATOM     59  F   UNL A   1      42.467  26.179  34.881  1.00  0.00    -0.206 F 
ATOM     60  C   UNL A   1      46.055  25.832  35.221  1.00  0.00     0.006 A 
ENDBRANCH  36  53
ENDBRANCH  10  11
ENDBRANCH   3   5
ENDBRANCH   2   3
ENDBRANCH   1   2
BRANCH   1  61
ATOM     61  C   UNL A   1      33.293  31.667  27.030  1.00  0.00     0.274 C 
BRANCH  61  62
ATOM     62  O   UNL A   1      33.182  30.375  27.659  1.00  0.00    -0.458 OA
BRANCH  62  63
ATOM     63  C   UNL A   1      34.096  29.423  27.287  1.00  0.00     0.365 C 
ATOM     64  O   UNL A   1      35.141  29.204  27.895  1.00  0.00    -0.245 OA
BRANCH  63  65
ATOM     65  C   UNL A   1      33.618  28.667  26.028  1.00  0.00     0.298 C 
ATOM     66  C   UNL A   1      34.236  27.253  26.091  1.00  0.00     0.115 C 
ATOM     67  N   UNL A   1      32.130  28.702  25.924  1.00  0.00    -0.323 N 
ATOM     68  C   UNL A   1      33.596  26.380  25.080  1.00  0.00    -0.006 A 
ATOM     69  C   UNL A   1      31.496  27.903  24.864  1.00  0.00     0.264 C 
ATOM     70  H   UNL A   1      31.858  29.675  25.774  1.00  0.00     0.347 HD
ATOM     71  H   UNL A   1      31.802  28.282  26.793  1.00  0.00     0.347 HD
ATOM     72  C   UNL A   1      32.363  26.702  24.544  1.00  0.00     0.083 A 
ATOM     73  C   UNL A   1      34.027  25.149  24.514  1.00  0.00     0.003 A 
ATOM     74  N   UNL A   1      32.030  25.685  23.692  1.00  0.00    -0.353 N 
ATOM     75  C   UNL A   1      33.037  24.754  23.619  1.00  0.00     0.046 A 
ATOM     76  C   UNL A   1      35.157  24.321  24.667  1.00  0.00     0.010 A 
ATOM     77  H   UNL A   1      31.180  25.627  23.197  1.00  0.00     0.166 HD
ATOM     78  C   UNL A   1      33.122  23.595  22.842  1.00  0.00     0.026 A 
ATOM     79  C   UNL A   1      35.255  23.147  23.908  1.00  0.00     0.001 A 
ATOM     80  C   UNL A   1      34.253  22.796  23.006  1.00  0.00     0.002 A 
BRANCH  69  81
ATOM     81  C   UNL A   1      31.032  28.664  23.609  1.00  0.00     0.041 A 
ATOM     82  C   UNL A   1      31.902  28.979  22.563  1.00  0.00     0.093 A 
ATOM     83  C   UNL A   1      29.735  29.092  23.108  1.00  0.00     0.009 A 
ATOM     84  N   UNL A   1      31.288  29.814  21.683  1.00  0.00    -0.361 N 
ATOM     85  C   UNL A   1      29.961  29.909  21.990  1.00  0.00     0.046 A 
ATOM     86  C   UNL A   1      28.383  28.894  23.457  1.00  0.00     0.011 A 
ATOM     87  H   UNL A   1      31.732  30.279  20.937  1.00  0.00     0.166 HD
ATOM     88  C   UNL A   1      28.965  30.637  21.325  1.00  0.00     0.026 A 
ATOM     89  C   UNL A   1      27.360  29.590  22.779  1.00  0.00     0.001 A 
ATOM     90  C   UNL A   1      27.653  30.480  21.755  1.00  0.00     0.002 A 
ENDBRANCH  69  81
ENDBRANCH  63  65
ENDBRANCH  62  63
ENDBRANCH  61  62
ENDBRANCH   1  61
TORSDOF 12
ENDMDL
