MODEL 1
REMARK VINA RESULT:     -11.0      0.000      0.000
REMARK SMILES O=C(C[C@@H]1C[N@@H+](CCSc2ccccc2F)CCO1)OCCOC(=O)c1ccc(-c2c3nc(c(-c4c(F)cccc4F)c4ccc([nH]4)c(-c4c(F)cccc4F)c4nc(c(-c5c(F)cccc5F)c5ccc2[nH]5)C=C4)C=C3)cc1
REMARK SMILES IDX 20 1 2 2 1 3 3 4 4 5 5 6 19 7 6 8 18 9 17 10 7 12 8 13 9 14
REMARK SMILES IDX 10 15 11 16 15 17 12 18 14 19 16 20 13 21 21 22 22 23 23 24
REMARK SMILES IDX 24 25 25 26 26 27 27 28 79 29 28 30 78 31 29 32 30 33 31 34
REMARK SMILES IDX 72 35 32 36 77 37 71 38 73 39 33 40 76 41 70 42 69 43 34 45
REMARK SMILES IDX 60 46 43 47 59 48 44 49 47 50 58 51 74 52 45 53 46 54 57 56
REMARK SMILES IDX 75 57 48 58 35 59 36 60 41 61 37 62 38 63 40 64 42 65 39 66
REMARK SMILES IDX 61 67 62 68 67 69 63 70 64 71 66 72 68 73 65 74 49 75 50 76
REMARK SMILES IDX 55 77 51 78 52 79 54 80 56 81 53 82
REMARK H PARENT 6 11 73 44 47 55
REMARK Flexibility Score: inf
ROOT
ATOM      1  O   UNL A   1      32.025  29.954  27.391  1.00  0.00    -0.462 OA
ENDROOT
BRANCH   1   2
ATOM      2  C   UNL A   1      32.038  28.634  27.094  1.00  0.00     0.308 C 
ATOM      3  O   UNL A   1      31.238  27.862  27.617  1.00  0.00    -0.252 OA
BRANCH   2   4
ATOM      4  C   UNL A   1      33.191  28.103  26.278  1.00  0.00     0.160 C 
BRANCH   4   5
ATOM      5  C   UNL A   1      32.886  27.943  24.802  1.00  0.00     0.184 C 
ATOM      6  C   UNL A   1      32.519  26.501  24.410  1.00  0.00     0.295 C 
ATOM      7  O   UNL A   1      34.102  28.318  24.128  1.00  0.00    -0.366 OA
ATOM      8  N   UNL A   1      32.365  26.324  22.952  1.00  0.00    -0.330 N 
ATOM      9  C   UNL A   1      33.972  28.226  22.714  1.00  0.00     0.222 C 
ATOM     10  C   UNL A   1      33.567  26.814  22.279  1.00  0.00     0.291 C 
ATOM     11  H   UNL A   1      32.297  25.322  22.775  1.00  0.00     0.348 HD
BRANCH   8  12
ATOM     12  C   UNL A   1      31.073  26.722  22.365  1.00  0.00     0.273 C 
BRANCH  12  13
ATOM     13  C   UNL A   1      30.550  28.186  22.296  1.00  0.00     0.136 C 
BRANCH  13  14
ATOM     14  S   UNL A   1      28.891  28.561  23.033  1.00  0.00    -0.117 SA
BRANCH  14  15
ATOM     15  C   UNL A   1      28.667  30.319  22.799  1.00  0.00     0.043 A 
ATOM     16  C   UNL A   1      28.996  31.250  23.793  1.00  0.00     0.018 A 
ATOM     17  C   UNL A   1      28.142  30.800  21.593  1.00  0.00     0.136 A 
ATOM     18  C   UNL A   1      28.921  32.626  23.528  1.00  0.00     0.001 A 
ATOM     19  C   UNL A   1      28.079  32.166  21.318  1.00  0.00     0.040 A 
ATOM     20  F   UNL A   1      27.774  29.947  20.624  1.00  0.00    -0.206 F 
ATOM     21  C   UNL A   1      28.490  33.083  22.282  1.00  0.00     0.003 A 
ENDBRANCH  14  15
ENDBRANCH  13  14
ENDBRANCH  12  13
ENDBRANCH   8  12
ENDBRANCH   4   5
ENDBRANCH   2   4
ENDBRANCH   1   2
BRANCH   1  22
ATOM     22  C   UNL A   1      31.660  30.958  26.420  1.00  0.00     0.274 C 
BRANCH  22  23
ATOM     23  C   UNL A   1      31.544  32.346  27.053  1.00  0.00     0.275 C 
BRANCH  23  24
ATOM     24  O   UNL A   1      32.763  33.088  26.914  1.00  0.00    -0.458 OA
BRANCH  24  25
ATOM     25  C   UNL A   1      33.248  33.613  28.063  1.00  0.00     0.338 C 
ATOM     26  O   UNL A   1      32.674  34.375  28.823  1.00  0.00    -0.246 OA
BRANCH  25  27
ATOM     27  C   UNL A   1      34.554  32.995  28.373  1.00  0.00     0.060 A 
ATOM     28  C   UNL A   1      34.545  31.668  28.822  1.00  0.00     0.016 A 
ATOM     29  C   UNL A   1      35.763  33.681  28.217  1.00  0.00     0.016 A 
ATOM     30  C   UNL A   1      35.741  31.026  29.121  1.00  0.00     0.010 A 
ATOM     31  C   UNL A   1      36.963  33.047  28.548  1.00  0.00     0.010 A 
ATOM     32  C   UNL A   1      36.950  31.727  29.027  1.00  0.00    -0.014 A 
BRANCH  32  33
ATOM     33  C   UNL A   1      38.144  31.137  29.673  1.00  0.00     0.031 A 
ATOM     34  C   UNL A   1      38.406  31.496  31.108  1.00  0.00     0.074 A 
ATOM     35  C   UNL A   1      38.918  30.239  29.040  1.00  0.00     0.049 A 
ATOM     36  N   UNL A   1      39.291  31.009  31.937  1.00  0.00    -0.248 NA
ATOM     37  C   UNL A   1      37.541  32.538  31.688  1.00  0.00     0.031 C 
ATOM     38  C   UNL A   1      38.747  29.793  27.660  1.00  0.00     0.029 A 
ATOM     39  N   UNL A   1      39.999  29.528  29.496  1.00  0.00    -0.354 N 
ATOM     40  C   UNL A   1      39.064  31.658  33.143  1.00  0.00     0.074 A 
ATOM     41  C   UNL A   1      38.001  32.612  32.926  1.00  0.00     0.031 C 
ATOM     42  C   UNL A   1      39.690  28.876  27.381  1.00  0.00     0.029 A 
ATOM     43  C   UNL A   1      40.531  28.674  28.561  1.00  0.00     0.049 A 
ATOM     44  H   UNL A   1      40.361  29.622  30.406  1.00  0.00     0.167 HD
ATOM     45  C   UNL A   1      39.672  31.460  34.334  1.00  0.00     0.037 A 
ATOM     46  C   UNL A   1      41.570  27.821  28.658  1.00  0.00     0.037 A 
ATOM     47  C   UNL A   1      40.753  30.537  34.542  1.00  0.00     0.049 A 
ATOM     48  C   UNL A   1      42.290  27.676  29.975  1.00  0.00     0.074 A 
ATOM     49  C   UNL A   1      41.457  30.282  35.705  1.00  0.00     0.029 A 
ATOM     50  N   UNL A   1      41.297  29.727  33.556  1.00  0.00    -0.354 N 
ATOM     51  N   UNL A   1      42.045  28.265  31.121  1.00  0.00    -0.248 NA
ATOM     52  C   UNL A   1      43.418  26.733  30.017  1.00  0.00     0.031 C 
ATOM     53  C   UNL A   1      42.457  29.350  35.411  1.00  0.00     0.029 A 
ATOM     54  C   UNL A   1      42.338  28.982  34.080  1.00  0.00     0.049 A 
ATOM     55  H   UNL A   1      40.986  29.687  32.622  1.00  0.00     0.167 HD
ATOM     56  C   UNL A   1      42.962  27.740  32.025  1.00  0.00     0.074 A 
ATOM     57  C   UNL A   1      43.765  26.782  31.295  1.00  0.00     0.031 C 
ATOM     58  C   UNL A   1      43.118  28.020  33.343  1.00  0.00     0.037 A 
BRANCH  45  59
ATOM     59  C   UNL A   1      39.182  32.270  35.495  1.00  0.00     0.057 A 
ATOM     60  C   UNL A   1      39.645  33.573  35.706  1.00  0.00     0.134 A 
ATOM     61  C   UNL A   1      38.261  31.750  36.414  1.00  0.00     0.134 A 
ATOM     62  F   UNL A   1      40.525  34.130  34.861  1.00  0.00    -0.206 F 
ATOM     63  C   UNL A   1      39.214  34.330  36.797  1.00  0.00     0.040 A 
ATOM     64  C   UNL A   1      37.803  32.506  37.494  1.00  0.00     0.040 A 
ATOM     65  F   UNL A   1      37.762  30.515  36.253  1.00  0.00    -0.206 F 
ATOM     66  C   UNL A   1      38.287  33.798  37.691  1.00  0.00     0.006 A 
ENDBRANCH  45  59
BRANCH  46  67
ATOM     67  C   UNL A   1      41.973  27.012  27.480  1.00  0.00     0.057 A 
ATOM     68  C   UNL A   1      42.839  27.525  26.507  1.00  0.00     0.134 A 
ATOM     69  C   UNL A   1      41.508  25.704  27.303  1.00  0.00     0.134 A 
ATOM     70  F   UNL A   1      43.321  28.771  26.620  1.00  0.00    -0.206 F 
ATOM     71  C   UNL A   1      43.218  26.772  25.394  1.00  0.00     0.040 A 
ATOM     72  C   UNL A   1      41.898  24.931  26.207  1.00  0.00     0.040 A 
ATOM     73  F   UNL A   1      40.695  25.147  28.212  1.00  0.00    -0.206 F 
ATOM     74  C   UNL A   1      42.751  25.469  25.244  1.00  0.00     0.006 A 
ENDBRANCH  46  67
BRANCH  58  75
ATOM     75  C   UNL A   1      44.166  27.260  34.104  1.00  0.00     0.057 A 
ATOM     76  C   UNL A   1      43.839  26.062  34.754  1.00  0.00     0.134 A 
ATOM     77  C   UNL A   1      45.464  27.753  34.275  1.00  0.00     0.134 A 
ATOM     78  F   UNL A   1      42.605  25.542  34.645  1.00  0.00    -0.206 F 
ATOM     79  C   UNL A   1      44.761  25.389  35.556  1.00  0.00     0.040 A 
ATOM     80  C   UNL A   1      46.405  27.075  35.052  1.00  0.00     0.040 A 
ATOM     81  F   UNL A   1      45.843  28.892  33.676  1.00  0.00    -0.206 F 
ATOM     82  C   UNL A   1      46.050  25.895  35.704  1.00  0.00     0.006 A 
ENDBRANCH  58  75
ENDBRANCH  32  33
ENDBRANCH  25  27
ENDBRANCH  24  25
ENDBRANCH  23  24
ENDBRANCH  22  23
ENDBRANCH   1  22
TORSDOF 16
ENDMDL
MODEL 2
REMARK VINA RESULT:     -10.6      4.782      9.546
REMARK SMILES O=C(C[C@@H]1C[N@@H+](CCSc2ccccc2F)CCO1)OCCOC(=O)c1ccc(-c2c3nc(c(-c4c(F)cccc4F)c4ccc([nH]4)c(-c4c(F)cccc4F)c4nc(c(-c5c(F)cccc5F)c5ccc2[nH]5)C=C4)C=C3)cc1
REMARK SMILES IDX 20 1 2 2 1 3 3 4 4 5 5 6 19 7 6 8 18 9 17 10 7 12 8 13 9 14
REMARK SMILES IDX 10 15 11 16 15 17 12 18 14 19 16 20 13 21 21 22 22 23 23 24
REMARK SMILES IDX 24 25 25 26 26 27 27 28 79 29 28 30 78 31 29 32 30 33 31 34
REMARK SMILES IDX 72 35 32 36 77 37 71 38 73 39 33 40 76 41 70 42 69 43 34 45
REMARK SMILES IDX 60 46 43 47 59 48 44 49 47 50 58 51 74 52 45 53 46 54 57 56
REMARK SMILES IDX 75 57 48 58 35 59 36 60 41 61 37 62 38 63 40 64 42 65 39 66
REMARK SMILES IDX 61 67 62 68 67 69 63 70 64 71 66 72 68 73 65 74 49 75 50 76
REMARK SMILES IDX 55 77 51 78 52 79 54 80 56 81 53 82
REMARK H PARENT 6 11 73 44 47 55
REMARK Flexibility Score: inf
ROOT
ATOM      1  O   UNL A   1      42.626  21.423  25.447  1.00  0.00    -0.462 OA
ENDROOT
BRANCH   1   2
ATOM      2  C   UNL A   1      41.894  20.448  26.034  1.00  0.00     0.308 C 
ATOM      3  O   UNL A   1      41.669  19.391  25.451  1.00  0.00    -0.252 OA
BRANCH   2   4
ATOM      4  C   UNL A   1      41.184  20.778  27.324  1.00  0.00     0.160 C 
BRANCH   4   5
ATOM      5  C   UNL A   1      39.937  21.622  27.149  1.00  0.00     0.184 C 
ATOM      6  C   UNL A   1      39.490  21.750  25.681  1.00  0.00     0.295 C 
ATOM      7  O   UNL A   1      40.296  22.924  27.646  1.00  0.00    -0.366 OA
ATOM      8  N   UNL A   1      38.365  22.688  25.503  1.00  0.00    -0.330 N 
ATOM      9  C   UNL A   1      39.213  23.842  27.554  1.00  0.00     0.222 C 
ATOM     10  C   UNL A   1      38.707  23.971  26.113  1.00  0.00     0.291 C 
ATOM     11  H   UNL A   1      38.254  22.841  24.501  1.00  0.00     0.348 HD
BRANCH   8  12
ATOM     12  C   UNL A   1      37.013  22.168  25.780  1.00  0.00     0.273 C 
BRANCH  12  13
ATOM     13  C   UNL A   1      36.303  21.070  24.937  1.00  0.00     0.136 C 
BRANCH  13  14
ATOM     14  S   UNL A   1      34.462  20.905  25.083  1.00  0.00    -0.117 SA
BRANCH  14  15
ATOM     15  C   UNL A   1      34.106  19.228  24.577  1.00  0.00     0.043 A 
ATOM     16  C   UNL A   1      35.099  18.240  24.523  1.00  0.00     0.018 A 
ATOM     17  C   UNL A   1      32.800  18.871  24.214  1.00  0.00     0.136 A 
ATOM     18  C   UNL A   1      34.759  16.909  24.238  1.00  0.00     0.001 A 
ATOM     19  C   UNL A   1      32.454  17.547  23.945  1.00  0.00     0.040 A 
ATOM     20  F   UNL A   1      31.821  19.790  24.211  1.00  0.00    -0.206 F 
ATOM     21  C   UNL A   1      33.433  16.558  23.978  1.00  0.00     0.003 A 
ENDBRANCH  14  15
ENDBRANCH  13  14
ENDBRANCH  12  13
ENDBRANCH   8  12
ENDBRANCH   4   5
ENDBRANCH   2   4
ENDBRANCH   1   2
BRANCH   1  22
ATOM     22  C   UNL A   1      43.972  21.733  25.866  1.00  0.00     0.274 C 
BRANCH  22  23
ATOM     23  C   UNL A   1      44.706  22.592  24.834  1.00  0.00     0.275 C 
BRANCH  23  24
ATOM     24  O   UNL A   1      44.056  23.857  24.649  1.00  0.00    -0.458 OA
BRANCH  24  25
ATOM     25  C   UNL A   1      44.726  24.923  25.144  1.00  0.00     0.338 C 
ATOM     26  O   UNL A   1      45.826  25.325  24.800  1.00  0.00    -0.246 OA
BRANCH  25  27
ATOM     27  C   UNL A   1      43.854  25.662  26.081  1.00  0.00     0.060 A 
ATOM     28  C   UNL A   1      44.283  26.930  26.491  1.00  0.00     0.016 A 
ATOM     29  C   UNL A   1      42.638  25.143  26.538  1.00  0.00     0.016 A 
ATOM     30  C   UNL A   1      43.504  27.681  27.363  1.00  0.00     0.010 A 
ATOM     31  C   UNL A   1      41.869  25.884  27.440  1.00  0.00     0.010 A 
ATOM     32  C   UNL A   1      42.315  27.143  27.874  1.00  0.00    -0.014 A 
BRANCH  32  33
ATOM     33  C   UNL A   1      41.701  27.809  29.044  1.00  0.00     0.031 A 
ATOM     34  C   UNL A   1      42.399  27.673  30.367  1.00  0.00     0.074 A 
ATOM     35  C   UNL A   1      40.612  28.587  28.922  1.00  0.00     0.049 A 
ATOM     36  N   UNL A   1      42.149  28.270  31.502  1.00  0.00    -0.248 NA
ATOM     37  C   UNL A   1      43.542  26.746  30.409  1.00  0.00     0.031 C 
ATOM     38  C   UNL A   1      39.866  28.817  27.687  1.00  0.00     0.029 A 
ATOM     39  N   UNL A   1      39.958  29.345  29.860  1.00  0.00    -0.354 N 
ATOM     40  C   UNL A   1      43.125  27.819  32.380  1.00  0.00     0.074 A 
ATOM     41  C   UNL A   1      43.935  26.857  31.668  1.00  0.00     0.031 C 
ATOM     42  C   UNL A   1      38.856  29.667  27.942  1.00  0.00     0.029 A 
ATOM     43  C   UNL A   1      38.883  30.038  29.358  1.00  0.00     0.049 A 
ATOM     44  H   UNL A   1      40.233  29.389  30.804  1.00  0.00     0.167 HD
ATOM     45  C   UNL A   1      43.344  28.191  33.662  1.00  0.00     0.037 A 
ATOM     46  C   UNL A   1      38.031  30.881  29.973  1.00  0.00     0.037 A 
ATOM     47  C   UNL A   1      42.518  29.120  34.382  1.00  0.00     0.049 A 
ATOM     48  C   UNL A   1      38.243  31.218  31.428  1.00  0.00     0.074 A 
ATOM     49  C   UNL A   1      42.639  29.542  35.693  1.00  0.00     0.029 A 
ATOM     50  N   UNL A   1      41.408  29.760  33.852  1.00  0.00    -0.354 N 
ATOM     51  N   UNL A   1      39.191  30.817  32.241  1.00  0.00    -0.248 NA
ATOM     52  C   UNL A   1      37.277  32.140  32.045  1.00  0.00     0.031 C 
ATOM     53  C   UNL A   1      41.573  30.403  35.970  1.00  0.00     0.029 A 
ATOM     54  C   UNL A   1      40.823  30.562  34.815  1.00  0.00     0.049 A 
ATOM     55  H   UNL A   1      41.085  29.660  32.927  1.00  0.00     0.167 HD
ATOM     56  C   UNL A   1      38.958  31.464  33.450  1.00  0.00     0.074 A 
ATOM     57  C   UNL A   1      37.781  32.286  33.262  1.00  0.00     0.031 C 
ATOM     58  C   UNL A   1      39.660  31.388  34.608  1.00  0.00     0.037 A 
BRANCH  45  59
ATOM     59  C   UNL A   1      44.518  27.578  34.360  1.00  0.00     0.057 A 
ATOM     60  C   UNL A   1      44.388  26.370  35.055  1.00  0.00     0.134 A 
ATOM     61  C   UNL A   1      45.777  28.194  34.358  1.00  0.00     0.134 A 
ATOM     62  F   UNL A   1      43.211  25.728  35.093  1.00  0.00    -0.206 F 
ATOM     63  C   UNL A   1      45.469  25.799  35.730  1.00  0.00     0.040 A 
ATOM     64  C   UNL A   1      46.870  27.620  35.008  1.00  0.00     0.040 A 
ATOM     65  F   UNL A   1      45.970  29.341  33.690  1.00  0.00    -0.206 F 
ATOM     66  C   UNL A   1      46.715  26.423  35.703  1.00  0.00     0.006 A 
ENDBRANCH  45  59
BRANCH  46  67
ATOM     67  C   UNL A   1      36.916  31.492  29.208  1.00  0.00     0.057 A 
ATOM     68  C   UNL A   1      36.985  32.815  28.753  1.00  0.00     0.134 A 
ATOM     69  C   UNL A   1      35.756  30.768  28.909  1.00  0.00     0.134 A 
ATOM     70  F   UNL A   1      38.070  33.561  29.006  1.00  0.00    -0.206 F 
ATOM     71  C   UNL A   1      35.938  33.399  28.039  1.00  0.00     0.040 A 
ATOM     72  C   UNL A   1      34.710  31.333  28.175  1.00  0.00     0.040 A 
ATOM     73  F   UNL A   1      35.638  29.490  29.297  1.00  0.00    -0.206 F 
ATOM     74  C   UNL A   1      34.797  32.656  27.744  1.00  0.00     0.006 A 
ENDBRANCH  46  67
BRANCH  58  75
ATOM     75  C   UNL A   1      39.213  32.242  35.758  1.00  0.00     0.057 A 
ATOM     76  C   UNL A   1      39.714  33.543  35.912  1.00  0.00     0.134 A 
ATOM     77  C   UNL A   1      38.366  31.755  36.760  1.00  0.00     0.134 A 
ATOM     78  F   UNL A   1      40.544  34.066  34.995  1.00  0.00    -0.206 F 
ATOM     79  C   UNL A   1      39.400  34.321  37.026  1.00  0.00     0.040 A 
ATOM     80  C   UNL A   1      38.022  32.534  37.866  1.00  0.00     0.040 A 
ATOM     81  F   UNL A   1      37.847  30.521  36.671  1.00  0.00    -0.206 F 
ATOM     82  C   UNL A   1      38.549  33.817  38.006  1.00  0.00     0.006 A 
ENDBRANCH  58  75
ENDBRANCH  32  33
ENDBRANCH  25  27
ENDBRANCH  24  25
ENDBRANCH  23  24
ENDBRANCH  22  23
ENDBRANCH   1  22
TORSDOF 16
ENDMDL
MODEL 3
REMARK VINA RESULT:     -10.6      3.720      7.906
REMARK SMILES O=C(C[C@@H]1C[N@@H+](CCSc2ccccc2F)CCO1)OCCOC(=O)c1ccc(-c2c3nc(c(-c4c(F)cccc4F)c4ccc([nH]4)c(-c4c(F)cccc4F)c4nc(c(-c5c(F)cccc5F)c5ccc2[nH]5)C=C4)C=C3)cc1
REMARK SMILES IDX 20 1 2 2 1 3 3 4 4 5 5 6 19 7 6 8 18 9 17 10 7 12 8 13 9 14
REMARK SMILES IDX 10 15 11 16 15 17 12 18 14 19 16 20 13 21 21 22 22 23 23 24
REMARK SMILES IDX 24 25 25 26 26 27 27 28 79 29 28 30 78 31 29 32 30 33 31 34
REMARK SMILES IDX 72 35 32 36 77 37 71 38 73 39 33 40 76 41 70 42 69 43 34 45
REMARK SMILES IDX 60 46 43 47 59 48 44 49 47 50 58 51 74 52 45 53 46 54 57 56
REMARK SMILES IDX 75 57 48 58 35 59 36 60 41 61 37 62 38 63 40 64 42 65 39 66
REMARK SMILES IDX 61 67 62 68 67 69 63 70 64 71 66 72 68 73 65 74 49 75 50 76
REMARK SMILES IDX 55 77 51 78 52 79 54 80 56 81 53 82
REMARK H PARENT 6 11 73 44 47 55
REMARK Flexibility Score: inf
ROOT
ATOM      1  O   UNL A   1      38.295  22.063  25.793  1.00  0.00    -0.462 OA
ENDROOT
BRANCH   1   2
ATOM      2  C   UNL A   1      37.414  21.605  24.873  1.00  0.00     0.308 C 
ATOM      3  O   UNL A   1      37.357  20.410  24.594  1.00  0.00    -0.252 OA
BRANCH   2   4
ATOM      4  C   UNL A   1      36.664  22.621  24.047  1.00  0.00     0.160 C 
BRANCH   4   5
ATOM      5  C   UNL A   1      35.269  22.928  24.556  1.00  0.00     0.184 C 
ATOM      6  C   UNL A   1      35.183  24.250  25.338  1.00  0.00     0.295 C 
ATOM      7  O   UNL A   1      34.949  21.838  25.441  1.00  0.00    -0.366 OA
ATOM      8  N   UNL A   1      33.859  24.470  25.953  1.00  0.00    -0.330 N 
ATOM      9  C   UNL A   1      33.648  21.977  26.002  1.00  0.00     0.222 C 
ATOM     10  C   UNL A   1      33.504  23.303  26.758  1.00  0.00     0.291 C 
ATOM     11  H   UNL A   1      33.946  25.267  26.583  1.00  0.00     0.348 HD
BRANCH   8  12
ATOM     12  C   UNL A   1      32.802  25.015  25.082  1.00  0.00     0.273 C 
BRANCH  12  13
ATOM     13  C   UNL A   1      31.826  26.156  25.489  1.00  0.00     0.136 C 
BRANCH  13  14
ATOM     14  S   UNL A   1      32.036  27.818  24.693  1.00  0.00    -0.117 SA
BRANCH  14  15
ATOM     15  C   UNL A   1      32.963  28.784  25.876  1.00  0.00     0.043 A 
ATOM     16  C   UNL A   1      34.155  28.318  26.448  1.00  0.00     0.018 A 
ATOM     17  C   UNL A   1      32.496  30.047  26.263  1.00  0.00     0.136 A 
ATOM     18  C   UNL A   1      34.916  29.154  27.279  1.00  0.00     0.001 A 
ATOM     19  C   UNL A   1      33.256  30.888  27.077  1.00  0.00     0.040 A 
ATOM     20  F   UNL A   1      31.339  30.523  25.775  1.00  0.00    -0.206 F 
ATOM     21  C   UNL A   1      34.481  30.448  27.570  1.00  0.00     0.003 A 
ENDBRANCH  14  15
ENDBRANCH  13  14
ENDBRANCH  12  13
ENDBRANCH   8  12
ENDBRANCH   4   5
ENDBRANCH   2   4
ENDBRANCH   1   2
BRANCH   1  22
ATOM     22  C   UNL A   1      39.478  21.322  26.159  1.00  0.00     0.274 C 
BRANCH  22  23
ATOM     23  C   UNL A   1      40.638  22.250  26.530  1.00  0.00     0.275 C 
BRANCH  23  24
ATOM     24  O   UNL A   1      40.202  23.611  26.646  1.00  0.00    -0.458 OA
BRANCH  24  25
ATOM     25  C   UNL A   1      41.181  24.538  26.533  1.00  0.00     0.338 C 
ATOM     26  O   UNL A   1      42.096  24.545  25.725  1.00  0.00    -0.246 OA
BRANCH  25  27
ATOM     27  C   UNL A   1      40.898  25.667  27.442  1.00  0.00     0.060 A 
ATOM     28  C   UNL A   1      41.736  26.786  27.355  1.00  0.00     0.016 A 
ATOM     29  C   UNL A   1      39.833  25.650  28.348  1.00  0.00     0.016 A 
ATOM     30  C   UNL A   1      41.518  27.886  28.176  1.00  0.00     0.010 A 
ATOM     31  C   UNL A   1      39.631  26.743  29.196  1.00  0.00     0.010 A 
ATOM     32  C   UNL A   1      40.491  27.851  29.129  1.00  0.00    -0.014 A 
BRANCH  32  33
ATOM     33  C   UNL A   1      40.506  28.872  30.200  1.00  0.00     0.031 A 
ATOM     34  C   UNL A   1      39.476  29.963  30.134  1.00  0.00     0.074 A 
ATOM     35  C   UNL A   1      41.344  28.785  31.247  1.00  0.00     0.049 A 
ATOM     36  N   UNL A   1      39.186  30.885  31.013  1.00  0.00    -0.248 NA
ATOM     37  C   UNL A   1      38.652  30.009  28.915  1.00  0.00     0.031 C 
ATOM     38  C   UNL A   1      42.366  27.758  31.434  1.00  0.00     0.029 A 
ATOM     39  N   UNL A   1      41.447  29.574  32.365  1.00  0.00    -0.354 N 
ATOM     40  C   UNL A   1      38.125  31.595  30.469  1.00  0.00     0.074 A 
ATOM     41  C   UNL A   1      37.858  31.038  29.163  1.00  0.00     0.031 C 
ATOM     42  C   UNL A   1      42.992  27.978  32.604  1.00  0.00     0.029 A 
ATOM     43  C   UNL A   1      42.416  29.160  33.245  1.00  0.00     0.049 A 
ATOM     44  H   UNL A   1      40.879  30.363  32.521  1.00  0.00     0.167 HD
ATOM     45  C   UNL A   1      37.417  32.607  31.019  1.00  0.00     0.037 A 
ATOM     46  C   UNL A   1      42.783  29.674  34.435  1.00  0.00     0.037 A 
ATOM     47  C   UNL A   1      37.704  33.185  32.303  1.00  0.00     0.049 A 
ATOM     48  C   UNL A   1      42.034  30.858  34.994  1.00  0.00     0.074 A 
ATOM     49  C   UNL A   1      37.064  34.234  32.938  1.00  0.00     0.029 A 
ATOM     50  N   UNL A   1      38.728  32.770  33.141  1.00  0.00    -0.354 N 
ATOM     51  N   UNL A   1      41.006  31.500  34.491  1.00  0.00    -0.248 NA
ATOM     52  C   UNL A   1      42.484  31.378  36.294  1.00  0.00     0.031 C 
ATOM     53  C   UNL A   1      37.731  34.483  34.141  1.00  0.00     0.029 A 
ATOM     54  C   UNL A   1      38.748  33.553  34.282  1.00  0.00     0.049 A 
ATOM     55  H   UNL A   1      39.347  32.028  32.953  1.00  0.00     0.167 HD
ATOM     56  C   UNL A   1      40.666  32.472  35.426  1.00  0.00     0.074 A 
ATOM     57  C   UNL A   1      41.593  32.331  36.528  1.00  0.00     0.031 C 
ATOM     58  C   UNL A   1      39.669  33.390  35.378  1.00  0.00     0.037 A 
BRANCH  45  59
ATOM     59  C   UNL A   1      36.273  33.155  30.221  1.00  0.00     0.057 A 
ATOM     60  C   UNL A   1      36.499  34.018  29.144  1.00  0.00     0.134 A 
ATOM     61  C   UNL A   1      34.945  32.837  30.532  1.00  0.00     0.134 A 
ATOM     62  F   UNL A   1      37.748  34.359  28.793  1.00  0.00    -0.206 F 
ATOM     63  C   UNL A   1      35.442  34.554  28.407  1.00  0.00     0.040 A 
ATOM     64  C   UNL A   1      33.881  33.345  29.786  1.00  0.00     0.040 A 
ATOM     65  F   UNL A   1      34.664  31.996  31.539  1.00  0.00    -0.206 F 
ATOM     66  C   UNL A   1      34.129  34.213  28.725  1.00  0.00     0.006 A 
ENDBRANCH  45  59
BRANCH  46  67
ATOM     67  C   UNL A   1      43.894  29.053  35.198  1.00  0.00     0.057 A 
ATOM     68  C   UNL A   1      45.227  29.416  34.967  1.00  0.00     0.134 A 
ATOM     69  C   UNL A   1      43.651  28.085  36.179  1.00  0.00     0.134 A 
ATOM     70  F   UNL A   1      45.526  30.338  34.041  1.00  0.00    -0.206 F 
ATOM     71  C   UNL A   1      46.278  28.832  35.676  1.00  0.00     0.040 A 
ATOM     72  C   UNL A   1      44.691  27.509  36.912  1.00  0.00     0.040 A 
ATOM     73  F   UNL A   1      42.395  27.711  36.463  1.00  0.00    -0.206 F 
ATOM     74  C   UNL A   1      46.011  27.878  36.656  1.00  0.00     0.006 A 
ENDBRANCH  46  67
BRANCH  58  75
ATOM     75  C   UNL A   1      39.491  34.296  36.562  1.00  0.00     0.057 A 
ATOM     76  C   UNL A   1      40.082  35.567  36.577  1.00  0.00     0.134 A 
ATOM     77  C   UNL A   1      38.820  33.883  37.719  1.00  0.00     0.134 A 
ATOM     78  F   UNL A   1      40.754  36.018  35.506  1.00  0.00    -0.206 F 
ATOM     79  C   UNL A   1      40.024  36.388  37.703  1.00  0.00     0.040 A 
ATOM     80  C   UNL A   1      38.731  34.706  38.843  1.00  0.00     0.040 A 
ATOM     81  F   UNL A   1      38.228  32.680  37.769  1.00  0.00    -0.206 F 
ATOM     82  C   UNL A   1      39.344  35.958  38.840  1.00  0.00     0.006 A 
ENDBRANCH  58  75
ENDBRANCH  32  33
ENDBRANCH  25  27
ENDBRANCH  24  25
ENDBRANCH  23  24
ENDBRANCH  22  23
ENDBRANCH   1  22
TORSDOF 16
ENDMDL
