MODEL 1
REMARK VINA RESULT:     -10.3      0.000      0.000
REMARK SMILES O=C(OCCOC(=O)c1noc(-c2ccccc2C(F)(F)F)n1)c1ccc(-c2c3nc(c(-c4c(F)cccc4F)c4ccc([nH]4)c(-c4c(F)cccc4F)c4nc(c(-c5c(F)cccc5F)c5ccc2[nH]5)C=C4)C=C3)cc1
REMARK SMILES IDX 4 1 3 2 2 3 1 4 24 5 25 6 77 7 26 8 76 9 27 10 28 11 29 12
REMARK SMILES IDX 70 13 30 14 75 15 69 16 71 17 31 18 74 19 68 20 67 21 32 23
REMARK SMILES IDX 58 24 41 25 57 26 42 27 45 28 56 29 72 30 43 31 44 32 55 34
REMARK SMILES IDX 73 35 46 36 33 37 34 38 39 39 35 40 36 41 38 42 40 43 37 44
REMARK SMILES IDX 59 45 60 46 65 47 61 48 62 49 64 50 66 51 63 52 47 53 48 54
REMARK SMILES IDX 53 55 49 56 50 57 52 58 54 59 51 60 5 61 6 62 7 63 8 64 9 65
REMARK SMILES IDX 10 66 23 67 11 68 12 69 13 70 14 71 18 72 15 73 17 74 16 75
REMARK SMILES IDX 19 76 20 77 21 78 22 79
REMARK H PARENT 71 22 45 33
REMARK Flexibility Score: inf
ROOT
ATOM      1  C   UNL A   1      33.319  36.594  29.523  1.00  0.00     0.275 C 
ENDROOT
BRANCH   1   2
ATOM      2  O   UNL A   1      32.532  35.477  29.071  1.00  0.00    -0.458 OA
BRANCH   2   3
ATOM      3  C   UNL A   1      33.000  34.431  28.346  1.00  0.00     0.338 C 
ATOM      4  O   UNL A   1      32.258  33.804  27.596  1.00  0.00    -0.246 OA
BRANCH   3   5
ATOM      5  C   UNL A   1      34.336  33.851  28.669  1.00  0.00     0.060 A 
ATOM      6  C   UNL A   1      35.484  33.998  27.886  1.00  0.00     0.016 A 
ATOM      7  C   UNL A   1      34.409  33.058  29.823  1.00  0.00     0.016 A 
ATOM      8  C   UNL A   1      36.706  33.455  28.295  1.00  0.00     0.010 A 
ATOM      9  C   UNL A   1      35.622  32.484  30.215  1.00  0.00     0.010 A 
ATOM     10  C   UNL A   1      36.789  32.703  29.468  1.00  0.00    -0.014 A 
BRANCH  10  11
ATOM     11  C   UNL A   1      38.063  32.042  29.843  1.00  0.00     0.031 A 
ATOM     12  C   UNL A   1      39.034  32.803  30.700  1.00  0.00     0.074 A 
ATOM     13  C   UNL A   1      38.334  30.781  29.451  1.00  0.00     0.049 A 
ATOM     14  N   UNL A   1      40.220  32.450  31.119  1.00  0.00    -0.248 NA
ATOM     15  C   UNL A   1      38.600  34.131  31.168  1.00  0.00     0.031 C 
ATOM     16  C   UNL A   1      37.427  29.913  28.699  1.00  0.00     0.029 A 
ATOM     17  N   UNL A   1      39.462  30.012  29.611  1.00  0.00    -0.354 N 
ATOM     18  C   UNL A   1      40.647  33.482  31.943  1.00  0.00     0.074 A 
ATOM     19  C   UNL A   1      39.636  34.513  31.900  1.00  0.00     0.031 C 
ATOM     20  C   UNL A   1      38.050  28.755  28.420  1.00  0.00     0.029 A 
ATOM     21  C   UNL A   1      39.409  28.804  28.949  1.00  0.00     0.049 A 
ATOM     22  H   UNL A   1      40.235  30.298  30.148  1.00  0.00     0.167 HD
ATOM     23  C   UNL A   1      41.762  33.539  32.707  1.00  0.00     0.037 A 
ATOM     24  C   UNL A   1      40.369  27.872  28.764  1.00  0.00     0.037 A 
ATOM     25  C   UNL A   1      42.765  32.511  32.735  1.00  0.00     0.049 A 
ATOM     26  C   UNL A   1      41.725  28.125  29.380  1.00  0.00     0.074 A 
ATOM     27  C   UNL A   1      43.910  32.438  33.505  1.00  0.00     0.029 A 
ATOM     28  N   UNL A   1      42.745  31.382  31.931  1.00  0.00    -0.354 N 
ATOM     29  N   UNL A   1      42.091  29.069  30.215  1.00  0.00    -0.248 NA
ATOM     30  C   UNL A   1      42.806  27.195  29.022  1.00  0.00     0.031 C 
ATOM     31  C   UNL A   1      44.610  31.285  33.131  1.00  0.00     0.029 A 
ATOM     32  C   UNL A   1      43.882  30.628  32.151  1.00  0.00     0.049 A 
ATOM     33  H   UNL A   1      42.026  31.151  31.299  1.00  0.00     0.167 HD
ATOM     34  C   UNL A   1      43.408  28.787  30.556  1.00  0.00     0.074 A 
ATOM     35  C   UNL A   1      43.792  27.613  29.803  1.00  0.00     0.031 C 
ATOM     36  C   UNL A   1      44.217  29.425  31.436  1.00  0.00     0.037 A 
BRANCH  23  37
ATOM     37  C   UNL A   1      41.934  34.740  33.585  1.00  0.00     0.057 A 
ATOM     38  C   UNL A   1      41.360  34.794  34.862  1.00  0.00     0.134 A 
ATOM     39  C   UNL A   1      42.693  35.837  33.167  1.00  0.00     0.134 A 
ATOM     40  F   UNL A   1      40.607  33.779  35.314  1.00  0.00    -0.206 F 
ATOM     41  C   UNL A   1      41.522  35.908  35.687  1.00  0.00     0.040 A 
ATOM     42  C   UNL A   1      42.877  36.950  33.990  1.00  0.00     0.040 A 
ATOM     43  F   UNL A   1      43.267  35.847  31.955  1.00  0.00    -0.206 F 
ATOM     44  C   UNL A   1      42.288  36.988  35.253  1.00  0.00     0.006 A 
ENDBRANCH  23  37
BRANCH  24  45
ATOM     45  C   UNL A   1      40.156  26.668  27.904  1.00  0.00     0.057 A 
ATOM     46  C   UNL A   1      39.515  25.514  28.365  1.00  0.00     0.134 A 
ATOM     47  C   UNL A   1      40.719  26.592  26.626  1.00  0.00     0.134 A 
ATOM     48  F   UNL A   1      38.964  25.490  29.588  1.00  0.00    -0.206 F 
ATOM     49  C   UNL A   1      39.494  24.331  27.615  1.00  0.00     0.040 A 
ATOM     50  C   UNL A   1      40.689  25.433  25.851  1.00  0.00     0.040 A 
ATOM     51  F   UNL A   1      41.336  27.658  26.114  1.00  0.00    -0.206 F 
ATOM     52  C   UNL A   1      40.090  24.286  26.356  1.00  0.00     0.006 A 
ENDBRANCH  24  45
BRANCH  36  53
ATOM     53  C   UNL A   1      45.541  28.789  31.729  1.00  0.00     0.057 A 
ATOM     54  C   UNL A   1      46.711  29.152  31.054  1.00  0.00     0.134 A 
ATOM     55  C   UNL A   1      45.642  27.817  32.733  1.00  0.00     0.134 A 
ATOM     56  F   UNL A   1      46.672  30.061  30.068  1.00  0.00    -0.206 F 
ATOM     57  C   UNL A   1      47.936  28.558  31.358  1.00  0.00     0.040 A 
ATOM     58  C   UNL A   1      46.864  27.234  33.063  1.00  0.00     0.040 A 
ATOM     59  F   UNL A   1      44.555  27.431  33.418  1.00  0.00    -0.206 F 
ATOM     60  C   UNL A   1      48.016  27.602  32.371  1.00  0.00     0.006 A 
ENDBRANCH  36  53
ENDBRANCH  10  11
ENDBRANCH   3   5
ENDBRANCH   2   3
ENDBRANCH   1   2
BRANCH   1  61
ATOM     61  C   UNL A   1      32.975  37.051  30.947  1.00  0.00     0.275 C 
BRANCH  61  62
ATOM     62  O   UNL A   1      33.024  35.987  31.908  1.00  0.00    -0.456 OA
BRANCH  62  63
ATOM     63  C   UNL A   1      34.067  36.077  32.802  1.00  0.00     0.380 C 
ATOM     64  O   UNL A   1      34.437  37.132  33.301  1.00  0.00    -0.242 OA
BRANCH  63  65
ATOM     65  C   UNL A   1      34.620  34.767  33.164  1.00  0.00     0.281 A 
ATOM     66  N   UNL A   1      33.810  33.715  33.389  1.00  0.00    -0.049 NA
ATOM     67  N   UNL A   1      35.971  34.463  33.273  1.00  0.00    -0.181 NA
ATOM     68  O   UNL A   1      34.685  32.670  33.648  1.00  0.00    -0.333 OA
ATOM     69  C   UNL A   1      35.945  33.185  33.582  1.00  0.00     0.259 A 
BRANCH  69  70
ATOM     70  C   UNL A   1      36.987  32.270  34.016  1.00  0.00     0.052 A 
ATOM     71  C   UNL A   1      37.347  31.184  33.201  1.00  0.00     0.014 A 
ATOM     72  C   UNL A   1      37.588  32.405  35.280  1.00  0.00     0.068 A 
ATOM     73  C   UNL A   1      38.278  30.238  33.629  1.00  0.00     0.001 A 
ATOM     74  C   UNL A   1      38.467  31.399  35.729  1.00  0.00     0.014 A 
ATOM     75  C   UNL A   1      38.820  30.331  34.903  1.00  0.00     0.001 A 
BRANCH  72  76
ATOM     76  C   UNL A   1      37.370  33.634  36.128  1.00  0.00     0.417 C 
ATOM     77  F   UNL A   1      36.050  33.903  36.349  1.00  0.00    -0.166 F 
ATOM     78  F   UNL A   1      37.926  33.515  37.366  1.00  0.00    -0.166 F 
ATOM     79  F   UNL A   1      37.882  34.774  35.589  1.00  0.00    -0.166 F 
ENDBRANCH  72  76
ENDBRANCH  69  70
ENDBRANCH  63  65
ENDBRANCH  62  63
ENDBRANCH  61  62
ENDBRANCH   1  61
TORSDOF 13
ENDMDL
MODEL 2
REMARK VINA RESULT:     -10.2      0.812      6.512
REMARK SMILES O=C(OCCOC(=O)c1noc(-c2ccccc2C(F)(F)F)n1)c1ccc(-c2c3nc(c(-c4c(F)cccc4F)c4ccc([nH]4)c(-c4c(F)cccc4F)c4nc(c(-c5c(F)cccc5F)c5ccc2[nH]5)C=C4)C=C3)cc1
REMARK SMILES IDX 4 1 3 2 2 3 1 4 24 5 25 6 77 7 26 8 76 9 27 10 28 11 29 12
REMARK SMILES IDX 70 13 30 14 75 15 69 16 71 17 31 18 74 19 68 20 67 21 32 23
REMARK SMILES IDX 58 24 41 25 57 26 42 27 45 28 56 29 72 30 43 31 44 32 55 34
REMARK SMILES IDX 73 35 46 36 33 37 34 38 39 39 35 40 36 41 38 42 40 43 37 44
REMARK SMILES IDX 59 45 60 46 65 47 61 48 62 49 64 50 66 51 63 52 47 53 48 54
REMARK SMILES IDX 53 55 49 56 50 57 52 58 54 59 51 60 5 61 6 62 7 63 8 64 9 65
REMARK SMILES IDX 10 66 23 67 11 68 12 69 13 70 14 71 18 72 15 73 17 74 16 75
REMARK SMILES IDX 19 76 20 77 21 78 22 79
REMARK H PARENT 71 22 45 33
REMARK Flexibility Score: inf
ROOT
ATOM      1  C   UNL A   1      33.270  36.208  29.954  1.00  0.00     0.275 C 
ENDROOT
BRANCH   1   2
ATOM      2  O   UNL A   1      32.552  35.242  29.167  1.00  0.00    -0.458 OA
BRANCH   2   3
ATOM      3  C   UNL A   1      33.113  34.215  28.482  1.00  0.00     0.338 C 
ATOM      4  O   UNL A   1      32.482  33.618  27.616  1.00  0.00    -0.246 OA
BRANCH   3   5
ATOM      5  C   UNL A   1      34.389  33.617  28.969  1.00  0.00     0.060 A 
ATOM      6  C   UNL A   1      34.521  32.843  30.125  1.00  0.00     0.016 A 
ATOM      7  C   UNL A   1      35.541  33.911  28.225  1.00  0.00     0.016 A 
ATOM      8  C   UNL A   1      35.753  32.284  30.479  1.00  0.00     0.010 A 
ATOM      9  C   UNL A   1      36.781  33.383  28.597  1.00  0.00     0.010 A 
ATOM     10  C   UNL A   1      36.892  32.539  29.712  1.00  0.00    -0.014 A 
BRANCH  10  11
ATOM     11  C   UNL A   1      38.215  32.031  30.148  1.00  0.00     0.031 A 
ATOM     12  C   UNL A   1      38.635  30.660  29.699  1.00  0.00     0.074 A 
ATOM     13  C   UNL A   1      39.036  32.788  30.904  1.00  0.00     0.049 A 
ATOM     14  N   UNL A   1      39.721  29.993  29.985  1.00  0.00    -0.248 NA
ATOM     15  C   UNL A   1      37.717  29.957  28.786  1.00  0.00     0.031 C 
ATOM     16  C   UNL A   1      38.776  34.167  31.319  1.00  0.00     0.029 A 
ATOM     17  N   UNL A   1      40.251  32.498  31.479  1.00  0.00    -0.354 N 
ATOM     18  C   UNL A   1      39.645  28.822  29.243  1.00  0.00     0.074 A 
ATOM     19  C   UNL A   1      38.370  28.826  28.562  1.00  0.00     0.031 C 
ATOM     20  C   UNL A   1      39.771  34.584  32.121  1.00  0.00     0.029 A 
ATOM     21  C   UNL A   1      40.729  33.497  32.300  1.00  0.00     0.049 A 
ATOM     22  H   UNL A   1      40.733  31.655  31.320  1.00  0.00     0.167 HD
ATOM     23  C   UNL A   1      40.579  27.853  29.106  1.00  0.00     0.037 A 
ATOM     24  C   UNL A   1      41.796  33.505  33.127  1.00  0.00     0.037 A 
ATOM     25  C   UNL A   1      41.839  27.855  29.796  1.00  0.00     0.049 A 
ATOM     26  C   UNL A   1      42.654  32.263  33.184  1.00  0.00     0.074 A 
ATOM     27  C   UNL A   1      42.883  26.954  29.698  1.00  0.00     0.029 A 
ATOM     28  N   UNL A   1      42.211  28.805  30.734  1.00  0.00    -0.354 N 
ATOM     29  N   UNL A   1      42.611  31.193  32.426  1.00  0.00    -0.248 NA
ATOM     30  C   UNL A   1      43.701  32.219  34.215  1.00  0.00     0.031 C 
ATOM     31  C   UNL A   1      43.869  27.334  30.615  1.00  0.00     0.029 A 
ATOM     32  C   UNL A   1      43.450  28.487  31.259  1.00  0.00     0.049 A 
ATOM     33  H   UNL A   1      41.674  29.590  30.987  1.00  0.00     0.167 HD
ATOM     34  C   UNL A   1      43.680  30.400  32.822  1.00  0.00     0.074 A 
ATOM     35  C   UNL A   1      44.327  31.089  33.918  1.00  0.00     0.031 C 
ATOM     36  C   UNL A   1      44.107  29.222  32.307  1.00  0.00     0.037 A 
BRANCH  23  37
ATOM     37  C   UNL A   1      40.275  26.733  28.160  1.00  0.00     0.057 A 
ATOM     38  C   UNL A   1      40.835  26.694  26.876  1.00  0.00     0.134 A 
ATOM     39  C   UNL A   1      39.440  25.676  28.536  1.00  0.00     0.134 A 
ATOM     40  F   UNL A   1      41.632  27.687  26.451  1.00  0.00    -0.206 F 
ATOM     41  C   UNL A   1      40.561  25.650  25.992  1.00  0.00     0.040 A 
ATOM     42  C   UNL A   1      39.172  24.617  27.667  1.00  0.00     0.040 A 
ATOM     43  F   UNL A   1      38.872  25.655  29.751  1.00  0.00    -0.206 F 
ATOM     44  C   UNL A   1      39.731  24.604  26.390  1.00  0.00     0.006 A 
ENDBRANCH  23  37
BRANCH  24  45
ATOM     45  C   UNL A   1      42.088  34.653  34.040  1.00  0.00     0.057 A 
ATOM     46  C   UNL A   1      42.875  35.743  33.655  1.00  0.00     0.134 A 
ATOM     47  C   UNL A   1      41.696  34.618  35.382  1.00  0.00     0.134 A 
ATOM     48  F   UNL A   1      43.314  35.847  32.392  1.00  0.00    -0.206 F 
ATOM     49  C   UNL A   1      43.298  36.710  34.576  1.00  0.00     0.040 A 
ATOM     50  C   UNL A   1      42.085  35.583  36.311  1.00  0.00     0.040 A 
ATOM     51  F   UNL A   1      40.934  33.615  35.820  1.00  0.00    -0.206 F 
ATOM     52  C   UNL A   1      42.909  36.627  35.912  1.00  0.00     0.006 A 
ENDBRANCH  24  45
BRANCH  36  53
ATOM     53  C   UNL A   1      45.401  28.678  32.830  1.00  0.00     0.057 A 
ATOM     54  C   UNL A   1      46.640  29.073  32.317  1.00  0.00     0.134 A 
ATOM     55  C   UNL A   1      45.395  27.765  33.894  1.00  0.00     0.134 A 
ATOM     56  F   UNL A   1      46.708  29.926  31.285  1.00  0.00    -0.206 F 
ATOM     57  C   UNL A   1      47.832  28.565  32.835  1.00  0.00     0.040 A 
ATOM     58  C   UNL A   1      46.580  27.270  34.436  1.00  0.00     0.040 A 
ATOM     59  F   UNL A   1      44.236  27.354  34.431  1.00  0.00    -0.206 F 
ATOM     60  C   UNL A   1      47.804  27.667  33.902  1.00  0.00     0.006 A 
ENDBRANCH  36  53
ENDBRANCH  10  11
ENDBRANCH   3   5
ENDBRANCH   2   3
ENDBRANCH   1   2
BRANCH   1  61
ATOM     61  C   UNL A   1      32.619  36.501  31.313  1.00  0.00     0.275 C 
BRANCH  61  62
ATOM     62  O   UNL A   1      33.501  36.269  32.422  1.00  0.00    -0.456 OA
BRANCH  62  63
ATOM     63  C   UNL A   1      33.492  34.976  32.893  1.00  0.00     0.380 C 
ATOM     64  O   UNL A   1      32.515  34.242  32.829  1.00  0.00    -0.242 OA
BRANCH  63  65
ATOM     65  C   UNL A   1      34.804  34.545  33.391  1.00  0.00     0.281 A 
ATOM     66  N   UNL A   1      35.844  35.399  33.424  1.00  0.00    -0.049 NA
ATOM     67  N   UNL A   1      35.101  33.285  33.897  1.00  0.00    -0.181 NA
ATOM     68  O   UNL A   1      36.869  34.655  33.990  1.00  0.00    -0.333 OA
ATOM     69  C   UNL A   1      36.367  33.410  34.228  1.00  0.00     0.259 A 
BRANCH  69  70
ATOM     70  C   UNL A   1      37.361  32.437  34.648  1.00  0.00     0.052 A 
ATOM     71  C   UNL A   1      37.832  31.480  33.733  1.00  0.00     0.014 A 
ATOM     72  C   UNL A   1      37.800  32.380  35.982  1.00  0.00     0.068 A 
ATOM     73  C   UNL A   1      38.715  30.476  34.128  1.00  0.00     0.001 A 
ATOM     74  C   UNL A   1      38.631  31.315  36.383  1.00  0.00     0.014 A 
ATOM     75  C   UNL A   1      39.096  30.378  35.460  1.00  0.00     0.001 A 
BRANCH  72  76
ATOM     76  C   UNL A   1      37.465  33.472  36.968  1.00  0.00     0.417 C 
ATOM     77  F   UNL A   1      37.718  33.119  38.262  1.00  0.00    -0.166 F 
ATOM     78  F   UNL A   1      38.192  34.605  36.755  1.00  0.00    -0.166 F 
ATOM     79  F   UNL A   1      36.157  33.850  36.949  1.00  0.00    -0.166 F 
ENDBRANCH  72  76
ENDBRANCH  69  70
ENDBRANCH  63  65
ENDBRANCH  62  63
ENDBRANCH  61  62
ENDBRANCH   1  61
TORSDOF 13
ENDMDL
MODEL 3
REMARK VINA RESULT:     -10.2      2.427      3.611
REMARK SMILES O=C(OCCOC(=O)c1noc(-c2ccccc2C(F)(F)F)n1)c1ccc(-c2c3nc(c(-c4c(F)cccc4F)c4ccc([nH]4)c(-c4c(F)cccc4F)c4nc(c(-c5c(F)cccc5F)c5ccc2[nH]5)C=C4)C=C3)cc1
REMARK SMILES IDX 4 1 3 2 2 3 1 4 24 5 25 6 77 7 26 8 76 9 27 10 28 11 29 12
REMARK SMILES IDX 70 13 30 14 75 15 69 16 71 17 31 18 74 19 68 20 67 21 32 23
REMARK SMILES IDX 58 24 41 25 57 26 42 27 45 28 56 29 72 30 43 31 44 32 55 34
REMARK SMILES IDX 73 35 46 36 33 37 34 38 39 39 35 40 36 41 38 42 40 43 37 44
REMARK SMILES IDX 59 45 60 46 65 47 61 48 62 49 64 50 66 51 63 52 47 53 48 54
REMARK SMILES IDX 53 55 49 56 50 57 52 58 54 59 51 60 5 61 6 62 7 63 8 64 9 65
REMARK SMILES IDX 10 66 23 67 11 68 12 69 13 70 14 71 18 72 15 73 17 74 16 75
REMARK SMILES IDX 19 76 20 77 21 78 22 79
REMARK H PARENT 71 22 45 33
REMARK Flexibility Score: inf
ROOT
ATOM      1  C   UNL A   1      33.380  33.674  28.103  1.00  0.00     0.275 C 
ENDROOT
BRANCH   1   2
ATOM      2  O   UNL A   1      34.583  32.930  27.841  1.00  0.00    -0.458 OA
BRANCH   2   3
ATOM      3  C   UNL A   1      34.660  31.582  27.716  1.00  0.00     0.338 C 
ATOM      4  O   UNL A   1      33.678  30.924  27.389  1.00  0.00    -0.246 OA
BRANCH   3   5
ATOM      5  C   UNL A   1      35.850  30.861  28.254  1.00  0.00     0.060 A 
ATOM      6  C   UNL A   1      35.800  29.705  29.038  1.00  0.00     0.016 A 
ATOM      7  C   UNL A   1      37.102  31.434  27.984  1.00  0.00     0.016 A 
ATOM      8  C   UNL A   1      36.974  29.072  29.459  1.00  0.00     0.010 A 
ATOM      9  C   UNL A   1      38.275  30.822  28.435  1.00  0.00     0.010 A 
ATOM     10  C   UNL A   1      38.222  29.618  29.152  1.00  0.00    -0.014 A 
BRANCH  10  11
ATOM     11  C   UNL A   1      39.459  29.000  29.688  1.00  0.00     0.031 A 
ATOM     12  C   UNL A   1      40.122  29.646  30.871  1.00  0.00     0.074 A 
ATOM     13  C   UNL A   1      39.963  27.871  29.149  1.00  0.00     0.049 A 
ATOM     14  N   UNL A   1      41.226  29.312  31.484  1.00  0.00    -0.248 NA
ATOM     15  C   UNL A   1      39.435  30.811  31.457  1.00  0.00     0.031 C 
ATOM     16  C   UNL A   1      39.353  27.105  28.062  1.00  0.00     0.029 A 
ATOM     17  N   UNL A   1      41.118  27.181  29.427  1.00  0.00    -0.354 N 
ATOM     18  C   UNL A   1      41.334  30.185  32.558  1.00  0.00     0.074 A 
ATOM     19  C   UNL A   1      40.235  31.118  32.467  1.00  0.00     0.031 C 
ATOM     20  C   UNL A   1      40.162  26.083  27.732  1.00  0.00     0.029 A 
ATOM     21  C   UNL A   1      41.360  26.133  28.564  1.00  0.00     0.049 A 
ATOM     22  H   UNL A   1      41.717  27.413  30.173  1.00  0.00     0.167 HD
ATOM     23  C   UNL A   1      42.245  30.176  33.559  1.00  0.00     0.037 A 
ATOM     24  C   UNL A   1      42.446  25.339  28.444  1.00  0.00     0.037 A 
ATOM     25  C   UNL A   1      43.340  29.249  33.634  1.00  0.00     0.049 A 
ATOM     26  C   UNL A   1      43.596  25.570  29.395  1.00  0.00     0.074 A 
ATOM     27  C   UNL A   1      44.294  29.113  34.625  1.00  0.00     0.029 A 
ATOM     28  N   UNL A   1      43.633  28.310  32.658  1.00  0.00    -0.354 N 
ATOM     29  N   UNL A   1      43.655  26.350  30.448  1.00  0.00    -0.248 NA
ATOM     30  C   UNL A   1      44.837  24.824  29.138  1.00  0.00     0.031 C 
ATOM     31  C   UNL A   1      45.196  28.121  34.223  1.00  0.00     0.029 A 
ATOM     32  C   UNL A   1      44.782  27.621  32.998  1.00  0.00     0.049 A 
ATOM     33  H   UNL A   1      43.100  28.155  31.844  1.00  0.00     0.167 HD
ATOM     34  C   UNL A   1      44.893  26.113  31.031  1.00  0.00     0.074 A 
ATOM     35  C   UNL A   1      45.574  25.152  30.189  1.00  0.00     0.031 C 
ATOM     36  C   UNL A   1      45.410  26.621  32.176  1.00  0.00     0.037 A 
BRANCH  23  37
ATOM     37  C   UNL A   1      42.074  31.182  34.655  1.00  0.00     0.057 A 
ATOM     38  C   UNL A   1      42.769  32.399  34.639  1.00  0.00     0.134 A 
ATOM     39  C   UNL A   1      41.197  30.949  35.718  1.00  0.00     0.134 A 
ATOM     40  F   UNL A   1      43.637  32.674  33.653  1.00  0.00    -0.206 F 
ATOM     41  C   UNL A   1      42.609  33.343  35.654  1.00  0.00     0.040 A 
ATOM     42  C   UNL A   1      41.016  31.893  36.731  1.00  0.00     0.040 A 
ATOM     43  F   UNL A   1      40.504  29.803  35.792  1.00  0.00    -0.206 F 
ATOM     44  C   UNL A   1      41.726  33.093  36.702  1.00  0.00     0.006 A 
ENDBRANCH  23  37
BRANCH  24  45
ATOM     45  C   UNL A   1      42.573  24.323  27.354  1.00  0.00     0.057 A 
ATOM     46  C   UNL A   1      42.294  22.966  27.550  1.00  0.00     0.134 A 
ATOM     47  C   UNL A   1      43.118  24.668  26.114  1.00  0.00     0.134 A 
ATOM     48  F   UNL A   1      41.790  22.543  28.718  1.00  0.00    -0.206 F 
ATOM     49  C   UNL A   1      42.602  22.002  26.582  1.00  0.00     0.040 A 
ATOM     50  C   UNL A   1      43.410  23.729  25.125  1.00  0.00     0.040 A 
ATOM     51  F   UNL A   1      43.399  25.945  25.850  1.00  0.00    -0.206 F 
ATOM     52  C   UNL A   1      43.170  22.382  25.367  1.00  0.00     0.006 A 
ENDBRANCH  24  45
BRANCH  36  53
ATOM     53  C   UNL A   1      46.710  26.048  32.650  1.00  0.00     0.057 A 
ATOM     54  C   UNL A   1      47.945  26.571  32.257  1.00  0.00     0.134 A 
ATOM     55  C   UNL A   1      46.713  24.971  33.547  1.00  0.00     0.134 A 
ATOM     56  F   UNL A   1      48.006  27.587  31.383  1.00  0.00    -0.206 F 
ATOM     57  C   UNL A   1      49.143  26.031  32.727  1.00  0.00     0.040 A 
ATOM     58  C   UNL A   1      47.901  24.439  34.044  1.00  0.00     0.040 A 
ATOM     59  F   UNL A   1      45.557  24.430  33.964  1.00  0.00    -0.206 F 
ATOM     60  C   UNL A   1      49.122  24.967  33.629  1.00  0.00     0.006 A 
ENDBRANCH  36  53
ENDBRANCH  10  11
ENDBRANCH   3   5
ENDBRANCH   2   3
ENDBRANCH   1   2
BRANCH   1  61
ATOM     61  C   UNL A   1      33.635  35.127  28.526  1.00  0.00     0.275 C 
BRANCH  61  62
ATOM     62  O   UNL A   1      32.581  35.671  29.335  1.00  0.00    -0.456 OA
BRANCH  62  63
ATOM     63  C   UNL A   1      33.016  36.358  30.445  1.00  0.00     0.380 C 
ATOM     64  O   UNL A   1      32.998  37.578  30.533  1.00  0.00    -0.242 OA
BRANCH  63  65
ATOM     65  C   UNL A   1      33.411  35.468  31.544  1.00  0.00     0.281 A 
ATOM     66  N   UNL A   1      32.486  34.915  32.350  1.00  0.00    -0.049 NA
ATOM     67  N   UNL A   1      34.712  35.080  31.841  1.00  0.00    -0.181 NA
ATOM     68  O   UNL A   1      33.226  34.118  33.211  1.00  0.00    -0.333 OA
ATOM     69  C   UNL A   1      34.535  34.277  32.867  1.00  0.00     0.259 A 
BRANCH  69  70
ATOM     70  C   UNL A   1      35.474  33.660  33.789  1.00  0.00     0.052 A 
ATOM     71  C   UNL A   1      35.675  34.222  35.061  1.00  0.00     0.014 A 
ATOM     72  C   UNL A   1      36.250  32.555  33.399  1.00  0.00     0.068 A 
ATOM     73  C   UNL A   1      36.634  33.709  35.934  1.00  0.00     0.001 A 
ATOM     74  C   UNL A   1      37.268  32.097  34.260  1.00  0.00     0.014 A 
ATOM     75  C   UNL A   1      37.449  32.661  35.524  1.00  0.00     0.001 A 
BRANCH  72  76
ATOM     76  C   UNL A   1      35.967  31.806  32.120  1.00  0.00     0.417 C 
ATOM     77  F   UNL A   1      36.699  32.262  31.062  1.00  0.00    -0.166 F 
ATOM     78  F   UNL A   1      36.263  30.480  32.219  1.00  0.00    -0.166 F 
ATOM     79  F   UNL A   1      34.670  31.877  31.715  1.00  0.00    -0.166 F 
ENDBRANCH  72  76
ENDBRANCH  69  70
ENDBRANCH  63  65
ENDBRANCH  62  63
ENDBRANCH  61  62
ENDBRANCH   1  61
TORSDOF 13
ENDMDL
