MODEL 1
REMARK VINA RESULT:     -12.1      0.000      0.000
REMARK SMILES Cc1cc2cc(-c3ccc([C@@H](C)C(=O)OCCOC(=O)c4ccc(-c5c6nc(c(-c7c(F)cccc7F)c7ccc([nH]7)c(-c7c(F)cccc7F)c7nc(c(-c8c(F)cccc8F)c8ccc5[nH]8)C=C7)C=C6)cc4)cc3)ccc2[nH]1
REMARK SMILES IDX 16 1 15 2 13 3 14 4 11 5 12 6 10 7 7 8 8 9 76 10 9 11 75 12
REMARK SMILES IDX 6 13 1 14 2 15 3 16 80 17 4 18 79 19 5 21 78 22 77 23 17 24
REMARK SMILES IDX 18 25 19 26 20 27 21 28 22 29 74 30 23 31 73 32 24 33 25 34
REMARK SMILES IDX 26 35 67 36 27 37 72 38 66 39 68 40 28 41 71 42 65 43 64 44
REMARK SMILES IDX 29 46 55 47 38 48 54 49 39 50 42 51 53 52 69 53 40 54 41 55
REMARK SMILES IDX 52 57 70 58 43 59 30 60 31 61 36 62 32 63 33 64 35 65 37 66
REMARK SMILES IDX 34 67 56 68 57 69 62 70 58 71 59 72 61 73 63 74 60 75 44 76
REMARK SMILES IDX 45 77 50 78 46 79 47 80 49 81 51 82 48 83
REMARK H PARENT 80 20 68 45 42 56
REMARK Flexibility Score: inf
ROOT
ATOM      1  C   UNL A   1      43.798  21.580  25.395  1.00  0.00     0.274 C 
ENDROOT
BRANCH   1   2
ATOM      2  O   UNL A   1      42.361  21.519  25.458  1.00  0.00    -0.462 OA
BRANCH   2   3
ATOM      3  C   UNL A   1      41.800  21.445  26.694  1.00  0.00     0.313 C 
ATOM      4  O   UNL A   1      42.335  21.852  27.721  1.00  0.00    -0.252 OA
BRANCH   3   5
ATOM      5  C   UNL A   1      40.444  20.750  26.708  1.00  0.00     0.126 C 
ATOM      6  C   UNL A   1      40.563  19.367  26.068  1.00  0.00     0.025 C 
BRANCH   5   7
ATOM      7  C   UNL A   1      39.283  21.553  26.143  1.00  0.00    -0.034 A 
ATOM      8  C   UNL A   1      37.074  23.054  25.176  1.00  0.00    -0.018 A 
ATOM      9  C   UNL A   1      37.288  21.729  24.766  1.00  0.00     0.009 A 
ATOM     10  C   UNL A   1      38.001  23.628  26.054  1.00  0.00     0.009 A 
ATOM     11  C   UNL A   1      38.371  20.988  25.244  1.00  0.00     0.005 A 
ATOM     12  C   UNL A   1      39.087  22.887  26.534  1.00  0.00     0.005 A 
BRANCH   8  13
ATOM     13  C   UNL A   1      35.875  23.781  24.730  1.00  0.00    -0.018 A 
ATOM     14  C   UNL A   1      31.198  27.715  25.092  1.00  0.00     0.064 C 
ATOM     15  C   UNL A   1      32.323  26.762  24.941  1.00  0.00     0.013 A 
ATOM     16  C   UNL A   1      33.393  26.501  25.770  1.00  0.00     0.031 A 
ATOM     17  N   UNL A   1      32.444  25.938  23.847  1.00  0.00    -0.359 N 
ATOM     18  C   UNL A   1      34.171  25.476  25.169  1.00  0.00     0.000 A 
ATOM     19  C   UNL A   1      33.560  25.140  23.965  1.00  0.00     0.046 A 
ATOM     20  H   UNL A   1      31.819  25.921  23.086  1.00  0.00     0.166 HD
ATOM     21  C   UNL A   1      35.341  24.795  25.547  1.00  0.00     0.019 A 
ATOM     22  C   UNL A   1      34.071  24.155  23.112  1.00  0.00     0.027 A 
ATOM     23  C   UNL A   1      35.234  23.484  23.519  1.00  0.00     0.011 A 
ENDBRANCH   8  13
ENDBRANCH   5   7
ENDBRANCH   3   5
ENDBRANCH   2   3
ENDBRANCH   1   2
BRANCH   1  24
ATOM     24  C   UNL A   1      44.264  22.589  24.344  1.00  0.00     0.275 C 
BRANCH  24  25
ATOM     25  O   UNL A   1      43.631  23.866  24.542  1.00  0.00    -0.458 OA
BRANCH  25  26
ATOM     26  C   UNL A   1      44.437  24.837  25.028  1.00  0.00     0.338 C 
ATOM     27  O   UNL A   1      45.567  25.116  24.675  1.00  0.00    -0.246 OA
BRANCH  26  28
ATOM     28  C   UNL A   1      43.701  25.630  26.022  1.00  0.00     0.060 A 
ATOM     29  C   UNL A   1      44.069  26.964  26.202  1.00  0.00     0.016 A 
ATOM     30  C   UNL A   1      42.734  25.041  26.837  1.00  0.00     0.016 A 
ATOM     31  C   UNL A   1      43.491  27.717  27.220  1.00  0.00     0.010 A 
ATOM     32  C   UNL A   1      42.146  25.800  27.854  1.00  0.00     0.010 A 
ATOM     33  C   UNL A   1      42.537  27.134  28.063  1.00  0.00    -0.014 A 
BRANCH  33  34
ATOM     34  C   UNL A   1      42.011  27.910  29.210  1.00  0.00     0.031 A 
ATOM     35  C   UNL A   1      42.736  27.880  30.525  1.00  0.00     0.074 A 
ATOM     36  C   UNL A   1      40.909  28.667  29.062  1.00  0.00     0.049 A 
ATOM     37  N   UNL A   1      42.416  28.447  31.659  1.00  0.00    -0.248 NA
ATOM     38  C   UNL A   1      43.988  27.108  30.567  1.00  0.00     0.031 C 
ATOM     39  C   UNL A   1      40.143  28.810  27.824  1.00  0.00     0.029 A 
ATOM     40  N   UNL A   1      40.246  29.461  29.961  1.00  0.00    -0.354 N 
ATOM     41  C   UNL A   1      43.414  28.087  32.555  1.00  0.00     0.074 A 
ATOM     42  C   UNL A   1      44.343  27.240  31.837  1.00  0.00     0.031 C 
ATOM     43  C   UNL A   1      39.113  29.645  28.042  1.00  0.00     0.029 A 
ATOM     44  C   UNL A   1      39.130  30.066  29.440  1.00  0.00     0.049 A 
ATOM     45  H   UNL A   1      40.542  29.585  30.893  1.00  0.00     0.167 HD
ATOM     46  C   UNL A   1      43.545  28.435  33.857  1.00  0.00     0.037 A 
ATOM     47  C   UNL A   1      38.214  30.856  30.031  1.00  0.00     0.037 A 
ATOM     48  C   UNL A   1      42.630  29.290  34.566  1.00  0.00     0.049 A 
ATOM     49  C   UNL A   1      38.363  31.200  31.487  1.00  0.00     0.074 A 
ATOM     50  C   UNL A   1      42.680  29.701  35.887  1.00  0.00     0.029 A 
ATOM     51  N   UNL A   1      41.502  29.870  34.009  1.00  0.00    -0.354 N 
ATOM     52  N   UNL A   1      39.305  30.844  32.327  1.00  0.00    -0.248 NA
ATOM     53  C   UNL A   1      37.322  32.053  32.076  1.00  0.00     0.031 C 
ATOM     54  C   UNL A   1      41.563  30.508  36.137  1.00  0.00     0.029 A 
ATOM     55  C   UNL A   1      40.839  30.627  34.961  1.00  0.00     0.049 A 
ATOM     56  H   UNL A   1      41.213  29.760  33.074  1.00  0.00     0.167 HD
ATOM     57  C   UNL A   1      38.981  31.443  33.537  1.00  0.00     0.074 A 
ATOM     58  C   UNL A   1      37.763  32.197  33.318  1.00  0.00     0.031 C 
ATOM     59  C   UNL A   1      39.632  31.375  34.723  1.00  0.00     0.037 A 
BRANCH  46  60
ATOM     60  C   UNL A   1      44.711  27.863  34.605  1.00  0.00     0.057 A 
ATOM     61  C   UNL A   1      44.630  26.636  35.273  1.00  0.00     0.134 A 
ATOM     62  C   UNL A   1      45.937  28.540  34.639  1.00  0.00     0.134 A 
ATOM     63  F   UNL A   1      43.479  25.946  35.293  1.00  0.00    -0.206 F 
ATOM     64  C   UNL A   1      45.723  26.108  35.965  1.00  0.00     0.040 A 
ATOM     65  C   UNL A   1      47.042  28.014  35.309  1.00  0.00     0.040 A 
ATOM     66  F   UNL A   1      46.080  29.719  34.017  1.00  0.00    -0.206 F 
ATOM     67  C   UNL A   1      46.935  26.797  35.979  1.00  0.00     0.006 A 
ENDBRANCH  46  60
BRANCH  47  68
ATOM     68  C   UNL A   1      37.065  31.370  29.246  1.00  0.00     0.057 A 
ATOM     69  C   UNL A   1      37.060  32.673  28.741  1.00  0.00     0.134 A 
ATOM     70  C   UNL A   1      35.946  30.570  28.990  1.00  0.00     0.134 A 
ATOM     71  F   UNL A   1      38.095  33.492  28.974  1.00  0.00    -0.206 F 
ATOM     72  C   UNL A   1      35.975  33.170  28.016  1.00  0.00     0.040 A 
ATOM     73  C   UNL A   1      34.864  31.045  28.248  1.00  0.00     0.040 A 
ATOM     74  F   UNL A   1      35.893  29.312  29.449  1.00  0.00    -0.206 F 
ATOM     75  C   UNL A   1      34.875  32.352  27.763  1.00  0.00     0.006 A 
ENDBRANCH  47  68
BRANCH  59  76
ATOM     76  C   UNL A   1      39.054  32.157  35.863  1.00  0.00     0.057 A 
ATOM     77  C   UNL A   1      38.203  31.567  36.805  1.00  0.00     0.134 A 
ATOM     78  C   UNL A   1      39.376  33.510  36.034  1.00  0.00     0.134 A 
ATOM     79  F   UNL A   1      37.849  30.279  36.687  1.00  0.00    -0.206 F 
ATOM     80  C   UNL A   1      37.674  32.301  37.868  1.00  0.00     0.040 A 
ATOM     81  C   UNL A   1      38.869  34.249  37.104  1.00  0.00     0.040 A 
ATOM     82  F   UNL A   1      40.190  34.132  35.168  1.00  0.00    -0.206 F 
ATOM     83  C   UNL A   1      38.011  33.645  38.022  1.00  0.00     0.006 A 
ENDBRANCH  59  76
ENDBRANCH  33  34
ENDBRANCH  26  28
ENDBRANCH  25  26
ENDBRANCH  24  25
ENDBRANCH   1  24
TORSDOF 13
ENDMDL
MODEL 2
REMARK VINA RESULT:     -12.0      4.962     10.238
REMARK SMILES Cc1cc2cc(-c3ccc([C@@H](C)C(=O)OCCOC(=O)c4ccc(-c5c6nc(c(-c7c(F)cccc7F)c7ccc([nH]7)c(-c7c(F)cccc7F)c7nc(c(-c8c(F)cccc8F)c8ccc5[nH]8)C=C7)C=C6)cc4)cc3)ccc2[nH]1
REMARK SMILES IDX 16 1 15 2 13 3 14 4 11 5 12 6 10 7 7 8 8 9 76 10 9 11 75 12
REMARK SMILES IDX 6 13 1 14 2 15 3 16 80 17 4 18 79 19 5 21 78 22 77 23 17 24
REMARK SMILES IDX 18 25 19 26 20 27 21 28 22 29 74 30 23 31 73 32 24 33 25 34
REMARK SMILES IDX 26 35 67 36 27 37 72 38 66 39 68 40 28 41 71 42 65 43 64 44
REMARK SMILES IDX 29 46 55 47 38 48 54 49 39 50 42 51 53 52 69 53 40 54 41 55
REMARK SMILES IDX 52 57 70 58 43 59 30 60 31 61 36 62 32 63 33 64 35 65 37 66
REMARK SMILES IDX 34 67 56 68 57 69 62 70 58 71 59 72 61 73 63 74 60 75 44 76
REMARK SMILES IDX 45 77 50 78 46 79 47 80 49 81 51 82 48 83
REMARK H PARENT 80 20 68 45 42 56
REMARK Flexibility Score: inf
ROOT
ATOM      1  C   UNL A   1      34.589  34.166  31.376  1.00  0.00     0.274 C 
ENDROOT
BRANCH   1   2
ATOM      2  O   UNL A   1      33.591  33.905  30.372  1.00  0.00    -0.462 OA
BRANCH   2   3
ATOM      3  C   UNL A   1      34.003  33.910  29.077  1.00  0.00     0.313 C 
ATOM      4  O   UNL A   1      33.545  34.647  28.209  1.00  0.00    -0.252 OA
BRANCH   3   5
ATOM      5  C   UNL A   1      35.067  32.862  28.770  1.00  0.00     0.126 C 
ATOM      6  C   UNL A   1      36.199  33.495  27.962  1.00  0.00     0.025 C 
BRANCH   5   7
ATOM      7  C   UNL A   1      34.563  31.569  28.148  1.00  0.00    -0.034 A 
ATOM      8  C   UNL A   1      33.561  29.143  27.063  1.00  0.00    -0.018 A 
ATOM      9  C   UNL A   1      34.887  29.247  27.511  1.00  0.00     0.009 A 
ATOM     10  C   UNL A   1      32.752  30.283  27.138  1.00  0.00     0.009 A 
ATOM     11  C   UNL A   1      35.380  30.437  28.049  1.00  0.00     0.005 A 
ATOM     12  C   UNL A   1      33.244  31.477  27.677  1.00  0.00     0.005 A 
BRANCH   8  13
ATOM     13  C   UNL A   1      33.041  27.852  26.588  1.00  0.00    -0.018 A 
ATOM     14  C   UNL A   1      33.088  22.489  23.634  1.00  0.00     0.064 C 
ATOM     15  C   UNL A   1      33.028  23.766  24.383  1.00  0.00     0.013 A 
ATOM     16  C   UNL A   1      33.999  24.716  24.616  1.00  0.00     0.031 A 
ATOM     17  N   UNL A   1      31.876  24.203  24.995  1.00  0.00    -0.359 N 
ATOM     18  C   UNL A   1      33.413  25.765  25.372  1.00  0.00     0.000 A 
ATOM     19  C   UNL A   1      32.084  25.422  25.600  1.00  0.00     0.046 A 
ATOM     20  H   UNL A   1      31.023  23.712  25.000  1.00  0.00     0.166 HD
ATOM     21  C   UNL A   1      33.894  26.985  25.877  1.00  0.00     0.019 A 
ATOM     22  C   UNL A   1      31.210  26.243  26.322  1.00  0.00     0.027 A 
ATOM     23  C   UNL A   1      31.713  27.460  26.806  1.00  0.00     0.011 A 
ENDBRANCH   8  13
ENDBRANCH   5   7
ENDBRANCH   3   5
ENDBRANCH   2   3
ENDBRANCH   1   2
BRANCH   1  24
ATOM     24  C   UNL A   1      34.371  33.295  32.614  1.00  0.00     0.275 C 
BRANCH  24  25
ATOM     25  O   UNL A   1      35.106  32.062  32.511  1.00  0.00    -0.458 OA
BRANCH  25  26
ATOM     26  C   UNL A   1      36.296  32.047  33.150  1.00  0.00     0.338 C 
ATOM     27  O   UNL A   1      36.540  32.414  34.284  1.00  0.00    -0.246 OA
BRANCH  26  28
ATOM     28  C   UNL A   1      37.301  31.400  32.295  1.00  0.00     0.060 A 
ATOM     29  C   UNL A   1      38.257  30.585  32.905  1.00  0.00     0.016 A 
ATOM     30  C   UNL A   1      37.365  31.673  30.929  1.00  0.00     0.016 A 
ATOM     31  C   UNL A   1      39.303  30.056  32.156  1.00  0.00     0.010 A 
ATOM     32  C   UNL A   1      38.412  31.134  30.175  1.00  0.00     0.010 A 
ATOM     33  C   UNL A   1      39.397  30.341  30.789  1.00  0.00    -0.014 A 
BRANCH  33  34
ATOM     34  C   UNL A   1      40.575  29.864  30.027  1.00  0.00     0.031 A 
ATOM     35  C   UNL A   1      41.734  30.789  29.794  1.00  0.00     0.074 A 
ATOM     36  C   UNL A   1      40.617  28.597  29.577  1.00  0.00     0.049 A 
ATOM     37  N   UNL A   1      42.834  30.583  29.115  1.00  0.00    -0.248 NA
ATOM     38  C   UNL A   1      41.645  32.123  30.410  1.00  0.00     0.031 C 
ATOM     39  C   UNL A   1      39.571  27.595  29.776  1.00  0.00     0.029 A 
ATOM     40  N   UNL A   1      41.584  27.938  28.863  1.00  0.00    -0.354 N 
ATOM     41  C   UNL A   1      43.558  31.764  29.204  1.00  0.00     0.074 A 
ATOM     42  C   UNL A   1      42.769  32.688  29.990  1.00  0.00     0.031 C 
ATOM     43  C   UNL A   1      39.954  26.445  29.198  1.00  0.00     0.029 A 
ATOM     44  C   UNL A   1      41.254  26.640  28.561  1.00  0.00     0.049 A 
ATOM     45  H   UNL A   1      42.433  28.356  28.591  1.00  0.00     0.167 HD
ATOM     46  C   UNL A   1      44.773  32.050  28.679  1.00  0.00     0.037 A 
ATOM     47  C   UNL A   1      41.918  25.721  27.837  1.00  0.00     0.037 A 
ATOM     48  C   UNL A   1      45.565  31.126  27.911  1.00  0.00     0.049 A 
ATOM     49  C   UNL A   1      43.250  26.074  27.237  1.00  0.00     0.074 A 
ATOM     50  C   UNL A   1      46.811  31.323  27.340  1.00  0.00     0.029 A 
ATOM     51  N   UNL A   1      45.190  29.826  27.613  1.00  0.00    -0.354 N 
ATOM     52  N   UNL A   1      43.920  27.198  27.317  1.00  0.00    -0.248 NA
ATOM     53  C   UNL A   1      43.916  25.032  26.444  1.00  0.00     0.031 C 
ATOM     54  C   UNL A   1      47.176  30.149  26.670  1.00  0.00     0.029 A 
ATOM     55  C   UNL A   1      46.173  29.211  26.855  1.00  0.00     0.049 A 
ATOM     56  H   UNL A   1      44.348  29.402  27.897  1.00  0.00     0.167 HD
ATOM     57  C   UNL A   1      45.093  26.993  26.603  1.00  0.00     0.074 A 
ATOM     58  C   UNL A   1      45.049  25.632  26.108  1.00  0.00     0.031 C 
ATOM     59  C   UNL A   1      46.114  27.854  26.377  1.00  0.00     0.037 A 
BRANCH  46  60
ATOM     60  C   UNL A   1      45.307  33.433  28.900  1.00  0.00     0.057 A 
ATOM     61  C   UNL A   1      46.132  33.741  29.988  1.00  0.00     0.134 A 
ATOM     62  C   UNL A   1      45.010  34.463  27.999  1.00  0.00     0.134 A 
ATOM     63  F   UNL A   1      46.440  32.803  30.896  1.00  0.00    -0.206 F 
ATOM     64  C   UNL A   1      46.628  35.033  30.184  1.00  0.00     0.040 A 
ATOM     65  C   UNL A   1      45.516  35.752  28.172  1.00  0.00     0.040 A 
ATOM     66  F   UNL A   1      44.227  34.231  26.935  1.00  0.00    -0.206 F 
ATOM     67  C   UNL A   1      46.324  36.041  29.270  1.00  0.00     0.006 A 
ENDBRANCH  46  60
BRANCH  47  68
ATOM     68  C   UNL A   1      41.327  24.376  27.629  1.00  0.00     0.057 A 
ATOM     69  C   UNL A   1      41.790  23.266  28.340  1.00  0.00     0.134 A 
ATOM     70  C   UNL A   1      40.290  24.173  26.711  1.00  0.00     0.134 A 
ATOM     71  F   UNL A   1      42.797  23.396  29.216  1.00  0.00    -0.206 F 
ATOM     72  C   UNL A   1      41.251  21.993  28.138  1.00  0.00     0.040 A 
ATOM     73  C   UNL A   1      39.727  22.912  26.515  1.00  0.00     0.040 A 
ATOM     74  F   UNL A   1      39.804  25.200  26.000  1.00  0.00    -0.206 F 
ATOM     75  C   UNL A   1      40.211  21.817  27.227  1.00  0.00     0.006 A 
ENDBRANCH  47  68
BRANCH  59  76
ATOM     76  C   UNL A   1      47.276  27.339  25.583  1.00  0.00     0.057 A 
ATOM     77  C   UNL A   1      47.381  27.557  24.204  1.00  0.00     0.134 A 
ATOM     78  C   UNL A   1      48.315  26.639  26.212  1.00  0.00     0.134 A 
ATOM     79  F   UNL A   1      46.412  28.210  23.544  1.00  0.00    -0.206 F 
ATOM     80  C   UNL A   1      48.469  27.080  23.473  1.00  0.00     0.040 A 
ATOM     81  C   UNL A   1      49.417  26.174  25.494  1.00  0.00     0.040 A 
ATOM     82  F   UNL A   1      48.275  26.403  27.531  1.00  0.00    -0.206 F 
ATOM     83  C   UNL A   1      49.494  26.390  24.119  1.00  0.00     0.006 A 
ENDBRANCH  59  76
ENDBRANCH  33  34
ENDBRANCH  26  28
ENDBRANCH  25  26
ENDBRANCH  24  25
ENDBRANCH   1  24
TORSDOF 13
ENDMDL
MODEL 3
REMARK VINA RESULT:     -11.9      5.138     10.633
REMARK SMILES Cc1cc2cc(-c3ccc([C@@H](C)C(=O)OCCOC(=O)c4ccc(-c5c6nc(c(-c7c(F)cccc7F)c7ccc([nH]7)c(-c7c(F)cccc7F)c7nc(c(-c8c(F)cccc8F)c8ccc5[nH]8)C=C7)C=C6)cc4)cc3)ccc2[nH]1
REMARK SMILES IDX 16 1 15 2 13 3 14 4 11 5 12 6 10 7 7 8 8 9 76 10 9 11 75 12
REMARK SMILES IDX 6 13 1 14 2 15 3 16 80 17 4 18 79 19 5 21 78 22 77 23 17 24
REMARK SMILES IDX 18 25 19 26 20 27 21 28 22 29 74 30 23 31 73 32 24 33 25 34
REMARK SMILES IDX 26 35 67 36 27 37 72 38 66 39 68 40 28 41 71 42 65 43 64 44
REMARK SMILES IDX 29 46 55 47 38 48 54 49 39 50 42 51 53 52 69 53 40 54 41 55
REMARK SMILES IDX 52 57 70 58 43 59 30 60 31 61 36 62 32 63 33 64 35 65 37 66
REMARK SMILES IDX 34 67 56 68 57 69 62 70 58 71 59 72 61 73 63 74 60 75 44 76
REMARK SMILES IDX 45 77 50 78 46 79 47 80 49 81 51 82 48 83
REMARK H PARENT 80 20 68 45 42 56
REMARK Flexibility Score: inf
ROOT
ATOM      1  C   UNL A   1      34.233  34.650  31.725  1.00  0.00     0.274 C 
ENDROOT
BRANCH   1   2
ATOM      2  O   UNL A   1      32.969  34.955  31.109  1.00  0.00    -0.462 OA
BRANCH   2   3
ATOM      3  C   UNL A   1      33.004  35.565  29.896  1.00  0.00     0.313 C 
ATOM      4  O   UNL A   1      32.230  36.451  29.544  1.00  0.00    -0.252 OA
BRANCH   3   5
ATOM      5  C   UNL A   1      34.075  35.010  28.964  1.00  0.00     0.126 C 
ATOM      6  C   UNL A   1      34.401  36.035  27.879  1.00  0.00     0.025 C 
BRANCH   5   7
ATOM      7  C   UNL A   1      33.801  33.627  28.392  1.00  0.00    -0.034 A 
ATOM      8  C   UNL A   1      33.363  31.059  27.260  1.00  0.00    -0.018 A 
ATOM      9  C   UNL A   1      32.418  32.087  27.119  1.00  0.00     0.009 A 
ATOM     10  C   UNL A   1      34.518  31.327  28.005  1.00  0.00     0.009 A 
ATOM     11  C   UNL A   1      32.634  33.352  27.670  1.00  0.00     0.005 A 
ATOM     12  C   UNL A   1      34.736  32.594  28.559  1.00  0.00     0.005 A 
BRANCH   8  13
ATOM     13  C   UNL A   1      33.154  29.766  26.591  1.00  0.00    -0.018 A 
ATOM     14  C   UNL A   1      30.171  25.484  23.389  1.00  0.00     0.064 C 
ATOM     15  C   UNL A   1      30.947  26.490  24.151  1.00  0.00     0.013 A 
ATOM     16  C   UNL A   1      30.650  27.798  24.470  1.00  0.00     0.031 A 
ATOM     17  N   UNL A   1      32.182  26.210  24.688  1.00  0.00    -0.359 N 
ATOM     18  C   UNL A   1      31.725  28.316  25.240  1.00  0.00     0.000 A 
ATOM     19  C   UNL A   1      32.675  27.305  25.362  1.00  0.00     0.046 A 
ATOM     20  H   UNL A   1      32.648  25.347  24.603  1.00  0.00     0.166 HD
ATOM     21  C   UNL A   1      31.973  29.555  25.853  1.00  0.00     0.019 A 
ATOM     22  C   UNL A   1      33.871  27.481  26.066  1.00  0.00     0.027 A 
ATOM     23  C   UNL A   1      34.089  28.725  26.677  1.00  0.00     0.011 A 
ENDBRANCH   8  13
ENDBRANCH   5   7
ENDBRANCH   3   5
ENDBRANCH   2   3
ENDBRANCH   1   2
BRANCH   1  24
ATOM     24  C   UNL A   1      34.134  33.404  32.607  1.00  0.00     0.275 C 
BRANCH  24  25
ATOM     25  O   UNL A   1      35.005  32.364  32.126  1.00  0.00    -0.458 OA
BRANCH  25  26
ATOM     26  C   UNL A   1      36.100  32.135  32.886  1.00  0.00     0.338 C 
ATOM     27  O   UNL A   1      36.241  32.345  34.076  1.00  0.00    -0.246 OA
BRANCH  26  28
ATOM     28  C   UNL A   1      37.126  31.467  32.073  1.00  0.00     0.060 A 
ATOM     29  C   UNL A   1      38.099  30.714  32.733  1.00  0.00     0.016 A 
ATOM     30  C   UNL A   1      37.191  31.663  30.695  1.00  0.00     0.016 A 
ATOM     31  C   UNL A   1      39.163  30.171  32.021  1.00  0.00     0.010 A 
ATOM     32  C   UNL A   1      38.256  31.110  29.976  1.00  0.00     0.010 A 
ATOM     33  C   UNL A   1      39.258  30.379  30.639  1.00  0.00    -0.014 A 
BRANCH  33  34
ATOM     34  C   UNL A   1      40.452  29.891  29.910  1.00  0.00     0.031 A 
ATOM     35  C   UNL A   1      41.616  30.813  29.688  1.00  0.00     0.074 A 
ATOM     36  C   UNL A   1      40.504  28.617  29.483  1.00  0.00     0.049 A 
ATOM     37  N   UNL A   1      42.729  30.596  29.037  1.00  0.00    -0.248 NA
ATOM     38  C   UNL A   1      41.513  32.156  30.279  1.00  0.00     0.031 C 
ATOM     39  C   UNL A   1      39.454  27.618  29.675  1.00  0.00     0.029 A 
ATOM     40  N   UNL A   1      41.486  27.947  28.800  1.00  0.00    -0.354 N 
ATOM     41  C   UNL A   1      43.451  31.779  29.121  1.00  0.00     0.074 A 
ATOM     42  C   UNL A   1      42.645  32.715  29.875  1.00  0.00     0.031 C 
ATOM     43  C   UNL A   1      39.850  26.458  29.125  1.00  0.00     0.029 A 
ATOM     44  C   UNL A   1      41.163  26.644  28.513  1.00  0.00     0.049 A 
ATOM     45  H   UNL A   1      42.341  28.360  28.540  1.00  0.00     0.167 HD
ATOM     46  C   UNL A   1      44.678  32.057  28.619  1.00  0.00     0.037 A 
ATOM     47  C   UNL A   1      41.843  25.714  27.818  1.00  0.00     0.037 A 
ATOM     48  C   UNL A   1      45.486  31.121  27.883  1.00  0.00     0.049 A 
ATOM     49  C   UNL A   1      43.188  26.057  27.242  1.00  0.00     0.074 A 
ATOM     50  C   UNL A   1      46.744  31.309  27.335  1.00  0.00     0.029 A 
ATOM     51  N   UNL A   1      45.117  29.816  27.598  1.00  0.00    -0.354 N 
ATOM     52  N   UNL A   1      43.855  27.183  27.318  1.00  0.00    -0.248 NA
ATOM     53  C   UNL A   1      43.871  25.003  26.480  1.00  0.00     0.031 C 
ATOM     54  C   UNL A   1      47.124  30.125  26.693  1.00  0.00     0.029 A 
ATOM     55  C   UNL A   1      46.118  29.190  26.872  1.00  0.00     0.049 A 
ATOM     56  H   UNL A   1      44.270  29.396  27.870  1.00  0.00     0.167 HD
ATOM     57  C   UNL A   1      45.044  26.967  26.633  1.00  0.00     0.074 A 
ATOM     58  C   UNL A   1      45.011  25.598  26.159  1.00  0.00     0.031 C 
ATOM     59  C   UNL A   1      46.069  27.825  26.415  1.00  0.00     0.037 A 
BRANCH  46  60
ATOM     60  C   UNL A   1      45.206  33.444  28.828  1.00  0.00     0.057 A 
ATOM     61  C   UNL A   1      44.927  34.483  27.931  1.00  0.00     0.134 A 
ATOM     62  C   UNL A   1      45.984  33.748  29.951  1.00  0.00     0.134 A 
ATOM     63  F   UNL A   1      44.200  34.253  26.827  1.00  0.00    -0.206 F 
ATOM     64  C   UNL A   1      45.420  35.774  28.136  1.00  0.00     0.040 A 
ATOM     65  C   UNL A   1      46.466  35.038  30.177  1.00  0.00     0.040 A 
ATOM     66  F   UNL A   1      46.285  32.797  30.848  1.00  0.00    -0.206 F 
ATOM     67  C   UNL A   1      46.188  36.054  29.265  1.00  0.00     0.006 A 
ENDBRANCH  46  60
BRANCH  47  68
ATOM     68  C   UNL A   1      41.257  24.365  27.620  1.00  0.00     0.057 A 
ATOM     69  C   UNL A   1      41.705  23.266  28.359  1.00  0.00     0.134 A 
ATOM     70  C   UNL A   1      40.240  24.146  26.684  1.00  0.00     0.134 A 
ATOM     71  F   UNL A   1      42.692  23.412  29.255  1.00  0.00    -0.206 F 
ATOM     72  C   UNL A   1      41.171  21.991  28.167  1.00  0.00     0.040 A 
ATOM     73  C   UNL A   1      39.682  22.882  26.496  1.00  0.00     0.040 A 
ATOM     74  F   UNL A   1      39.769  25.161  25.945  1.00  0.00    -0.206 F 
ATOM     75  C   UNL A   1      40.151  21.798  27.236  1.00  0.00     0.006 A 
ENDBRANCH  47  68
BRANCH  59  76
ATOM     76  C   UNL A   1      47.248  27.297  25.655  1.00  0.00     0.057 A 
ATOM     77  C   UNL A   1      47.365  27.463  24.269  1.00  0.00     0.134 A 
ATOM     78  C   UNL A   1      48.290  26.640  26.322  1.00  0.00     0.134 A 
ATOM     79  F   UNL A   1      46.394  28.073  23.573  1.00  0.00    -0.206 F 
ATOM     80  C   UNL A   1      48.470  26.975  23.569  1.00  0.00     0.040 A 
ATOM     81  C   UNL A   1      49.408  26.165  25.635  1.00  0.00     0.040 A 
ATOM     82  F   UNL A   1      48.239  26.455  27.649  1.00  0.00    -0.206 F 
ATOM     83  C   UNL A   1      49.497  26.328  24.254  1.00  0.00     0.006 A 
ENDBRANCH  59  76
ENDBRANCH  33  34
ENDBRANCH  26  28
ENDBRANCH  25  26
ENDBRANCH  24  25
ENDBRANCH   1  24
TORSDOF 13
ENDMDL
