MODEL 1
REMARK VINA RESULT:     -10.4      0.000      0.000
REMARK SMILES COc1cnc(F)c(C(=O)OCCOC(=O)c2ccc(-c3c4nc(c(-c5c(F)cccc5F)c5ccc([nH]5)c(-c5c(F)cccc5F)c5nc(c(-c6c(F)cccc6F)c6ccc3[nH]6)C=C5)C=C4)cc2)c1
REMARK SMILES IDX 13 1 12 2 11 3 9 4 10 5 8 6 3 7 4 8 71 9 5 10 6 11 7 12 2 13
REMARK SMILES IDX 1 14 14 15 15 16 16 17 17 18 18 19 70 20 19 21 69 22 20 23
REMARK SMILES IDX 21 24 22 25 63 26 23 27 68 28 62 29 64 30 24 31 67 32 61 33
REMARK SMILES IDX 60 34 25 36 51 37 34 38 50 39 35 40 38 41 49 42 65 43 36 44
REMARK SMILES IDX 37 45 48 47 66 48 39 49 26 50 27 51 32 52 28 53 29 54 31 55
REMARK SMILES IDX 33 56 30 57 52 58 53 59 58 60 54 61 55 62 57 63 59 64 56 65
REMARK SMILES IDX 40 66 41 67 46 68 42 69 43 70 45 71 47 72 44 73
REMARK H PARENT 64 35 38 46
REMARK Flexibility Score: inf
ROOT
ATOM      1  C   UNL A   1      45.524  23.456  25.866  1.00  0.00     0.275 C 
ENDROOT
BRANCH   1   2
ATOM      2  C   UNL A   1      46.396  22.544  25.006  1.00  0.00     0.275 C 
BRANCH   2   3
ATOM      3  O   UNL A   1      46.068  21.158  25.238  1.00  0.00    -0.458 OA
BRANCH   3   4
ATOM      4  C   UNL A   1      45.059  20.639  24.504  1.00  0.00     0.343 C 
ATOM      5  O   UNL A   1      44.901  20.751  23.297  1.00  0.00    -0.246 OA
BRANCH   4   6
ATOM      6  C   UNL A   1      44.212  19.765  25.323  1.00  0.00     0.118 A 
ATOM      7  C   UNL A   1      42.141  19.366  26.484  1.00  0.00     0.138 A 
ATOM      8  C   UNL A   1      42.656  18.135  26.865  1.00  0.00     0.160 A 
ATOM      9  C   UNL A   1      42.953  20.213  25.744  1.00  0.00     0.068 A 
ATOM     10  N   UNL A   1      43.883  17.686  26.506  1.00  0.00    -0.224 NA
ATOM     11  C   UNL A   1      44.632  18.510  25.731  1.00  0.00     0.227 A 
ATOM     12  F   UNL A   1      45.860  18.075  25.413  1.00  0.00    -0.184 F 
BRANCH   7  13
ATOM     13  O   UNL A   1      40.899  19.727  26.915  1.00  0.00    -0.495 OA
ATOM     14  C   UNL A   1      40.604  21.093  26.616  1.00  0.00     0.278 C 
ENDBRANCH   7  13
ENDBRANCH   4   6
ENDBRANCH   3   4
ENDBRANCH   2   3
ENDBRANCH   1   2
BRANCH   1  15
ATOM     15  O   UNL A   1      44.691  24.269  25.020  1.00  0.00    -0.458 OA
BRANCH  15  16
ATOM     16  C   UNL A   1      43.363  24.033  25.100  1.00  0.00     0.338 C 
ATOM     17  O   UNL A   1      42.718  23.164  24.542  1.00  0.00    -0.246 OA
BRANCH  16  18
ATOM     18  C   UNL A   1      42.765  24.969  26.060  1.00  0.00     0.060 A 
ATOM     19  C   UNL A   1      43.152  26.305  26.014  1.00  0.00     0.016 A 
ATOM     20  C   UNL A   1      41.939  24.511  27.084  1.00  0.00     0.016 A 
ATOM     21  C   UNL A   1      42.797  27.171  27.043  1.00  0.00     0.010 A 
ATOM     22  C   UNL A   1      41.503  25.408  28.066  1.00  0.00     0.010 A 
ATOM     23  C   UNL A   1      41.959  26.740  28.081  1.00  0.00    -0.014 A 
BRANCH  23  24
ATOM     24  C   UNL A   1      41.597  27.666  29.193  1.00  0.00     0.031 A 
ATOM     25  C   UNL A   1      42.396  27.667  30.472  1.00  0.00     0.074 A 
ATOM     26  C   UNL A   1      40.566  28.526  29.062  1.00  0.00     0.049 A 
ATOM     27  N   UNL A   1      42.137  28.260  31.611  1.00  0.00    -0.248 NA
ATOM     28  C   UNL A   1      43.646  26.891  30.474  1.00  0.00     0.031 C 
ATOM     29  C   UNL A   1      39.730  28.675  27.869  1.00  0.00     0.029 A 
ATOM     30  N   UNL A   1      40.048  29.445  29.943  1.00  0.00    -0.354 N 
ATOM     31  C   UNL A   1      43.150  27.875  32.480  1.00  0.00     0.074 A 
ATOM     32  C   UNL A   1      44.035  27.003  31.736  1.00  0.00     0.031 C 
ATOM     33  C   UNL A   1      38.835  29.652  28.077  1.00  0.00     0.029 A 
ATOM     34  C   UNL A   1      38.967  30.132  29.448  1.00  0.00     0.049 A 
ATOM     35  H   UNL A   1      40.417  29.595  30.844  1.00  0.00     0.167 HD
ATOM     36  C   UNL A   1      43.324  28.212  33.780  1.00  0.00     0.037 A 
ATOM     37  C   UNL A   1      38.138  31.013  30.039  1.00  0.00     0.037 A 
ATOM     38  C   UNL A   1      42.481  29.131  34.502  1.00  0.00     0.049 A 
ATOM     39  C   UNL A   1      38.335  31.354  31.487  1.00  0.00     0.074 A 
ATOM     40  C   UNL A   1      42.598  29.560  35.814  1.00  0.00     0.029 A 
ATOM     41  N   UNL A   1      41.376  29.775  33.969  1.00  0.00    -0.354 N 
ATOM     42  N   UNL A   1      39.262  30.937  32.313  1.00  0.00    -0.248 NA
ATOM     43  C   UNL A   1      37.352  32.264  32.093  1.00  0.00     0.031 C 
ATOM     44  C   UNL A   1      41.543  30.437  36.083  1.00  0.00     0.029 A 
ATOM     45  C   UNL A   1      40.793  30.584  34.930  1.00  0.00     0.049 A 
ATOM     46  H   UNL A   1      41.053  29.671  33.044  1.00  0.00     0.167 HD
ATOM     47  C   UNL A   1      38.977  31.532  33.534  1.00  0.00     0.074 A 
ATOM     48  C   UNL A   1      37.805  32.360  33.335  1.00  0.00     0.031 C 
ATOM     49  C   UNL A   1      39.623  31.398  34.717  1.00  0.00     0.037 A 
BRANCH  36  50
ATOM     50  C   UNL A   1      44.451  27.559  34.524  1.00  0.00     0.057 A 
ATOM     51  C   UNL A   1      44.275  26.390  35.274  1.00  0.00     0.134 A 
ATOM     52  C   UNL A   1      45.746  28.091  34.452  1.00  0.00     0.134 A 
ATOM     53  F   UNL A   1      43.059  25.838  35.396  1.00  0.00    -0.206 F 
ATOM     54  C   UNL A   1      45.343  25.784  35.942  1.00  0.00     0.040 A 
ATOM     55  C   UNL A   1      46.825  27.483  35.095  1.00  0.00     0.040 A 
ATOM     56  F   UNL A   1      45.985  29.207  33.745  1.00  0.00    -0.206 F 
ATOM     57  C   UNL A   1      46.623  26.327  35.846  1.00  0.00     0.006 A 
ENDBRANCH  36  50
BRANCH  37  58
ATOM     58  C   UNL A   1      37.007  31.591  29.269  1.00  0.00     0.057 A 
ATOM     59  C   UNL A   1      35.835  30.862  29.045  1.00  0.00     0.134 A 
ATOM     60  C   UNL A   1      37.067  32.892  28.752  1.00  0.00     0.134 A 
ATOM     61  F   UNL A   1      35.729  29.602  29.493  1.00  0.00    -0.206 F 
ATOM     62  C   UNL A   1      34.763  31.404  28.333  1.00  0.00     0.040 A 
ATOM     63  C   UNL A   1      35.994  33.456  28.062  1.00  0.00     0.040 A 
ATOM     64  F   UNL A   1      38.165  33.643  28.934  1.00  0.00    -0.206 F 
ATOM     65  C   UNL A   1      34.839  32.709  27.848  1.00  0.00     0.006 A 
ENDBRANCH  37  58
BRANCH  49  66
ATOM     66  C   UNL A   1      39.084  32.171  35.881  1.00  0.00     0.057 A 
ATOM     67  C   UNL A   1      39.445  33.506  36.104  1.00  0.00     0.134 A 
ATOM     68  C   UNL A   1      38.170  31.589  36.768  1.00  0.00     0.134 A 
ATOM     69  F   UNL A   1      40.328  34.115  35.298  1.00  0.00    -0.206 F 
ATOM     70  C   UNL A   1      38.929  34.230  37.180  1.00  0.00     0.040 A 
ATOM     71  C   UNL A   1      37.632  32.309  37.835  1.00  0.00     0.040 A 
ATOM     72  F   UNL A   1      37.780  30.316  36.605  1.00  0.00    -0.206 F 
ATOM     73  C   UNL A   1      38.014  33.632  38.045  1.00  0.00     0.006 A 
ENDBRANCH  49  66
ENDBRANCH  23  24
ENDBRANCH  16  18
ENDBRANCH  15  16
ENDBRANCH   1  15
TORSDOF 12
ENDMDL
MODEL 2
REMARK VINA RESULT:     -10.3      5.382      9.185
REMARK SMILES COc1cnc(F)c(C(=O)OCCOC(=O)c2ccc(-c3c4nc(c(-c5c(F)cccc5F)c5ccc([nH]5)c(-c5c(F)cccc5F)c5nc(c(-c6c(F)cccc6F)c6ccc3[nH]6)C=C5)C=C4)cc2)c1
REMARK SMILES IDX 13 1 12 2 11 3 9 4 10 5 8 6 3 7 4 8 71 9 5 10 6 11 7 12 2 13
REMARK SMILES IDX 1 14 14 15 15 16 16 17 17 18 18 19 70 20 19 21 69 22 20 23
REMARK SMILES IDX 21 24 22 25 63 26 23 27 68 28 62 29 64 30 24 31 67 32 61 33
REMARK SMILES IDX 60 34 25 36 51 37 34 38 50 39 35 40 38 41 49 42 65 43 36 44
REMARK SMILES IDX 37 45 48 47 66 48 39 49 26 50 27 51 32 52 28 53 29 54 31 55
REMARK SMILES IDX 33 56 30 57 52 58 53 59 58 60 54 61 55 62 57 63 59 64 56 65
REMARK SMILES IDX 40 66 41 67 46 68 42 69 43 70 45 71 47 72 44 73
REMARK H PARENT 64 35 38 46
REMARK Flexibility Score: inf
ROOT
ATOM      1  C   UNL A   1      36.091  20.705  25.169  1.00  0.00     0.275 C 
ENDROOT
BRANCH   1   2
ATOM      2  C   UNL A   1      34.800  21.464  25.477  1.00  0.00     0.275 C 
BRANCH   2   3
ATOM      3  O   UNL A   1      33.804  21.203  24.467  1.00  0.00    -0.458 OA
BRANCH   3   4
ATOM      4  C   UNL A   1      32.780  20.392  24.814  1.00  0.00     0.343 C 
ATOM      5  O   UNL A   1      31.763  20.714  25.411  1.00  0.00    -0.246 OA
BRANCH   4   6
ATOM      6  C   UNL A   1      32.958  19.051  24.245  1.00  0.00     0.118 A 
ATOM      7  C   UNL A   1      33.639  16.756  24.499  1.00  0.00     0.138 A 
ATOM      8  C   UNL A   1      33.303  16.567  23.166  1.00  0.00     0.160 A 
ATOM      9  C   UNL A   1      33.511  18.032  25.031  1.00  0.00     0.068 A 
ATOM     10  N   UNL A   1      32.801  17.541  22.369  1.00  0.00    -0.224 NA
ATOM     11  C   UNL A   1      32.629  18.763  22.931  1.00  0.00     0.227 A 
ATOM     12  F   UNL A   1      32.168  19.730  22.125  1.00  0.00    -0.184 F 
BRANCH   7  13
ATOM     13  O   UNL A   1      34.153  15.711  25.208  1.00  0.00    -0.495 OA
ATOM     14  C   UNL A   1      35.567  15.825  25.382  1.00  0.00     0.278 C 
ENDBRANCH   7  13
ENDBRANCH   4   6
ENDBRANCH   3   4
ENDBRANCH   2   3
ENDBRANCH   1   2
BRANCH   1  15
ATOM     15  O   UNL A   1      37.187  21.633  25.073  1.00  0.00    -0.458 OA
BRANCH  15  16
ATOM     16  C   UNL A   1      38.344  21.238  25.648  1.00  0.00     0.338 C 
ATOM     17  O   UNL A   1      38.859  20.135  25.622  1.00  0.00    -0.246 OA
BRANCH  16  18
ATOM     18  C   UNL A   1      38.981  22.394  26.291  1.00  0.00     0.060 A 
ATOM     19  C   UNL A   1      38.516  23.668  25.979  1.00  0.00     0.016 A 
ATOM     20  C   UNL A   1      40.116  22.234  27.083  1.00  0.00     0.016 A 
ATOM     21  C   UNL A   1      39.235  24.791  26.376  1.00  0.00     0.010 A 
ATOM     22  C   UNL A   1      40.783  23.367  27.562  1.00  0.00     0.010 A 
ATOM     23  C   UNL A   1      40.375  24.660  27.181  1.00  0.00    -0.014 A 
BRANCH  23  24
ATOM     24  C   UNL A   1      41.155  25.866  27.586  1.00  0.00     0.031 A 
ATOM     25  C   UNL A   1      40.527  26.918  28.464  1.00  0.00     0.074 A 
ATOM     26  C   UNL A   1      42.435  26.019  27.190  1.00  0.00     0.049 A 
ATOM     27  N   UNL A   1      40.970  28.110  28.777  1.00  0.00    -0.248 NA
ATOM     28  C   UNL A   1      39.223  26.590  29.063  1.00  0.00     0.031 C 
ATOM     29  C   UNL A   1      43.194  25.066  26.379  1.00  0.00     0.029 A 
ATOM     30  N   UNL A   1      43.329  27.037  27.424  1.00  0.00    -0.354 N 
ATOM     31  C   UNL A   1      39.974  28.697  29.547  1.00  0.00     0.074 A 
ATOM     32  C   UNL A   1      38.905  27.728  29.664  1.00  0.00     0.031 C 
ATOM     33  C   UNL A   1      44.445  25.522  26.217  1.00  0.00     0.029 A 
ATOM     34  C   UNL A   1      44.551  26.843  26.829  1.00  0.00     0.049 A 
ATOM     35  H   UNL A   1      43.113  27.831  27.966  1.00  0.00     0.167 HD
ATOM     36  C   UNL A   1      39.950  29.933  30.102  1.00  0.00     0.037 A 
ATOM     37  C   UNL A   1      45.624  27.650  26.736  1.00  0.00     0.037 A 
ATOM     38  C   UNL A   1      41.040  30.873  30.042  1.00  0.00     0.049 A 
ATOM     39  C   UNL A   1      45.567  29.024  27.337  1.00  0.00     0.074 A 
ATOM     40  C   UNL A   1      41.121  32.136  30.602  1.00  0.00     0.029 A 
ATOM     41  N   UNL A   1      42.245  30.644  29.396  1.00  0.00    -0.354 N 
ATOM     42  N   UNL A   1      44.597  29.588  28.013  1.00  0.00    -0.248 NA
ATOM     43  C   UNL A   1      46.743  29.884  27.137  1.00  0.00     0.031 C 
ATOM     44  C   UNL A   1      42.363  32.686  30.266  1.00  0.00     0.029 A 
ATOM     45  C   UNL A   1      43.069  31.750  29.530  1.00  0.00     0.049 A 
ATOM     46  H   UNL A   1      42.480  29.819  28.914  1.00  0.00     0.167 HD
ATOM     47  C   UNL A   1      45.042  30.866  28.319  1.00  0.00     0.074 A 
ATOM     48  C   UNL A   1      46.381  30.986  27.778  1.00  0.00     0.031 C 
ATOM     49  C   UNL A   1      44.396  31.856  28.981  1.00  0.00     0.037 A 
BRANCH  36  50
ATOM     50  C   UNL A   1      38.691  30.360  30.797  1.00  0.00     0.057 A 
ATOM     51  C   UNL A   1      38.470  30.125  32.159  1.00  0.00     0.134 A 
ATOM     52  C   UNL A   1      37.699  31.057  30.092  1.00  0.00     0.134 A 
ATOM     53  F   UNL A   1      39.373  29.451  32.887  1.00  0.00    -0.206 F 
ATOM     54  C   UNL A   1      37.300  30.551  32.792  1.00  0.00     0.040 A 
ATOM     55  C   UNL A   1      36.537  31.508  30.718  1.00  0.00     0.040 A 
ATOM     56  F   UNL A   1      37.851  31.320  28.785  1.00  0.00    -0.206 F 
ATOM     57  C   UNL A   1      36.333  31.251  32.073  1.00  0.00     0.006 A 
ENDBRANCH  36  50
BRANCH  37  58
ATOM     58  C   UNL A   1      46.827  27.195  25.992  1.00  0.00     0.057 A 
ATOM     59  C   UNL A   1      46.983  27.470  24.629  1.00  0.00     0.134 A 
ATOM     60  C   UNL A   1      47.854  26.488  26.630  1.00  0.00     0.134 A 
ATOM     61  F   UNL A   1      46.021  28.121  23.958  1.00  0.00    -0.206 F 
ATOM     62  C   UNL A   1      48.117  27.057  23.927  1.00  0.00     0.040 A 
ATOM     63  C   UNL A   1      49.004  26.093  25.947  1.00  0.00     0.040 A 
ATOM     64  F   UNL A   1      47.764  26.194  27.936  1.00  0.00    -0.206 F 
ATOM     65  C   UNL A   1      49.135  26.374  24.590  1.00  0.00     0.006 A 
ENDBRANCH  37  58
BRANCH  49  66
ATOM     66  C   UNL A   1      45.133  33.146  29.167  1.00  0.00     0.057 A 
ATOM     67  C   UNL A   1      45.967  33.361  30.273  1.00  0.00     0.134 A 
ATOM     68  C   UNL A   1      45.036  34.171  28.218  1.00  0.00     0.134 A 
ATOM     69  F   UNL A   1      46.090  32.423  31.224  1.00  0.00    -0.206 F 
ATOM     70  C   UNL A   1      46.665  34.559  30.435  1.00  0.00     0.040 A 
ATOM     71  C   UNL A   1      45.745  35.364  28.360  1.00  0.00     0.040 A 
ATOM     72  F   UNL A   1      44.258  34.024  27.135  1.00  0.00    -0.206 F 
ATOM     73  C   UNL A   1      46.560  35.562  29.473  1.00  0.00     0.006 A 
ENDBRANCH  49  66
ENDBRANCH  23  24
ENDBRANCH  16  18
ENDBRANCH  15  16
ENDBRANCH   1  15
TORSDOF 12
ENDMDL
MODEL 3
REMARK VINA RESULT:     -10.2      6.090     12.721
REMARK SMILES COc1cnc(F)c(C(=O)OCCOC(=O)c2ccc(-c3c4nc(c(-c5c(F)cccc5F)c5ccc([nH]5)c(-c5c(F)cccc5F)c5nc(c(-c6c(F)cccc6F)c6ccc3[nH]6)C=C5)C=C4)cc2)c1
REMARK SMILES IDX 13 1 12 2 11 3 9 4 10 5 8 6 3 7 4 8 71 9 5 10 6 11 7 12 2 13
REMARK SMILES IDX 1 14 14 15 15 16 16 17 17 18 18 19 70 20 19 21 69 22 20 23
REMARK SMILES IDX 21 24 22 25 63 26 23 27 68 28 62 29 64 30 24 31 67 32 61 33
REMARK SMILES IDX 60 34 25 36 51 37 34 38 50 39 35 40 38 41 49 42 65 43 36 44
REMARK SMILES IDX 37 45 48 47 66 48 39 49 26 50 27 51 32 52 28 53 29 54 31 55
REMARK SMILES IDX 33 56 30 57 52 58 53 59 58 60 54 61 55 62 57 63 59 64 56 65
REMARK SMILES IDX 40 66 41 67 46 68 42 69 43 70 45 71 47 72 44 73
REMARK H PARENT 64 35 38 46
REMARK Flexibility Score: inf
ROOT
ATOM      1  C   UNL A   1      36.802  33.369  33.785  1.00  0.00     0.275 C 
ENDROOT
BRANCH   1   2
ATOM      2  C   UNL A   1      35.919  34.501  34.308  1.00  0.00     0.275 C 
BRANCH   2   3
ATOM      3  O   UNL A   1      35.730  35.509  33.293  1.00  0.00    -0.458 OA
BRANCH   3   4
ATOM      4  C   UNL A   1      34.531  36.133  33.270  1.00  0.00     0.343 C 
ATOM      5  O   UNL A   1      34.019  36.764  34.183  1.00  0.00    -0.246 OA
BRANCH   4   6
ATOM      6  C   UNL A   1      33.948  36.098  31.924  1.00  0.00     0.118 A 
ATOM      7  C   UNL A   1      33.396  34.873  29.927  1.00  0.00     0.138 A 
ATOM      8  C   UNL A   1      32.878  36.053  29.413  1.00  0.00     0.160 A 
ATOM      9  C   UNL A   1      33.986  34.910  31.183  1.00  0.00     0.068 A 
ATOM     10  N   UNL A   1      32.859  37.226  30.089  1.00  0.00    -0.224 NA
ATOM     11  C   UNL A   1      33.387  37.220  31.339  1.00  0.00     0.227 A 
ATOM     12  F   UNL A   1      33.399  38.394  31.986  1.00  0.00    -0.184 F 
BRANCH   7  13
ATOM     13  O   UNL A   1      33.380  33.749  29.154  1.00  0.00    -0.495 OA
ATOM     14  C   UNL A   1      33.047  34.038  27.794  1.00  0.00     0.278 C 
ENDBRANCH   7  13
ENDBRANCH   4   6
ENDBRANCH   3   4
ENDBRANCH   2   3
ENDBRANCH   1   2
BRANCH   1  15
ATOM     15  O   UNL A   1      36.023  32.165  33.662  1.00  0.00    -0.458 OA
BRANCH  15  16
ATOM     16  C   UNL A   1      35.602  31.862  32.414  1.00  0.00     0.338 C 
ATOM     17  O   UNL A   1      34.530  32.121  31.898  1.00  0.00    -0.246 OA
BRANCH  16  18
ATOM     18  C   UNL A   1      36.691  31.200  31.686  1.00  0.00     0.060 A 
ATOM     19  C   UNL A   1      37.486  30.283  32.368  1.00  0.00     0.016 A 
ATOM     20  C   UNL A   1      37.017  31.582  30.386  1.00  0.00     0.016 A 
ATOM     21  C   UNL A   1      38.663  29.814  31.794  1.00  0.00     0.010 A 
ATOM     22  C   UNL A   1      38.150  31.033  29.774  1.00  0.00     0.010 A 
ATOM     23  C   UNL A   1      39.010  30.174  30.484  1.00  0.00    -0.014 A 
BRANCH  23  24
ATOM     24  C   UNL A   1      40.283  29.686  29.879  1.00  0.00     0.031 A 
ATOM     25  C   UNL A   1      41.474  30.604  29.769  1.00  0.00     0.074 A 
ATOM     26  C   UNL A   1      40.392  28.414  29.443  1.00  0.00     0.049 A 
ATOM     27  N   UNL A   1      42.598  30.430  29.121  1.00  0.00    -0.248 NA
ATOM     28  C   UNL A   1      41.384  31.894  30.472  1.00  0.00     0.031 C 
ATOM     29  C   UNL A   1      39.344  27.395  29.524  1.00  0.00     0.029 A 
ATOM     30  N   UNL A   1      41.443  27.759  28.847  1.00  0.00    -0.354 N 
ATOM     31  C   UNL A   1      43.317  31.608  29.281  1.00  0.00     0.074 A 
ATOM     32  C   UNL A   1      42.506  32.489  30.094  1.00  0.00     0.031 C 
ATOM     33  C   UNL A   1      39.816  26.237  29.039  1.00  0.00     0.029 A 
ATOM     34  C   UNL A   1      41.163  26.454  28.521  1.00  0.00     0.049 A 
ATOM     35  H   UNL A   1      42.313  28.184  28.669  1.00  0.00     0.167 HD
ATOM     36  C   UNL A   1      44.538  31.928  28.790  1.00  0.00     0.037 A 
ATOM     37  C   UNL A   1      41.881  25.542  27.840  1.00  0.00     0.037 A 
ATOM     38  C   UNL A   1      45.373  31.029  28.036  1.00  0.00     0.049 A 
ATOM     39  C   UNL A   1      43.222  25.926  27.284  1.00  0.00     0.074 A 
ATOM     40  C   UNL A   1      46.640  31.252  27.524  1.00  0.00     0.029 A 
ATOM     41  N   UNL A   1      45.031  29.728  27.700  1.00  0.00    -0.354 N 
ATOM     42  N   UNL A   1      43.864  27.063  27.392  1.00  0.00    -0.248 NA
ATOM     43  C   UNL A   1      43.923  24.910  26.486  1.00  0.00     0.031 C 
ATOM     44  C   UNL A   1      47.051  30.098  26.850  1.00  0.00     0.029 A 
ATOM     45  C   UNL A   1      46.056  29.144  26.974  1.00  0.00     0.049 A 
ATOM     46  H   UNL A   1      44.185  29.286  27.941  1.00  0.00     0.167 HD
ATOM     47  C   UNL A   1      45.043  26.901  26.679  1.00  0.00     0.074 A 
ATOM     48  C   UNL A   1      45.040  25.548  26.163  1.00  0.00     0.031 C 
ATOM     49  C   UNL A   1      46.036  27.797  26.462  1.00  0.00     0.037 A 
BRANCH  36  50
ATOM     50  C   UNL A   1      45.037  33.324  29.020  1.00  0.00     0.057 A 
ATOM     51  C   UNL A   1      44.718  34.385  28.165  1.00  0.00     0.134 A 
ATOM     52  C   UNL A   1      45.820  33.615  30.147  1.00  0.00     0.134 A 
ATOM     53  F   UNL A   1      43.985  34.171  27.062  1.00  0.00    -0.206 F 
ATOM     54  C   UNL A   1      45.175  35.682  28.410  1.00  0.00     0.040 A 
ATOM     55  C   UNL A   1      46.263  34.911  30.415  1.00  0.00     0.040 A 
ATOM     56  F   UNL A   1      46.158  32.645  31.010  1.00  0.00    -0.206 F 
ATOM     57  C   UNL A   1      45.943  35.949  29.542  1.00  0.00     0.006 A 
ENDBRANCH  36  50
BRANCH  37  58
ATOM     58  C   UNL A   1      41.317  24.190  27.596  1.00  0.00     0.057 A 
ATOM     59  C   UNL A   1      41.766  23.077  28.313  1.00  0.00     0.134 A 
ATOM     60  C   UNL A   1      40.304  23.984  26.650  1.00  0.00     0.134 A 
ATOM     61  F   UNL A   1      42.751  23.208  29.214  1.00  0.00    -0.206 F 
ATOM     62  C   UNL A   1      41.230  21.806  28.098  1.00  0.00     0.040 A 
ATOM     63  C   UNL A   1      39.741  22.725  26.444  1.00  0.00     0.040 A 
ATOM     64  F   UNL A   1      39.830  25.013  25.930  1.00  0.00    -0.206 F 
ATOM     65  C   UNL A   1      40.208  21.630  27.167  1.00  0.00     0.006 A 
ENDBRANCH  37  58
BRANCH  49  66
ATOM     66  C   UNL A   1      47.203  27.337  25.645  1.00  0.00     0.057 A 
ATOM     67  C   UNL A   1      47.266  27.565  24.264  1.00  0.00     0.134 A 
ATOM     68  C   UNL A   1      48.290  26.691  26.246  1.00  0.00     0.134 A 
ATOM     69  F   UNL A   1      46.249  28.166  23.627  1.00  0.00    -0.206 F 
ATOM     70  C   UNL A   1      48.363  27.149  23.507  1.00  0.00     0.040 A 
ATOM     71  C   UNL A   1      49.401  26.290  25.503  1.00  0.00     0.040 A 
ATOM     72  F   UNL A   1      48.293  26.449  27.566  1.00  0.00    -0.206 F 
ATOM     73  C   UNL A   1      49.437  26.516  24.128  1.00  0.00     0.006 A 
ENDBRANCH  49  66
ENDBRANCH  23  24
ENDBRANCH  16  18
ENDBRANCH  15  16
ENDBRANCH   1  15
TORSDOF 12
ENDMDL
