MODEL 1
REMARK VINA RESULT:     -13.4      0.000      0.000
REMARK SMILES O=C(OCCOC(=O)[C@@H](Cc1ccccc1)N1C(=O)/C(=C/c2ccncc2)SC1=S)c1ccc(-c2c3nc(c(-c4c(F)cccc4F)c4ccc([nH]4)c(-c4c(F)cccc4F)c4nc(c(-c5c(F)cccc5F)c5ccc2[nH]5)C=C4)C=C3)cc1
REMARK SMILES IDX 4 1 3 2 2 3 1 4 31 5 32 6 84 7 33 8 83 9 34 10 35 11 36 12
REMARK SMILES IDX 77 13 37 14 82 15 76 16 78 17 38 18 81 19 75 20 74 21 39 23
REMARK SMILES IDX 65 24 48 25 64 26 49 27 52 28 63 29 79 30 50 31 51 32 62 34
REMARK SMILES IDX 80 35 53 36 40 37 41 38 46 39 42 40 43 41 45 42 47 43 44 44
REMARK SMILES IDX 66 45 67 46 72 47 68 48 69 49 71 50 73 51 70 52 54 53 55 54
REMARK SMILES IDX 60 55 56 56 57 57 59 58 61 59 58 60 5 61 6 62 7 63 8 64 9 65
REMARK SMILES IDX 10 66 11 67 12 68 16 69 13 70 15 71 14 72 17 73 18 74 29 75
REMARK SMILES IDX 19 76 20 77 28 78 30 79 21 80 22 81 23 82 27 83 24 84 26 85
REMARK SMILES IDX 25 86
REMARK H PARENT 78 22 52 33
REMARK Flexibility Score: inf
ROOT
ATOM      1  C   UNL A   1      33.051  28.990  27.641  1.00  0.00     0.275 C 
ENDROOT
BRANCH   1   2
ATOM      2  O   UNL A   1      33.417  30.312  27.220  1.00  0.00    -0.458 OA
BRANCH   2   3
ATOM      3  C   UNL A   1      34.099  31.243  27.924  1.00  0.00     0.338 C 
ATOM      4  O   UNL A   1      33.611  32.367  28.039  1.00  0.00    -0.246 OA
BRANCH   3   5
ATOM      5  C   UNL A   1      35.461  31.053  28.512  1.00  0.00     0.060 A 
ATOM      6  C   UNL A   1      35.809  31.083  30.231  1.00  0.00     0.016 A 
ATOM      7  C   UNL A   1      36.661  30.515  27.297  1.00  0.00     0.016 A 
ATOM      8  C   UNL A   1      37.393  30.495  30.797  1.00  0.00     0.010 A 
ATOM      9  C   UNL A   1      38.245  29.868  27.707  1.00  0.00     0.010 A 
ATOM     10  C   UNL A   1      38.751  29.826  29.445  1.00  0.00    -0.014 A 
BRANCH  10  11
ATOM     11  C   UNL A   1      40.245  29.343  29.381  1.00  0.00     0.031 A 
ATOM     12  C   UNL A   1      40.463  27.919  28.965  1.00  0.00     0.074 A 
ATOM     13  C   UNL A   1      41.321  30.127  29.628  1.00  0.00     0.049 A 
ATOM     14  N   UNL A   1      41.420  27.412  28.242  1.00  0.00    -0.248 NA
ATOM     15  C   UNL A   1      39.450  26.935  29.389  1.00  0.00     0.031 C 
ATOM     16  C   UNL A   1      41.325  31.407  30.326  1.00  0.00     0.029 A 
ATOM     17  N   UNL A   1      42.568  30.083  29.044  1.00  0.00    -0.354 N 
ATOM     18  C   UNL A   1      41.077  26.080  28.070  1.00  0.00     0.074 A 
ATOM     19  C   UNL A   1      39.845  25.839  28.772  1.00  0.00     0.031 C 
ATOM     20  C   UNL A   1      42.332  32.161  29.861  1.00  0.00     0.029 A 
ATOM     21  C   UNL A   1      43.153  31.339  28.983  1.00  0.00     0.049 A 
ATOM     22  H   UNL A   1      42.992  29.259  28.710  1.00  0.00     0.167 HD
ATOM     23  C   UNL A   1      41.757  25.131  27.394  1.00  0.00     0.037 A 
ATOM     24  C   UNL A   1      44.222  31.762  28.276  1.00  0.00     0.037 A 
ATOM     25  C   UNL A   1      43.064  25.376  26.865  1.00  0.00     0.049 A 
ATOM     26  C   UNL A   1      44.989  30.698  27.547  1.00  0.00     0.074 A 
ATOM     27  C   UNL A   1      43.939  24.494  26.268  1.00  0.00     0.029 A 
ATOM     28  N   UNL A   1      43.708  26.605  26.946  1.00  0.00    -0.354 N 
ATOM     29  N   UNL A   1      44.647  29.453  27.312  1.00  0.00    -0.248 NA
ATOM     30  C   UNL A   1      46.328  31.063  27.074  1.00  0.00     0.031 C 
ATOM     31  C   UNL A   1      45.147  25.171  26.070  1.00  0.00     0.029 A 
ATOM     32  C   UNL A   1      44.986  26.499  26.440  1.00  0.00     0.049 A 
ATOM     33  H   UNL A   1      43.311  27.430  27.310  1.00  0.00     0.167 HD
ATOM     34  C   UNL A   1      45.740  28.871  26.693  1.00  0.00     0.074 A 
ATOM     35  C   UNL A   1      46.732  29.921  26.537  1.00  0.00     0.031 C 
ATOM     36  C   UNL A   1      45.929  27.582  26.315  1.00  0.00     0.037 A 
BRANCH  23  37
ATOM     37  C   UNL A   1      41.140  23.768  27.357  1.00  0.00     0.057 A 
ATOM     38  C   UNL A   1      41.684  22.684  28.062  1.00  0.00     0.134 A 
ATOM     39  C   UNL A   1      40.057  23.511  26.510  1.00  0.00     0.134 A 
ATOM     40  F   UNL A   1      42.762  22.851  28.845  1.00  0.00    -0.206 F 
ATOM     41  C   UNL A   1      41.187  21.389  27.903  1.00  0.00     0.040 A 
ATOM     42  C   UNL A   1      39.533  22.227  26.365  1.00  0.00     0.040 A 
ATOM     43  F   UNL A   1      39.516  24.497  25.779  1.00  0.00    -0.206 F 
ATOM     44  C   UNL A   1      40.105  21.159  27.054  1.00  0.00     0.006 A 
ENDBRANCH  23  37
BRANCH  24  45
ATOM     45  C   UNL A   1      44.718  33.168  28.317  1.00  0.00     0.057 A 
ATOM     46  C   UNL A   1      45.454  33.684  29.397  1.00  0.00     0.134 A 
ATOM     47  C   UNL A   1      44.368  34.075  27.311  1.00  0.00     0.134 A 
ATOM     48  F   UNL A   1      45.780  32.896  30.433  1.00  0.00    -0.206 F 
ATOM     49  C   UNL A   1      45.824  35.034  29.465  1.00  0.00     0.040 A 
ATOM     50  C   UNL A   1      44.733  35.419  27.366  1.00  0.00     0.040 A 
ATOM     51  F   UNL A   1      43.648  33.673  26.254  1.00  0.00    -0.206 F 
ATOM     52  C   UNL A   1      45.470  35.905  28.440  1.00  0.00     0.006 A 
ENDBRANCH  24  45
BRANCH  36  53
ATOM     53  C   UNL A   1      47.224  27.277  25.639  1.00  0.00     0.057 A 
ATOM     54  C   UNL A   1      47.440  27.527  24.280  1.00  0.00     0.134 A 
ATOM     55  C   UNL A   1      48.277  26.737  26.386  1.00  0.00     0.134 A 
ATOM     56  F   UNL A   1      46.462  28.034  23.514  1.00  0.00    -0.206 F 
ATOM     57  C   UNL A   1      48.652  27.202  23.674  1.00  0.00     0.040 A 
ATOM     58  C   UNL A   1      49.506  26.453  25.802  1.00  0.00     0.040 A 
ATOM     59  F   UNL A   1      48.128  26.492  27.698  1.00  0.00    -0.206 F 
ATOM     60  C   UNL A   1      49.689  26.670  24.438  1.00  0.00     0.006 A 
ENDBRANCH  36  53
ENDBRANCH  10  11
ENDBRANCH   3   5
ENDBRANCH   2   3
ENDBRANCH   1   2
BRANCH   1  61
ATOM     61  C   UNL A   1      32.057  28.325  26.681  1.00  0.00     0.274 C 
BRANCH  61  62
ATOM     62  O   UNL A   1      32.288  26.905  26.612  1.00  0.00    -0.461 OA
BRANCH  62  63
ATOM     63  C   UNL A   1      32.561  26.307  25.431  1.00  0.00     0.329 C 
ATOM     64  O   UNL A   1      33.443  26.658  24.660  1.00  0.00    -0.250 OA
BRANCH  63  65
ATOM     65  C   UNL A   1      31.524  25.220  25.115  1.00  0.00     0.206 C 
BRANCH  65  66
ATOM     66  C   UNL A   1      30.112  25.697  24.670  1.00  0.00     0.073 C 
BRANCH  66  67
ATOM     67  C   UNL A   1      29.864  26.933  23.679  1.00  0.00    -0.045 A 
ATOM     68  C   UNL A   1      30.967  28.350  22.729  1.00  0.00     0.004 A 
ATOM     69  C   UNL A   1      28.076  27.243  23.737  1.00  0.00     0.004 A 
ATOM     70  C   UNL A   1      30.136  29.779  22.006  1.00  0.00     0.000 A 
ATOM     71  C   UNL A   1      27.408  28.701  23.002  1.00  0.00     0.000 A 
ATOM     72  C   UNL A   1      28.398  29.913  22.181  1.00  0.00     0.000 A 
ENDBRANCH  66  67
ENDBRANCH  65  66
BRANCH  65  73
ATOM     73  N   UNL A   1      31.999  23.969  24.498  1.00  0.00    -0.278 N 
ATOM     74  C   UNL A   1      31.870  22.807  25.260  1.00  0.00     0.267 C 
ATOM     75  C   UNL A   1      32.368  23.795  23.178  1.00  0.00     0.149 C 
ATOM     76  O   UNL A   1      31.470  22.733  26.414  1.00  0.00    -0.268 OA
ATOM     77  C   UNL A   1      32.240  21.617  24.456  1.00  0.00     0.081 C 
ATOM     78  S   UNL A   1      32.504  22.086  22.825  1.00  0.00    -0.054 SA
ATOM     79  S   UNL A   1      32.654  24.899  21.964  1.00  0.00    -0.052 S 
ATOM     80  C   UNL A   1      32.362  20.385  24.975  1.00  0.00     0.029 C 
BRANCH  80  81
ATOM     81  C   UNL A   1      32.873  19.232  24.219  1.00  0.00    -0.021 A 
ATOM     82  C   UNL A   1      32.217  18.804  23.060  1.00  0.00     0.028 A 
ATOM     83  C   UNL A   1      34.021  18.556  24.619  1.00  0.00     0.028 A 
ATOM     84  C   UNL A   1      32.651  17.657  22.425  1.00  0.00     0.111 A 
ATOM     85  C   UNL A   1      34.415  17.453  23.875  1.00  0.00     0.111 A 
ATOM     86  N   UNL A   1      33.740  16.967  22.810  1.00  0.00    -0.265 NA
ENDBRANCH  80  81
ENDBRANCH  65  73
ENDBRANCH  63  65
ENDBRANCH  62  63
ENDBRANCH  61  62
ENDBRANCH   1  61
TORSDOF 15
ENDMDL
MODEL 2
REMARK VINA RESULT:     -13.2      1.714      5.174
REMARK SMILES O=C(OCCOC(=O)[C@@H](Cc1ccccc1)N1C(=O)/C(=C/c2ccncc2)SC1=S)c1ccc(-c2c3nc(c(-c4c(F)cccc4F)c4ccc([nH]4)c(-c4c(F)cccc4F)c4nc(c(-c5c(F)cccc5F)c5ccc2[nH]5)C=C4)C=C3)cc1
REMARK SMILES IDX 4 1 3 2 2 3 1 4 31 5 32 6 84 7 33 8 83 9 34 10 35 11 36 12
REMARK SMILES IDX 77 13 37 14 82 15 76 16 78 17 38 18 81 19 75 20 74 21 39 23
REMARK SMILES IDX 65 24 48 25 64 26 49 27 52 28 63 29 79 30 50 31 51 32 62 34
REMARK SMILES IDX 80 35 53 36 40 37 41 38 46 39 42 40 43 41 45 42 47 43 44 44
REMARK SMILES IDX 66 45 67 46 72 47 68 48 69 49 71 50 73 51 70 52 54 53 55 54
REMARK SMILES IDX 60 55 56 56 57 57 59 58 61 59 58 60 5 61 6 62 7 63 8 64 9 65
REMARK SMILES IDX 10 66 11 67 12 68 16 69 13 70 15 71 14 72 17 73 18 74 29 75
REMARK SMILES IDX 19 76 20 77 28 78 30 79 21 80 22 81 23 82 27 83 24 84 26 85
REMARK SMILES IDX 25 86
REMARK H PARENT 78 22 52 33
REMARK Flexibility Score: inf
ROOT
ATOM      1  C   UNL A   1      33.528  28.873  26.962  1.00  0.00     0.275 C 
ENDROOT
BRANCH   1   2
ATOM      2  O   UNL A   1      33.251  30.077  27.692  1.00  0.00    -0.458 OA
BRANCH   2   3
ATOM      3  C   UNL A   1      34.104  31.087  27.971  1.00  0.00     0.338 C 
ATOM      4  O   UNL A   1      33.777  32.234  27.667  1.00  0.00    -0.246 OA
BRANCH   3   5
ATOM      5  C   UNL A   1      35.476  30.924  28.546  1.00  0.00     0.060 A 
ATOM      6  C   UNL A   1      35.845  30.996  30.259  1.00  0.00     0.016 A 
ATOM      7  C   UNL A   1      36.667  30.373  27.328  1.00  0.00     0.016 A 
ATOM      8  C   UNL A   1      37.442  30.437  30.818  1.00  0.00     0.010 A 
ATOM      9  C   UNL A   1      38.262  29.752  27.732  1.00  0.00     0.010 A 
ATOM     10  C   UNL A   1      38.790  29.753  29.464  1.00  0.00    -0.014 A 
BRANCH  10  11
ATOM     11  C   UNL A   1      40.289  29.284  29.391  1.00  0.00     0.031 A 
ATOM     12  C   UNL A   1      40.517  27.862  28.974  1.00  0.00     0.074 A 
ATOM     13  C   UNL A   1      41.358  30.078  29.632  1.00  0.00     0.049 A 
ATOM     14  N   UNL A   1      41.476  27.364  28.246  1.00  0.00    -0.248 NA
ATOM     15  C   UNL A   1      39.517  26.869  29.404  1.00  0.00     0.031 C 
ATOM     16  C   UNL A   1      41.354  31.358  30.330  1.00  0.00     0.029 A 
ATOM     17  N   UNL A   1      42.602  30.046  29.041  1.00  0.00    -0.354 N 
ATOM     18  C   UNL A   1      41.145  26.029  28.076  1.00  0.00     0.074 A 
ATOM     19  C   UNL A   1      39.919  25.777  28.785  1.00  0.00     0.031 C 
ATOM     20  C   UNL A   1      42.351  32.123  29.859  1.00  0.00     0.029 A 
ATOM     21  C   UNL A   1      43.175  31.308  28.977  1.00  0.00     0.049 A 
ATOM     22  H   UNL A   1      43.032  29.227  28.705  1.00  0.00     0.167 HD
ATOM     23  C   UNL A   1      41.830  25.087  27.396  1.00  0.00     0.037 A 
ATOM     24  C   UNL A   1      44.236  31.741  28.264  1.00  0.00     0.037 A 
ATOM     25  C   UNL A   1      43.132  25.344  26.860  1.00  0.00     0.049 A 
ATOM     26  C   UNL A   1      45.009  30.684  27.531  1.00  0.00     0.074 A 
ATOM     27  C   UNL A   1      44.011  24.470  26.258  1.00  0.00     0.029 A 
ATOM     28  N   UNL A   1      43.764  26.580  26.937  1.00  0.00    -0.354 N 
ATOM     29  N   UNL A   1      44.677  29.437  27.297  1.00  0.00    -0.248 NA
ATOM     30  C   UNL A   1      46.342  31.062  27.050  1.00  0.00     0.031 C 
ATOM     31  C   UNL A   1      45.212  25.159  26.053  1.00  0.00     0.029 A 
ATOM     32  C   UNL A   1      45.040  26.485  26.424  1.00  0.00     0.049 A 
ATOM     33  H   UNL A   1      43.361  27.400  27.303  1.00  0.00     0.167 HD
ATOM     34  C   UNL A   1      45.773  28.864  26.673  1.00  0.00     0.074 A 
ATOM     35  C   UNL A   1      46.753  29.924  26.511  1.00  0.00     0.031 C 
ATOM     36  C   UNL A   1      45.972  27.578  26.293  1.00  0.00     0.037 A 
BRANCH  23  37
ATOM     37  C   UNL A   1      41.226  23.718  27.362  1.00  0.00     0.057 A 
ATOM     38  C   UNL A   1      41.777  22.642  28.073  1.00  0.00     0.134 A 
ATOM     39  C   UNL A   1      40.148  23.448  26.513  1.00  0.00     0.134 A 
ATOM     40  F   UNL A   1      42.852  22.822  28.859  1.00  0.00    -0.206 F 
ATOM     41  C   UNL A   1      41.293  21.341  27.918  1.00  0.00     0.040 A 
ATOM     42  C   UNL A   1      39.637  22.158  26.372  1.00  0.00     0.040 A 
ATOM     43  F   UNL A   1      39.600  24.425  25.776  1.00  0.00    -0.206 F 
ATOM     44  C   UNL A   1      40.217  21.098  27.067  1.00  0.00     0.006 A 
ENDBRANCH  23  37
BRANCH  24  45
ATOM     45  C   UNL A   1      44.719  33.152  28.302  1.00  0.00     0.057 A 
ATOM     46  C   UNL A   1      44.413  34.088  27.299  1.00  0.00     0.134 A 
ATOM     47  C   UNL A   1      45.601  33.575  29.302  1.00  0.00     0.134 A 
ATOM     48  F   UNL A   1      43.623  33.745  26.271  1.00  0.00    -0.206 F 
ATOM     49  C   UNL A   1      44.959  35.379  27.298  1.00  0.00     0.040 A 
ATOM     50  C   UNL A   1      46.148  34.857  29.313  1.00  0.00     0.040 A 
ATOM     51  F   UNL A   1      45.964  32.739  30.286  1.00  0.00    -0.206 F 
ATOM     52  C   UNL A   1      45.823  35.770  28.316  1.00  0.00     0.006 A 
ENDBRANCH  24  45
BRANCH  36  53
ATOM     53  C   UNL A   1      47.266  27.285  25.610  1.00  0.00     0.057 A 
ATOM     54  C   UNL A   1      48.372  26.760  26.286  1.00  0.00     0.134 A 
ATOM     55  C   UNL A   1      47.384  27.522  24.236  1.00  0.00     0.134 A 
ATOM     56  F   UNL A   1      48.317  26.523  27.606  1.00  0.00    -0.206 F 
ATOM     57  C   UNL A   1      49.574  26.526  25.623  1.00  0.00     0.040 A 
ATOM     58  C   UNL A   1      48.565  27.248  23.555  1.00  0.00     0.040 A 
ATOM     59  F   UNL A   1      46.348  28.010  23.535  1.00  0.00    -0.206 F 
ATOM     60  C   UNL A   1      49.669  26.764  24.253  1.00  0.00     0.006 A 
ENDBRANCH  36  53
ENDBRANCH  10  11
ENDBRANCH   3   5
ENDBRANCH   2   3
ENDBRANCH   1   2
BRANCH   1  61
ATOM     61  C   UNL A   1      32.438  27.810  27.153  1.00  0.00     0.274 C 
BRANCH  61  62
ATOM     62  O   UNL A   1      32.843  26.556  26.574  1.00  0.00    -0.461 OA
BRANCH  62  63
ATOM     63  C   UNL A   1      31.937  25.743  25.987  1.00  0.00     0.329 C 
ATOM     64  O   UNL A   1      31.231  24.941  26.582  1.00  0.00    -0.250 OA
BRANCH  63  65
ATOM     65  C   UNL A   1      32.014  25.853  24.457  1.00  0.00     0.206 C 
BRANCH  65  66
ATOM     66  C   UNL A   1      31.757  24.553  23.641  1.00  0.00     0.073 C 
BRANCH  66  67
ATOM     67  C   UNL A   1      32.484  23.156  23.945  1.00  0.00    -0.045 A 
ATOM     68  C   UNL A   1      32.036  21.384  24.832  1.00  0.00     0.004 A 
ATOM     69  C   UNL A   1      34.250  23.463  23.659  1.00  0.00     0.004 A 
ATOM     70  C   UNL A   1      33.370  20.246  25.254  1.00  0.00     0.000 A 
ATOM     71  C   UNL A   1      35.446  22.260  24.148  1.00  0.00     0.000 A 
ATOM     72  C   UNL A   1      35.020  20.726  24.915  1.00  0.00     0.000 A 
ENDBRANCH  66  67
ENDBRANCH  65  66
BRANCH  65  73
ATOM     73  N   UNL A   1      31.551  27.102  23.829  1.00  0.00    -0.278 N 
ATOM     74  C   UNL A   1      30.185  27.376  23.910  1.00  0.00     0.267 C 
ATOM     75  C   UNL A   1      32.350  28.121  23.347  1.00  0.00     0.149 C 
ATOM     76  O   UNL A   1      29.324  26.649  24.388  1.00  0.00    -0.268 OA
ATOM     77  C   UNL A   1      29.894  28.727  23.376  1.00  0.00     0.081 C 
ATOM     78  S   UNL A   1      31.370  29.538  23.033  1.00  0.00    -0.054 SA
ATOM     79  S   UNL A   1      33.990  28.193  23.070  1.00  0.00    -0.052 S 
ATOM     80  C   UNL A   1      28.650  29.194  23.185  1.00  0.00     0.029 C 
BRANCH  80  81
ATOM     81  C   UNL A   1      28.354  30.470  22.517  1.00  0.00    -0.021 A 
ATOM     82  C   UNL A   1      28.099  30.503  21.142  1.00  0.00     0.028 A 
ATOM     83  C   UNL A   1      28.300  31.664  23.230  1.00  0.00     0.028 A 
ATOM     84  C   UNL A   1      27.928  31.722  20.518  1.00  0.00     0.111 A 
ATOM     85  C   UNL A   1      28.055  32.831  22.521  1.00  0.00     0.111 A 
ATOM     86  N   UNL A   1      27.902  32.893  21.180  1.00  0.00    -0.265 NA
ENDBRANCH  80  81
ENDBRANCH  65  73
ENDBRANCH  63  65
ENDBRANCH  62  63
ENDBRANCH  61  62
ENDBRANCH   1  61
TORSDOF 15
ENDMDL
MODEL 3
REMARK VINA RESULT:     -13.1      4.487      9.925
REMARK SMILES O=C(OCCOC(=O)[C@@H](Cc1ccccc1)N1C(=O)/C(=C/c2ccncc2)SC1=S)c1ccc(-c2c3nc(c(-c4c(F)cccc4F)c4ccc([nH]4)c(-c4c(F)cccc4F)c4nc(c(-c5c(F)cccc5F)c5ccc2[nH]5)C=C4)C=C3)cc1
REMARK SMILES IDX 4 1 3 2 2 3 1 4 31 5 32 6 84 7 33 8 83 9 34 10 35 11 36 12
REMARK SMILES IDX 77 13 37 14 82 15 76 16 78 17 38 18 81 19 75 20 74 21 39 23
REMARK SMILES IDX 65 24 48 25 64 26 49 27 52 28 63 29 79 30 50 31 51 32 62 34
REMARK SMILES IDX 80 35 53 36 40 37 41 38 46 39 42 40 43 41 45 42 47 43 44 44
REMARK SMILES IDX 66 45 67 46 72 47 68 48 69 49 71 50 73 51 70 52 54 53 55 54
REMARK SMILES IDX 60 55 56 56 57 57 59 58 61 59 58 60 5 61 6 62 7 63 8 64 9 65
REMARK SMILES IDX 10 66 11 67 12 68 16 69 13 70 15 71 14 72 17 73 18 74 29 75
REMARK SMILES IDX 19 76 20 77 28 78 30 79 21 80 22 81 23 82 27 83 24 84 26 85
REMARK SMILES IDX 25 86
REMARK H PARENT 78 22 52 33
REMARK Flexibility Score: inf
ROOT
ATOM      1  C   UNL A   1      36.769  23.814  25.423  1.00  0.00     0.275 C 
ENDROOT
BRANCH   1   2
ATOM      2  O   UNL A   1      37.623  22.718  25.784  1.00  0.00    -0.458 OA
BRANCH   2   3
ATOM      3  C   UNL A   1      38.920  22.773  26.161  1.00  0.00     0.338 C 
ATOM      4  O   UNL A   1      39.581  21.735  26.146  1.00  0.00    -0.246 OA
BRANCH   3   5
ATOM      5  C   UNL A   1      39.614  23.989  26.688  1.00  0.00     0.060 A 
ATOM      6  C   UNL A   1      40.700  24.994  25.747  1.00  0.00     0.016 A 
ATOM      7  C   UNL A   1      39.009  24.475  28.302  1.00  0.00     0.016 A 
ATOM      8  C   UNL A   1      41.169  26.589  26.390  1.00  0.00     0.010 A 
ATOM      9  C   UNL A   1      39.350  26.033  29.045  1.00  0.00     0.010 A 
ATOM     10  C   UNL A   1      40.452  27.188  28.192  1.00  0.00    -0.014 A 
BRANCH  10  11
ATOM     11  C   UNL A   1      40.624  28.362  29.223  1.00  0.00     0.031 A 
ATOM     12  C   UNL A   1      39.569  29.428  29.193  1.00  0.00     0.074 A 
ATOM     13  C   UNL A   1      41.614  28.443  30.142  1.00  0.00     0.049 A 
ATOM     14  N   UNL A   1      39.055  30.101  30.182  1.00  0.00    -0.248 NA
ATOM     15  C   UNL A   1      38.989  29.760  27.880  1.00  0.00     0.031 C 
ATOM     16  C   UNL A   1      42.871  27.704  30.137  1.00  0.00     0.029 A 
ATOM     17  N   UNL A   1      41.565  28.970  31.414  1.00  0.00    -0.354 N 
ATOM     18  C   UNL A   1      38.050  30.869  29.614  1.00  0.00     0.074 A 
ATOM     19  C   UNL A   1      38.031  30.606  28.200  1.00  0.00     0.031 C 
ATOM     20  C   UNL A   1      43.288  27.530  31.400  1.00  0.00     0.029 A 
ATOM     21  C   UNL A   1      42.432  28.316  32.277  1.00  0.00     0.049 A 
ATOM     22  H   UNL A   1      40.984  29.720  31.678  1.00  0.00     0.167 HD
ATOM     23  C   UNL A   1      37.227  31.741  30.231  1.00  0.00     0.037 A 
ATOM     24  C   UNL A   1      42.497  28.348  33.625  1.00  0.00     0.037 A 
ATOM     25  C   UNL A   1      37.403  32.100  31.604  1.00  0.00     0.049 A 
ATOM     26  C   UNL A   1      41.597  29.338  34.302  1.00  0.00     0.074 A 
ATOM     27  C   UNL A   1      36.742  33.056  32.345  1.00  0.00     0.029 A 
ATOM     28  N   UNL A   1      38.381  31.547  32.424  1.00  0.00    -0.354 N 
ATOM     29  N   UNL A   1      40.595  30.018  33.798  1.00  0.00    -0.248 NA
ATOM     30  C   UNL A   1      41.895  29.642  35.706  1.00  0.00     0.031 C 
ATOM     31  C   UNL A   1      37.381  33.142  33.586  1.00  0.00     0.029 A 
ATOM     32  C   UNL A   1      38.365  32.165  33.655  1.00  0.00     0.049 A 
ATOM     33  H   UNL A   1      38.994  30.821  32.164  1.00  0.00     0.167 HD
ATOM     34  C   UNL A   1      40.161  30.859  34.808  1.00  0.00     0.074 A 
ATOM     35  C   UNL A   1      40.973  30.555  35.973  1.00  0.00     0.031 C 
ATOM     36  C   UNL A   1      39.203  31.819  34.776  1.00  0.00     0.037 A 
BRANCH  23  37
ATOM     37  C   UNL A   1      36.215  32.426  29.367  1.00  0.00     0.057 A 
ATOM     38  C   UNL A   1      36.319  33.784  29.029  1.00  0.00     0.134 A 
ATOM     39  C   UNL A   1      35.059  31.747  28.966  1.00  0.00     0.134 A 
ATOM     40  F   UNL A   1      37.374  34.509  29.435  1.00  0.00    -0.206 F 
ATOM     41  C   UNL A   1      35.296  34.446  28.347  1.00  0.00     0.040 A 
ATOM     42  C   UNL A   1      34.044  32.390  28.259  1.00  0.00     0.040 A 
ATOM     43  F   UNL A   1      34.880  30.458  29.290  1.00  0.00    -0.206 F 
ATOM     44  C   UNL A   1      34.155  33.746  27.957  1.00  0.00     0.006 A 
ENDBRANCH  23  37
BRANCH  24  45
ATOM     45  C   UNL A   1      43.497  27.564  34.407  1.00  0.00     0.057 A 
ATOM     46  C   UNL A   1      44.843  27.950  34.524  1.00  0.00     0.134 A 
ATOM     47  C   UNL A   1      43.149  26.333  34.974  1.00  0.00     0.134 A 
ATOM     48  F   UNL A   1      45.274  29.087  33.958  1.00  0.00    -0.206 F 
ATOM     49  C   UNL A   1      45.790  27.149  35.177  1.00  0.00     0.040 A 
ATOM     50  C   UNL A   1      44.081  25.530  35.629  1.00  0.00     0.040 A 
ATOM     51  F   UNL A   1      41.891  25.878  34.890  1.00  0.00    -0.206 F 
ATOM     52  C   UNL A   1      45.406  25.937  35.742  1.00  0.00     0.006 A 
ENDBRANCH  24  45
BRANCH  36  53
ATOM     53  C   UNL A   1      38.951  32.541  36.058  1.00  0.00     0.057 A 
ATOM     54  C   UNL A   1      38.169  32.002  37.084  1.00  0.00     0.134 A 
ATOM     55  C   UNL A   1      39.530  33.799  36.261  1.00  0.00     0.134 A 
ATOM     56  F   UNL A   1      37.581  30.803  36.938  1.00  0.00    -0.206 F 
ATOM     57  C   UNL A   1      37.929  32.715  38.255  1.00  0.00     0.040 A 
ATOM     58  C   UNL A   1      39.336  34.500  37.446  1.00  0.00     0.040 A 
ATOM     59  F   UNL A   1      40.303  34.356  35.315  1.00  0.00    -0.206 F 
ATOM     60  C   UNL A   1      38.520  33.964  38.440  1.00  0.00     0.006 A 
ENDBRANCH  36  53
ENDBRANCH  10  11
ENDBRANCH   3   5
ENDBRANCH   2   3
ENDBRANCH   1   2
BRANCH   1  61
ATOM     61  C   UNL A   1      35.295  23.537  25.748  1.00  0.00     0.274 C 
BRANCH  61  62
ATOM     62  O   UNL A   1      34.436  24.123  24.752  1.00  0.00    -0.461 OA
BRANCH  62  63
ATOM     63  C   UNL A   1      34.217  23.497  23.574  1.00  0.00     0.329 C 
ATOM     64  O   UNL A   1      35.094  23.159  22.792  1.00  0.00    -0.250 OA
BRANCH  63  65
ATOM     65  C   UNL A   1      32.714  23.396  23.279  1.00  0.00     0.206 C 
BRANCH  65  66
ATOM     66  C   UNL A   1      32.049  22.002  23.464  1.00  0.00     0.073 C 
BRANCH  66  67
ATOM     67  C   UNL A   1      32.857  20.681  23.881  1.00  0.00    -0.045 A 
ATOM     68  C   UNL A   1      34.585  20.209  24.840  1.00  0.00     0.004 A 
ATOM     69  C   UNL A   1      32.099  19.335  22.927  1.00  0.00     0.004 A 
ATOM     70  C   UNL A   1      35.237  18.532  24.710  1.00  0.00     0.000 A 
ATOM     71  C   UNL A   1      32.867  17.747  22.876  1.00  0.00     0.000 A 
ATOM     72  C   UNL A   1      34.371  17.370  23.726  1.00  0.00     0.000 A 
ENDBRANCH  66  67
ENDBRANCH  65  66
BRANCH  65  73
ATOM     73  N   UNL A   1      31.865  24.556  23.605  1.00  0.00    -0.278 N 
ATOM     74  C   UNL A   1      31.699  25.512  22.601  1.00  0.00     0.267 C 
ATOM     75  C   UNL A   1      31.060  24.694  24.719  1.00  0.00     0.149 C 
ATOM     76  O   UNL A   1      32.245  25.519  21.506  1.00  0.00    -0.268 OA
ATOM     77  C   UNL A   1      30.704  26.529  23.015  1.00  0.00     0.081 C 
ATOM     78  S   UNL A   1      29.976  26.052  24.496  1.00  0.00    -0.054 SA
ATOM     79  S   UNL A   1      30.965  23.804  26.122  1.00  0.00    -0.052 S 
ATOM     80  C   UNL A   1      30.461  27.650  22.317  1.00  0.00     0.029 C 
BRANCH  80  81
ATOM     81  C   UNL A   1      29.588  28.732  22.796  1.00  0.00    -0.021 A 
ATOM     82  C   UNL A   1      28.198  28.580  22.767  1.00  0.00     0.028 A 
ATOM     83  C   UNL A   1      30.115  29.915  23.305  1.00  0.00     0.028 A 
ATOM     84  C   UNL A   1      27.396  29.647  23.122  1.00  0.00     0.111 A 
ATOM     85  C   UNL A   1      29.225  30.903  23.699  1.00  0.00     0.111 A 
ATOM     86  N   UNL A   1      27.881  30.812  23.588  1.00  0.00    -0.265 NA
ENDBRANCH  80  81
ENDBRANCH  65  73
ENDBRANCH  63  65
ENDBRANCH  62  63
ENDBRANCH  61  62
ENDBRANCH   1  61
TORSDOF 15
ENDMDL
