MODEL 1
REMARK VINA RESULT:     -13.0      0.000      0.000
REMARK SMILES Cc1cccc(S(=O)(=O)Nc2cc(C(=O)OCCOC(=O)c3ccc(-c4c5nc(c(-c6c(F)cccc6F)c6ccc([nH]6)c(-c6c(F)cccc6F)c6nc(c(-c7c(F)cccc7F)c7ccc4[nH]7)C=C6)C=C5)cc3)ccc2N2CCC[C@H](C[NH+]3CCCC3)C2)c1
REMARK SMILES IDX 17 1 16 2 14 3 15 4 13 5 11 6 12 7 78 8 77 9 76 10 10 11
REMARK SMILES IDX 7 13 8 14 9 15 6 16 1 17 2 18 3 19 91 20 4 21 5 22 79 23
REMARK SMILES IDX 80 24 90 25 81 26 83 27 82 28 84 29 85 30 86 31 89 32 87 34
REMARK SMILES IDX 88 35 18 36 19 37 20 38 21 39 22 40 23 41 75 42 24 43 74 44
REMARK SMILES IDX 25 45 26 46 27 47 68 48 28 49 73 50 67 51 69 52 29 53 72 54
REMARK SMILES IDX 66 55 65 56 30 58 56 59 39 60 55 61 40 62 43 63 54 64 70 65
REMARK SMILES IDX 41 66 42 67 53 69 71 70 44 71 31 72 32 73 37 74 33 75 34 76
REMARK SMILES IDX 36 77 38 78 35 79 57 80 58 81 63 82 59 83 60 84 62 85 64 86
REMARK SMILES IDX 61 87 45 88 46 89 51 90 47 91 48 92 50 93 52 94 49 95
REMARK H PARENT 10 12 85 33 69 57 43 68
REMARK Flexibility Score: inf
ROOT
ATOM      1  C   UNL A   1      32.918  33.345  27.892  1.00  0.00     0.275 C 
ENDROOT
BRANCH   1   2
ATOM      2  O   UNL A   1      33.357  31.998  27.662  1.00  0.00    -0.458 OA
BRANCH   2   3
ATOM      3  C   UNL A   1      32.430  31.295  26.985  1.00  0.00     0.338 C 
ATOM      4  O   UNL A   1      31.430  31.757  26.457  1.00  0.00    -0.246 OA
BRANCH   3   5
ATOM      5  C   UNL A   1      32.633  29.850  26.908  1.00  0.00     0.062 A 
ATOM      6  C   UNL A   1      31.909  28.087  25.395  1.00  0.00     0.073 A 
ATOM      7  C   UNL A   1      31.637  29.209  26.175  1.00  0.00     0.044 A 
ATOM      8  C   UNL A   1      33.185  27.457  25.518  1.00  0.00     0.061 A 
ATOM      9  C   UNL A   1      34.137  28.087  26.373  1.00  0.00     0.029 A 
ATOM     10  C   UNL A   1      33.885  29.284  27.047  1.00  0.00     0.018 A 
BRANCH   6  11
ATOM     11  N   UNL A   1      31.003  27.792  24.314  1.00  0.00    -0.277 N 
ATOM     12  H   UNL A   1      30.318  27.104  24.479  1.00  0.00     0.180 HD
BRANCH  11  13
ATOM     13  S   UNL A   1      31.006  28.516  22.793  1.00  0.00     0.261 S 
ATOM     14  O   UNL A   1      30.664  27.520  21.801  1.00  0.00    -0.201 OA
ATOM     15  O   UNL A   1      32.291  29.189  22.743  1.00  0.00    -0.201 OA
BRANCH  13  16
ATOM     16  C   UNL A   1      29.781  29.817  22.675  1.00  0.00     0.088 A 
ATOM     17  C   UNL A   1      27.920  32.056  20.200  1.00  0.00     0.044 C 
ATOM     18  C   UNL A   1      28.421  31.439  21.471  1.00  0.00    -0.050 A 
ATOM     19  C   UNL A   1      28.123  32.090  22.668  1.00  0.00     0.003 A 
ATOM     20  C   UNL A   1      29.213  30.269  21.484  1.00  0.00     0.025 A 
ATOM     21  C   UNL A   1      28.634  31.606  23.865  1.00  0.00     0.002 A 
ATOM     22  C   UNL A   1      29.471  30.487  23.867  1.00  0.00     0.022 A 
ENDBRANCH  13  16
ENDBRANCH  11  13
ENDBRANCH   6  11
BRANCH   8  23
ATOM     23  N   UNL A   1      33.621  26.286  24.878  1.00  0.00    -0.369 N 
ATOM     24  C   UNL A   1      33.816  26.399  23.417  1.00  0.00     0.116 C 
ATOM     25  C   UNL A   1      34.374  25.215  25.533  1.00  0.00     0.126 C 
ATOM     26  C   UNL A   1      33.514  25.067  22.741  1.00  0.00     0.022 C 
ATOM     27  C   UNL A   1      34.151  23.838  24.859  1.00  0.00     0.064 C 
ATOM     28  C   UNL A   1      34.374  23.966  23.346  1.00  0.00     0.013 C 
BRANCH  27  29
ATOM     29  C   UNL A   1      32.779  23.254  25.286  1.00  0.00     0.267 C 
BRANCH  29  30
ATOM     30  N   UNL A   1      32.671  21.847  25.689  1.00  0.00    -0.335 N 
ATOM     31  C   UNL A   1      33.883  21.245  26.240  1.00  0.00     0.262 C 
ATOM     32  C   UNL A   1      32.120  20.921  24.705  1.00  0.00     0.262 C 
ATOM     33  H   UNL A   1      31.987  21.962  26.436  1.00  0.00     0.348 HD
ATOM     34  C   UNL A   1      34.451  20.402  25.117  1.00  0.00     0.067 C 
ATOM     35  C   UNL A   1      33.222  19.919  24.369  1.00  0.00     0.067 C 
ENDBRANCH  29  30
ENDBRANCH  27  29
ENDBRANCH   8  23
ENDBRANCH   3   5
ENDBRANCH   2   3
ENDBRANCH   1   2
BRANCH   1  36
ATOM     36  C   UNL A   1      34.084  34.318  28.005  1.00  0.00     0.275 C 
BRANCH  36  37
ATOM     37  O   UNL A   1      34.629  34.589  29.329  1.00  0.00    -0.458 OA
BRANCH  37  38
ATOM     38  C   UNL A   1      34.861  33.772  30.384  1.00  0.00     0.338 C 
ATOM     39  O   UNL A   1      34.041  33.670  31.293  1.00  0.00    -0.246 OA
BRANCH  38  40
ATOM     40  C   UNL A   1      36.119  33.001  30.472  1.00  0.00     0.060 A 
ATOM     41  C   UNL A   1      37.191  33.291  29.596  1.00  0.00     0.016 A 
ATOM     42  C   UNL A   1      36.257  31.996  31.412  1.00  0.00     0.016 A 
ATOM     43  C   UNL A   1      38.427  32.635  29.715  1.00  0.00     0.010 A 
ATOM     44  C   UNL A   1      37.499  31.432  31.598  1.00  0.00     0.010 A 
ATOM     45  C   UNL A   1      38.583  31.699  30.727  1.00  0.00    -0.014 A 
BRANCH  45  46
ATOM     46  C   UNL A   1      39.701  30.757  30.893  1.00  0.00     0.031 A 
ATOM     47  C   UNL A   1      39.786  29.388  30.327  1.00  0.00     0.074 A 
ATOM     48  C   UNL A   1      40.806  31.390  31.357  1.00  0.00     0.049 A 
ATOM     49  N   UNL A   1      40.920  28.883  29.978  1.00  0.00    -0.248 NA
ATOM     50  C   UNL A   1      38.674  28.479  30.031  1.00  0.00     0.031 C 
ATOM     51  C   UNL A   1      42.215  31.040  31.306  1.00  0.00     0.029 A 
ATOM     52  N   UNL A   1      40.784  32.512  32.202  1.00  0.00    -0.354 N 
ATOM     53  C   UNL A   1      40.716  27.666  29.377  1.00  0.00     0.074 A 
ATOM     54  C   UNL A   1      39.289  27.484  29.357  1.00  0.00     0.031 C 
ATOM     55  C   UNL A   1      42.840  31.644  32.334  1.00  0.00     0.029 A 
ATOM     56  C   UNL A   1      41.799  32.271  33.138  1.00  0.00     0.049 A 
ATOM     57  H   UNL A   1      40.188  33.293  32.149  1.00  0.00     0.167 HD
ATOM     58  C   UNL A   1      41.823  26.955  29.032  1.00  0.00     0.037 A 
ATOM     59  C   UNL A   1      41.413  31.873  34.388  1.00  0.00     0.037 A 
ATOM     60  C   UNL A   1      42.852  27.247  30.018  1.00  0.00     0.049 A 
ATOM     61  C   UNL A   1      41.879  30.463  34.682  1.00  0.00     0.074 A 
ATOM     62  C   UNL A   1      43.964  28.062  30.082  1.00  0.00     0.029 A 
ATOM     63  N   UNL A   1      42.559  26.864  31.319  1.00  0.00    -0.354 N 
ATOM     64  N   UNL A   1      42.081  29.544  33.773  1.00  0.00    -0.248 NA
ATOM     65  C   UNL A   1      42.254  30.020  36.018  1.00  0.00     0.031 C 
ATOM     66  C   UNL A   1      44.240  28.282  31.467  1.00  0.00     0.029 A 
ATOM     67  C   UNL A   1      43.316  27.571  32.219  1.00  0.00     0.049 A 
ATOM     68  H   UNL A   1      41.895  26.178  31.563  1.00  0.00     0.167 HD
ATOM     69  C   UNL A   1      42.674  28.453  34.353  1.00  0.00     0.074 A 
ATOM     70  C   UNL A   1      42.739  28.793  35.762  1.00  0.00     0.031 C 
ATOM     71  C   UNL A   1      43.098  27.366  33.642  1.00  0.00     0.037 A 
BRANCH  58  72
ATOM     72  C   UNL A   1      42.043  26.064  27.840  1.00  0.00     0.057 A 
ATOM     73  C   UNL A   1      42.570  24.764  28.021  1.00  0.00     0.134 A 
ATOM     74  C   UNL A   1      41.952  26.474  26.502  1.00  0.00     0.134 A 
ATOM     75  F   UNL A   1      42.703  24.222  29.240  1.00  0.00    -0.206 F 
ATOM     76  C   UNL A   1      43.027  23.966  26.963  1.00  0.00     0.040 A 
ATOM     77  C   UNL A   1      42.402  25.681  25.432  1.00  0.00     0.040 A 
ATOM     78  F   UNL A   1      41.438  27.663  26.172  1.00  0.00    -0.206 F 
ATOM     79  C   UNL A   1      42.959  24.429  25.661  1.00  0.00     0.006 A 
ENDBRANCH  58  72
BRANCH  59  80
ATOM     80  C   UNL A   1      40.122  32.517  34.813  1.00  0.00     0.057 A 
ATOM     81  C   UNL A   1      38.975  31.693  34.902  1.00  0.00     0.134 A 
ATOM     82  C   UNL A   1      40.050  33.745  35.476  1.00  0.00     0.134 A 
ATOM     83  F   UNL A   1      38.964  30.490  34.304  1.00  0.00    -0.206 F 
ATOM     84  C   UNL A   1      37.878  32.012  35.711  1.00  0.00     0.040 A 
ATOM     85  C   UNL A   1      38.935  34.092  36.261  1.00  0.00     0.040 A 
ATOM     86  F   UNL A   1      41.089  34.592  35.464  1.00  0.00    -0.206 F 
ATOM     87  C   UNL A   1      37.866  33.208  36.414  1.00  0.00     0.006 A 
ENDBRANCH  59  80
BRANCH  71  88
ATOM     88  C   UNL A   1      43.371  25.996  34.226  1.00  0.00     0.057 A 
ATOM     89  C   UNL A   1      42.405  25.224  34.887  1.00  0.00     0.134 A 
ATOM     90  C   UNL A   1      44.589  25.325  33.961  1.00  0.00     0.134 A 
ATOM     91  F   UNL A   1      41.158  25.670  35.082  1.00  0.00    -0.206 F 
ATOM     92  C   UNL A   1      42.653  23.916  35.319  1.00  0.00     0.040 A 
ATOM     93  C   UNL A   1      44.820  23.995  34.326  1.00  0.00     0.040 A 
ATOM     94  F   UNL A   1      45.595  25.912  33.297  1.00  0.00    -0.206 F 
ATOM     95  C   UNL A   1      43.856  23.292  35.028  1.00  0.00     0.006 A 
ENDBRANCH  71  88
ENDBRANCH  45  46
ENDBRANCH  38  40
ENDBRANCH  37  38
ENDBRANCH  36  37
ENDBRANCH   1  36
TORSDOF 17
ENDMDL
MODEL 2
REMARK VINA RESULT:     -13.0      4.414     10.103
REMARK SMILES Cc1cccc(S(=O)(=O)Nc2cc(C(=O)OCCOC(=O)c3ccc(-c4c5nc(c(-c6c(F)cccc6F)c6ccc([nH]6)c(-c6c(F)cccc6F)c6nc(c(-c7c(F)cccc7F)c7ccc4[nH]7)C=C6)C=C5)cc3)ccc2N2CCC[C@H](C[NH+]3CCCC3)C2)c1
REMARK SMILES IDX 17 1 16 2 14 3 15 4 13 5 11 6 12 7 78 8 77 9 76 10 10 11
REMARK SMILES IDX 7 13 8 14 9 15 6 16 1 17 2 18 3 19 91 20 4 21 5 22 79 23
REMARK SMILES IDX 80 24 90 25 81 26 83 27 82 28 84 29 85 30 86 31 89 32 87 34
REMARK SMILES IDX 88 35 18 36 19 37 20 38 21 39 22 40 23 41 75 42 24 43 74 44
REMARK SMILES IDX 25 45 26 46 27 47 68 48 28 49 73 50 67 51 69 52 29 53 72 54
REMARK SMILES IDX 66 55 65 56 30 58 56 59 39 60 55 61 40 62 43 63 54 64 70 65
REMARK SMILES IDX 41 66 42 67 53 69 71 70 44 71 31 72 32 73 37 74 33 75 34 76
REMARK SMILES IDX 36 77 38 78 35 79 57 80 58 81 63 82 59 83 60 84 62 85 64 86
REMARK SMILES IDX 61 87 45 88 46 89 51 90 47 91 48 92 50 93 52 94 49 95
REMARK H PARENT 10 12 85 33 69 57 43 68
REMARK Flexibility Score: inf
ROOT
ATOM      1  C   UNL A   1      40.050  19.935  25.886  1.00  0.00     0.275 C 
ENDROOT
BRANCH   1   2
ATOM      2  O   UNL A   1      39.245  21.123  25.897  1.00  0.00    -0.458 OA
BRANCH   2   3
ATOM      3  C   UNL A   1      38.089  20.932  25.234  1.00  0.00     0.338 C 
ATOM      4  O   UNL A   1      37.679  19.861  24.811  1.00  0.00    -0.246 OA
BRANCH   3   5
ATOM      5  C   UNL A   1      37.277  22.119  24.978  1.00  0.00     0.062 A 
ATOM      6  C   UNL A   1      34.911  22.539  24.596  1.00  0.00     0.073 A 
ATOM      7  C   UNL A   1      36.075  21.818  24.341  1.00  0.00     0.044 A 
ATOM      8  C   UNL A   1      35.001  23.741  25.361  1.00  0.00     0.061 A 
ATOM      9  C   UNL A   1      36.280  24.073  25.898  1.00  0.00     0.029 A 
ATOM     10  C   UNL A   1      37.409  23.266  25.736  1.00  0.00     0.018 A 
BRANCH   6  11
ATOM     11  N   UNL A   1      33.653  21.893  24.316  1.00  0.00    -0.277 N 
ATOM     12  H   UNL A   1      33.198  22.145  23.481  1.00  0.00     0.180 HD
BRANCH  11  13
ATOM     13  S   UNL A   1      32.891  20.747  25.287  1.00  0.00     0.261 S 
ATOM     14  O   UNL A   1      31.469  21.020  25.303  1.00  0.00    -0.201 OA
ATOM     15  O   UNL A   1      33.657  20.785  26.518  1.00  0.00    -0.201 OA
BRANCH  13  16
ATOM     16  C   UNL A   1      33.099  19.088  24.644  1.00  0.00     0.088 A 
ATOM     17  C   UNL A   1      34.884  15.767  25.260  1.00  0.00     0.044 C 
ATOM     18  C   UNL A   1      34.050  16.848  24.639  1.00  0.00    -0.050 A 
ATOM     19  C   UNL A   1      33.611  16.655  23.330  1.00  0.00     0.003 A 
ATOM     20  C   UNL A   1      33.749  18.052  25.314  1.00  0.00     0.025 A 
ATOM     21  C   UNL A   1      32.907  17.660  22.681  1.00  0.00     0.002 A 
ATOM     22  C   UNL A   1      32.667  18.876  23.327  1.00  0.00     0.022 A 
ENDBRANCH  13  16
ENDBRANCH  11  13
ENDBRANCH   6  11
BRANCH   8  23
ATOM     23  N   UNL A   1      33.963  24.638  25.663  1.00  0.00    -0.369 N 
ATOM     24  C   UNL A   1      32.978  24.155  26.654  1.00  0.00     0.116 C 
ATOM     25  C   UNL A   1      34.058  26.092  25.526  1.00  0.00     0.126 C 
ATOM     26  C   UNL A   1      31.602  24.739  26.355  1.00  0.00     0.022 C 
ATOM     27  C   UNL A   1      32.682  26.755  25.273  1.00  0.00     0.064 C 
ATOM     28  C   UNL A   1      31.674  26.259  26.319  1.00  0.00     0.013 C 
BRANCH  27  29
ATOM     29  C   UNL A   1      32.261  26.556  23.793  1.00  0.00     0.267 C 
BRANCH  29  30
ATOM     30  N   UNL A   1      31.847  27.709  22.985  1.00  0.00    -0.335 N 
ATOM     31  C   UNL A   1      31.983  29.017  23.620  1.00  0.00     0.262 C 
ATOM     32  C   UNL A   1      30.522  27.643  22.376  1.00  0.00     0.262 C 
ATOM     33  H   UNL A   1      32.542  27.623  22.244  1.00  0.00     0.348 HD
ATOM     34  C   UNL A   1      30.580  29.397  24.047  1.00  0.00     0.067 C 
ATOM     35  C   UNL A   1      29.696  28.774  22.982  1.00  0.00     0.067 C 
ENDBRANCH  29  30
ENDBRANCH  27  29
ENDBRANCH   8  23
ENDBRANCH   3   5
ENDBRANCH   2   3
ENDBRANCH   1   2
BRANCH   1  36
ATOM     36  C   UNL A   1      41.048  19.907  27.036  1.00  0.00     0.275 C 
BRANCH  36  37
ATOM     37  O   UNL A   1      42.421  20.315  26.767  1.00  0.00    -0.458 OA
BRANCH  37  38
ATOM     38  C   UNL A   1      42.922  21.382  26.100  1.00  0.00     0.338 C 
ATOM     39  O   UNL A   1      43.400  21.253  24.976  1.00  0.00    -0.246 OA
BRANCH  38  40
ATOM     40  C   UNL A   1      42.920  22.722  26.722  1.00  0.00     0.060 A 
ATOM     41  C   UNL A   1      42.834  22.852  28.128  1.00  0.00     0.016 A 
ATOM     42  C   UNL A   1      43.007  23.856  25.935  1.00  0.00     0.016 A 
ATOM     43  C   UNL A   1      42.919  24.107  28.751  1.00  0.00     0.010 A 
ATOM     44  C   UNL A   1      43.199  25.073  26.550  1.00  0.00     0.010 A 
ATOM     45  C   UNL A   1      43.105  25.228  27.954  1.00  0.00    -0.014 A 
BRANCH  45  46
ATOM     46  C   UNL A   1      43.007  26.635  28.373  1.00  0.00     0.031 A 
ATOM     47  C   UNL A   1      41.813  27.507  28.245  1.00  0.00     0.074 A 
ATOM     48  C   UNL A   1      44.030  26.971  29.197  1.00  0.00     0.049 A 
ATOM     49  N   UNL A   1      41.568  28.430  29.111  1.00  0.00    -0.248 NA
ATOM     50  C   UNL A   1      40.762  27.427  27.225  1.00  0.00     0.031 C 
ATOM     51  C   UNL A   1      44.179  28.039  30.170  1.00  0.00     0.029 A 
ATOM     52  N   UNL A   1      45.316  26.410  29.135  1.00  0.00    -0.354 N 
ATOM     53  C   UNL A   1      40.354  29.008  28.835  1.00  0.00     0.074 A 
ATOM     54  C   UNL A   1      39.843  28.298  27.693  1.00  0.00     0.031 C 
ATOM     55  C   UNL A   1      45.491  28.301  30.314  1.00  0.00     0.029 A 
ATOM     56  C   UNL A   1      46.185  27.495  29.318  1.00  0.00     0.049 A 
ATOM     57  H   UNL A   1      45.555  25.466  28.995  1.00  0.00     0.167 HD
ATOM     58  C   UNL A   1      39.987  30.069  29.604  1.00  0.00     0.037 A 
ATOM     59  C   UNL A   1      46.822  27.978  28.209  1.00  0.00     0.037 A 
ATOM     60  C   UNL A   1      41.201  30.784  29.966  1.00  0.00     0.049 A 
ATOM     61  C   UNL A   1      46.378  29.389  27.893  1.00  0.00     0.074 A 
ATOM     62  C   UNL A   1      42.019  30.857  31.075  1.00  0.00     0.029 A 
ATOM     63  N   UNL A   1      41.912  31.327  28.905  1.00  0.00    -0.354 N 
ATOM     64  N   UNL A   1      45.206  29.884  28.200  1.00  0.00    -0.248 NA
ATOM     65  C   UNL A   1      47.265  30.381  27.301  1.00  0.00     0.031 C 
ATOM     66  C   UNL A   1      43.294  31.316  30.622  1.00  0.00     0.029 A 
ATOM     67  C   UNL A   1      43.220  31.549  29.256  1.00  0.00     0.049 A 
ATOM     68  H   UNL A   1      41.529  31.525  28.019  1.00  0.00     0.167 HD
ATOM     69  C   UNL A   1      45.200  31.230  27.944  1.00  0.00     0.074 A 
ATOM     70  C   UNL A   1      46.504  31.486  27.361  1.00  0.00     0.031 C 
ATOM     71  C   UNL A   1      44.147  32.046  28.252  1.00  0.00     0.037 A 
BRANCH  58  72
ATOM     72  C   UNL A   1      38.617  30.459  30.087  1.00  0.00     0.057 A 
ATOM     73  C   UNL A   1      38.235  31.820  30.094  1.00  0.00     0.134 A 
ATOM     74  C   UNL A   1      37.715  29.599  30.729  1.00  0.00     0.134 A 
ATOM     75  F   UNL A   1      38.984  32.764  29.505  1.00  0.00    -0.206 F 
ATOM     76  C   UNL A   1      37.085  32.293  30.742  1.00  0.00     0.040 A 
ATOM     77  C   UNL A   1      36.556  30.059  31.379  1.00  0.00     0.040 A 
ATOM     78  F   UNL A   1      37.921  28.279  30.770  1.00  0.00    -0.206 F 
ATOM     79  C   UNL A   1      36.247  31.413  31.404  1.00  0.00     0.006 A 
ENDBRANCH  58  72
BRANCH  59  80
ATOM     80  C   UNL A   1      47.163  26.886  27.233  1.00  0.00     0.057 A 
ATOM     81  C   UNL A   1      46.412  26.818  26.035  1.00  0.00     0.134 A 
ATOM     82  C   UNL A   1      48.376  26.191  27.238  1.00  0.00     0.134 A 
ATOM     83  F   UNL A   1      45.239  27.467  25.940  1.00  0.00    -0.206 F 
ATOM     84  C   UNL A   1      46.900  26.210  24.872  1.00  0.00     0.040 A 
ATOM     85  C   UNL A   1      48.857  25.544  26.085  1.00  0.00     0.040 A 
ATOM     86  F   UNL A   1      49.168  26.204  28.320  1.00  0.00    -0.206 F 
ATOM     87  C   UNL A   1      48.141  25.589  24.889  1.00  0.00     0.006 A 
ENDBRANCH  59  80
BRANCH  71  88
ATOM     88  C   UNL A   1      43.898  33.412  27.649  1.00  0.00     0.057 A 
ATOM     89  C   UNL A   1      43.712  33.635  26.277  1.00  0.00     0.134 A 
ATOM     90  C   UNL A   1      43.639  34.532  28.473  1.00  0.00     0.134 A 
ATOM     91  F   UNL A   1      43.781  32.639  25.384  1.00  0.00    -0.206 F 
ATOM     92  C   UNL A   1      43.373  34.889  25.757  1.00  0.00     0.040 A 
ATOM     93  C   UNL A   1      43.230  35.771  27.969  1.00  0.00     0.040 A 
ATOM     94  F   UNL A   1      43.728  34.468  29.810  1.00  0.00    -0.206 F 
ATOM     95  C   UNL A   1      43.117  35.958  26.602  1.00  0.00     0.006 A 
ENDBRANCH  71  88
ENDBRANCH  45  46
ENDBRANCH  38  40
ENDBRANCH  37  38
ENDBRANCH  36  37
ENDBRANCH   1  36
TORSDOF 17
ENDMDL
MODEL 3
REMARK VINA RESULT:     -12.9      2.449      4.515
REMARK SMILES Cc1cccc(S(=O)(=O)Nc2cc(C(=O)OCCOC(=O)c3ccc(-c4c5nc(c(-c6c(F)cccc6F)c6ccc([nH]6)c(-c6c(F)cccc6F)c6nc(c(-c7c(F)cccc7F)c7ccc4[nH]7)C=C6)C=C5)cc3)ccc2N2CCC[C@H](C[NH+]3CCCC3)C2)c1
REMARK SMILES IDX 17 1 16 2 14 3 15 4 13 5 11 6 12 7 78 8 77 9 76 10 10 11
REMARK SMILES IDX 7 13 8 14 9 15 6 16 1 17 2 18 3 19 91 20 4 21 5 22 79 23
REMARK SMILES IDX 80 24 90 25 81 26 83 27 82 28 84 29 85 30 86 31 89 32 87 34
REMARK SMILES IDX 88 35 18 36 19 37 20 38 21 39 22 40 23 41 75 42 24 43 74 44
REMARK SMILES IDX 25 45 26 46 27 47 68 48 28 49 73 50 67 51 69 52 29 53 72 54
REMARK SMILES IDX 66 55 65 56 30 58 56 59 39 60 55 61 40 62 43 63 54 64 70 65
REMARK SMILES IDX 41 66 42 67 53 69 71 70 44 71 31 72 32 73 37 74 33 75 34 76
REMARK SMILES IDX 36 77 38 78 35 79 57 80 58 81 63 82 59 83 60 84 62 85 64 86
REMARK SMILES IDX 61 87 45 88 46 89 51 90 47 91 48 92 50 93 52 94 49 95
REMARK H PARENT 10 12 85 33 69 57 43 68
REMARK Flexibility Score: inf
ROOT
ATOM      1  C   UNL A   1      32.288  30.193  25.294  1.00  0.00     0.275 C 
ENDROOT
BRANCH   1   2
ATOM      2  O   UNL A   1      32.395  28.852  24.794  1.00  0.00    -0.458 OA
BRANCH   2   3
ATOM      3  C   UNL A   1      31.182  28.337  24.523  1.00  0.00     0.338 C 
ATOM      4  O   UNL A   1      30.272  28.918  23.949  1.00  0.00    -0.246 OA
BRANCH   3   5
ATOM      5  C   UNL A   1      30.930  26.975  24.987  1.00  0.00     0.062 A 
ATOM      6  C   UNL A   1      31.490  24.748  24.179  1.00  0.00     0.073 A 
ATOM      7  C   UNL A   1      31.008  26.037  23.960  1.00  0.00     0.044 A 
ATOM      8  C   UNL A   1      31.708  24.316  25.523  1.00  0.00     0.061 A 
ATOM      9  C   UNL A   1      31.503  25.280  26.554  1.00  0.00     0.029 A 
ATOM     10  C   UNL A   1      31.142  26.605  26.301  1.00  0.00     0.018 A 
BRANCH   6  11
ATOM     11  N   UNL A   1      32.005  24.027  23.042  1.00  0.00    -0.277 N 
ATOM     12  H   UNL A   1      31.422  23.338  22.650  1.00  0.00     0.180 HD
BRANCH  11  13
ATOM     13  S   UNL A   1      33.510  24.256  22.323  1.00  0.00     0.261 S 
ATOM     14  O   UNL A   1      33.639  25.646  21.941  1.00  0.00    -0.201 OA
ATOM     15  O   UNL A   1      33.566  23.212  21.317  1.00  0.00    -0.201 OA
BRANCH  13  16
ATOM     16  C   UNL A   1      34.850  23.898  23.458  1.00  0.00     0.088 A 
ATOM     17  C   UNL A   1      37.344  21.198  24.497  1.00  0.00     0.044 C 
ATOM     18  C   UNL A   1      36.555  22.472  24.448  1.00  0.00    -0.050 A 
ATOM     19  C   UNL A   1      36.678  23.350  25.524  1.00  0.00     0.003 A 
ATOM     20  C   UNL A   1      35.672  22.775  23.387  1.00  0.00     0.025 A 
ATOM     21  C   UNL A   1      35.906  24.504  25.566  1.00  0.00     0.002 A 
ATOM     22  C   UNL A   1      34.986  24.768  24.549  1.00  0.00     0.022 A 
ENDBRANCH  13  16
ENDBRANCH  11  13
ENDBRANCH   6  11
BRANCH   8  23
ATOM     23  N   UNL A   1      32.118  23.043  25.951  1.00  0.00    -0.369 N 
ATOM     24  C   UNL A   1      32.974  23.026  27.156  1.00  0.00     0.116 C 
ATOM     25  C   UNL A   1      31.390  21.802  25.678  1.00  0.00     0.126 C 
ATOM     26  C   UNL A   1      33.950  21.857  27.093  1.00  0.00     0.022 C 
ATOM     27  C   UNL A   1      32.320  20.564  25.653  1.00  0.00     0.064 C 
ATOM     28  C   UNL A   1      33.190  20.550  26.918  1.00  0.00     0.013 C 
BRANCH  27  29
ATOM     29  C   UNL A   1      33.093  20.508  24.309  1.00  0.00     0.267 C 
BRANCH  29  30
ATOM     30  N   UNL A   1      33.478  19.214  23.734  1.00  0.00    -0.335 N 
ATOM     31  C   UNL A   1      32.385  18.282  23.468  1.00  0.00     0.262 C 
ATOM     32  C   UNL A   1      34.535  18.478  24.420  1.00  0.00     0.262 C 
ATOM     33  H   UNL A   1      33.851  19.554  22.848  1.00  0.00     0.348 HD
ATOM     34  C   UNL A   1      32.438  17.276  24.599  1.00  0.00     0.067 C 
ATOM     35  C   UNL A   1      33.917  17.177  24.926  1.00  0.00     0.067 C 
ENDBRANCH  29  30
ENDBRANCH  27  29
ENDBRANCH   8  23
ENDBRANCH   3   5
ENDBRANCH   2   3
ENDBRANCH   1   2
BRANCH   1  36
ATOM     36  C   UNL A   1      32.239  30.237  26.815  1.00  0.00     0.275 C 
BRANCH  36  37
ATOM     37  O   UNL A   1      33.476  30.008  27.551  1.00  0.00    -0.458 OA
BRANCH  37  38
ATOM     38  C   UNL A   1      34.512  30.832  27.836  1.00  0.00     0.338 C 
ATOM     39  O   UNL A   1      34.381  32.052  27.777  1.00  0.00    -0.246 OA
BRANCH  38  40
ATOM     40  C   UNL A   1      35.830  30.276  28.206  1.00  0.00     0.060 A 
ATOM     41  C   UNL A   1      36.093  29.906  29.546  1.00  0.00     0.016 A 
ATOM     42  C   UNL A   1      36.813  30.111  27.247  1.00  0.00     0.016 A 
ATOM     43  C   UNL A   1      37.303  29.294  29.910  1.00  0.00     0.010 A 
ATOM     44  C   UNL A   1      37.952  29.415  27.582  1.00  0.00     0.010 A 
ATOM     45  C   UNL A   1      38.241  29.045  28.917  1.00  0.00    -0.014 A 
BRANCH  45  46
ATOM     46  C   UNL A   1      39.636  28.619  29.109  1.00  0.00     0.031 A 
ATOM     47  C   UNL A   1      40.177  27.257  28.876  1.00  0.00     0.074 A 
ATOM     48  C   UNL A   1      40.463  29.688  29.214  1.00  0.00     0.049 A 
ATOM     49  N   UNL A   1      41.388  27.083  28.470  1.00  0.00    -0.248 NA
ATOM     50  C   UNL A   1      39.458  25.984  29.000  1.00  0.00     0.031 C 
ATOM     51  C   UNL A   1      41.893  29.830  29.007  1.00  0.00     0.029 A 
ATOM     52  N   UNL A   1      40.091  30.929  29.759  1.00  0.00    -0.354 N 
ATOM     53  C   UNL A   1      41.601  25.750  28.218  1.00  0.00     0.074 A 
ATOM     54  C   UNL A   1      40.344  25.104  28.486  1.00  0.00     0.031 C 
ATOM     55  C   UNL A   1      42.326  30.873  29.741  1.00  0.00     0.029 A 
ATOM     56  C   UNL A   1      41.191  31.316  30.539  1.00  0.00     0.049 A 
ATOM     57  H   UNL A   1      39.248  31.417  29.624  1.00  0.00     0.167 HD
ATOM     58  C   UNL A   1      42.864  25.384  27.868  1.00  0.00     0.037 A 
ATOM     59  C   UNL A   1      41.072  31.182  31.894  1.00  0.00     0.037 A 
ATOM     60  C   UNL A   1      43.783  26.269  28.566  1.00  0.00     0.049 A 
ATOM     61  C   UNL A   1      42.044  30.154  32.430  1.00  0.00     0.074 A 
ATOM     62  C   UNL A   1      44.519  27.392  28.244  1.00  0.00     0.029 A 
ATOM     63  N   UNL A   1      43.748  26.195  29.951  1.00  0.00    -0.354 N 
ATOM     64  N   UNL A   1      42.502  29.138  31.744  1.00  0.00    -0.248 NA
ATOM     65  C   UNL A   1      42.654  30.258  33.749  1.00  0.00     0.031 C 
ATOM     66  C   UNL A   1      44.796  28.073  29.469  1.00  0.00     0.029 A 
ATOM     67  C   UNL A   1      44.257  27.338  30.515  1.00  0.00     0.049 A 
ATOM     68  H   UNL A   1      43.404  25.425  30.460  1.00  0.00     0.167 HD
ATOM     69  C   UNL A   1      43.496  28.519  32.456  1.00  0.00     0.074 A 
ATOM     70  C   UNL A   1      43.535  29.244  33.713  1.00  0.00     0.031 C 
ATOM     71  C   UNL A   1      44.236  27.482  31.962  1.00  0.00     0.037 A 
BRANCH  58  72
ATOM     72  C   UNL A   1      43.307  24.320  26.902  1.00  0.00     0.057 A 
ATOM     73  C   UNL A   1      43.690  24.678  25.588  1.00  0.00     0.134 A 
ATOM     74  C   UNL A   1      43.196  22.939  27.118  1.00  0.00     0.134 A 
ATOM     75  F   UNL A   1      43.857  25.959  25.229  1.00  0.00    -0.206 F 
ATOM     76  C   UNL A   1      43.884  23.744  24.562  1.00  0.00     0.040 A 
ATOM     77  C   UNL A   1      43.392  21.991  26.099  1.00  0.00     0.040 A 
ATOM     78  F   UNL A   1      42.879  22.447  28.320  1.00  0.00    -0.206 F 
ATOM     79  C   UNL A   1      43.718  22.392  24.810  1.00  0.00     0.006 A 
ENDBRANCH  58  72
BRANCH  59  80
ATOM     80  C   UNL A   1      39.669  31.450  32.368  1.00  0.00     0.057 A 
ATOM     81  C   UNL A   1      38.920  30.353  32.855  1.00  0.00     0.134 A 
ATOM     82  C   UNL A   1      39.197  32.719  32.713  1.00  0.00     0.134 A 
ATOM     83  F   UNL A   1      39.311  29.097  32.579  1.00  0.00    -0.206 F 
ATOM     84  C   UNL A   1      37.847  30.505  33.740  1.00  0.00     0.040 A 
ATOM     85  C   UNL A   1      38.095  32.884  33.573  1.00  0.00     0.040 A 
ATOM     86  F   UNL A   1      39.844  33.823  32.314  1.00  0.00    -0.206 F 
ATOM     87  C   UNL A   1      37.445  31.778  34.121  1.00  0.00     0.006 A 
ENDBRANCH  59  80
BRANCH  71  88
ATOM     88  C   UNL A   1      45.037  26.507  32.799  1.00  0.00     0.057 A 
ATOM     89  C   UNL A   1      44.462  25.604  33.705  1.00  0.00     0.134 A 
ATOM     90  C   UNL A   1      46.419  26.316  32.565  1.00  0.00     0.134 A 
ATOM     91  F   UNL A   1      43.142  25.567  33.923  1.00  0.00    -0.206 F 
ATOM     92  C   UNL A   1      45.214  24.638  34.384  1.00  0.00     0.040 A 
ATOM     93  C   UNL A   1      47.164  25.308  33.184  1.00  0.00     0.040 A 
ATOM     94  F   UNL A   1      47.104  27.069  31.691  1.00  0.00    -0.206 F 
ATOM     95  C   UNL A   1      46.565  24.477  34.115  1.00  0.00     0.006 A 
ENDBRANCH  71  88
ENDBRANCH  45  46
ENDBRANCH  38  40
ENDBRANCH  37  38
ENDBRANCH  36  37
ENDBRANCH   1  36
TORSDOF 17
ENDMDL
