MODEL 1
REMARK VINA RESULT:     -11.3      0.000      0.000
REMARK SMILES CCOC(=O)c1cc(CC)sc1NC(=O)[C@H]1[C@@H]2CC[C@@H](C2)[C@@H]1C(=O)OCCOC(=O)c1ccc(-c2c3nc(c(-c4c(F)cccc4F)c4ccc([nH]4)c(-c4c(F)cccc4F)c4nc(c(-c5c(F)cccc5F)c5ccc2[nH]5)C=C4)C=C3)cc1
REMARK SMILES IDX 25 1 23 2 24 3 22 4 16 5 17 6 18 7 21 8 20 9 19 10 14 11
REMARK SMILES IDX 13 12 15 14 12 15 6 16 7 17 8 18 11 19 4 20 5 21 3 22 2 23
REMARK SMILES IDX 1 24 9 25 10 26 26 27 27 28 28 29 29 30 30 31 31 32 32 33
REMARK SMILES IDX 84 34 33 35 83 36 34 37 35 38 36 39 77 40 37 41 82 42 76 43
REMARK SMILES IDX 78 44 38 45 81 46 75 47 74 48 39 50 65 51 48 52 64 53 49 54
REMARK SMILES IDX 52 55 63 56 79 57 50 58 51 59 62 61 80 62 53 63 40 64 41 65
REMARK SMILES IDX 46 66 42 67 43 68 45 69 47 70 44 71 66 72 67 73 72 74 68 75
REMARK SMILES IDX 69 76 71 77 73 78 70 79 54 80 55 81 60 82 56 83 57 84 59 85
REMARK SMILES IDX 61 86 58 87
REMARK H PARENT 13 13 78 49 52 60
REMARK Flexibility Score: inf
ROOT
ATOM      1  O   UNL A   1      32.236  29.285  24.254  1.00  0.00    -0.462 OA
ENDROOT
BRANCH   1   2
ATOM      2  C   UNL A   1      32.092  28.102  23.586  1.00  0.00     0.310 C 
ATOM      3  O   UNL A   1      31.280  27.946  22.683  1.00  0.00    -0.252 OA
BRANCH   2   4
ATOM      4  C   UNL A   1      33.034  27.022  24.114  1.00  0.00     0.115 C 
ATOM      5  C   UNL A   1      32.659  25.503  23.939  1.00  0.00     0.096 C 
ATOM      6  C   UNL A   1      32.896  24.984  25.422  1.00  0.00     0.003 C 
ATOM      7  C   UNL A   1      31.776  25.407  26.392  1.00  0.00     0.005 C 
ATOM      8  C   UNL A   1      34.004  25.907  25.967  1.00  0.00     0.009 C 
ATOM      9  C   UNL A   1      33.221  27.180  25.658  1.00  0.00     0.004 C 
ATOM     10  C   UNL A   1      31.939  26.923  26.481  1.00  0.00     0.005 C 
BRANCH   5  11
ATOM     11  C   UNL A   1      33.587  24.743  22.967  1.00  0.00     0.229 C 
ATOM     12  N   UNL A   1      33.978  23.435  22.947  1.00  0.00    -0.317 N 
ATOM     13  H   UNL A   1      34.536  23.287  22.151  1.00  0.00     0.170 HD
ATOM     14  O   UNL A   1      34.040  25.391  22.004  1.00  0.00    -0.274 OA
BRANCH  12  15
ATOM     15  C   UNL A   1      33.874  22.231  23.644  1.00  0.00     0.110 A 
ATOM     16  C   UNL A   1      34.821  21.734  24.537  1.00  0.00     0.095 A 
ATOM     17  C   UNL A   1      34.536  20.388  24.947  1.00  0.00     0.033 A 
ATOM     18  C   UNL A   1      33.353  19.902  24.449  1.00  0.00     0.007 A 
ATOM     19  S   UNL A   1      32.543  21.188  23.658  1.00  0.00    -0.122 S 
BRANCH  16  20
ATOM     20  C   UNL A   1      36.008  22.445  24.976  1.00  0.00     0.341 C 
ATOM     21  O   UNL A   1      36.202  23.619  24.751  1.00  0.00    -0.246 OA
BRANCH  20  22
ATOM     22  O   UNL A   1      36.808  21.617  25.709  1.00  0.00    -0.462 OA
BRANCH  22  23
ATOM     23  C   UNL A   1      38.134  21.373  25.239  1.00  0.00     0.230 C 
ATOM     24  C   UNL A   1      39.199  21.915  26.169  1.00  0.00     0.049 C 
ENDBRANCH  22  23
ENDBRANCH  20  22
ENDBRANCH  16  20
BRANCH  18  25
ATOM     25  C   UNL A   1      32.956  18.441  24.529  1.00  0.00     0.043 C 
ATOM     26  C   UNL A   1      33.839  17.373  23.915  1.00  0.00     0.010 C 
ENDBRANCH  18  25
ENDBRANCH  12  15
ENDBRANCH   5  11
ENDBRANCH   2   4
ENDBRANCH   1   2
BRANCH   1  27
ATOM     27  C   UNL A   1      31.003  29.962  24.606  1.00  0.00     0.274 C 
BRANCH  27  28
ATOM     28  C   UNL A   1      31.151  30.987  25.753  1.00  0.00     0.275 C 
BRANCH  28  29
ATOM     29  O   UNL A   1      32.084  30.585  26.797  1.00  0.00    -0.458 OA
BRANCH  29  30
ATOM     30  C   UNL A   1      32.891  31.610  27.137  1.00  0.00     0.338 C 
ATOM     31  O   UNL A   1      32.474  32.753  27.275  1.00  0.00    -0.246 OA
BRANCH  30  32
ATOM     32  C   UNL A   1      34.329  31.338  27.406  1.00  0.00     0.060 A 
ATOM     33  C   UNL A   1      34.632  30.001  27.650  1.00  0.00     0.016 A 
ATOM     34  C   UNL A   1      35.138  32.301  27.997  1.00  0.00     0.016 A 
ATOM     35  C   UNL A   1      35.473  29.626  28.706  1.00  0.00     0.010 A 
ATOM     36  C   UNL A   1      36.117  31.907  28.943  1.00  0.00     0.010 A 
ATOM     37  C   UNL A   1      36.214  30.583  29.396  1.00  0.00    -0.014 A 
BRANCH  37  38
ATOM     38  C   UNL A   1      37.311  30.143  30.296  1.00  0.00     0.031 A 
ATOM     39  C   UNL A   1      37.565  30.635  31.703  1.00  0.00     0.074 A 
ATOM     40  C   UNL A   1      38.150  29.266  29.719  1.00  0.00     0.049 A 
ATOM     41  N   UNL A   1      38.622  30.443  32.461  1.00  0.00    -0.248 NA
ATOM     42  C   UNL A   1      36.520  31.424  32.361  1.00  0.00     0.031 C 
ATOM     43  C   UNL A   1      37.960  28.692  28.382  1.00  0.00     0.029 A 
ATOM     44  N   UNL A   1      39.339  28.749  30.143  1.00  0.00    -0.354 N 
ATOM     45  C   UNL A   1      38.378  31.110  33.664  1.00  0.00     0.074 A 
ATOM     46  C   UNL A   1      37.069  31.712  33.539  1.00  0.00     0.031 C 
ATOM     47  C   UNL A   1      39.027  27.957  28.065  1.00  0.00     0.029 A 
ATOM     48  C   UNL A   1      39.986  28.061  29.149  1.00  0.00     0.049 A 
ATOM     49  H   UNL A   1      39.692  28.857  31.054  1.00  0.00     0.167 HD
ATOM     50  C   UNL A   1      39.178  31.205  34.759  1.00  0.00     0.037 A 
ATOM     51  C   UNL A   1      41.249  27.619  29.077  1.00  0.00     0.037 A 
ATOM     52  C   UNL A   1      40.474  30.575  34.859  1.00  0.00     0.049 A 
ATOM     53  C   UNL A   1      42.131  27.792  30.264  1.00  0.00     0.074 A 
ATOM     54  C   UNL A   1      41.350  30.553  35.933  1.00  0.00     0.029 A 
ATOM     55  N   UNL A   1      41.087  29.863  33.837  1.00  0.00    -0.354 N 
ATOM     56  N   UNL A   1      41.878  28.401  31.397  1.00  0.00    -0.248 NA
ATOM     57  C   UNL A   1      43.462  27.192  30.173  1.00  0.00     0.031 C 
ATOM     58  C   UNL A   1      42.516  29.889  35.536  1.00  0.00     0.029 A 
ATOM     59  C   UNL A   1      42.343  29.436  34.239  1.00  0.00     0.049 A 
ATOM     60  H   UNL A   1      40.687  29.686  32.955  1.00  0.00     0.167 HD
ATOM     61  C   UNL A   1      43.010  28.229  32.174  1.00  0.00     0.074 A 
ATOM     62  C   UNL A   1      43.941  27.446  31.382  1.00  0.00     0.031 C 
ATOM     63  C   UNL A   1      43.256  28.670  33.430  1.00  0.00     0.037 A 
BRANCH  50  64
ATOM     64  C   UNL A   1      38.724  32.037  35.937  1.00  0.00     0.057 A 
ATOM     65  C   UNL A   1      38.048  31.487  37.034  1.00  0.00     0.134 A 
ATOM     66  C   UNL A   1      39.078  33.393  36.029  1.00  0.00     0.134 A 
ATOM     67  F   UNL A   1      37.685  30.196  37.031  1.00  0.00    -0.206 F 
ATOM     68  C   UNL A   1      37.728  32.252  38.163  1.00  0.00     0.040 A 
ATOM     69  C   UNL A   1      38.788  34.162  37.161  1.00  0.00     0.040 A 
ATOM     70  F   UNL A   1      39.748  33.991  35.031  1.00  0.00    -0.206 F 
ATOM     71  C   UNL A   1      38.107  33.592  38.233  1.00  0.00     0.006 A 
ENDBRANCH  50  64
BRANCH  51  72
ATOM     72  C   UNL A   1      41.702  26.975  27.827  1.00  0.00     0.057 A 
ATOM     73  C   UNL A   1      41.576  25.596  27.655  1.00  0.00     0.134 A 
ATOM     74  C   UNL A   1      42.165  27.732  26.742  1.00  0.00     0.134 A 
ATOM     75  F   UNL A   1      41.122  24.829  28.657  1.00  0.00    -0.206 F 
ATOM     76  C   UNL A   1      41.918  24.983  26.451  1.00  0.00     0.040 A 
ATOM     77  C   UNL A   1      42.480  27.136  25.523  1.00  0.00     0.040 A 
ATOM     78  F   UNL A   1      42.261  29.067  26.837  1.00  0.00    -0.206 F 
ATOM     79  C   UNL A   1      42.364  25.755  25.379  1.00  0.00     0.006 A 
ENDBRANCH  51  72
BRANCH  63  80
ATOM     80  C   UNL A   1      44.578  28.284  34.021  1.00  0.00     0.057 A 
ATOM     81  C   UNL A   1      45.706  29.105  33.905  1.00  0.00     0.134 A 
ATOM     82  C   UNL A   1      44.724  27.070  34.702  1.00  0.00     0.134 A 
ATOM     83  F   UNL A   1      45.635  30.270  33.243  1.00  0.00    -0.206 F 
ATOM     84  C   UNL A   1      46.945  28.714  34.413  1.00  0.00     0.040 A 
ATOM     85  C   UNL A   1      45.948  26.683  35.244  1.00  0.00     0.040 A 
ATOM     86  F   UNL A   1      43.679  26.241  34.852  1.00  0.00    -0.206 F 
ATOM     87  C   UNL A   1      47.066  27.501  35.091  1.00  0.00     0.006 A 
ENDBRANCH  63  80
ENDBRANCH  37  38
ENDBRANCH  30  32
ENDBRANCH  29  30
ENDBRANCH  28  29
ENDBRANCH  27  28
ENDBRANCH   1  27
TORSDOF 17
ENDMDL
MODEL 2
REMARK VINA RESULT:     -11.2      0.948      6.081
REMARK SMILES CCOC(=O)c1cc(CC)sc1NC(=O)[C@H]1[C@@H]2CC[C@@H](C2)[C@@H]1C(=O)OCCOC(=O)c1ccc(-c2c3nc(c(-c4c(F)cccc4F)c4ccc([nH]4)c(-c4c(F)cccc4F)c4nc(c(-c5c(F)cccc5F)c5ccc2[nH]5)C=C4)C=C3)cc1
REMARK SMILES IDX 25 1 23 2 24 3 22 4 16 5 17 6 18 7 21 8 20 9 19 10 14 11
REMARK SMILES IDX 13 12 15 14 12 15 6 16 7 17 8 18 11 19 4 20 5 21 3 22 2 23
REMARK SMILES IDX 1 24 9 25 10 26 26 27 27 28 28 29 29 30 30 31 31 32 32 33
REMARK SMILES IDX 84 34 33 35 83 36 34 37 35 38 36 39 77 40 37 41 82 42 76 43
REMARK SMILES IDX 78 44 38 45 81 46 75 47 74 48 39 50 65 51 48 52 64 53 49 54
REMARK SMILES IDX 52 55 63 56 79 57 50 58 51 59 62 61 80 62 53 63 40 64 41 65
REMARK SMILES IDX 46 66 42 67 43 68 45 69 47 70 44 71 66 72 67 73 72 74 68 75
REMARK SMILES IDX 69 76 71 77 73 78 70 79 54 80 55 81 60 82 56 83 57 84 59 85
REMARK SMILES IDX 61 86 58 87
REMARK H PARENT 13 13 78 49 52 60
REMARK Flexibility Score: inf
ROOT
ATOM      1  O   UNL A   1      32.370  29.164  25.049  1.00  0.00    -0.462 OA
ENDROOT
BRANCH   1   2
ATOM      2  C   UNL A   1      32.229  28.220  24.073  1.00  0.00     0.310 C 
ATOM      3  O   UNL A   1      31.705  28.457  22.991  1.00  0.00    -0.252 OA
BRANCH   2   4
ATOM      4  C   UNL A   1      32.772  26.858  24.502  1.00  0.00     0.115 C 
ATOM      5  C   UNL A   1      32.269  25.552  23.783  1.00  0.00     0.096 C 
ATOM      6  C   UNL A   1      31.912  24.657  25.046  1.00  0.00     0.003 C 
ATOM      7  C   UNL A   1      30.599  25.084  25.733  1.00  0.00     0.005 C 
ATOM      8  C   UNL A   1      32.886  25.145  26.136  1.00  0.00     0.009 C 
ATOM      9  C   UNL A   1      32.444  26.600  26.009  1.00  0.00     0.004 C 
ATOM     10  C   UNL A   1      30.935  26.457  26.312  1.00  0.00     0.005 C 
BRANCH   5  11
ATOM     11  C   UNL A   1      33.355  24.851  22.939  1.00  0.00     0.229 C 
ATOM     12  N   UNL A   1      33.683  23.530  22.828  1.00  0.00    -0.317 N 
ATOM     13  H   UNL A   1      34.397  23.440  22.156  1.00  0.00     0.170 HD
ATOM     14  O   UNL A   1      34.037  25.576  22.190  1.00  0.00    -0.274 OA
BRANCH  12  15
ATOM     15  C   UNL A   1      33.375  22.261  23.319  1.00  0.00     0.110 A 
ATOM     16  C   UNL A   1      33.965  21.664  24.431  1.00  0.00     0.095 A 
ATOM     17  C   UNL A   1      33.592  20.286  24.577  1.00  0.00     0.033 A 
ATOM     18  C   UNL A   1      32.670  19.866  23.652  1.00  0.00     0.007 A 
ATOM     19  S   UNL A   1      32.152  21.235  22.762  1.00  0.00    -0.122 S 
BRANCH  16  20
ATOM     20  C   UNL A   1      34.906  22.313  25.326  1.00  0.00     0.341 C 
ATOM     21  O   UNL A   1      34.783  22.320  26.531  1.00  0.00    -0.246 OA
BRANCH  20  22
ATOM     22  O   UNL A   1      35.945  22.842  24.614  1.00  0.00    -0.462 OA
BRANCH  22  23
ATOM     23  C   UNL A   1      37.026  21.978  24.264  1.00  0.00     0.230 C 
ATOM     24  C   UNL A   1      38.039  21.818  25.378  1.00  0.00     0.049 C 
ENDBRANCH  22  23
ENDBRANCH  20  22
ENDBRANCH  16  20
BRANCH  18  25
ATOM     25  C   UNL A   1      32.310  18.409  23.440  1.00  0.00     0.043 C 
ATOM     26  C   UNL A   1      33.398  17.362  23.305  1.00  0.00     0.010 C 
ENDBRANCH  18  25
ENDBRANCH  12  15
ENDBRANCH   5  11
ENDBRANCH   2   4
ENDBRANCH   1   2
BRANCH   1  27
ATOM     27  C   UNL A   1      31.318  30.159  25.118  1.00  0.00     0.274 C 
BRANCH  27  28
ATOM     28  C   UNL A   1      31.430  31.114  26.328  1.00  0.00     0.275 C 
BRANCH  28  29
ATOM     29  O   UNL A   1      32.426  30.715  27.313  1.00  0.00    -0.458 OA
BRANCH  29  30
ATOM     30  C   UNL A   1      33.281  31.728  27.565  1.00  0.00     0.338 C 
ATOM     31  O   UNL A   1      32.895  32.844  27.889  1.00  0.00    -0.246 OA
BRANCH  30  32
ATOM     32  C   UNL A   1      34.744  31.470  27.499  1.00  0.00     0.060 A 
ATOM     33  C   UNL A   1      35.110  30.140  27.688  1.00  0.00     0.016 A 
ATOM     34  C   UNL A   1      35.658  32.449  27.872  1.00  0.00     0.016 A 
ATOM     35  C   UNL A   1      36.175  29.790  28.528  1.00  0.00     0.010 A 
ATOM     36  C   UNL A   1      36.833  32.080  28.572  1.00  0.00     0.010 A 
ATOM     37  C   UNL A   1      37.045  30.764  29.012  1.00  0.00    -0.014 A 
BRANCH  37  38
ATOM     38  C   UNL A   1      38.325  30.349  29.642  1.00  0.00     0.031 A 
ATOM     39  C   UNL A   1      39.313  29.347  29.085  1.00  0.00     0.074 A 
ATOM     40  C   UNL A   1      38.533  30.914  30.843  1.00  0.00     0.049 A 
ATOM     41  N   UNL A   1      40.342  28.790  29.683  1.00  0.00    -0.248 NA
ATOM     42  C   UNL A   1      39.153  28.916  27.694  1.00  0.00     0.031 C 
ATOM     43  C   UNL A   1      37.662  31.932  31.443  1.00  0.00     0.029 A 
ATOM     44  N   UNL A   1      39.487  30.685  31.790  1.00  0.00    -0.354 N 
ATOM     45  C   UNL A   1      40.927  27.929  28.753  1.00  0.00     0.074 A 
ATOM     46  C   UNL A   1      40.140  28.036  27.545  1.00  0.00     0.031 C 
ATOM     47  C   UNL A   1      38.081  32.191  32.683  1.00  0.00     0.029 A 
ATOM     48  C   UNL A   1      39.205  31.319  32.973  1.00  0.00     0.049 A 
ATOM     49  H   UNL A   1      40.287  30.131  31.642  1.00  0.00     0.167 HD
ATOM     50  C   UNL A   1      42.016  27.129  28.904  1.00  0.00     0.037 A 
ATOM     51  C   UNL A   1      39.739  31.165  34.191  1.00  0.00     0.037 A 
ATOM     52  C   UNL A   1      42.794  27.059  30.121  1.00  0.00     0.049 A 
ATOM     53  C   UNL A   1      40.889  30.234  34.351  1.00  0.00     0.074 A 
ATOM     54  C   UNL A   1      43.946  26.331  30.376  1.00  0.00     0.029 A 
ATOM     55  N   UNL A   1      42.488  27.738  31.292  1.00  0.00    -0.354 N 
ATOM     56  N   UNL A   1      41.443  29.449  33.460  1.00  0.00    -0.248 NA
ATOM     57  C   UNL A   1      41.506  30.188  35.677  1.00  0.00     0.031 C 
ATOM     58  C   UNL A   1      44.293  26.516  31.718  1.00  0.00     0.029 A 
ATOM     59  C   UNL A   1      43.402  27.413  32.283  1.00  0.00     0.049 A 
ATOM     60  H   UNL A   1      41.733  28.359  31.403  1.00  0.00     0.167 HD
ATOM     61  C   UNL A   1      42.501  28.836  34.108  1.00  0.00     0.074 A 
ATOM     62  C   UNL A   1      42.514  29.356  35.463  1.00  0.00     0.031 C 
ATOM     63  C   UNL A   1      43.387  27.932  33.627  1.00  0.00     0.037 A 
BRANCH  50  64
ATOM     64  C   UNL A   1      42.438  26.229  27.765  1.00  0.00     0.057 A 
ATOM     65  C   UNL A   1      42.024  24.895  27.663  1.00  0.00     0.134 A 
ATOM     66  C   UNL A   1      43.176  26.746  26.686  1.00  0.00     0.134 A 
ATOM     67  F   UNL A   1      41.306  24.330  28.645  1.00  0.00    -0.206 F 
ATOM     68  C   UNL A   1      42.338  24.108  26.548  1.00  0.00     0.040 A 
ATOM     69  C   UNL A   1      43.474  25.979  25.555  1.00  0.00     0.040 A 
ATOM     70  F   UNL A   1      43.590  28.022  26.694  1.00  0.00    -0.206 F 
ATOM     71  C   UNL A   1      43.058  24.652  25.485  1.00  0.00     0.006 A 
ENDBRANCH  50  64
BRANCH  51  72
ATOM     72  C   UNL A   1      39.166  31.934  35.316  1.00  0.00     0.057 A 
ATOM     73  C   UNL A   1      38.266  31.335  36.198  1.00  0.00     0.134 A 
ATOM     74  C   UNL A   1      39.585  33.242  35.595  1.00  0.00     0.134 A 
ATOM     75  F   UNL A   1      37.847  30.079  35.984  1.00  0.00    -0.206 F 
ATOM     76  C   UNL A   1      37.783  32.017  37.313  1.00  0.00     0.040 A 
ATOM     77  C   UNL A   1      39.134  33.924  36.722  1.00  0.00     0.040 A 
ATOM     78  F   UNL A   1      40.485  33.850  34.806  1.00  0.00    -0.206 F 
ATOM     79  C   UNL A   1      38.222  33.313  37.581  1.00  0.00     0.006 A 
ENDBRANCH  51  72
BRANCH  63  80
ATOM     80  C   UNL A   1      44.455  27.480  34.576  1.00  0.00     0.057 A 
ATOM     81  C   UNL A   1      45.628  28.218  34.772  1.00  0.00     0.134 A 
ATOM     82  C   UNL A   1      44.310  26.285  35.291  1.00  0.00     0.134 A 
ATOM     83  F   UNL A   1      45.835  29.360  34.097  1.00  0.00    -0.206 F 
ATOM     84  C   UNL A   1      46.640  27.764  35.618  1.00  0.00     0.040 A 
ATOM     85  C   UNL A   1      45.299  25.838  36.166  1.00  0.00     0.040 A 
ATOM     86  F   UNL A   1      43.207  25.535  35.151  1.00  0.00    -0.206 F 
ATOM     87  C   UNL A   1      46.473  26.573  36.323  1.00  0.00     0.006 A 
ENDBRANCH  63  80
ENDBRANCH  37  38
ENDBRANCH  30  32
ENDBRANCH  29  30
ENDBRANCH  28  29
ENDBRANCH  27  28
ENDBRANCH   1  27
TORSDOF 17
ENDMDL
MODEL 3
REMARK VINA RESULT:     -11.2      1.498      6.400
REMARK SMILES CCOC(=O)c1cc(CC)sc1NC(=O)[C@H]1[C@@H]2CC[C@@H](C2)[C@@H]1C(=O)OCCOC(=O)c1ccc(-c2c3nc(c(-c4c(F)cccc4F)c4ccc([nH]4)c(-c4c(F)cccc4F)c4nc(c(-c5c(F)cccc5F)c5ccc2[nH]5)C=C4)C=C3)cc1
REMARK SMILES IDX 25 1 23 2 24 3 22 4 16 5 17 6 18 7 21 8 20 9 19 10 14 11
REMARK SMILES IDX 13 12 15 14 12 15 6 16 7 17 8 18 11 19 4 20 5 21 3 22 2 23
REMARK SMILES IDX 1 24 9 25 10 26 26 27 27 28 28 29 29 30 30 31 31 32 32 33
REMARK SMILES IDX 84 34 33 35 83 36 34 37 35 38 36 39 77 40 37 41 82 42 76 43
REMARK SMILES IDX 78 44 38 45 81 46 75 47 74 48 39 50 65 51 48 52 64 53 49 54
REMARK SMILES IDX 52 55 63 56 79 57 50 58 51 59 62 61 80 62 53 63 40 64 41 65
REMARK SMILES IDX 46 66 42 67 43 68 45 69 47 70 44 71 66 72 67 73 72 74 68 75
REMARK SMILES IDX 69 76 71 77 73 78 70 79 54 80 55 81 60 82 56 83 57 84 59 85
REMARK SMILES IDX 61 86 58 87
REMARK H PARENT 13 13 78 49 52 60
REMARK Flexibility Score: inf
ROOT
ATOM      1  O   UNL A   1      31.906  28.220  25.075  1.00  0.00    -0.462 OA
ENDROOT
BRANCH   1   2
ATOM      2  C   UNL A   1      32.476  27.102  25.613  1.00  0.00     0.310 C 
ATOM      3  O   UNL A   1      33.476  27.141  26.320  1.00  0.00    -0.252 OA
BRANCH   2   4
ATOM      4  C   UNL A   1      31.738  25.826  25.211  1.00  0.00     0.115 C 
ATOM      5  C   UNL A   1      32.512  24.457  25.160  1.00  0.00     0.096 C 
ATOM      6  C   UNL A   1      32.069  23.938  23.726  1.00  0.00     0.003 C 
ATOM      7  C   UNL A   1      32.785  24.671  22.574  1.00  0.00     0.005 C 
ATOM      8  C   UNL A   1      30.669  24.550  23.524  1.00  0.00     0.009 C 
ATOM      9  C   UNL A   1      31.156  25.975  23.767  1.00  0.00     0.004 C 
ATOM     10  C   UNL A   1      32.230  26.092  22.661  1.00  0.00     0.005 C 
BRANCH   5  11
ATOM     11  C   UNL A   1      32.062  23.449  26.240  1.00  0.00     0.229 C 
ATOM     12  N   UNL A   1      32.391  22.137  26.427  1.00  0.00    -0.317 N 
ATOM     13  H   UNL A   1      31.955  21.819  27.250  1.00  0.00     0.170 HD
ATOM     14  O   UNL A   1      31.305  23.883  27.129  1.00  0.00    -0.274 OA
BRANCH  12  15
ATOM     15  C   UNL A   1      33.121  21.083  25.878  1.00  0.00     0.110 A 
ATOM     16  C   UNL A   1      34.498  21.082  25.666  1.00  0.00     0.095 A 
ATOM     17  C   UNL A   1      34.937  19.944  24.910  1.00  0.00     0.033 A 
ATOM     18  C   UNL A   1      33.932  19.053  24.627  1.00  0.00     0.007 A 
ATOM     19  S   UNL A   1      32.528  19.552  25.473  1.00  0.00    -0.122 S 
BRANCH  16  20
ATOM     20  C   UNL A   1      35.409  22.129  26.094  1.00  0.00     0.341 C 
ATOM     21  O   UNL A   1      35.148  22.921  26.972  1.00  0.00    -0.246 OA
BRANCH  20  22
ATOM     22  O   UNL A   1      36.587  22.035  25.411  1.00  0.00    -0.462 OA
BRANCH  22  23
ATOM     23  C   UNL A   1      36.968  23.128  24.575  1.00  0.00     0.230 C 
ATOM     24  C   UNL A   1      36.524  22.955  23.138  1.00  0.00     0.049 C 
ENDBRANCH  22  23
ENDBRANCH  20  22
ENDBRANCH  16  20
BRANCH  18  25
ATOM     25  C   UNL A   1      34.086  17.914  23.639  1.00  0.00     0.043 C 
ATOM     26  C   UNL A   1      34.380  16.510  24.127  1.00  0.00     0.010 C 
ENDBRANCH  18  25
ENDBRANCH  12  15
ENDBRANCH   5  11
ENDBRANCH   2   4
ENDBRANCH   1   2
BRANCH   1  27
ATOM     27  C   UNL A   1      32.658  29.449  25.238  1.00  0.00     0.274 C 
BRANCH  27  28
ATOM     28  C   UNL A   1      32.058  30.423  26.277  1.00  0.00     0.275 C 
BRANCH  28  29
ATOM     29  O   UNL A   1      32.751  30.432  27.557  1.00  0.00    -0.458 OA
BRANCH  29  30
ATOM     30  C   UNL A   1      33.584  31.489  27.643  1.00  0.00     0.338 C 
ATOM     31  O   UNL A   1      33.176  32.633  27.801  1.00  0.00    -0.246 OA
BRANCH  30  32
ATOM     32  C   UNL A   1      35.053  31.256  27.597  1.00  0.00     0.060 A 
ATOM     33  C   UNL A   1      35.438  29.931  27.787  1.00  0.00     0.016 A 
ATOM     34  C   UNL A   1      35.944  32.249  27.985  1.00  0.00     0.016 A 
ATOM     35  C   UNL A   1      36.497  29.597  28.641  1.00  0.00     0.010 A 
ATOM     36  C   UNL A   1      37.116  31.897  28.701  1.00  0.00     0.010 A 
ATOM     37  C   UNL A   1      37.344  30.584  29.140  1.00  0.00    -0.014 A 
BRANCH  37  38
ATOM     38  C   UNL A   1      38.622  30.188  29.787  1.00  0.00     0.031 A 
ATOM     39  C   UNL A   1      39.619  29.183  29.255  1.00  0.00     0.074 A 
ATOM     40  C   UNL A   1      38.817  30.777  30.979  1.00  0.00     0.049 A 
ATOM     41  N   UNL A   1      40.648  28.644  29.871  1.00  0.00    -0.248 NA
ATOM     42  C   UNL A   1      39.472  28.726  27.871  1.00  0.00     0.031 C 
ATOM     43  C   UNL A   1      37.936  31.800  31.554  1.00  0.00     0.029 A 
ATOM     44  N   UNL A   1      39.766  30.571  31.937  1.00  0.00    -0.354 N 
ATOM     45  C   UNL A   1      41.245  27.770  28.961  1.00  0.00     0.074 A 
ATOM     46  C   UNL A   1      40.466  27.850  27.746  1.00  0.00     0.031 C 
ATOM     47  C   UNL A   1      38.344  32.084  32.791  1.00  0.00     0.029 A 
ATOM     48  C   UNL A   1      39.470  31.224  33.105  1.00  0.00     0.049 A 
ATOM     49  H   UNL A   1      40.570  30.019  31.805  1.00  0.00     0.167 HD
ATOM     50  C   UNL A   1      42.338  26.979  29.135  1.00  0.00     0.037 A 
ATOM     51  C   UNL A   1      39.997  31.097  34.331  1.00  0.00     0.037 A 
ATOM     52  C   UNL A   1      43.107  26.936  30.358  1.00  0.00     0.049 A 
ATOM     53  C   UNL A   1      41.151  30.175  34.515  1.00  0.00     0.074 A 
ATOM     54  C   UNL A   1      44.261  26.220  30.634  1.00  0.00     0.029 A 
ATOM     55  N   UNL A   1      42.789  27.634  31.515  1.00  0.00    -0.354 N 
ATOM     56  N   UNL A   1      41.716  29.378  33.643  1.00  0.00    -0.248 NA
ATOM     57  C   UNL A   1      41.758  30.158  35.847  1.00  0.00     0.031 C 
ATOM     58  C   UNL A   1      44.598  26.432  31.976  1.00  0.00     0.029 A 
ATOM     59  C   UNL A   1      43.696  27.333  32.518  1.00  0.00     0.049 A 
ATOM     60  H   UNL A   1      42.029  28.253  31.609  1.00  0.00     0.167 HD
ATOM     61  C   UNL A   1      42.774  28.783  34.310  1.00  0.00     0.074 A 
ATOM     62  C   UNL A   1      42.773  29.329  35.655  1.00  0.00     0.031 C 
ATOM     63  C   UNL A   1      43.669  27.877  33.852  1.00  0.00     0.037 A 
BRANCH  50  64
ATOM     64  C   UNL A   1      42.774  26.061  28.015  1.00  0.00     0.057 A 
ATOM     65  C   UNL A   1      43.795  26.398  27.117  1.00  0.00     0.134 A 
ATOM     66  C   UNL A   1      42.242  24.765  27.910  1.00  0.00     0.134 A 
ATOM     67  F   UNL A   1      44.364  27.612  27.159  1.00  0.00    -0.206 F 
ATOM     68  C   UNL A   1      44.257  25.493  26.153  1.00  0.00     0.040 A 
ATOM     69  C   UNL A   1      42.712  23.843  26.969  1.00  0.00     0.040 A 
ATOM     70  F   UNL A   1      41.277  24.356  28.748  1.00  0.00    -0.206 F 
ATOM     71  C   UNL A   1      43.721  24.208  26.082  1.00  0.00     0.006 A 
ENDBRANCH  50  64
BRANCH  51  72
ATOM     72  C   UNL A   1      39.411  31.882  35.436  1.00  0.00     0.057 A 
ATOM     73  C   UNL A   1      39.760  33.221  35.618  1.00  0.00     0.134 A 
ATOM     74  C   UNL A   1      38.414  31.347  36.263  1.00  0.00     0.134 A 
ATOM     75  F   UNL A   1      40.696  33.785  34.841  1.00  0.00    -0.206 F 
ATOM     76  C   UNL A   1      39.153  34.000  36.601  1.00  0.00     0.040 A 
ATOM     77  C   UNL A   1      37.777  32.123  37.229  1.00  0.00     0.040 A 
ATOM     78  F   UNL A   1      38.005  30.078  36.102  1.00  0.00    -0.206 F 
ATOM     79  C   UNL A   1      38.154  33.453  37.404  1.00  0.00     0.006 A 
ENDBRANCH  51  72
BRANCH  63  80
ATOM     80  C   UNL A   1      44.732  27.449  34.817  1.00  0.00     0.057 A 
ATOM     81  C   UNL A   1      45.952  28.128  34.919  1.00  0.00     0.134 A 
ATOM     82  C   UNL A   1      44.536  26.336  35.643  1.00  0.00     0.134 A 
ATOM     83  F   UNL A   1      46.208  29.189  34.137  1.00  0.00    -0.206 F 
ATOM     84  C   UNL A   1      46.957  27.693  35.783  1.00  0.00     0.040 A 
ATOM     85  C   UNL A   1      45.519  25.911  36.535  1.00  0.00     0.040 A 
ATOM     86  F   UNL A   1      43.387  25.645  35.596  1.00  0.00    -0.206 F 
ATOM     87  C   UNL A   1      46.738  26.583  36.599  1.00  0.00     0.006 A 
ENDBRANCH  63  80
ENDBRANCH  37  38
ENDBRANCH  30  32
ENDBRANCH  29  30
ENDBRANCH  28  29
ENDBRANCH  27  28
ENDBRANCH   1  27
TORSDOF 17
ENDMDL
