MODEL 1
REMARK VINA RESULT:     -12.7      0.000      0.000
REMARK SMILES CC1=NN(c2ccc(Cl)c(C(=O)OCCOC(=O)c3ccc(-c4c5nc(c(-c6c(F)cccc6F)c6ccc([nH]6)c(-c6c(F)cccc6F)c6nc(c(-c7c(F)cccc7F)c7ccc4[nH]7)C=C6)C=C5)cc3)c2)C(=O)/C1=C\c1ccccc1Cl
REMARK SMILES IDX 14 1 13 2 11 3 12 4 10 5 5 6 6 7 73 8 7 9 8 10 9 11 4 12
REMARK SMILES IDX 1 13 2 14 3 15 76 16 74 17 77 18 75 19 78 20 79 21 83 22
REMARK SMILES IDX 80 23 82 24 84 25 81 26 15 27 16 28 17 29 18 30 19 31 20 32
REMARK SMILES IDX 72 33 21 34 71 35 22 36 23 37 24 38 65 39 25 40 70 41 64 42
REMARK SMILES IDX 66 43 26 44 69 45 63 46 62 47 27 49 53 50 36 51 52 52 37 53
REMARK SMILES IDX 40 54 51 55 67 56 38 57 39 58 50 60 68 61 41 62 28 63 29 64
REMARK SMILES IDX 34 65 30 66 31 67 33 68 35 69 32 70 54 71 55 72 60 73 56 74
REMARK SMILES IDX 57 75 59 76 61 77 58 78 42 79 43 80 48 81 44 82 45 83 47 84
REMARK SMILES IDX 49 85 46 86
REMARK H PARENT 66 48 40 59
REMARK Flexibility Score: inf
ROOT
ATOM      1  C   UNL A   1      33.954  35.441  28.764  1.00  0.00     0.275 C 
ENDROOT
BRANCH   1   2
ATOM      2  O   UNL A   1      33.863  34.016  28.974  1.00  0.00    -0.458 OA
BRANCH   2   3
ATOM      3  C   UNL A   1      33.217  33.321  28.010  1.00  0.00     0.339 C 
ATOM      4  O   UNL A   1      32.183  33.644  27.447  1.00  0.00    -0.246 OA
BRANCH   3   5
ATOM      5  C   UNL A   1      33.957  32.103  27.627  1.00  0.00     0.080 A 
ATOM      6  C   UNL A   1      33.753  29.795  26.860  1.00  0.00     0.070 A 
ATOM      7  C   UNL A   1      35.061  29.556  27.282  1.00  0.00     0.030 A 
ATOM      8  C   UNL A   1      33.218  31.074  27.020  1.00  0.00     0.045 A 
ATOM      9  C   UNL A   1      35.830  30.595  27.822  1.00  0.00     0.023 A 
ATOM     10  C   UNL A   1      35.276  31.867  28.015  1.00  0.00     0.055 A 
ATOM     11  Cl  UNL A   1      36.249  33.044  28.819  1.00  0.00    -0.083 Cl
BRANCH   6  12
ATOM     12  N   UNL A   1      32.926  28.759  26.395  1.00  0.00    -0.196 N 
ATOM     13  C   UNL A   1      32.353  25.223  25.973  1.00  0.00     0.069 C 
ATOM     14  C   UNL A   1      32.395  26.715  25.964  1.00  0.00     0.071 C 
ATOM     15  N   UNL A   1      33.324  27.433  26.546  1.00  0.00    -0.169 NA
ATOM     16  C   UNL A   1      31.403  27.556  25.273  1.00  0.00     0.065 C 
ATOM     17  C   UNL A   1      31.728  28.945  25.693  1.00  0.00     0.280 C 
ATOM     18  C   UNL A   1      30.557  27.153  24.316  1.00  0.00     0.025 C 
ATOM     19  O   UNL A   1      31.118  29.956  25.431  1.00  0.00    -0.267 OA
BRANCH  18  20
ATOM     20  C   UNL A   1      29.897  28.115  23.422  1.00  0.00    -0.006 A 
ATOM     21  C   UNL A   1      28.510  28.284  23.501  1.00  0.00     0.009 A 
ATOM     22  C   UNL A   1      30.635  28.928  22.537  1.00  0.00     0.048 A 
ATOM     23  C   UNL A   1      27.876  29.264  22.731  1.00  0.00     0.001 A 
ATOM     24  C   UNL A   1      29.997  29.909  21.775  1.00  0.00     0.021 A 
ATOM     25  Cl  UNL A   1      32.351  28.762  22.360  1.00  0.00    -0.084 Cl
ATOM     26  C   UNL A   1      28.618  30.079  21.878  1.00  0.00     0.002 A 
ENDBRANCH  18  20
ENDBRANCH   6  12
ENDBRANCH   3   5
ENDBRANCH   2   3
ENDBRANCH   1   2
BRANCH   1  27
ATOM     27  C   UNL A   1      32.920  36.180  29.607  1.00  0.00     0.275 C 
BRANCH  27  28
ATOM     28  O   UNL A   1      32.467  35.334  30.679  1.00  0.00    -0.458 OA
BRANCH  28  29
ATOM     29  C   UNL A   1      32.615  35.847  31.920  1.00  0.00     0.338 C 
ATOM     30  O   UNL A   1      31.944  36.712  32.456  1.00  0.00    -0.246 OA
BRANCH  29  31
ATOM     31  C   UNL A   1      33.715  35.164  32.613  1.00  0.00     0.060 A 
ATOM     32  C   UNL A   1      34.990  35.715  32.548  1.00  0.00     0.016 A 
ATOM     33  C   UNL A   1      33.528  33.897  33.159  1.00  0.00     0.016 A 
ATOM     34  C   UNL A   1      36.100  34.946  32.882  1.00  0.00     0.010 A 
ATOM     35  C   UNL A   1      34.636  33.181  33.626  1.00  0.00     0.010 A 
ATOM     36  C   UNL A   1      35.944  33.671  33.442  1.00  0.00    -0.014 A 
BRANCH  36  37
ATOM     37  C   UNL A   1      37.132  32.838  33.795  1.00  0.00     0.031 A 
ATOM     38  C   UNL A   1      37.862  33.069  35.095  1.00  0.00     0.074 A 
ATOM     39  C   UNL A   1      37.565  31.865  32.965  1.00  0.00     0.049 A 
ATOM     40  N   UNL A   1      39.024  32.607  35.489  1.00  0.00    -0.248 NA
ATOM     41  C   UNL A   1      37.204  33.941  36.081  1.00  0.00     0.031 C 
ATOM     42  C   UNL A   1      36.940  31.483  31.698  1.00  0.00     0.029 A 
ATOM     43  N   UNL A   1      38.643  31.017  33.067  1.00  0.00    -0.354 N 
ATOM     44  C   UNL A   1      39.266  33.189  36.728  1.00  0.00     0.074 A 
ATOM     45  C   UNL A   1      38.129  34.031  37.028  1.00  0.00     0.031 C 
ATOM     46  C   UNL A   1      37.617  30.458  31.161  1.00  0.00     0.029 A 
ATOM     47  C   UNL A   1      38.783  30.177  31.987  1.00  0.00     0.049 A 
ATOM     48  H   UNL A   1      39.255  31.012  33.837  1.00  0.00     0.167 HD
ATOM     49  C   UNL A   1      40.340  33.036  37.542  1.00  0.00     0.037 A 
ATOM     50  C   UNL A   1      39.765  29.315  31.662  1.00  0.00     0.037 A 
ATOM     51  C   UNL A   1      41.444  32.151  37.273  1.00  0.00     0.049 A 
ATOM     52  C   UNL A   1      40.960  29.189  32.560  1.00  0.00     0.074 A 
ATOM     53  C   UNL A   1      42.569  31.916  38.045  1.00  0.00     0.029 A 
ATOM     54  N   UNL A   1      41.552  31.340  36.153  1.00  0.00    -0.354 N 
ATOM     55  N   UNL A   1      41.205  29.790  33.699  1.00  0.00    -0.248 NA
ATOM     56  C   UNL A   1      42.027  28.280  32.117  1.00  0.00     0.031 C 
ATOM     57  C   UNL A   1      43.372  30.983  37.379  1.00  0.00     0.029 A 
ATOM     58  C   UNL A   1      42.727  30.607  36.213  1.00  0.00     0.049 A 
ATOM     59  H   UNL A   1      40.893  31.293  35.424  1.00  0.00     0.167 HD
ATOM     60  C   UNL A   1      42.444  29.321  34.115  1.00  0.00     0.074 A 
ATOM     61  C   UNL A   1      42.891  28.370  33.117  1.00  0.00     0.031 C 
ATOM     62  C   UNL A   1      43.151  29.654  35.221  1.00  0.00     0.037 A 
BRANCH  49  63
ATOM     63  C   UNL A   1      40.391  33.862  38.794  1.00  0.00     0.057 A 
ATOM     64  C   UNL A   1      39.769  33.458  39.981  1.00  0.00     0.134 A 
ATOM     65  C   UNL A   1      41.120  35.060  38.822  1.00  0.00     0.134 A 
ATOM     66  F   UNL A   1      39.047  32.328  40.018  1.00  0.00    -0.206 F 
ATOM     67  C   UNL A   1      39.853  34.223  41.146  1.00  0.00     0.040 A 
ATOM     68  C   UNL A   1      41.232  35.819  39.988  1.00  0.00     0.040 A 
ATOM     69  F   UNL A   1      41.749  35.501  37.722  1.00  0.00    -0.206 F 
ATOM     70  C   UNL A   1      40.594  35.404  41.154  1.00  0.00     0.006 A 
ENDBRANCH  49  63
BRANCH  50  71
ATOM     71  C   UNL A   1      39.684  28.539  30.398  1.00  0.00     0.057 A 
ATOM     72  C   UNL A   1      39.055  27.290  30.355  1.00  0.00     0.134 A 
ATOM     73  C   UNL A   1      40.239  29.023  29.206  1.00  0.00     0.134 A 
ATOM     74  F   UNL A   1      38.528  26.762  31.470  1.00  0.00    -0.206 F 
ATOM     75  C   UNL A   1      38.991  26.544  29.178  1.00  0.00     0.040 A 
ATOM     76  C   UNL A   1      40.157  28.302  28.015  1.00  0.00     0.040 A 
ATOM     77  F   UNL A   1      40.856  30.213  29.180  1.00  0.00    -0.206 F 
ATOM     78  C   UNL A   1      39.538  27.054  28.001  1.00  0.00     0.006 A 
ENDBRANCH  50  71
BRANCH  62  79
ATOM     79  C   UNL A   1      44.458  28.949  35.433  1.00  0.00     0.057 A 
ATOM     80  C   UNL A   1      44.539  27.736  36.128  1.00  0.00     0.134 A 
ATOM     81  C   UNL A   1      45.645  29.483  34.917  1.00  0.00     0.134 A 
ATOM     82  F   UNL A   1      43.439  27.183  36.661  1.00  0.00    -0.206 F 
ATOM     83  C   UNL A   1      45.761  27.090  36.321  1.00  0.00     0.040 A 
ATOM     84  C   UNL A   1      46.869  28.834  35.082  1.00  0.00     0.040 A 
ATOM     85  F   UNL A   1      45.632  30.640  34.237  1.00  0.00    -0.206 F 
ATOM     86  C   UNL A   1      46.929  27.636  35.792  1.00  0.00     0.006 A 
ENDBRANCH  62  79
ENDBRANCH  36  37
ENDBRANCH  29  31
ENDBRANCH  28  29
ENDBRANCH  27  28
ENDBRANCH   1  27
TORSDOF 13
ENDMDL
MODEL 2
REMARK VINA RESULT:     -12.7      5.907      8.565
REMARK SMILES CC1=NN(c2ccc(Cl)c(C(=O)OCCOC(=O)c3ccc(-c4c5nc(c(-c6c(F)cccc6F)c6ccc([nH]6)c(-c6c(F)cccc6F)c6nc(c(-c7c(F)cccc7F)c7ccc4[nH]7)C=C6)C=C5)cc3)c2)C(=O)/C1=C\c1ccccc1Cl
REMARK SMILES IDX 14 1 13 2 11 3 12 4 10 5 5 6 6 7 73 8 7 9 8 10 9 11 4 12
REMARK SMILES IDX 1 13 2 14 3 15 76 16 74 17 77 18 75 19 78 20 79 21 83 22
REMARK SMILES IDX 80 23 82 24 84 25 81 26 15 27 16 28 17 29 18 30 19 31 20 32
REMARK SMILES IDX 72 33 21 34 71 35 22 36 23 37 24 38 65 39 25 40 70 41 64 42
REMARK SMILES IDX 66 43 26 44 69 45 63 46 62 47 27 49 53 50 36 51 52 52 37 53
REMARK SMILES IDX 40 54 51 55 67 56 38 57 39 58 50 60 68 61 41 62 28 63 29 64
REMARK SMILES IDX 34 65 30 66 31 67 33 68 35 69 32 70 54 71 55 72 60 73 56 74
REMARK SMILES IDX 57 75 59 76 61 77 58 78 42 79 43 80 48 81 44 82 45 83 47 84
REMARK SMILES IDX 49 85 46 86
REMARK H PARENT 66 48 40 59
REMARK Flexibility Score: inf
ROOT
ATOM      1  C   UNL A   1      32.284  30.346  27.155  1.00  0.00     0.275 C 
ENDROOT
BRANCH   1   2
ATOM      2  O   UNL A   1      31.838  30.617  25.810  1.00  0.00    -0.458 OA
BRANCH   2   3
ATOM      3  C   UNL A   1      32.177  29.694  24.881  1.00  0.00     0.339 C 
ATOM      4  O   UNL A   1      33.270  29.560  24.352  1.00  0.00    -0.246 OA
BRANCH   3   5
ATOM      5  C   UNL A   1      31.066  28.763  24.605  1.00  0.00     0.080 A 
ATOM      6  C   UNL A   1      30.281  26.463  24.823  1.00  0.00     0.070 A 
ATOM      7  C   UNL A   1      29.337  26.707  23.826  1.00  0.00     0.030 A 
ATOM      8  C   UNL A   1      31.126  27.500  25.217  1.00  0.00     0.045 A 
ATOM      9  C   UNL A   1      29.221  27.984  23.261  1.00  0.00     0.023 A 
ATOM     10  C   UNL A   1      30.097  29.011  23.633  1.00  0.00     0.055 A 
ATOM     11  Cl  UNL A   1      29.976  30.507  22.780  1.00  0.00    -0.083 Cl
BRANCH   6  12
ATOM     12  N   UNL A   1      30.483  25.176  25.350  1.00  0.00    -0.196 N 
ATOM     13  C   UNL A   1      29.442  22.578  27.626  1.00  0.00     0.069 C 
ATOM     14  C   UNL A   1      30.104  23.514  26.670  1.00  0.00     0.071 C 
ATOM     15  N   UNL A   1      29.629  24.690  26.338  1.00  0.00    -0.169 NA
ATOM     16  C   UNL A   1      31.387  23.233  26.006  1.00  0.00     0.065 C 
ATOM     17  C   UNL A   1      31.551  24.333  25.019  1.00  0.00     0.280 C 
ATOM     18  C   UNL A   1      32.285  22.313  26.383  1.00  0.00     0.025 C 
ATOM     19  O   UNL A   1      32.427  24.459  24.195  1.00  0.00    -0.267 OA
BRANCH  18  20
ATOM     20  C   UNL A   1      33.679  22.368  25.920  1.00  0.00    -0.006 A 
ATOM     21  C   UNL A   1      34.554  23.301  26.488  1.00  0.00     0.009 A 
ATOM     22  C   UNL A   1      34.179  21.452  24.970  1.00  0.00     0.048 A 
ATOM     23  C   UNL A   1      35.907  23.302  26.135  1.00  0.00     0.001 A 
ATOM     24  C   UNL A   1      35.532  21.454  24.626  1.00  0.00     0.021 A 
ATOM     25  Cl  UNL A   1      33.155  20.285  24.201  1.00  0.00    -0.084 Cl
ATOM     26  C   UNL A   1      36.396  22.376  25.214  1.00  0.00     0.002 A 
ENDBRANCH  18  20
ENDBRANCH   6  12
ENDBRANCH   3   5
ENDBRANCH   2   3
ENDBRANCH   1   2
BRANCH   1  27
ATOM     27  C   UNL A   1      33.615  31.037  27.434  1.00  0.00     0.275 C 
BRANCH  27  28
ATOM     28  O   UNL A   1      34.558  30.089  27.965  1.00  0.00    -0.458 OA
BRANCH  28  29
ATOM     29  C   UNL A   1      35.528  30.615  28.744  1.00  0.00     0.338 C 
ATOM     30  O   UNL A   1      35.439  31.546  29.525  1.00  0.00    -0.246 OA
BRANCH  29  31
ATOM     31  C   UNL A   1      36.773  29.855  28.569  1.00  0.00     0.060 A 
ATOM     32  C   UNL A   1      37.360  29.267  29.684  1.00  0.00     0.016 A 
ATOM     33  C   UNL A   1      37.453  29.883  27.354  1.00  0.00     0.016 A 
ATOM     34  C   UNL A   1      38.685  28.846  29.635  1.00  0.00     0.010 A 
ATOM     35  C   UNL A   1      38.736  29.328  27.273  1.00  0.00     0.010 A 
ATOM     36  C   UNL A   1      39.393  28.853  28.426  1.00  0.00    -0.014 A 
BRANCH  36  37
ATOM     37  C   UNL A   1      40.817  28.409  28.368  1.00  0.00     0.031 A 
ATOM     38  C   UNL A   1      41.932  29.398  28.607  1.00  0.00     0.074 A 
ATOM     39  C   UNL A   1      41.130  27.122  28.110  1.00  0.00     0.049 A 
ATOM     40  N   UNL A   1      43.218  29.267  28.396  1.00  0.00    -0.248 NA
ATOM     41  C   UNL A   1      41.549  30.713  29.147  1.00  0.00     0.031 C 
ATOM     42  C   UNL A   1      40.170  26.035  27.908  1.00  0.00     0.029 A 
ATOM     43  N   UNL A   1      42.353  26.508  27.971  1.00  0.00    -0.354 N 
ATOM     44  C   UNL A   1      43.784  30.498  28.705  1.00  0.00     0.074 A 
ATOM     45  C   UNL A   1      42.705  31.364  29.126  1.00  0.00     0.031 C 
ATOM     46  C   UNL A   1      40.835  24.887  27.710  1.00  0.00     0.029 A 
ATOM     47  C   UNL A   1      42.263  25.170  27.667  1.00  0.00     0.049 A 
ATOM     48  H   UNL A   1      43.209  26.980  28.081  1.00  0.00     0.167 HD
ATOM     49  C   UNL A   1      45.085  30.874  28.641  1.00  0.00     0.037 A 
ATOM     50  C   UNL A   1      43.213  24.276  27.332  1.00  0.00     0.037 A 
ATOM     51  C   UNL A   1      46.168  29.995  28.281  1.00  0.00     0.049 A 
ATOM     52  C   UNL A   1      44.642  24.724  27.235  1.00  0.00     0.074 A 
ATOM     53  C   UNL A   1      47.521  30.281  28.204  1.00  0.00     0.029 A 
ATOM     54  N   UNL A   1      46.024  28.656  27.955  1.00  0.00    -0.354 N 
ATOM     55  N   UNL A   1      45.156  25.906  27.471  1.00  0.00    -0.248 NA
ATOM     56  C   UNL A   1      45.622  23.717  26.802  1.00  0.00     0.031 C 
ATOM     57  C   UNL A   1      48.193  29.120  27.805  1.00  0.00     0.029 A 
ATOM     58  C   UNL A   1      47.263  28.102  27.673  1.00  0.00     0.049 A 
ATOM     59  H   UNL A   1      45.168  28.170  27.927  1.00  0.00     0.167 HD
ATOM     60  C   UNL A   1      46.517  25.782  27.231  1.00  0.00     0.074 A 
ATOM     61  C   UNL A   1      46.754  24.404  26.851  1.00  0.00     0.031 C 
ATOM     62  C   UNL A   1      47.485  26.727  27.311  1.00  0.00     0.037 A 
BRANCH  49  63
ATOM     63  C   UNL A   1      45.414  32.307  28.945  1.00  0.00     0.057 A 
ATOM     64  C   UNL A   1      45.381  33.304  27.963  1.00  0.00     0.134 A 
ATOM     65  C   UNL A   1      45.721  32.700  30.256  1.00  0.00     0.134 A 
ATOM     66  F   UNL A   1      45.106  32.992  26.688  1.00  0.00    -0.206 F 
ATOM     67  C   UNL A   1      45.658  34.639  28.270  1.00  0.00     0.040 A 
ATOM     68  C   UNL A   1      45.975  34.035  30.578  1.00  0.00     0.040 A 
ATOM     69  F   UNL A   1      45.761  31.796  31.246  1.00  0.00    -0.206 F 
ATOM     70  C   UNL A   1      45.949  35.008  29.582  1.00  0.00     0.006 A 
ENDBRANCH  49  63
BRANCH  50  71
ATOM     71  C   UNL A   1      42.837  22.875  27.013  1.00  0.00     0.057 A 
ATOM     72  C   UNL A   1      42.770  22.429  25.688  1.00  0.00     0.134 A 
ATOM     73  C   UNL A   1      42.528  21.953  28.021  1.00  0.00     0.134 A 
ATOM     74  F   UNL A   1      43.028  23.273  24.679  1.00  0.00    -0.206 F 
ATOM     75  C   UNL A   1      42.398  21.122  25.376  1.00  0.00     0.040 A 
ATOM     76  C   UNL A   1      42.184  20.634  27.725  1.00  0.00     0.040 A 
ATOM     77  F   UNL A   1      42.573  22.318  29.310  1.00  0.00    -0.206 F 
ATOM     78  C   UNL A   1      42.111  20.217  26.398  1.00  0.00     0.006 A 
ENDBRANCH  50  71
BRANCH  62  79
ATOM     79  C   UNL A   1      48.891  26.289  27.030  1.00  0.00     0.057 A 
ATOM     80  C   UNL A   1      49.717  25.765  28.032  1.00  0.00     0.134 A 
ATOM     81  C   UNL A   1      49.416  26.375  25.734  1.00  0.00     0.134 A 
ATOM     82  F   UNL A   1      49.277  25.673  29.296  1.00  0.00    -0.206 F 
ATOM     83  C   UNL A   1      51.025  25.363  27.759  1.00  0.00     0.040 A 
ATOM     84  C   UNL A   1      50.713  25.953  25.444  1.00  0.00     0.040 A 
ATOM     85  F   UNL A   1      48.672  26.863  24.730  1.00  0.00    -0.206 F 
ATOM     86  C   UNL A   1      51.524  25.451  26.460  1.00  0.00     0.006 A 
ENDBRANCH  62  79
ENDBRANCH  36  37
ENDBRANCH  29  31
ENDBRANCH  28  29
ENDBRANCH  27  28
ENDBRANCH   1  27
TORSDOF 13
ENDMDL
MODEL 3
REMARK VINA RESULT:     -12.6      2.583      4.977
REMARK SMILES CC1=NN(c2ccc(Cl)c(C(=O)OCCOC(=O)c3ccc(-c4c5nc(c(-c6c(F)cccc6F)c6ccc([nH]6)c(-c6c(F)cccc6F)c6nc(c(-c7c(F)cccc7F)c7ccc4[nH]7)C=C6)C=C5)cc3)c2)C(=O)/C1=C\c1ccccc1Cl
REMARK SMILES IDX 14 1 13 2 11 3 12 4 10 5 5 6 6 7 73 8 7 9 8 10 9 11 4 12
REMARK SMILES IDX 1 13 2 14 3 15 76 16 74 17 77 18 75 19 78 20 79 21 83 22
REMARK SMILES IDX 80 23 82 24 84 25 81 26 15 27 16 28 17 29 18 30 19 31 20 32
REMARK SMILES IDX 72 33 21 34 71 35 22 36 23 37 24 38 65 39 25 40 70 41 64 42
REMARK SMILES IDX 66 43 26 44 69 45 63 46 62 47 27 49 53 50 36 51 52 52 37 53
REMARK SMILES IDX 40 54 51 55 67 56 38 57 39 58 50 60 68 61 41 62 28 63 29 64
REMARK SMILES IDX 34 65 30 66 31 67 33 68 35 69 32 70 54 71 55 72 60 73 56 74
REMARK SMILES IDX 57 75 59 76 61 77 58 78 42 79 43 80 48 81 44 82 45 83 47 84
REMARK SMILES IDX 49 85 46 86
REMARK H PARENT 66 48 40 59
REMARK Flexibility Score: inf
ROOT
ATOM      1  C   UNL A   1      31.210  31.584  25.990  1.00  0.00     0.275 C 
ENDROOT
BRANCH   1   2
ATOM      2  O   UNL A   1      31.823  30.291  26.178  1.00  0.00    -0.458 OA
BRANCH   2   3
ATOM      3  C   UNL A   1      32.119  29.612  25.047  1.00  0.00     0.339 C 
ATOM      4  O   UNL A   1      33.153  29.685  24.401  1.00  0.00    -0.246 OA
BRANCH   3   5
ATOM      5  C   UNL A   1      31.048  28.664  24.684  1.00  0.00     0.080 A 
ATOM      6  C   UNL A   1      30.282  26.352  24.842  1.00  0.00     0.070 A 
ATOM      7  C   UNL A   1      29.418  26.581  23.772  1.00  0.00     0.030 A 
ATOM      8  C   UNL A   1      31.077  27.402  25.301  1.00  0.00     0.045 A 
ATOM      9  C   UNL A   1      29.329  27.855  23.197  1.00  0.00     0.023 A 
ATOM     10  C   UNL A   1      30.157  28.896  23.636  1.00  0.00     0.055 A 
ATOM     11  Cl  UNL A   1      30.082  30.389  22.774  1.00  0.00    -0.083 Cl
BRANCH   6  12
ATOM     12  N   UNL A   1      30.460  25.069  25.387  1.00  0.00    -0.196 N 
ATOM     13  C   UNL A   1      29.382  22.528  27.709  1.00  0.00     0.069 C 
ATOM     14  C   UNL A   1      30.055  23.435  26.733  1.00  0.00     0.071 C 
ATOM     15  N   UNL A   1      29.604  24.616  26.389  1.00  0.00    -0.169 NA
ATOM     16  C   UNL A   1      31.327  23.116  26.063  1.00  0.00     0.065 C 
ATOM     17  C   UNL A   1      31.507  24.198  25.060  1.00  0.00     0.280 C 
ATOM     18  C   UNL A   1      32.207  22.182  26.446  1.00  0.00     0.025 C 
ATOM     19  O   UNL A   1      32.378  24.292  24.226  1.00  0.00    -0.267 OA
BRANCH  18  20
ATOM     20  C   UNL A   1      33.598  22.199  25.971  1.00  0.00    -0.006 A 
ATOM     21  C   UNL A   1      34.527  23.037  26.599  1.00  0.00     0.009 A 
ATOM     22  C   UNL A   1      34.040  21.335  24.947  1.00  0.00     0.048 A 
ATOM     23  C   UNL A   1      35.875  22.994  26.230  1.00  0.00     0.001 A 
ATOM     24  C   UNL A   1      35.388  21.293  24.587  1.00  0.00     0.021 A 
ATOM     25  Cl  UNL A   1      32.948  20.288  24.102  1.00  0.00    -0.084 Cl
ATOM     26  C   UNL A   1      36.306  22.119  25.234  1.00  0.00     0.002 A 
ENDBRANCH  18  20
ENDBRANCH   6  12
ENDBRANCH   3   5
ENDBRANCH   2   3
ENDBRANCH   1   2
BRANCH   1  27
ATOM     27  C   UNL A   1      31.437  32.474  27.208  1.00  0.00     0.275 C 
BRANCH  27  28
ATOM     28  O   UNL A   1      32.394  33.501  26.892  1.00  0.00    -0.458 OA
BRANCH  28  29
ATOM     29  C   UNL A   1      32.995  34.076  27.957  1.00  0.00     0.338 C 
ATOM     30  O   UNL A   1      32.609  35.031  28.609  1.00  0.00    -0.246 OA
BRANCH  29  31
ATOM     31  C   UNL A   1      34.222  33.342  28.292  1.00  0.00     0.060 A 
ATOM     32  C   UNL A   1      34.165  31.956  28.391  1.00  0.00     0.016 A 
ATOM     33  C   UNL A   1      35.368  34.025  28.689  1.00  0.00     0.016 A 
ATOM     34  C   UNL A   1      35.186  31.260  29.031  1.00  0.00     0.010 A 
ATOM     35  C   UNL A   1      36.454  33.304  29.202  1.00  0.00     0.010 A 
ATOM     36  C   UNL A   1      36.356  31.918  29.434  1.00  0.00    -0.014 A 
BRANCH  36  37
ATOM     37  C   UNL A   1      37.452  31.177  30.128  1.00  0.00     0.031 A 
ATOM     38  C   UNL A   1      37.691  31.382  31.603  1.00  0.00     0.074 A 
ATOM     39  C   UNL A   1      38.238  30.313  29.451  1.00  0.00     0.049 A 
ATOM     40  N   UNL A   1      38.707  31.005  32.340  1.00  0.00    -0.248 NA
ATOM     41  C   UNL A   1      36.655  32.114  32.349  1.00  0.00     0.031 C 
ATOM     42  C   UNL A   1      38.103  29.966  28.035  1.00  0.00     0.029 A 
ATOM     43  N   UNL A   1      39.314  29.566  29.870  1.00  0.00    -0.354 N 
ATOM     44  C   UNL A   1      38.468  31.516  33.610  1.00  0.00     0.074 A 
ATOM     45  C   UNL A   1      37.208  32.223  33.550  1.00  0.00     0.031 C 
ATOM     46  C   UNL A   1      39.029  29.052  27.713  1.00  0.00     0.029 A 
ATOM     47  C   UNL A   1      39.889  28.823  28.866  1.00  0.00     0.049 A 
ATOM     48  H   UNL A   1      39.640  29.563  30.798  1.00  0.00     0.167 HD
ATOM     49  C   UNL A   1      39.232  31.407  34.726  1.00  0.00     0.037 A 
ATOM     50  C   UNL A   1      41.014  28.084  28.850  1.00  0.00     0.037 A 
ATOM     51  C   UNL A   1      40.456  30.652  34.803  1.00  0.00     0.049 A 
ATOM     52  C   UNL A   1      41.861  28.007  30.087  1.00  0.00     0.074 A 
ATOM     53  C   UNL A   1      41.290  30.470  35.893  1.00  0.00     0.029 A 
ATOM     54  N   UNL A   1      41.012  29.939  33.752  1.00  0.00    -0.354 N 
ATOM     55  N   UNL A   1      41.655  28.544  31.264  1.00  0.00    -0.248 NA
ATOM     56  C   UNL A   1      43.110  27.238  29.986  1.00  0.00     0.031 C 
ATOM     57  C   UNL A   1      42.365  29.669  35.494  1.00  0.00     0.029 A 
ATOM     58  C   UNL A   1      42.179  29.318  34.168  1.00  0.00     0.049 A 
ATOM     59  H   UNL A   1      40.634  29.882  32.845  1.00  0.00     0.167 HD
ATOM     60  C   UNL A   1      42.737  28.167  32.047  1.00  0.00     0.074 A 
ATOM     61  C   UNL A   1      43.588  27.337  31.218  1.00  0.00     0.031 C 
ATOM     62  C   UNL A   1      43.007  28.484  33.336  1.00  0.00     0.037 A 
BRANCH  49  63
ATOM     63  C   UNL A   1      38.781  32.142  35.955  1.00  0.00     0.057 A 
ATOM     64  C   UNL A   1      38.065  31.512  36.981  1.00  0.00     0.134 A 
ATOM     65  C   UNL A   1      39.115  33.492  36.135  1.00  0.00     0.134 A 
ATOM     66  F   UNL A   1      37.704  30.225  36.865  1.00  0.00    -0.206 F 
ATOM     67  C   UNL A   1      37.682  32.202  38.133  1.00  0.00     0.040 A 
ATOM     68  C   UNL A   1      38.759  34.184  37.294  1.00  0.00     0.040 A 
ATOM     69  F   UNL A   1      39.809  34.153  35.196  1.00  0.00    -0.206 F 
ATOM     70  C   UNL A   1      38.036  33.541  38.295  1.00  0.00     0.006 A 
ENDBRANCH  49  63
BRANCH  50  71
ATOM     71  C   UNL A   1      41.436  27.397  27.602  1.00  0.00     0.057 A 
ATOM     72  C   UNL A   1      41.111  26.056  27.370  1.00  0.00     0.134 A 
ATOM     73  C   UNL A   1      42.177  28.062  26.617  1.00  0.00     0.134 A 
ATOM     74  F   UNL A   1      40.425  25.360  28.289  1.00  0.00    -0.206 F 
ATOM     75  C   UNL A   1      41.518  25.396  26.211  1.00  0.00     0.040 A 
ATOM     76  C   UNL A   1      42.565  27.423  25.439  1.00  0.00     0.040 A 
ATOM     77  F   UNL A   1      42.520  29.348  26.779  1.00  0.00    -0.206 F 
ATOM     78  C   UNL A   1      42.243  26.083  25.237  1.00  0.00     0.006 A 
ENDBRANCH  50  71
BRANCH  62  79
ATOM     79  C   UNL A   1      44.245  27.893  33.940  1.00  0.00     0.057 A 
ATOM     80  C   UNL A   1      45.463  28.585  33.957  1.00  0.00     0.134 A 
ATOM     81  C   UNL A   1      44.212  26.624  34.531  1.00  0.00     0.134 A 
ATOM     82  F   UNL A   1      45.562  29.798  33.393  1.00  0.00    -0.206 F 
ATOM     83  C   UNL A   1      46.610  28.025  34.520  1.00  0.00     0.040 A 
ATOM     84  C   UNL A   1      45.345  26.063  35.119  1.00  0.00     0.040 A 
ATOM     85  F   UNL A   1      43.074  25.913  34.552  1.00  0.00    -0.206 F 
ATOM     86  C   UNL A   1      46.551  26.763  35.109  1.00  0.00     0.006 A 
ENDBRANCH  62  79
ENDBRANCH  36  37
ENDBRANCH  29  31
ENDBRANCH  28  29
ENDBRANCH  27  28
ENDBRANCH   1  27
TORSDOF 13
ENDMDL
