MODEL 1
REMARK VINA RESULT:     -12.5      0.000      0.000
REMARK SMILES O=C(CSc1ccc(Cl)cc1)Nc1cccc(C(=O)Nc2ccc(C(=O)OCCOC(=O)c3ccc(-c4c5nc(c(-c6c(F)cccc6F)c6ccc([nH]6)c(-c6c(F)cccc6F)c6nc(c(-c7c(F)cccc7F)c7ccc4[nH]7)C=C6)C=C5)cc3)cc2)c1
REMARK SMILES IDX 25 1 26 2 24 3 21 4 22 5 88 6 23 7 87 8 20 9 18 10 19 11
REMARK SMILES IDX 17 13 13 14 14 15 89 16 15 17 16 18 12 19 1 20 2 21 3 23
REMARK SMILES IDX 4 24 5 25 6 26 11 27 7 28 10 29 8 30 9 31 27 32 28 33 29 34
REMARK SMILES IDX 30 35 31 36 32 37 33 38 34 39 86 40 35 41 85 42 36 43 37 44
REMARK SMILES IDX 38 45 79 46 39 47 84 48 78 49 80 50 40 51 83 52 77 53 76 54
REMARK SMILES IDX 41 56 67 57 50 58 66 59 51 60 54 61 65 62 81 63 52 64 53 65
REMARK SMILES IDX 64 67 82 68 55 69 42 70 43 71 48 72 44 73 45 74 47 75 49 76
REMARK SMILES IDX 46 77 68 78 69 79 74 80 70 81 71 82 73 83 75 84 72 85 56 86
REMARK SMILES IDX 57 87 62 88 58 89 59 90 61 91 63 92 60 93
REMARK H PARENT 20 12 12 22 80 55 54 66
REMARK Flexibility Score: inf
ROOT
ATOM      1  C   UNL A   1      32.897  27.700  24.576  1.00  0.00     0.338 C 
ATOM      2  O   UNL A   1      34.028  28.146  24.652  1.00  0.00    -0.246 OA
ENDROOT
BRANCH   1   3
ATOM      3  C   UNL A   1      32.568  26.536  23.714  1.00  0.00     0.060 A 
ATOM      4  C   UNL A   1      32.086  23.988  22.690  1.00  0.00     0.041 A 
ATOM      5  C   UNL A   1      31.060  24.662  23.338  1.00  0.00     0.027 A 
ATOM      6  C   UNL A   1      33.283  24.652  22.387  1.00  0.00     0.027 A 
ATOM      7  C   UNL A   1      31.330  25.904  23.900  1.00  0.00     0.018 A 
ATOM      8  C   UNL A   1      33.523  25.939  22.891  1.00  0.00     0.018 A 
BRANCH   4   9
ATOM      9  N   UNL A   1      31.915  22.605  22.550  1.00  0.00    -0.322 N 
ATOM     10  C   UNL A   1      32.393  21.585  23.354  1.00  0.00     0.255 C 
ATOM     11  O   UNL A   1      32.158  20.419  23.035  1.00  0.00    -0.269 OA
ATOM     12  H   UNL A   1      31.380  22.319  21.774  1.00  0.00     0.170 HD
BRANCH  10  13
ATOM     13  C   UNL A   1      33.141  21.843  24.621  1.00  0.00     0.042 A 
ATOM     14  C   UNL A   1      35.173  21.809  25.954  1.00  0.00     0.041 A 
ATOM     15  C   UNL A   1      34.407  22.021  27.102  1.00  0.00     0.026 A 
ATOM     16  C   UNL A   1      34.541  21.816  24.708  1.00  0.00     0.040 A 
ATOM     17  C   UNL A   1      33.029  22.225  27.005  1.00  0.00     0.003 A 
ATOM     18  C   UNL A   1      32.394  22.112  25.769  1.00  0.00     0.014 A 
BRANCH  14  19
ATOM     19  N   UNL A   1      36.535  21.483  26.126  1.00  0.00    -0.325 N 
ATOM     20  O   UNL A   1      37.587  23.431  25.439  1.00  0.00    -0.274 OA
ATOM     21  C   UNL A   1      37.631  22.247  25.758  1.00  0.00     0.234 C 
ATOM     22  H   UNL A   1      36.727  20.617  26.552  1.00  0.00     0.169 HD
BRANCH  21  23
ATOM     23  C   UNL A   1      38.935  21.460  25.691  1.00  0.00     0.175 C 
BRANCH  23  24
ATOM     24  S   UNL A   1      40.115  21.918  26.997  1.00  0.00    -0.116 SA
BRANCH  24  25
ATOM     25  C   UNL A   1      41.525  21.015  26.398  1.00  0.00     0.008 A 
ATOM     26  C   UNL A   1      41.541  19.616  26.394  1.00  0.00     0.016 A 
ATOM     27  C   UNL A   1      42.620  21.724  25.896  1.00  0.00     0.016 A 
ATOM     28  C   UNL A   1      42.648  18.934  25.884  1.00  0.00     0.021 A 
ATOM     29  C   UNL A   1      43.719  21.044  25.376  1.00  0.00     0.021 A 
ATOM     30  C   UNL A   1      43.731  19.651  25.376  1.00  0.00     0.041 A 
ATOM     31  Cl  UNL A   1      45.094  18.813  24.746  1.00  0.00    -0.084 Cl
ENDBRANCH  24  25
ENDBRANCH  23  24
ENDBRANCH  21  23
ENDBRANCH  14  19
ENDBRANCH  10  13
ENDBRANCH   4   9
ENDBRANCH   1   3
BRANCH   1  32
ATOM     32  O   UNL A   1      31.817  28.213  25.214  1.00  0.00    -0.458 OA
BRANCH  32  33
ATOM     33  C   UNL A   1      31.368  29.485  24.692  1.00  0.00     0.275 C 
BRANCH  33  34
ATOM     34  C   UNL A   1      31.362  30.575  25.766  1.00  0.00     0.275 C 
BRANCH  34  35
ATOM     35  O   UNL A   1      32.411  30.370  26.733  1.00  0.00    -0.458 OA
BRANCH  35  36
ATOM     36  C   UNL A   1      32.979  31.503  27.199  1.00  0.00     0.338 C 
ATOM     37  O   UNL A   1      32.447  32.595  27.341  1.00  0.00    -0.246 OA
BRANCH  36  38
ATOM     38  C   UNL A   1      34.367  31.264  27.616  1.00  0.00     0.060 A 
ATOM     39  C   UNL A   1      34.766  29.957  27.858  1.00  0.00     0.016 A 
ATOM     40  C   UNL A   1      35.189  32.319  27.998  1.00  0.00     0.016 A 
ATOM     41  C   UNL A   1      35.888  29.692  28.628  1.00  0.00     0.010 A 
ATOM     42  C   UNL A   1      36.406  32.043  28.635  1.00  0.00     0.010 A 
ATOM     43  C   UNL A   1      36.745  30.728  29.005  1.00  0.00    -0.014 A 
BRANCH  43  44
ATOM     44  C   UNL A   1      37.970  30.431  29.800  1.00  0.00     0.031 A 
ATOM     45  C   UNL A   1      39.076  29.603  29.201  1.00  0.00     0.074 A 
ATOM     46  C   UNL A   1      38.101  30.912  31.054  1.00  0.00     0.049 A 
ATOM     47  N   UNL A   1      40.108  29.051  29.787  1.00  0.00    -0.248 NA
ATOM     48  C   UNL A   1      39.003  29.345  27.753  1.00  0.00     0.031 C 
ATOM     49  C   UNL A   1      37.141  31.782  31.740  1.00  0.00     0.029 A 
ATOM     50  N   UNL A   1      39.099  30.737  31.981  1.00  0.00    -0.354 N 
ATOM     51  C   UNL A   1      40.768  28.332  28.797  1.00  0.00     0.074 A 
ATOM     52  C   UNL A   1      40.017  28.511  27.573  1.00  0.00     0.031 C 
ATOM     53  C   UNL A   1      37.610  32.091  32.956  1.00  0.00     0.029 A 
ATOM     54  C   UNL A   1      38.843  31.352  33.185  1.00  0.00     0.049 A 
ATOM     55  H   UNL A   1      39.919  30.221  31.802  1.00  0.00     0.167 HD
ATOM     56  C   UNL A   1      41.896  27.590  28.904  1.00  0.00     0.037 A 
ATOM     57  C   UNL A   1      39.486  31.279  34.364  1.00  0.00     0.037 A 
ATOM     58  C   UNL A   1      42.662  27.462  30.119  1.00  0.00     0.049 A 
ATOM     59  C   UNL A   1      40.698  30.402  34.474  1.00  0.00     0.074 A 
ATOM     60  C   UNL A   1      43.827  26.745  30.333  1.00  0.00     0.029 A 
ATOM     61  N   UNL A   1      42.346  28.078  31.320  1.00  0.00    -0.354 N 
ATOM     62  N   UNL A   1      41.281  29.680  33.548  1.00  0.00    -0.248 NA
ATOM     63  C   UNL A   1      41.332  30.315  35.796  1.00  0.00     0.031 C 
ATOM     64  C   UNL A   1      44.187  26.888  31.676  1.00  0.00     0.029 A 
ATOM     65  C   UNL A   1      43.281  27.741  32.284  1.00  0.00     0.049 A 
ATOM     66  H   UNL A   1      41.571  28.667  31.466  1.00  0.00     0.167 HD
ATOM     67  C   UNL A   1      42.363  29.071  34.168  1.00  0.00     0.074 A 
ATOM     68  C   UNL A   1      42.365  29.525  35.544  1.00  0.00     0.031 C 
ATOM     69  C   UNL A   1      43.272  28.213  33.647  1.00  0.00     0.037 A 
BRANCH  56  70
ATOM     70  C   UNL A   1      42.353  26.827  27.692  1.00  0.00     0.057 A 
ATOM     71  C   UNL A   1      42.000  25.490  27.468  1.00  0.00     0.134 A 
ATOM     72  C   UNL A   1      43.132  27.459  26.713  1.00  0.00     0.134 A 
ATOM     73  F   UNL A   1      41.268  24.820  28.370  1.00  0.00    -0.206 F 
ATOM     74  C   UNL A   1      42.423  24.804  26.327  1.00  0.00     0.040 A 
ATOM     75  C   UNL A   1      43.536  26.793  25.554  1.00  0.00     0.040 A 
ATOM     76  F   UNL A   1      43.503  28.740  26.858  1.00  0.00    -0.206 F 
ATOM     77  C   UNL A   1      43.186  25.459  25.361  1.00  0.00     0.006 A 
ENDBRANCH  56  70
BRANCH  57  78
ATOM     78  C   UNL A   1      38.959  32.010  35.547  1.00  0.00     0.057 A 
ATOM     79  C   UNL A   1      38.151  31.371  36.493  1.00  0.00     0.134 A 
ATOM     80  C   UNL A   1      39.246  33.365  35.759  1.00  0.00     0.134 A 
ATOM     81  F   UNL A   1      37.822  30.080  36.337  1.00  0.00    -0.206 F 
ATOM     82  C   UNL A   1      37.635  32.053  37.596  1.00  0.00     0.040 A 
ATOM     83  C   UNL A   1      38.765  34.052  36.873  1.00  0.00     0.040 A 
ATOM     84  F   UNL A   1      40.018  34.039  34.893  1.00  0.00    -0.206 F 
ATOM     85  C   UNL A   1      37.948  33.397  37.792  1.00  0.00     0.006 A 
ENDBRANCH  57  78
BRANCH  69  86
ATOM     86  C   UNL A   1      44.371  27.749  34.557  1.00  0.00     0.057 A 
ATOM     87  C   UNL A   1      44.253  26.591  35.335  1.00  0.00     0.134 A 
ATOM     88  C   UNL A   1      45.574  28.463  34.636  1.00  0.00     0.134 A 
ATOM     89  F   UNL A   1      43.119  25.872  35.317  1.00  0.00    -0.206 F 
ATOM     90  C   UNL A   1      45.283  26.174  36.179  1.00  0.00     0.040 A 
ATOM     91  C   UNL A   1      46.621  28.039  35.452  1.00  0.00     0.040 A 
ATOM     92  F   UNL A   1      45.754  29.577  33.909  1.00  0.00    -0.206 F 
ATOM     93  C   UNL A   1      46.474  26.895  36.233  1.00  0.00     0.006 A 
ENDBRANCH  69  86
ENDBRANCH  43  44
ENDBRANCH  36  38
ENDBRANCH  35  36
ENDBRANCH  34  35
ENDBRANCH  33  34
ENDBRANCH  32  33
ENDBRANCH   1  32
TORSDOF 17
ENDMDL
MODEL 2
REMARK VINA RESULT:     -12.5      3.992      8.011
REMARK SMILES O=C(CSc1ccc(Cl)cc1)Nc1cccc(C(=O)Nc2ccc(C(=O)OCCOC(=O)c3ccc(-c4c5nc(c(-c6c(F)cccc6F)c6ccc([nH]6)c(-c6c(F)cccc6F)c6nc(c(-c7c(F)cccc7F)c7ccc4[nH]7)C=C6)C=C5)cc3)cc2)c1
REMARK SMILES IDX 25 1 26 2 24 3 21 4 22 5 88 6 23 7 87 8 20 9 18 10 19 11
REMARK SMILES IDX 17 13 13 14 14 15 89 16 15 17 16 18 12 19 1 20 2 21 3 23
REMARK SMILES IDX 4 24 5 25 6 26 11 27 7 28 10 29 8 30 9 31 27 32 28 33 29 34
REMARK SMILES IDX 30 35 31 36 32 37 33 38 34 39 86 40 35 41 85 42 36 43 37 44
REMARK SMILES IDX 38 45 79 46 39 47 84 48 78 49 80 50 40 51 83 52 77 53 76 54
REMARK SMILES IDX 41 56 67 57 50 58 66 59 51 60 54 61 65 62 81 63 52 64 53 65
REMARK SMILES IDX 64 67 82 68 55 69 42 70 43 71 48 72 44 73 45 74 47 75 49 76
REMARK SMILES IDX 46 77 68 78 69 79 74 80 70 81 71 82 73 83 75 84 72 85 56 86
REMARK SMILES IDX 57 87 62 88 58 89 59 90 61 91 63 92 60 93
REMARK H PARENT 20 12 12 22 80 55 54 66
REMARK Flexibility Score: inf
ROOT
ATOM      1  C   UNL A   1      34.491  32.211  28.007  1.00  0.00     0.338 C 
ATOM      2  O   UNL A   1      35.493  32.691  27.507  1.00  0.00    -0.246 OA
ENDROOT
BRANCH   1   3
ATOM      3  C   UNL A   1      33.841  30.995  27.456  1.00  0.00     0.060 A 
ATOM      4  C   UNL A   1      32.281  28.721  27.041  1.00  0.00     0.041 A 
ATOM      5  C   UNL A   1      31.756  29.969  26.732  1.00  0.00     0.027 A 
ATOM      6  C   UNL A   1      33.636  28.592  27.373  1.00  0.00     0.027 A 
ATOM      7  C   UNL A   1      32.518  31.098  27.003  1.00  0.00     0.018 A 
ATOM      8  C   UNL A   1      34.427  29.734  27.571  1.00  0.00     0.018 A 
BRANCH   4   9
ATOM      9  N   UNL A   1      31.350  27.686  27.184  1.00  0.00    -0.322 N 
ATOM     10  C   UNL A   1      31.046  26.663  26.302  1.00  0.00     0.255 C 
ATOM     11  O   UNL A   1      30.158  25.864  26.604  1.00  0.00    -0.269 OA
ATOM     12  H   UNL A   1      30.840  27.685  28.026  1.00  0.00     0.170 HD
BRANCH  10  13
ATOM     13  C   UNL A   1      31.786  26.460  25.021  1.00  0.00     0.042 A 
ATOM     14  C   UNL A   1      33.540  25.414  23.703  1.00  0.00     0.041 A 
ATOM     15  C   UNL A   1      33.341  26.371  22.705  1.00  0.00     0.026 A 
ATOM     16  C   UNL A   1      32.694  25.411  24.814  1.00  0.00     0.040 A 
ATOM     17  C   UNL A   1      32.319  27.315  22.824  1.00  0.00     0.003 A 
ATOM     18  C   UNL A   1      31.558  27.374  23.990  1.00  0.00     0.014 A 
BRANCH  14  19
ATOM     19  N   UNL A   1      34.666  24.571  23.587  1.00  0.00    -0.325 N 
ATOM     20  O   UNL A   1      33.734  22.644  22.696  1.00  0.00    -0.274 OA
ATOM     21  C   UNL A   1      34.676  23.238  23.213  1.00  0.00     0.234 C 
ATOM     22  H   UNL A   1      35.539  24.975  23.797  1.00  0.00     0.169 HD
BRANCH  21  23
ATOM     23  C   UNL A   1      35.962  22.505  23.582  1.00  0.00     0.175 C 
BRANCH  23  24
ATOM     24  S   UNL A   1      35.970  21.892  25.294  1.00  0.00    -0.116 SA
BRANCH  24  25
ATOM     25  C   UNL A   1      35.172  20.328  25.010  1.00  0.00     0.008 A 
ATOM     26  C   UNL A   1      33.778  20.216  25.007  1.00  0.00     0.016 A 
ATOM     27  C   UNL A   1      35.960  19.202  24.757  1.00  0.00     0.016 A 
ATOM     28  C   UNL A   1      33.179  18.982  24.745  1.00  0.00     0.021 A 
ATOM     29  C   UNL A   1      35.363  17.973  24.484  1.00  0.00     0.021 A 
ATOM     30  C   UNL A   1      33.974  17.866  24.483  1.00  0.00     0.041 A 
ATOM     31  Cl  UNL A   1      33.239  16.346  24.160  1.00  0.00    -0.084 Cl
ENDBRANCH  24  25
ENDBRANCH  23  24
ENDBRANCH  21  23
ENDBRANCH  14  19
ENDBRANCH  10  13
ENDBRANCH   4   9
ENDBRANCH   1   3
BRANCH   1  32
ATOM     32  O   UNL A   1      33.833  32.729  29.074  1.00  0.00    -0.458 OA
BRANCH  32  33
ATOM     33  C   UNL A   1      34.441  33.920  29.624  1.00  0.00     0.275 C 
BRANCH  33  34
ATOM     34  C   UNL A   1      34.672  33.802  31.132  1.00  0.00     0.275 C 
BRANCH  34  35
ATOM     35  O   UNL A   1      34.680  32.425  31.559  1.00  0.00    -0.458 OA
BRANCH  35  36
ATOM     36  C   UNL A   1      35.698  32.096  32.383  1.00  0.00     0.338 C 
ATOM     37  O   UNL A   1      35.795  32.341  33.577  1.00  0.00    -0.246 OA
BRANCH  36  38
ATOM     38  C   UNL A   1      36.710  31.297  31.678  1.00  0.00     0.060 A 
ATOM     39  C   UNL A   1      37.577  30.520  32.433  1.00  0.00     0.016 A 
ATOM     40  C   UNL A   1      36.961  31.494  30.325  1.00  0.00     0.016 A 
ATOM     41  C   UNL A   1      38.780  30.081  31.900  1.00  0.00     0.010 A 
ATOM     42  C   UNL A   1      38.097  30.914  29.747  1.00  0.00     0.010 A 
ATOM     43  C   UNL A   1      39.049  30.244  30.539  1.00  0.00    -0.014 A 
BRANCH  43  44
ATOM     44  C   UNL A   1      40.326  29.737  29.965  1.00  0.00     0.031 A 
ATOM     45  C   UNL A   1      41.522  30.648  29.864  1.00  0.00     0.074 A 
ATOM     46  C   UNL A   1      40.425  28.458  29.546  1.00  0.00     0.049 A 
ATOM     47  N   UNL A   1      42.639  30.477  29.204  1.00  0.00    -0.248 NA
ATOM     48  C   UNL A   1      41.443  31.930  30.584  1.00  0.00     0.031 C 
ATOM     49  C   UNL A   1      39.371  27.444  29.643  1.00  0.00     0.029 A 
ATOM     50  N   UNL A   1      41.465  27.788  28.950  1.00  0.00    -0.354 N 
ATOM     51  C   UNL A   1      43.366  31.650  29.377  1.00  0.00     0.074 A 
ATOM     52  C   UNL A   1      42.561  32.529  30.197  1.00  0.00     0.031 C 
ATOM     53  C   UNL A   1      39.826  26.281  29.161  1.00  0.00     0.029 A 
ATOM     54  C   UNL A   1      41.159  26.490  28.614  1.00  0.00     0.049 A 
ATOM     55  H   UNL A   1      42.345  28.197  28.780  1.00  0.00     0.167 HD
ATOM     56  C   UNL A   1      44.592  31.961  28.892  1.00  0.00     0.037 A 
ATOM     57  C   UNL A   1      41.842  25.584  27.890  1.00  0.00     0.037 A 
ATOM     58  C   UNL A   1      45.405  31.056  28.119  1.00  0.00     0.049 A 
ATOM     59  C   UNL A   1      43.170  25.974  27.312  1.00  0.00     0.074 A 
ATOM     60  C   UNL A   1      46.666  31.267  27.589  1.00  0.00     0.029 A 
ATOM     61  N   UNL A   1      45.039  29.762  27.778  1.00  0.00    -0.354 N 
ATOM     62  N   UNL A   1      43.823  27.104  27.431  1.00  0.00    -0.248 NA
ATOM     63  C   UNL A   1      43.849  24.970  26.483  1.00  0.00     0.031 C 
ATOM     64  C   UNL A   1      47.042  30.118  26.886  1.00  0.00     0.029 A 
ATOM     65  C   UNL A   1      46.042  29.170  27.028  1.00  0.00     0.049 A 
ATOM     66  H   UNL A   1      44.192  29.329  28.031  1.00  0.00     0.167 HD
ATOM     67  C   UNL A   1      44.999  26.941  26.714  1.00  0.00     0.074 A 
ATOM     68  C   UNL A   1      44.977  25.594  26.179  1.00  0.00     0.031 C 
ATOM     69  C   UNL A   1      46.006  27.824  26.514  1.00  0.00     0.037 A 
BRANCH  56  70
ATOM     70  C   UNL A   1      45.117  33.346  29.147  1.00  0.00     0.057 A 
ATOM     71  C   UNL A   1      44.770  34.442  28.346  1.00  0.00     0.134 A 
ATOM     72  C   UNL A   1      45.958  33.592  30.242  1.00  0.00     0.134 A 
ATOM     73  F   UNL A   1      43.981  34.276  27.274  1.00  0.00    -0.206 F 
ATOM     74  C   UNL A   1      45.257  35.724  28.610  1.00  0.00     0.040 A 
ATOM     75  C   UNL A   1      46.428  34.875  30.533  1.00  0.00     0.040 A 
ATOM     76  F   UNL A   1      46.327  32.592  31.056  1.00  0.00    -0.206 F 
ATOM     77  C   UNL A   1      46.082  35.945  29.712  1.00  0.00     0.006 A 
ENDBRANCH  56  70
BRANCH  57  78
ATOM     78  C   UNL A   1      41.251  24.247  27.620  1.00  0.00     0.057 A 
ATOM     79  C   UNL A   1      40.221  24.084  26.687  1.00  0.00     0.134 A 
ATOM     80  C   UNL A   1      41.697  23.100  28.290  1.00  0.00     0.134 A 
ATOM     81  F   UNL A   1      39.734  25.146  26.027  1.00  0.00    -0.206 F 
ATOM     82  C   UNL A   1      39.646  22.836  26.441  1.00  0.00     0.040 A 
ATOM     83  C   UNL A   1      41.155  21.841  28.031  1.00  0.00     0.040 A 
ATOM     84  F   UNL A   1      42.685  23.183  29.194  1.00  0.00    -0.206 F 
ATOM     85  C   UNL A   1      40.119  21.709  27.110  1.00  0.00     0.006 A 
ENDBRANCH  57  78
BRANCH  69  86
ATOM     86  C   UNL A   1      47.188  27.343  25.723  1.00  0.00     0.057 A 
ATOM     87  C   UNL A   1      47.270  27.509  24.336  1.00  0.00     0.134 A 
ATOM     88  C   UNL A   1      48.267  26.726  26.368  1.00  0.00     0.134 A 
ATOM     89  F   UNL A   1      46.261  28.078  23.657  1.00  0.00    -0.206 F 
ATOM     90  C   UNL A   1      48.374  27.054  23.613  1.00  0.00     0.040 A 
ATOM     91  C   UNL A   1      49.388  26.295  25.661  1.00  0.00     0.040 A 
ATOM     92  F   UNL A   1      48.253  26.544  27.698  1.00  0.00    -0.206 F 
ATOM     93  C   UNL A   1      49.441  26.452  24.278  1.00  0.00     0.006 A 
ENDBRANCH  69  86
ENDBRANCH  43  44
ENDBRANCH  36  38
ENDBRANCH  35  36
ENDBRANCH  34  35
ENDBRANCH  33  34
ENDBRANCH  32  33
ENDBRANCH   1  32
TORSDOF 17
ENDMDL
MODEL 3
REMARK VINA RESULT:     -12.5      4.489     10.035
REMARK SMILES O=C(CSc1ccc(Cl)cc1)Nc1cccc(C(=O)Nc2ccc(C(=O)OCCOC(=O)c3ccc(-c4c5nc(c(-c6c(F)cccc6F)c6ccc([nH]6)c(-c6c(F)cccc6F)c6nc(c(-c7c(F)cccc7F)c7ccc4[nH]7)C=C6)C=C5)cc3)cc2)c1
REMARK SMILES IDX 25 1 26 2 24 3 21 4 22 5 88 6 23 7 87 8 20 9 18 10 19 11
REMARK SMILES IDX 17 13 13 14 14 15 89 16 15 17 16 18 12 19 1 20 2 21 3 23
REMARK SMILES IDX 4 24 5 25 6 26 11 27 7 28 10 29 8 30 9 31 27 32 28 33 29 34
REMARK SMILES IDX 30 35 31 36 32 37 33 38 34 39 86 40 35 41 85 42 36 43 37 44
REMARK SMILES IDX 38 45 79 46 39 47 84 48 78 49 80 50 40 51 83 52 77 53 76 54
REMARK SMILES IDX 41 56 67 57 50 58 66 59 51 60 54 61 65 62 81 63 52 64 53 65
REMARK SMILES IDX 64 67 82 68 55 69 42 70 43 71 48 72 44 73 45 74 47 75 49 76
REMARK SMILES IDX 46 77 68 78 69 79 74 80 70 81 71 82 73 83 75 84 72 85 56 86
REMARK SMILES IDX 57 87 62 88 58 89 59 90 61 91 63 92 60 93
REMARK H PARENT 20 12 12 22 80 55 54 66
REMARK Flexibility Score: inf
ROOT
ATOM      1  C   UNL A   1      34.433  22.944  25.729  1.00  0.00     0.338 C 
ATOM      2  O   UNL A   1      35.077  23.383  26.664  1.00  0.00    -0.246 OA
ENDROOT
BRANCH   1   3
ATOM      3  C   UNL A   1      33.001  23.286  25.530  1.00  0.00     0.060 A 
ATOM      4  C   UNL A   1      30.587  24.498  24.839  1.00  0.00     0.041 A 
ATOM      5  C   UNL A   1      31.221  23.677  23.916  1.00  0.00     0.027 A 
ATOM      6  C   UNL A   1      31.052  24.562  26.159  1.00  0.00     0.027 A 
ATOM      7  C   UNL A   1      32.455  23.130  24.248  1.00  0.00     0.018 A 
ATOM      8  C   UNL A   1      32.260  23.943  26.513  1.00  0.00     0.018 A 
BRANCH   4   9
ATOM      9  N   UNL A   1      29.619  25.365  24.319  1.00  0.00    -0.322 N 
ATOM     10  C   UNL A   1      29.762  26.675  23.898  1.00  0.00     0.255 C 
ATOM     11  O   UNL A   1      28.767  27.284  23.501  1.00  0.00    -0.269 OA
ATOM     12  H   UNL A   1      28.710  24.992  24.243  1.00  0.00     0.170 HD
BRANCH  10  13
ATOM     13  C   UNL A   1      31.086  27.367  23.856  1.00  0.00     0.042 A 
ATOM     14  C   UNL A   1      32.663  29.026  24.674  1.00  0.00     0.041 A 
ATOM     15  C   UNL A   1      33.427  28.847  23.518  1.00  0.00     0.026 A 
ATOM     16  C   UNL A   1      31.545  28.213  24.876  1.00  0.00     0.040 A 
ATOM     17  C   UNL A   1      33.072  27.880  22.577  1.00  0.00     0.003 A 
ATOM     18  C   UNL A   1      31.890  27.156  22.734  1.00  0.00     0.014 A 
BRANCH  14  19
ATOM     19  N   UNL A   1      32.998  30.103  25.521  1.00  0.00    -0.325 N 
ATOM     20  O   UNL A   1      33.953  29.012  27.330  1.00  0.00    -0.274 OA
ATOM     21  C   UNL A   1      33.500  30.028  26.810  1.00  0.00     0.234 C 
ATOM     22  H   UNL A   1      32.858  31.007  25.157  1.00  0.00     0.169 HD
BRANCH  21  23
ATOM     23  C   UNL A   1      33.365  31.325  27.600  1.00  0.00     0.175 C 
BRANCH  23  24
ATOM     24  S   UNL A   1      34.966  32.087  28.004  1.00  0.00    -0.116 SA
BRANCH  24  25
ATOM     25  C   UNL A   1      34.367  33.424  29.012  1.00  0.00     0.008 A 
ATOM     26  C   UNL A   1      34.670  33.496  30.375  1.00  0.00     0.016 A 
ATOM     27  C   UNL A   1      33.606  34.433  28.414  1.00  0.00     0.016 A 
ATOM     28  C   UNL A   1      34.216  34.577  31.134  1.00  0.00     0.021 A 
ATOM     29  C   UNL A   1      33.163  35.518  29.168  1.00  0.00     0.021 A 
ATOM     30  C   UNL A   1      33.466  35.584  30.526  1.00  0.00     0.041 A 
ATOM     31  Cl  UNL A   1      32.906  36.916  31.458  1.00  0.00    -0.084 Cl
ENDBRANCH  24  25
ENDBRANCH  23  24
ENDBRANCH  21  23
ENDBRANCH  14  19
ENDBRANCH  10  13
ENDBRANCH   4   9
ENDBRANCH   1   3
BRANCH   1  32
ATOM     32  O   UNL A   1      34.908  22.082  24.797  1.00  0.00    -0.458 OA
BRANCH  32  33
ATOM     33  C   UNL A   1      35.212  20.763  25.309  1.00  0.00     0.275 C 
BRANCH  33  34
ATOM     34  C   UNL A   1      36.636  20.327  24.958  1.00  0.00     0.275 C 
BRANCH  34  35
ATOM     35  O   UNL A   1      37.577  21.406  25.128  1.00  0.00    -0.458 OA
BRANCH  35  36
ATOM     36  C   UNL A   1      38.723  21.062  25.753  1.00  0.00     0.338 C 
ATOM     37  O   UNL A   1      39.303  19.987  25.701  1.00  0.00    -0.246 OA
BRANCH  36  38
ATOM     38  C   UNL A   1      39.285  22.202  26.490  1.00  0.00     0.060 A 
ATOM     39  C   UNL A   1      38.805  23.472  26.202  1.00  0.00     0.016 A 
ATOM     40  C   UNL A   1      40.427  22.056  27.270  1.00  0.00     0.016 A 
ATOM     41  C   UNL A   1      39.543  24.599  26.534  1.00  0.00     0.010 A 
ATOM     42  C   UNL A   1      41.085  23.199  27.742  1.00  0.00     0.010 A 
ATOM     43  C   UNL A   1      40.681  24.485  27.336  1.00  0.00    -0.014 A 
BRANCH  43  44
ATOM     44  C   UNL A   1      41.448  25.703  27.720  1.00  0.00     0.031 A 
ATOM     45  C   UNL A   1      40.823  26.733  28.625  1.00  0.00     0.074 A 
ATOM     46  C   UNL A   1      42.707  25.884  27.272  1.00  0.00     0.049 A 
ATOM     47  N   UNL A   1      41.224  27.949  28.896  1.00  0.00    -0.248 NA
ATOM     48  C   UNL A   1      39.571  26.354  29.299  1.00  0.00     0.031 C 
ATOM     49  C   UNL A   1      43.463  24.940  26.444  1.00  0.00     0.029 A 
ATOM     50  N   UNL A   1      43.580  26.930  27.451  1.00  0.00    -0.354 N 
ATOM     51  C   UNL A   1      40.247  28.498  29.717  1.00  0.00     0.074 A 
ATOM     52  C   UNL A   1      39.227  27.487  29.895  1.00  0.00     0.031 C 
ATOM     53  C   UNL A   1      44.689  25.430  26.217  1.00  0.00     0.029 A 
ATOM     54  C   UNL A   1      44.771  26.769  26.781  1.00  0.00     0.049 A 
ATOM     55  H   UNL A   1      43.374  27.718  28.004  1.00  0.00     0.167 HD
ATOM     56  C   UNL A   1      40.206  29.735  30.269  1.00  0.00     0.037 A 
ATOM     57  C   UNL A   1      45.790  27.624  26.582  1.00  0.00     0.037 A 
ATOM     58  C   UNL A   1      41.253  30.714  30.125  1.00  0.00     0.049 A 
ATOM     59  C   UNL A   1      45.694  29.009  27.151  1.00  0.00     0.074 A 
ATOM     60  C   UNL A   1      41.318  31.993  30.652  1.00  0.00     0.029 A 
ATOM     61  N   UNL A   1      42.426  30.517  29.412  1.00  0.00    -0.354 N 
ATOM     62  N   UNL A   1      44.740  29.539  27.877  1.00  0.00    -0.248 NA
ATOM     63  C   UNL A   1      46.807  29.921  26.860  1.00  0.00     0.031 C 
ATOM     64  C   UNL A   1      42.506  32.585  30.217  1.00  0.00     0.029 A 
ATOM     65  C   UNL A   1      43.211  31.657  29.468  1.00  0.00     0.049 A 
ATOM     66  H   UNL A   1      42.665  29.690  28.935  1.00  0.00     0.167 HD
ATOM     67  C   UNL A   1      45.147  30.837  28.149  1.00  0.00     0.074 A 
ATOM     68  C   UNL A   1      46.443  31.007  27.525  1.00  0.00     0.031 C 
ATOM     69  C   UNL A   1      44.505  31.803  28.850  1.00  0.00     0.037 A 
BRANCH  56  70
ATOM     70  C   UNL A   1      38.978  30.117  31.046  1.00  0.00     0.057 A 
ATOM     71  C   UNL A   1      38.898  29.986  32.439  1.00  0.00     0.134 A 
ATOM     72  C   UNL A   1      37.866  30.662  30.389  1.00  0.00     0.134 A 
ATOM     73  F   UNL A   1      39.919  29.459  33.131  1.00  0.00    -0.206 F 
ATOM     74  C   UNL A   1      37.753  30.361  33.144  1.00  0.00     0.040 A 
ATOM     75  C   UNL A   1      36.726  31.068  31.086  1.00  0.00     0.040 A 
ATOM     76  F   UNL A   1      37.874  30.822  29.057  1.00  0.00    -0.206 F 
ATOM     77  C   UNL A   1      36.665  30.912  32.468  1.00  0.00     0.006 A 
ENDBRANCH  56  70
BRANCH  57  78
ATOM     78  C   UNL A   1      46.957  27.214  25.757  1.00  0.00     0.057 A 
ATOM     79  C   UNL A   1      48.025  26.503  26.314  1.00  0.00     0.134 A 
ATOM     80  C   UNL A   1      47.036  27.525  24.393  1.00  0.00     0.134 A 
ATOM     81  F   UNL A   1      48.021  26.193  27.619  1.00  0.00    -0.206 F 
ATOM     82  C   UNL A   1      49.134  26.132  25.552  1.00  0.00     0.040 A 
ATOM     83  C   UNL A   1      48.122  27.132  23.611  1.00  0.00     0.040 A 
ATOM     84  F   UNL A   1      46.044  28.202  23.792  1.00  0.00    -0.206 F 
ATOM     85  C   UNL A   1      49.180  26.440  24.194  1.00  0.00     0.006 A 
ENDBRANCH  57  78
BRANCH  69  86
ATOM     86  C   UNL A   1      45.221  33.111  29.019  1.00  0.00     0.057 A 
ATOM     87  C   UNL A   1      46.092  33.347  30.090  1.00  0.00     0.134 A 
ATOM     88  C   UNL A   1      45.050  34.138  28.083  1.00  0.00     0.134 A 
ATOM     89  F   UNL A   1      46.285  32.409  31.030  1.00  0.00    -0.206 F 
ATOM     90  C   UNL A   1      46.749  34.570  30.236  1.00  0.00     0.040 A 
ATOM     91  C   UNL A   1      45.724  35.352  28.202  1.00  0.00     0.040 A 
ATOM     92  F   UNL A   1      44.235  33.972  27.030  1.00  0.00    -0.206 F 
ATOM     93  C   UNL A   1      46.571  35.573  29.286  1.00  0.00     0.006 A 
ENDBRANCH  69  86
ENDBRANCH  43  44
ENDBRANCH  36  38
ENDBRANCH  35  36
ENDBRANCH  34  35
ENDBRANCH  33  34
ENDBRANCH  32  33
ENDBRANCH   1  32
TORSDOF 17
ENDMDL
