MODEL 1
REMARK VINA RESULT:     -11.6      0.000      0.000
REMARK SMILES CC1(C)[C@@]2(CC[C@@H]2C(=O)NCc2ccco2)[C@]1(C)C(=O)OCCOC(=O)c1ccc(-c2c3nc(c(-c4c(F)cccc4F)c4ccc([nH]4)c(-c4c(F)cccc4F)c4nc(c(-c5c(F)cccc5F)c5ccc2[nH]5)C=C4)C=C3)cc1
REMARK SMILES IDX 22 1 21 2 19 3 20 4 17 5 1 6 2 7 3 8 4 9 18 10 5 11 7 12
REMARK SMILES IDX 6 13 8 14 9 15 10 16 11 18 12 19 13 20 16 21 14 22 15 23
REMARK SMILES IDX 23 24 24 25 25 26 26 27 27 28 28 29 80 30 29 31 79 32 30 33
REMARK SMILES IDX 31 34 32 35 73 36 33 37 78 38 72 39 74 40 34 41 77 42 71 43
REMARK SMILES IDX 70 44 35 46 61 47 44 48 60 49 45 50 48 51 59 52 75 53 46 54
REMARK SMILES IDX 47 55 58 57 76 58 49 59 36 60 37 61 42 62 38 63 39 64 41 65
REMARK SMILES IDX 43 66 40 67 62 68 63 69 68 70 64 71 65 72 67 73 69 74 66 75
REMARK SMILES IDX 50 76 51 77 56 78 52 79 53 80 55 81 57 82 54 83
REMARK H PARENT 10 17 74 45 48 56
REMARK Flexibility Score: inf
ROOT
ATOM      1  C   UNL A   1      35.230  21.701  25.607  1.00  0.00     0.274 C 
ENDROOT
BRANCH   1   2
ATOM      2  O   UNL A   1      35.226  22.986  24.950  1.00  0.00    -0.462 OA
BRANCH   2   3
ATOM      3  C   UNL A   1      34.467  23.025  23.821  1.00  0.00     0.313 C 
ATOM      4  O   UNL A   1      34.927  23.158  22.697  1.00  0.00    -0.252 OA
BRANCH   3   5
ATOM      5  C   UNL A   1      32.964  22.871  23.994  1.00  0.00     0.078 C 
ATOM      6  C   UNL A   1      32.529  25.357  23.315  1.00  0.00     0.013 C 
ATOM      7  C   UNL A   1      31.966  24.010  23.740  1.00  0.00    -0.011 C 
ATOM      8  C   UNL A   1      30.646  23.733  23.055  1.00  0.00     0.013 C 
ATOM      9  C   UNL A   1      32.169  23.505  25.157  1.00  0.00     0.005 C 
ATOM     10  C   UNL A   1      32.509  21.481  23.504  1.00  0.00     0.025 C 
ATOM     11  C   UNL A   1      31.414  22.568  26.044  1.00  0.00     0.010 C 
ATOM     12  C   UNL A   1      32.498  24.425  26.299  1.00  0.00     0.086 C 
ATOM     13  C   UNL A   1      31.991  23.329  27.236  1.00  0.00     0.015 C 
BRANCH  12  14
ATOM     14  C   UNL A   1      31.820  25.824  26.415  1.00  0.00     0.224 C 
ATOM     15  O   UNL A   1      30.589  25.934  26.553  1.00  0.00    -0.275 OA
ATOM     16  N   UNL A   1      32.487  27.024  26.299  1.00  0.00    -0.349 N 
ATOM     17  H   UNL A   1      31.884  27.789  26.162  1.00  0.00     0.163 HD
BRANCH  16  18
ATOM     18  C   UNL A   1      33.885  27.400  26.337  1.00  0.00     0.191 C 
BRANCH  18  19
ATOM     19  C   UNL A   1      34.074  28.791  26.825  1.00  0.00     0.122 A 
ATOM     20  C   UNL A   1      35.136  29.469  27.394  1.00  0.00     0.047 A 
ATOM     21  O   UNL A   1      32.978  29.608  26.794  1.00  0.00    -0.467 OA
ATOM     22  C   UNL A   1      34.674  30.771  27.701  1.00  0.00     0.042 A 
ATOM     23  C   UNL A   1      33.353  30.803  27.324  1.00  0.00     0.195 A 
ENDBRANCH  18  19
ENDBRANCH  16  18
ENDBRANCH  12  14
ENDBRANCH   3   5
ENDBRANCH   2   3
ENDBRANCH   1   2
BRANCH   1  24
ATOM     24  C   UNL A   1      36.265  20.762  24.991  1.00  0.00     0.275 C 
BRANCH  24  25
ATOM     25  O   UNL A   1      37.491  21.473  24.751  1.00  0.00    -0.458 OA
BRANCH  25  26
ATOM     26  C   UNL A   1      38.527  21.114  25.542  1.00  0.00     0.338 C 
ATOM     27  O   UNL A   1      39.012  20.001  25.663  1.00  0.00    -0.246 OA
BRANCH  26  28
ATOM     28  C   UNL A   1      39.064  22.288  26.260  1.00  0.00     0.060 A 
ATOM     29  C   UNL A   1      38.557  23.567  26.031  1.00  0.00     0.016 A 
ATOM     30  C   UNL A   1      40.203  22.127  27.050  1.00  0.00     0.016 A 
ATOM     31  C   UNL A   1      39.259  24.683  26.487  1.00  0.00     0.010 A 
ATOM     32  C   UNL A   1      40.848  23.246  27.587  1.00  0.00     0.010 A 
ATOM     33  C   UNL A   1      40.417  24.543  27.266  1.00  0.00    -0.014 A 
BRANCH  33  34
ATOM     34  C   UNL A   1      41.207  25.733  27.697  1.00  0.00     0.031 A 
ATOM     35  C   UNL A   1      40.574  26.795  28.563  1.00  0.00     0.074 A 
ATOM     36  C   UNL A   1      42.497  25.873  27.331  1.00  0.00     0.049 A 
ATOM     37  N   UNL A   1      41.002  28.002  28.841  1.00  0.00    -0.248 NA
ATOM     38  C   UNL A   1      39.288  26.459  29.192  1.00  0.00     0.031 C 
ATOM     39  C   UNL A   1      43.271  24.905  26.554  1.00  0.00     0.029 A 
ATOM     40  N   UNL A   1      43.387  26.894  27.567  1.00  0.00    -0.354 N 
ATOM     41  C   UNL A   1      40.008  28.591  29.616  1.00  0.00     0.074 A 
ATOM     42  C   UNL A   1      38.960  27.605  29.773  1.00  0.00     0.031 C 
ATOM     43  C   UNL A   1      44.524  25.357  26.407  1.00  0.00     0.029 A 
ATOM     44  C   UNL A   1      44.613  26.696  26.979  1.00  0.00     0.049 A 
ATOM     45  H   UNL A   1      43.167  27.689  28.104  1.00  0.00     0.167 HD
ATOM     46  C   UNL A   1      39.971  29.840  30.140  1.00  0.00     0.037 A 
ATOM     47  C   UNL A   1      45.672  27.515  26.852  1.00  0.00     0.037 A 
ATOM     48  C   UNL A   1      41.038  30.802  30.025  1.00  0.00     0.049 A 
ATOM     49  C   UNL A   1      45.596  28.909  27.398  1.00  0.00     0.074 A 
ATOM     50  C   UNL A   1      41.094  32.097  30.515  1.00  0.00     0.029 A 
ATOM     51  N   UNL A   1      42.248  30.566  29.389  1.00  0.00    -0.354 N 
ATOM     52  N   UNL A   1      44.615  29.488  28.046  1.00  0.00    -0.248 NA
ATOM     53  C   UNL A   1      46.763  29.773  27.172  1.00  0.00     0.031 C 
ATOM     54  C   UNL A   1      42.325  32.653  30.150  1.00  0.00     0.029 A 
ATOM     55  C   UNL A   1      43.053  31.691  29.469  1.00  0.00     0.049 A 
ATOM     56  H   UNL A   1      42.498  29.724  28.946  1.00  0.00     0.167 HD
ATOM     57  C   UNL A   1      45.044  30.783  28.306  1.00  0.00     0.074 A 
ATOM     58  C   UNL A   1      46.385  30.895  27.769  1.00  0.00     0.031 C 
ATOM     59  C   UNL A   1      44.383  31.790  28.927  1.00  0.00     0.037 A 
BRANCH  46  60
ATOM     60  C   UNL A   1      38.717  30.258  30.853  1.00  0.00     0.057 A 
ATOM     61  C   UNL A   1      38.529  30.047  32.224  1.00  0.00     0.134 A 
ATOM     62  C   UNL A   1      37.694  30.917  30.156  1.00  0.00     0.134 A 
ATOM     63  F   UNL A   1      39.464  29.412  32.948  1.00  0.00    -0.206 F 
ATOM     64  C   UNL A   1      37.359  30.454  32.871  1.00  0.00     0.040 A 
ATOM     65  C   UNL A   1      36.532  31.350  30.796  1.00  0.00     0.040 A 
ATOM     66  F   UNL A   1      37.813  31.159  28.842  1.00  0.00    -0.206 F 
ATOM     67  C   UNL A   1      36.360  31.113  32.157  1.00  0.00     0.006 A 
ENDBRANCH  46  60
BRANCH  47  68
ATOM     68  C   UNL A   1      46.870  27.050  26.108  1.00  0.00     0.057 A 
ATOM     69  C   UNL A   1      47.005  27.281  24.736  1.00  0.00     0.134 A 
ATOM     70  C   UNL A   1      47.920  26.389  26.760  1.00  0.00     0.134 A 
ATOM     71  F   UNL A   1      46.023  27.888  24.052  1.00  0.00    -0.206 F 
ATOM     72  C   UNL A   1      48.142  26.872  24.036  1.00  0.00     0.040 A 
ATOM     73  C   UNL A   1      49.074  26.001  26.081  1.00  0.00     0.040 A 
ATOM     74  F   UNL A   1      47.850  26.142  28.077  1.00  0.00    -0.206 F 
ATOM     75  C   UNL A   1      49.185  26.240  24.712  1.00  0.00     0.006 A 
ENDBRANCH  47  68
BRANCH  59  76
ATOM     76  C   UNL A   1      45.113  33.090  29.075  1.00  0.00     0.057 A 
ATOM     77  C   UNL A   1      45.946  33.347  30.172  1.00  0.00     0.134 A 
ATOM     78  C   UNL A   1      44.996  34.090  28.101  1.00  0.00     0.134 A 
ATOM     79  F   UNL A   1      46.085  32.435  31.147  1.00  0.00    -0.206 F 
ATOM     80  C   UNL A   1      46.620  34.560  30.306  1.00  0.00     0.040 A 
ATOM     81  C   UNL A   1      45.684  35.299  28.213  1.00  0.00     0.040 A 
ATOM     82  F   UNL A   1      44.219  33.903  27.024  1.00  0.00    -0.206 F 
ATOM     83  C   UNL A   1      46.493  35.539  29.322  1.00  0.00     0.006 A 
ENDBRANCH  59  76
ENDBRANCH  33  34
ENDBRANCH  26  28
ENDBRANCH  25  26
ENDBRANCH  24  25
ENDBRANCH   1  24
TORSDOF 14
ENDMDL
MODEL 2
REMARK VINA RESULT:     -11.5      1.663      2.602
REMARK SMILES CC1(C)[C@@]2(CC[C@@H]2C(=O)NCc2ccco2)[C@]1(C)C(=O)OCCOC(=O)c1ccc(-c2c3nc(c(-c4c(F)cccc4F)c4ccc([nH]4)c(-c4c(F)cccc4F)c4nc(c(-c5c(F)cccc5F)c5ccc2[nH]5)C=C4)C=C3)cc1
REMARK SMILES IDX 22 1 21 2 19 3 20 4 17 5 1 6 2 7 3 8 4 9 18 10 5 11 7 12
REMARK SMILES IDX 6 13 8 14 9 15 10 16 11 18 12 19 13 20 16 21 14 22 15 23
REMARK SMILES IDX 23 24 24 25 25 26 26 27 27 28 28 29 80 30 29 31 79 32 30 33
REMARK SMILES IDX 31 34 32 35 73 36 33 37 78 38 72 39 74 40 34 41 77 42 71 43
REMARK SMILES IDX 70 44 35 46 61 47 44 48 60 49 45 50 48 51 59 52 75 53 46 54
REMARK SMILES IDX 47 55 58 57 76 58 49 59 36 60 37 61 42 62 38 63 39 64 41 65
REMARK SMILES IDX 43 66 40 67 62 68 63 69 68 70 64 71 65 72 67 73 69 74 66 75
REMARK SMILES IDX 50 76 51 77 56 78 52 79 53 80 55 81 57 82 54 83
REMARK H PARENT 10 17 74 45 48 56
REMARK Flexibility Score: inf
ROOT
ATOM      1  C   UNL A   1      35.502  21.421  25.845  1.00  0.00     0.274 C 
ENDROOT
BRANCH   1   2
ATOM      2  O   UNL A   1      34.523  22.078  25.011  1.00  0.00    -0.462 OA
BRANCH   2   3
ATOM      3  C   UNL A   1      34.502  23.431  25.149  1.00  0.00     0.313 C 
ATOM      4  O   UNL A   1      35.505  24.127  25.181  1.00  0.00    -0.252 OA
BRANCH   3   5
ATOM      5  C   UNL A   1      33.136  24.094  25.248  1.00  0.00     0.078 C 
ATOM      6  C   UNL A   1      32.580  23.551  22.753  1.00  0.00     0.013 C 
ATOM      7  C   UNL A   1      32.146  24.162  24.075  1.00  0.00    -0.011 C 
ATOM      8  C   UNL A   1      30.666  23.956  24.310  1.00  0.00     0.013 C 
ATOM      9  C   UNL A   1      32.790  25.442  24.579  1.00  0.00     0.005 C 
ATOM     10  C   UNL A   1      32.500  23.806  26.624  1.00  0.00     0.025 C 
ATOM     11  C   UNL A   1      32.340  26.544  25.483  1.00  0.00     0.010 C 
ATOM     12  C   UNL A   1      33.505  26.395  23.664  1.00  0.00     0.086 C 
ATOM     13  C   UNL A   1      33.301  27.466  24.735  1.00  0.00     0.015 C 
BRANCH  12  14
ATOM     14  C   UNL A   1      32.949  26.703  22.241  1.00  0.00     0.224 C 
ATOM     15  O   UNL A   1      33.653  26.551  21.227  1.00  0.00    -0.275 OA
ATOM     16  N   UNL A   1      31.700  27.226  21.990  1.00  0.00    -0.349 N 
ATOM     17  H   UNL A   1      31.603  27.574  21.074  1.00  0.00     0.163 HD
BRANCH  16  18
ATOM     18  C   UNL A   1      30.498  27.374  22.784  1.00  0.00     0.191 C 
BRANCH  18  19
ATOM     19  C   UNL A   1      30.014  28.779  22.804  1.00  0.00     0.122 A 
ATOM     20  C   UNL A   1      29.880  29.731  23.798  1.00  0.00     0.047 A 
ATOM     21  O   UNL A   1      29.518  29.275  21.630  1.00  0.00    -0.467 OA
ATOM     22  C   UNL A   1      29.297  30.872  23.196  1.00  0.00     0.042 A 
ATOM     23  C   UNL A   1      29.089  30.541  21.879  1.00  0.00     0.195 A 
ENDBRANCH  18  19
ENDBRANCH  16  18
ENDBRANCH  12  14
ENDBRANCH   3   5
ENDBRANCH   2   3
ENDBRANCH   1   2
BRANCH   1  24
ATOM     24  C   UNL A   1      36.473  20.587  25.013  1.00  0.00     0.275 C 
BRANCH  24  25
ATOM     25  O   UNL A   1      37.688  21.323  24.793  1.00  0.00    -0.458 OA
BRANCH  25  26
ATOM     26  C   UNL A   1      38.716  20.992  25.606  1.00  0.00     0.338 C 
ATOM     27  O   UNL A   1      39.207  19.885  25.761  1.00  0.00    -0.246 OA
BRANCH  26  28
ATOM     28  C   UNL A   1      39.237  22.187  26.301  1.00  0.00     0.060 A 
ATOM     29  C   UNL A   1      38.685  23.448  26.077  1.00  0.00     0.016 A 
ATOM     30  C   UNL A   1      40.401  22.066  27.060  1.00  0.00     0.016 A 
ATOM     31  C   UNL A   1      39.365  24.589  26.505  1.00  0.00     0.010 A 
ATOM     32  C   UNL A   1      41.027  23.209  27.571  1.00  0.00     0.010 A 
ATOM     33  C   UNL A   1      40.548  24.490  27.253  1.00  0.00    -0.014 A 
BRANCH  33  34
ATOM     34  C   UNL A   1      41.313  25.706  27.654  1.00  0.00     0.031 A 
ATOM     35  C   UNL A   1      40.661  26.771  28.502  1.00  0.00     0.074 A 
ATOM     36  C   UNL A   1      42.596  25.869  27.275  1.00  0.00     0.049 A 
ATOM     37  N   UNL A   1      41.063  27.993  28.752  1.00  0.00    -0.248 NA
ATOM     38  C   UNL A   1      39.388  26.418  29.148  1.00  0.00     0.031 C 
ATOM     39  C   UNL A   1      43.387  24.903  26.512  1.00  0.00     0.029 A 
ATOM     40  N   UNL A   1      43.464  26.914  27.484  1.00  0.00    -0.354 N 
ATOM     41  C   UNL A   1      40.060  28.574  29.523  1.00  0.00     0.074 A 
ATOM     42  C   UNL A   1      39.037  27.568  29.708  1.00  0.00     0.031 C 
ATOM     43  C   UNL A   1      44.628  25.381  26.346  1.00  0.00     0.029 A 
ATOM     44  C   UNL A   1      44.690  26.732  26.891  1.00  0.00     0.049 A 
ATOM     45  H   UNL A   1      43.229  27.714  28.006  1.00  0.00     0.167 HD
ATOM     46  C   UNL A   1      39.999  29.833  30.022  1.00  0.00     0.037 A 
ATOM     47  C   UNL A   1      45.729  27.574  26.739  1.00  0.00     0.037 A 
ATOM     48  C   UNL A   1      41.042  30.816  29.879  1.00  0.00     0.049 A 
ATOM     49  C   UNL A   1      45.624  28.976  27.257  1.00  0.00     0.074 A 
ATOM     50  C   UNL A   1      41.071  32.122  30.342  1.00  0.00     0.029 A 
ATOM     51  N   UNL A   1      42.253  30.595  29.239  1.00  0.00    -0.354 N 
ATOM     52  N   UNL A   1      44.635  29.546  27.901  1.00  0.00    -0.248 NA
ATOM     53  C   UNL A   1      46.769  29.862  27.005  1.00  0.00     0.031 C 
ATOM     54  C   UNL A   1      42.286  32.699  29.957  1.00  0.00     0.029 A 
ATOM     55  C   UNL A   1      43.031  31.740  29.290  1.00  0.00     0.049 A 
ATOM     56  H   UNL A   1      42.519  29.750  28.811  1.00  0.00     0.167 HD
ATOM     57  C   UNL A   1      45.035  30.855  28.131  1.00  0.00     0.074 A 
ATOM     58  C   UNL A   1      46.369  30.987  27.581  1.00  0.00     0.031 C 
ATOM     59  C   UNL A   1      44.355  31.859  28.736  1.00  0.00     0.037 A 
BRANCH  46  60
ATOM     60  C   UNL A   1      38.740  30.236  30.735  1.00  0.00     0.057 A 
ATOM     61  C   UNL A   1      37.645  30.795  30.064  1.00  0.00     0.134 A 
ATOM     62  C   UNL A   1      38.612  30.027  32.115  1.00  0.00     0.134 A 
ATOM     63  F   UNL A   1      37.706  31.033  28.745  1.00  0.00    -0.206 F 
ATOM     64  C   UNL A   1      36.478  31.152  30.745  1.00  0.00     0.040 A 
ATOM     65  C   UNL A   1      37.442  30.357  32.802  1.00  0.00     0.040 A 
ATOM     66  F   UNL A   1      39.619  29.487  32.818  1.00  0.00    -0.206 F 
ATOM     67  C   UNL A   1      36.373  30.928  32.116  1.00  0.00     0.006 A 
ENDBRANCH  46  60
BRANCH  47  68
ATOM     68  C   UNL A   1      46.932  27.121  25.996  1.00  0.00     0.057 A 
ATOM     69  C   UNL A   1      47.053  27.329  24.618  1.00  0.00     0.134 A 
ATOM     70  C   UNL A   1      48.000  26.496  26.652  1.00  0.00     0.134 A 
ATOM     71  F   UNL A   1      46.054  27.901  23.931  1.00  0.00    -0.206 F 
ATOM     72  C   UNL A   1      48.195  26.932  23.919  1.00  0.00     0.040 A 
ATOM     73  C   UNL A   1      49.158  26.121  25.972  1.00  0.00     0.040 A 
ATOM     74  F   UNL A   1      47.945  26.271  27.974  1.00  0.00    -0.206 F 
ATOM     75  C   UNL A   1      49.255  26.336  24.599  1.00  0.00     0.006 A 
ENDBRANCH  47  68
BRANCH  59  76
ATOM     76  C   UNL A   1      45.055  33.178  28.852  1.00  0.00     0.057 A 
ATOM     77  C   UNL A   1      44.899  34.184  27.890  1.00  0.00     0.134 A 
ATOM     78  C   UNL A   1      45.881  33.454  29.950  1.00  0.00     0.134 A 
ATOM     79  F   UNL A   1      44.134  33.974  26.807  1.00  0.00    -0.206 F 
ATOM     80  C   UNL A   1      45.556  35.409  28.003  1.00  0.00     0.040 A 
ATOM     81  C   UNL A   1      46.526  34.684  30.085  1.00  0.00     0.040 A 
ATOM     82  F   UNL A   1      46.068  32.535  30.909  1.00  0.00    -0.206 F 
ATOM     83  C   UNL A   1      46.369  35.663  29.106  1.00  0.00     0.006 A 
ENDBRANCH  59  76
ENDBRANCH  33  34
ENDBRANCH  26  28
ENDBRANCH  25  26
ENDBRANCH  24  25
ENDBRANCH   1  24
TORSDOF 14
ENDMDL
MODEL 3
REMARK VINA RESULT:     -11.5      3.749      8.877
REMARK SMILES CC1(C)[C@@]2(CC[C@@H]2C(=O)NCc2ccco2)[C@]1(C)C(=O)OCCOC(=O)c1ccc(-c2c3nc(c(-c4c(F)cccc4F)c4ccc([nH]4)c(-c4c(F)cccc4F)c4nc(c(-c5c(F)cccc5F)c5ccc2[nH]5)C=C4)C=C3)cc1
REMARK SMILES IDX 22 1 21 2 19 3 20 4 17 5 1 6 2 7 3 8 4 9 18 10 5 11 7 12
REMARK SMILES IDX 6 13 8 14 9 15 10 16 11 18 12 19 13 20 16 21 14 22 15 23
REMARK SMILES IDX 23 24 24 25 25 26 26 27 27 28 28 29 80 30 29 31 79 32 30 33
REMARK SMILES IDX 31 34 32 35 73 36 33 37 78 38 72 39 74 40 34 41 77 42 71 43
REMARK SMILES IDX 70 44 35 46 61 47 44 48 60 49 45 50 48 51 59 52 75 53 46 54
REMARK SMILES IDX 47 55 58 57 76 58 49 59 36 60 37 61 42 62 38 63 39 64 41 65
REMARK SMILES IDX 43 66 40 67 62 68 63 69 68 70 64 71 65 72 67 73 69 74 66 75
REMARK SMILES IDX 50 76 51 77 56 78 52 79 53 80 55 81 57 82 54 83
REMARK H PARENT 10 17 74 45 48 56
REMARK Flexibility Score: inf
ROOT
ATOM      1  C   UNL A   1      32.452  29.320  24.879  1.00  0.00     0.274 C 
ENDROOT
BRANCH   1   2
ATOM      2  O   UNL A   1      31.942  27.990  25.118  1.00  0.00    -0.462 OA
BRANCH   2   3
ATOM      3  C   UNL A   1      32.911  27.040  25.221  1.00  0.00     0.313 C 
ATOM      4  O   UNL A   1      33.874  27.129  25.967  1.00  0.00    -0.252 OA
BRANCH   3   5
ATOM      5  C   UNL A   1      32.752  25.796  24.360  1.00  0.00     0.078 C 
ATOM      6  C   UNL A   1      30.641  25.022  25.692  1.00  0.00     0.013 C 
ATOM      7  C   UNL A   1      31.624  24.773  24.560  1.00  0.00    -0.011 C 
ATOM      8  C   UNL A   1      30.931  24.154  23.366  1.00  0.00     0.013 C 
ATOM      9  C   UNL A   1      33.056  24.367  24.860  1.00  0.00     0.005 C 
ATOM     10  C   UNL A   1      33.091  26.116  22.889  1.00  0.00     0.025 C 
ATOM     11  C   UNL A   1      34.096  23.600  24.109  1.00  0.00     0.010 C 
ATOM     12  C   UNL A   1      33.460  23.758  26.173  1.00  0.00     0.086 C 
ATOM     13  C   UNL A   1      34.697  23.214  25.460  1.00  0.00     0.015 C 
BRANCH  12  14
ATOM     14  C   UNL A   1      32.540  22.721  26.886  1.00  0.00     0.224 C 
ATOM     15  O   UNL A   1      32.183  22.881  28.067  1.00  0.00    -0.275 OA
ATOM     16  N   UNL A   1      32.119  21.537  26.323  1.00  0.00    -0.349 N 
ATOM     17  H   UNL A   1      31.751  20.905  26.982  1.00  0.00     0.163 HD
BRANCH  16  18
ATOM     18  C   UNL A   1      32.102  21.023  24.969  1.00  0.00     0.191 C 
BRANCH  18  19
ATOM     19  C   UNL A   1      32.793  19.711  24.864  1.00  0.00     0.122 A 
ATOM     20  C   UNL A   1      34.083  19.333  24.537  1.00  0.00     0.047 A 
ATOM     21  O   UNL A   1      32.027  18.595  25.054  1.00  0.00    -0.467 OA
ATOM     22  C   UNL A   1      34.111  17.918  24.554  1.00  0.00     0.042 A 
ATOM     23  C   UNL A   1      32.835  17.517  24.866  1.00  0.00     0.195 A 
ENDBRANCH  18  19
ENDBRANCH  16  18
ENDBRANCH  12  14
ENDBRANCH   3   5
ENDBRANCH   2   3
ENDBRANCH   1   2
BRANCH   1  24
ATOM     24  C   UNL A   1      31.680  30.365  25.680  1.00  0.00     0.275 C 
BRANCH  24  25
ATOM     25  O   UNL A   1      32.220  30.465  27.009  1.00  0.00    -0.458 OA
BRANCH  25  26
ATOM     26  C   UNL A   1      32.931  31.588  27.256  1.00  0.00     0.338 C 
ATOM     27  O   UNL A   1      32.533  32.740  27.198  1.00  0.00    -0.246 OA
BRANCH  26  28
ATOM     28  C   UNL A   1      34.310  31.252  27.665  1.00  0.00     0.060 A 
ATOM     29  C   UNL A   1      34.681  29.935  27.934  1.00  0.00     0.016 A 
ATOM     30  C   UNL A   1      35.199  32.291  27.942  1.00  0.00     0.016 A 
ATOM     31  C   UNL A   1      35.883  29.673  28.593  1.00  0.00     0.010 A 
ATOM     32  C   UNL A   1      36.445  32.014  28.513  1.00  0.00     0.010 A 
ATOM     33  C   UNL A   1      36.781  30.706  28.898  1.00  0.00    -0.014 A 
BRANCH  33  34
ATOM     34  C   UNL A   1      38.035  30.440  29.661  1.00  0.00     0.031 A 
ATOM     35  C   UNL A   1      39.131  29.596  29.056  1.00  0.00     0.074 A 
ATOM     36  C   UNL A   1      38.214  30.954  30.895  1.00  0.00     0.049 A 
ATOM     37  N   UNL A   1      40.174  29.053  29.634  1.00  0.00    -0.248 NA
ATOM     38  C   UNL A   1      39.037  29.320  27.614  1.00  0.00     0.031 C 
ATOM     39  C   UNL A   1      37.281  31.841  31.590  1.00  0.00     0.029 A 
ATOM     40  N   UNL A   1      39.250  30.800  31.785  1.00  0.00    -0.354 N 
ATOM     41  C   UNL A   1      40.819  28.317  28.644  1.00  0.00     0.074 A 
ATOM     42  C   UNL A   1      40.055  28.491  27.427  1.00  0.00     0.031 C 
ATOM     43  C   UNL A   1      37.798  32.181  32.778  1.00  0.00     0.029 A 
ATOM     44  C   UNL A   1      39.043  31.449  32.979  1.00  0.00     0.049 A 
ATOM     45  H   UNL A   1      40.059  30.277  31.587  1.00  0.00     0.167 HD
ATOM     46  C   UNL A   1      41.939  27.560  28.746  1.00  0.00     0.037 A 
ATOM     47  C   UNL A   1      39.735  31.414  34.132  1.00  0.00     0.037 A 
ATOM     48  C   UNL A   1      42.726  27.429  29.946  1.00  0.00     0.049 A 
ATOM     49  C   UNL A   1      40.946  30.536  34.239  1.00  0.00     0.074 A 
ATOM     50  C   UNL A   1      43.873  26.681  30.152  1.00  0.00     0.029 A 
ATOM     51  N   UNL A   1      42.457  28.080  31.141  1.00  0.00    -0.354 N 
ATOM     52  N   UNL A   1      41.493  29.770  33.327  1.00  0.00    -0.248 NA
ATOM     53  C   UNL A   1      41.620  30.496  35.544  1.00  0.00     0.031 C 
ATOM     54  C   UNL A   1      44.281  26.856  31.479  1.00  0.00     0.029 A 
ATOM     55  C   UNL A   1      43.411  27.745  32.088  1.00  0.00     0.049 A 
ATOM     56  H   UNL A   1      41.699  28.688  31.294  1.00  0.00     0.167 HD
ATOM     57  C   UNL A   1      42.574  29.157  33.945  1.00  0.00     0.074 A 
ATOM     58  C   UNL A   1      42.622  29.662  35.302  1.00  0.00     0.031 C 
ATOM     59  C   UNL A   1      43.444  28.252  33.435  1.00  0.00     0.037 A 
BRANCH  46  60
ATOM     60  C   UNL A   1      42.361  26.778  27.535  1.00  0.00     0.057 A 
ATOM     61  C   UNL A   1      41.933  25.464  27.306  1.00  0.00     0.134 A 
ATOM     62  C   UNL A   1      43.183  27.366  26.565  1.00  0.00     0.134 A 
ATOM     63  F   UNL A   1      41.153  24.837  28.201  1.00  0.00    -0.206 F 
ATOM     64  C   UNL A   1      42.326  24.757  26.167  1.00  0.00     0.040 A 
ATOM     65  C   UNL A   1      43.564  26.679  25.411  1.00  0.00     0.040 A 
ATOM     66  F   UNL A   1      43.622  28.624  26.716  1.00  0.00    -0.206 F 
ATOM     67  C   UNL A   1      43.139  25.367  25.214  1.00  0.00     0.006 A 
ENDBRANCH  46  60
BRANCH  47  68
ATOM     68  C   UNL A   1      39.246  32.188  35.301  1.00  0.00     0.057 A 
ATOM     69  C   UNL A   1      38.408  31.605  36.256  1.00  0.00     0.134 A 
ATOM     70  C   UNL A   1      39.630  33.520  35.503  1.00  0.00     0.134 A 
ATOM     71  F   UNL A   1      37.988  30.340  36.104  1.00  0.00    -0.206 F 
ATOM     72  C   UNL A   1      37.968  32.318  37.373  1.00  0.00     0.040 A 
ATOM     73  C   UNL A   1      39.222  34.236  36.628  1.00  0.00     0.040 A 
ATOM     74  F   UNL A   1      40.435  34.134  34.623  1.00  0.00    -0.206 F 
ATOM     75  C   UNL A   1      38.385  33.635  37.565  1.00  0.00     0.006 A 
ENDBRANCH  47  68
BRANCH  59  76
ATOM     76  C   UNL A   1      44.532  27.769  34.346  1.00  0.00     0.057 A 
ATOM     77  C   UNL A   1      45.755  28.443  34.454  1.00  0.00     0.134 A 
ATOM     78  C   UNL A   1      44.347  26.629  35.138  1.00  0.00     0.134 A 
ATOM     79  F   UNL A   1      45.999  29.531  33.708  1.00  0.00    -0.206 F 
ATOM     80  C   UNL A   1      46.765  27.987  35.301  1.00  0.00     0.040 A 
ATOM     81  C   UNL A   1      45.341  26.177  36.006  1.00  0.00     0.040 A 
ATOM     82  F   UNL A   1      43.195  25.943  35.085  1.00  0.00    -0.206 F 
ATOM     83  C   UNL A   1      46.557  26.853  36.084  1.00  0.00     0.006 A 
ENDBRANCH  59  76
ENDBRANCH  33  34
ENDBRANCH  26  28
ENDBRANCH  25  26
ENDBRANCH  24  25
ENDBRANCH   1  24
TORSDOF 14
ENDMDL
