MODEL 1
REMARK VINA RESULT:     -12.4      0.000      0.000
REMARK SMILES Cc1cccc(NS(=O)(=O)c2ccc(Br)c(C(=O)OCCOC(=O)c3ccc(-c4c5nc(c(-c6c(F)cccc6F)c6ccc([nH]6)c(-c6c(F)cccc6F)c6nc(c(-c7c(F)cccc7F)c7ccc4[nH]7)C=C6)C=C5)cc3)c2)c1
REMARK SMILES IDX 20 1 19 2 17 3 18 4 16 5 11 6 12 7 79 8 13 9 14 10 15 11
REMARK SMILES IDX 8 12 9 13 10 14 7 15 6 17 1 18 2 19 3 20 80 21 4 22 5 23
REMARK SMILES IDX 21 24 22 25 23 26 24 27 25 28 26 29 78 30 27 31 77 32 28 33
REMARK SMILES IDX 29 34 30 35 71 36 31 37 76 38 70 39 72 40 32 41 75 42 69 43
REMARK SMILES IDX 68 44 33 46 59 47 42 48 58 49 43 50 46 51 57 52 73 53 44 54
REMARK SMILES IDX 45 55 56 57 74 58 47 59 34 60 35 61 40 62 36 63 37 64 39 65
REMARK SMILES IDX 41 66 38 67 60 68 61 69 66 70 62 71 63 72 65 73 67 74 64 75
REMARK SMILES IDX 48 76 49 77 54 78 50 79 51 80 53 81 55 82 52 83
REMARK H PARENT 7 16 72 45 46 56
REMARK Flexibility Score: inf
ROOT
ATOM      1  C   UNL A   1      37.606  21.883  25.127  1.00  0.00     0.275 C 
ENDROOT
BRANCH   1   2
ATOM      2  O   UNL A   1      36.955  23.098  24.735  1.00  0.00    -0.458 OA
BRANCH   2   3
ATOM      3  C   UNL A   1      35.737  23.268  25.299  1.00  0.00     0.339 C 
ATOM      4  O   UNL A   1      35.461  23.279  26.486  1.00  0.00    -0.246 OA
BRANCH   3   5
ATOM      5  C   UNL A   1      34.701  23.352  24.269  1.00  0.00     0.075 A 
ATOM      6  C   UNL A   1      33.262  24.719  22.877  1.00  0.00     0.088 A 
ATOM      7  C   UNL A   1      32.541  23.581  22.521  1.00  0.00     0.023 A 
ATOM      8  C   UNL A   1      34.378  24.596  23.713  1.00  0.00     0.039 A 
ATOM      9  C   UNL A   1      32.851  22.345  23.103  1.00  0.00     0.018 A 
ATOM     10  C   UNL A   1      33.917  22.232  23.994  1.00  0.00     0.032 A 
ATOM     11  Br  UNL A   1      34.217  20.547  24.815  1.00  0.00    -0.050 Br
BRANCH   6  12
ATOM     12  S   UNL A   1      32.713  26.386  22.522  1.00  0.00     0.261 S 
ATOM     13  O   UNL A   1      31.647  26.262  21.552  1.00  0.00    -0.201 OA
ATOM     14  O   UNL A   1      33.905  27.152  22.226  1.00  0.00    -0.201 OA
BRANCH  12  15
ATOM     15  N   UNL A   1      31.999  27.026  23.893  1.00  0.00    -0.280 N 
ATOM     16  H   UNL A   1      31.075  26.750  24.092  1.00  0.00     0.180 HD
BRANCH  15  17
ATOM     17  C   UNL A   1      32.615  27.936  24.795  1.00  0.00     0.049 A 
ATOM     18  C   UNL A   1      31.585  31.276  26.309  1.00  0.00     0.044 C 
ATOM     19  C   UNL A   1      32.341  30.006  26.046  1.00  0.00    -0.049 A 
ATOM     20  C   UNL A   1      33.379  29.609  26.894  1.00  0.00     0.003 A 
ATOM     21  C   UNL A   1      31.962  29.158  24.998  1.00  0.00     0.030 A 
ATOM     22  C   UNL A   1      34.096  28.442  26.630  1.00  0.00     0.002 A 
ATOM     23  C   UNL A   1      33.743  27.627  25.554  1.00  0.00     0.027 A 
ENDBRANCH  15  17
ENDBRANCH  12  15
ENDBRANCH   6  12
ENDBRANCH   3   5
ENDBRANCH   2   3
ENDBRANCH   1   2
BRANCH   1  24
ATOM     24  C   UNL A   1      38.829  22.140  26.013  1.00  0.00     0.275 C 
BRANCH  24  25
ATOM     25  O   UNL A   1      39.112  23.515  26.417  1.00  0.00    -0.458 OA
BRANCH  25  26
ATOM     26  C   UNL A   1      40.264  24.090  26.846  1.00  0.00     0.338 C 
ATOM     27  O   UNL A   1      41.349  23.528  26.737  1.00  0.00    -0.246 OA
BRANCH  26  28
ATOM     28  C   UNL A   1      40.200  25.443  27.414  1.00  0.00     0.060 A 
ATOM     29  C   UNL A   1      40.635  26.544  26.657  1.00  0.00     0.016 A 
ATOM     30  C   UNL A   1      39.648  25.624  28.671  1.00  0.00     0.016 A 
ATOM     31  C   UNL A   1      40.373  27.840  27.098  1.00  0.00     0.010 A 
ATOM     32  C   UNL A   1      39.253  26.884  29.038  1.00  0.00     0.010 A 
ATOM     33  C   UNL A   1      39.648  27.996  28.278  1.00  0.00    -0.014 A 
BRANCH  33  34
ATOM     34  C   UNL A   1      39.533  29.251  29.006  1.00  0.00     0.031 A 
ATOM     35  C   UNL A   1      38.475  30.248  28.786  1.00  0.00     0.074 A 
ATOM     36  C   UNL A   1      40.454  29.356  29.989  1.00  0.00     0.049 A 
ATOM     37  N   UNL A   1      38.599  31.485  29.125  1.00  0.00    -0.248 NA
ATOM     38  C   UNL A   1      37.187  29.955  28.170  1.00  0.00     0.031 C 
ATOM     39  C   UNL A   1      40.572  30.286  31.093  1.00  0.00     0.029 A 
ATOM     40  N   UNL A   1      41.633  28.601  30.053  1.00  0.00    -0.354 N 
ATOM     41  C   UNL A   1      37.359  32.081  29.024  1.00  0.00     0.074 A 
ATOM     42  C   UNL A   1      36.532  31.113  28.342  1.00  0.00     0.031 C 
ATOM     43  C   UNL A   1      41.847  30.255  31.530  1.00  0.00     0.029 A 
ATOM     44  C   UNL A   1      42.615  29.417  30.613  1.00  0.00     0.049 A 
ATOM     45  H   UNL A   1      41.747  27.669  29.759  1.00  0.00     0.167 HD
ATOM     46  C   UNL A   1      37.150  33.273  29.655  1.00  0.00     0.037 A 
ATOM     47  C   UNL A   1      43.616  29.821  29.772  1.00  0.00     0.037 A 
ATOM     48  C   UNL A   1      38.375  33.713  30.318  1.00  0.00     0.049 A 
ATOM     49  C   UNL A   1      43.522  31.297  29.436  1.00  0.00     0.074 A 
ATOM     50  C   UNL A   1      38.885  33.528  31.593  1.00  0.00     0.029 A 
ATOM     51  N   UNL A   1      39.438  34.108  29.534  1.00  0.00    -0.354 N 
ATOM     52  N   UNL A   1      42.529  32.068  29.789  1.00  0.00    -0.248 NA
ATOM     53  C   UNL A   1      44.510  32.005  28.625  1.00  0.00     0.031 C 
ATOM     54  C   UNL A   1      40.295  33.743  31.536  1.00  0.00     0.029 A 
ATOM     55  C   UNL A   1      40.627  34.084  30.237  1.00  0.00     0.049 A 
ATOM     56  H   UNL A   1      39.360  34.375  28.590  1.00  0.00     0.167 HD
ATOM     57  C   UNL A   1      42.723  33.322  29.293  1.00  0.00     0.074 A 
ATOM     58  C   UNL A   1      43.968  33.232  28.552  1.00  0.00     0.031 C 
ATOM     59  C   UNL A   1      41.857  34.352  29.511  1.00  0.00     0.037 A 
BRANCH  46  60
ATOM     60  C   UNL A   1      35.812  33.932  29.873  1.00  0.00     0.057 A 
ATOM     61  C   UNL A   1      35.052  34.381  28.772  1.00  0.00     0.134 A 
ATOM     62  C   UNL A   1      35.212  34.152  31.124  1.00  0.00     0.134 A 
ATOM     63  F   UNL A   1      35.461  34.191  27.510  1.00  0.00    -0.206 F 
ATOM     64  C   UNL A   1      33.833  35.058  28.905  1.00  0.00     0.040 A 
ATOM     65  C   UNL A   1      34.007  34.861  31.274  1.00  0.00     0.040 A 
ATOM     66  F   UNL A   1      35.738  33.652  32.249  1.00  0.00    -0.206 F 
ATOM     67  C   UNL A   1      33.317  35.324  30.163  1.00  0.00     0.006 A 
ENDBRANCH  46  60
BRANCH  47  68
ATOM     68  C   UNL A   1      44.051  28.738  28.821  1.00  0.00     0.057 A 
ATOM     69  C   UNL A   1      43.724  28.863  27.451  1.00  0.00     0.134 A 
ATOM     70  C   UNL A   1      45.025  27.784  29.136  1.00  0.00     0.134 A 
ATOM     71  F   UNL A   1      42.798  29.754  27.056  1.00  0.00    -0.206 F 
ATOM     72  C   UNL A   1      44.409  28.170  26.447  1.00  0.00     0.040 A 
ATOM     73  C   UNL A   1      45.695  27.058  28.139  1.00  0.00     0.040 A 
ATOM     74  F   UNL A   1      45.411  27.591  30.404  1.00  0.00    -0.206 F 
ATOM     75  C   UNL A   1      45.419  27.280  26.790  1.00  0.00     0.006 A 
ENDBRANCH  47  68
BRANCH  59  76
ATOM     76  C   UNL A   1      42.149  35.740  29.043  1.00  0.00     0.057 A 
ATOM     77  C   UNL A   1      41.665  36.212  27.816  1.00  0.00     0.134 A 
ATOM     78  C   UNL A   1      43.024  36.594  29.737  1.00  0.00     0.134 A 
ATOM     79  F   UNL A   1      40.877  35.448  27.045  1.00  0.00    -0.206 F 
ATOM     80  C   UNL A   1      41.990  37.481  27.333  1.00  0.00     0.040 A 
ATOM     81  C   UNL A   1      43.403  37.839  29.236  1.00  0.00     0.040 A 
ATOM     82  F   UNL A   1      43.529  36.266  30.936  1.00  0.00    -0.206 F 
ATOM     83  C   UNL A   1      42.872  38.293  28.038  1.00  0.00     0.006 A 
ENDBRANCH  59  76
ENDBRANCH  33  34
ENDBRANCH  26  28
ENDBRANCH  25  26
ENDBRANCH  24  25
ENDBRANCH   1  24
TORSDOF 14
ENDMDL
MODEL 2
REMARK VINA RESULT:     -12.4      3.862      9.331
REMARK SMILES Cc1cccc(NS(=O)(=O)c2ccc(Br)c(C(=O)OCCOC(=O)c3ccc(-c4c5nc(c(-c6c(F)cccc6F)c6ccc([nH]6)c(-c6c(F)cccc6F)c6nc(c(-c7c(F)cccc7F)c7ccc4[nH]7)C=C6)C=C5)cc3)c2)c1
REMARK SMILES IDX 20 1 19 2 17 3 18 4 16 5 11 6 12 7 79 8 13 9 14 10 15 11
REMARK SMILES IDX 8 12 9 13 10 14 7 15 6 17 1 18 2 19 3 20 80 21 4 22 5 23
REMARK SMILES IDX 21 24 22 25 23 26 24 27 25 28 26 29 78 30 27 31 77 32 28 33
REMARK SMILES IDX 29 34 30 35 71 36 31 37 76 38 70 39 72 40 32 41 75 42 69 43
REMARK SMILES IDX 68 44 33 46 59 47 42 48 58 49 43 50 46 51 57 52 73 53 44 54
REMARK SMILES IDX 45 55 56 57 74 58 47 59 34 60 35 61 40 62 36 63 37 64 39 65
REMARK SMILES IDX 41 66 38 67 60 68 61 69 66 70 62 71 63 72 65 73 67 74 64 75
REMARK SMILES IDX 48 76 49 77 54 78 50 79 51 80 53 81 55 82 52 83
REMARK H PARENT 7 16 72 45 46 56
REMARK Flexibility Score: inf
ROOT
ATOM      1  C   UNL A   1      33.025  30.505  26.471  1.00  0.00     0.275 C 
ENDROOT
BRANCH   1   2
ATOM      2  O   UNL A   1      32.564  29.160  26.647  1.00  0.00    -0.458 OA
BRANCH   2   3
ATOM      3  C   UNL A   1      32.993  28.309  25.686  1.00  0.00     0.339 C 
ATOM      4  O   UNL A   1      33.978  28.423  24.976  1.00  0.00    -0.246 OA
BRANCH   3   5
ATOM      5  C   UNL A   1      32.042  27.211  25.511  1.00  0.00     0.075 A 
ATOM      6  C   UNL A   1      31.495  24.869  25.816  1.00  0.00     0.088 A 
ATOM      7  C   UNL A   1      30.404  25.023  24.963  1.00  0.00     0.023 A 
ATOM      8  C   UNL A   1      32.286  25.980  26.132  1.00  0.00     0.039 A 
ATOM      9  C   UNL A   1      30.183  26.248  24.322  1.00  0.00     0.018 A 
ATOM     10  C   UNL A   1      31.014  27.338  24.578  1.00  0.00     0.032 A 
ATOM     11  Br  UNL A   1      30.711  28.938  23.601  1.00  0.00    -0.050 Br
BRANCH   6  12
ATOM     12  S   UNL A   1      32.104  23.276  26.363  1.00  0.00     0.261 S 
ATOM     13  O   UNL A   1      31.956  22.379  25.236  1.00  0.00    -0.201 OA
ATOM     14  O   UNL A   1      31.451  23.002  27.625  1.00  0.00    -0.201 OA
BRANCH  12  15
ATOM     15  N   UNL A   1      33.752  23.388  26.631  1.00  0.00    -0.280 N 
ATOM     16  H   UNL A   1      34.050  23.513  27.561  1.00  0.00     0.180 HD
BRANCH  15  17
ATOM     17  C   UNL A   1      34.757  23.317  25.628  1.00  0.00     0.049 A 
ATOM     18  C   UNL A   1      38.244  21.793  25.471  1.00  0.00     0.044 C 
ATOM     19  C   UNL A   1      36.953  22.436  25.056  1.00  0.00    -0.049 A 
ATOM     20  C   UNL A   1      36.653  22.618  23.703  1.00  0.00     0.003 A 
ATOM     21  C   UNL A   1      35.993  22.786  26.015  1.00  0.00     0.030 A 
ATOM     22  C   UNL A   1      35.463  23.240  23.323  1.00  0.00     0.002 A 
ATOM     23  C   UNL A   1      34.533  23.630  24.287  1.00  0.00     0.027 A 
ENDBRANCH  15  17
ENDBRANCH  12  15
ENDBRANCH   6  12
ENDBRANCH   3   5
ENDBRANCH   2   3
ENDBRANCH   1   2
BRANCH   1  24
ATOM     24  C   UNL A   1      33.927  30.965  27.621  1.00  0.00     0.275 C 
BRANCH  24  25
ATOM     25  O   UNL A   1      35.038  30.103  28.014  1.00  0.00    -0.458 OA
BRANCH  25  26
ATOM     26  C   UNL A   1      36.065  30.323  28.873  1.00  0.00     0.338 C 
ATOM     27  O   UNL A   1      35.981  31.133  29.791  1.00  0.00    -0.246 OA
BRANCH  26  28
ATOM     28  C   UNL A   1      37.290  29.528  28.715  1.00  0.00     0.060 A 
ATOM     29  C   UNL A   1      38.106  29.710  27.586  1.00  0.00     0.016 A 
ATOM     30  C   UNL A   1      37.660  28.648  29.719  1.00  0.00     0.016 A 
ATOM     31  C   UNL A   1      39.370  29.126  27.538  1.00  0.00     0.010 A 
ATOM     32  C   UNL A   1      38.953  28.195  29.750  1.00  0.00     0.010 A 
ATOM     33  C   UNL A   1      39.797  28.395  28.646  1.00  0.00    -0.014 A 
BRANCH  33  34
ATOM     34  C   UNL A   1      40.951  27.510  28.645  1.00  0.00     0.031 A 
ATOM     35  C   UNL A   1      40.895  26.068  28.365  1.00  0.00     0.074 A 
ATOM     36  C   UNL A   1      42.109  28.182  28.828  1.00  0.00     0.049 A 
ATOM     37  N   UNL A   1      41.810  25.245  28.747  1.00  0.00    -0.248 NA
ATOM     38  C   UNL A   1      39.816  25.415  27.635  1.00  0.00     0.031 C 
ATOM     39  C   UNL A   1      43.488  27.772  28.668  1.00  0.00     0.029 A 
ATOM     40  N   UNL A   1      42.199  29.469  29.377  1.00  0.00    -0.354 N 
ATOM     41  C   UNL A   1      41.593  24.040  28.113  1.00  0.00     0.074 A 
ATOM     42  C   UNL A   1      40.291  24.168  27.500  1.00  0.00     0.031 C 
ATOM     43  C   UNL A   1      44.262  28.631  29.362  1.00  0.00     0.029 A 
ATOM     44  C   UNL A   1      43.381  29.522  30.112  1.00  0.00     0.049 A 
ATOM     45  H   UNL A   1      41.549  30.199  29.263  1.00  0.00     0.167 HD
ATOM     46  C   UNL A   1      42.607  23.128  28.071  1.00  0.00     0.037 A 
ATOM     47  C   UNL A   1      43.244  29.590  31.472  1.00  0.00     0.037 A 
ATOM     48  C   UNL A   1      43.775  23.639  28.785  1.00  0.00     0.049 A 
ATOM     49  C   UNL A   1      43.659  28.301  32.155  1.00  0.00     0.074 A 
ATOM     50  C   UNL A   1      44.885  24.369  28.392  1.00  0.00     0.029 A 
ATOM     51  N   UNL A   1      43.700  23.763  30.157  1.00  0.00    -0.354 N 
ATOM     52  N   UNL A   1      43.976  27.204  31.523  1.00  0.00    -0.248 NA
ATOM     53  C   UNL A   1      43.689  28.131  33.606  1.00  0.00     0.031 C 
ATOM     54  C   UNL A   1      45.427  24.999  29.552  1.00  0.00     0.029 A 
ATOM     55  C   UNL A   1      44.662  24.628  30.643  1.00  0.00     0.049 A 
ATOM     56  H   UNL A   1      43.043  23.294  30.719  1.00  0.00     0.167 HD
ATOM     57  C   UNL A   1      44.252  26.218  32.422  1.00  0.00     0.074 A 
ATOM     58  C   UNL A   1      44.040  26.838  33.717  1.00  0.00     0.031 C 
ATOM     59  C   UNL A   1      44.630  24.960  32.056  1.00  0.00     0.037 A 
BRANCH  46  60
ATOM     60  C   UNL A   1      42.643  21.889  27.213  1.00  0.00     0.057 A 
ATOM     61  C   UNL A   1      41.729  20.838  27.441  1.00  0.00     0.134 A 
ATOM     62  C   UNL A   1      43.537  21.664  26.152  1.00  0.00     0.134 A 
ATOM     63  F   UNL A   1      40.775  20.926  28.378  1.00  0.00    -0.206 F 
ATOM     64  C   UNL A   1      41.749  19.635  26.725  1.00  0.00     0.040 A 
ATOM     65  C   UNL A   1      43.590  20.448  25.449  1.00  0.00     0.040 A 
ATOM     66  F   UNL A   1      44.364  22.624  25.719  1.00  0.00    -0.206 F 
ATOM     67  C   UNL A   1      42.699  19.424  25.740  1.00  0.00     0.006 A 
ENDBRANCH  46  60
BRANCH  47  68
ATOM     68  C   UNL A   1      42.104  30.474  31.900  1.00  0.00     0.057 A 
ATOM     69  C   UNL A   1      42.203  31.868  31.682  1.00  0.00     0.134 A 
ATOM     70  C   UNL A   1      40.828  29.989  32.204  1.00  0.00     0.134 A 
ATOM     71  F   UNL A   1      43.391  32.422  31.385  1.00  0.00    -0.206 F 
ATOM     72  C   UNL A   1      41.083  32.706  31.647  1.00  0.00     0.040 A 
ATOM     73  C   UNL A   1      39.701  30.826  32.205  1.00  0.00     0.040 A 
ATOM     74  F   UNL A   1      40.624  28.683  32.423  1.00  0.00    -0.206 F 
ATOM     75  C   UNL A   1      39.819  32.178  31.885  1.00  0.00     0.006 A 
ENDBRANCH  47  68
BRANCH  59  76
ATOM     76  C   UNL A   1      45.027  23.933  33.066  1.00  0.00     0.057 A 
ATOM     77  C   UNL A   1      44.125  22.956  33.504  1.00  0.00     0.134 A 
ATOM     78  C   UNL A   1      46.271  23.970  33.720  1.00  0.00     0.134 A 
ATOM     79  F   UNL A   1      42.888  22.878  32.990  1.00  0.00    -0.206 F 
ATOM     80  C   UNL A   1      44.460  22.035  34.498  1.00  0.00     0.040 A 
ATOM     81  C   UNL A   1      46.595  23.095  34.755  1.00  0.00     0.040 A 
ATOM     82  F   UNL A   1      47.229  24.842  33.369  1.00  0.00    -0.206 F 
ATOM     83  C   UNL A   1      45.693  22.110  35.136  1.00  0.00     0.006 A 
ENDBRANCH  59  76
ENDBRANCH  33  34
ENDBRANCH  26  28
ENDBRANCH  25  26
ENDBRANCH  24  25
ENDBRANCH   1  24
TORSDOF 14
ENDMDL
MODEL 3
REMARK VINA RESULT:     -12.1      3.915      9.461
REMARK SMILES Cc1cccc(NS(=O)(=O)c2ccc(Br)c(C(=O)OCCOC(=O)c3ccc(-c4c5nc(c(-c6c(F)cccc6F)c6ccc([nH]6)c(-c6c(F)cccc6F)c6nc(c(-c7c(F)cccc7F)c7ccc4[nH]7)C=C6)C=C5)cc3)c2)c1
REMARK SMILES IDX 20 1 19 2 17 3 18 4 16 5 11 6 12 7 79 8 13 9 14 10 15 11
REMARK SMILES IDX 8 12 9 13 10 14 7 15 6 17 1 18 2 19 3 20 80 21 4 22 5 23
REMARK SMILES IDX 21 24 22 25 23 26 24 27 25 28 26 29 78 30 27 31 77 32 28 33
REMARK SMILES IDX 29 34 30 35 71 36 31 37 76 38 70 39 72 40 32 41 75 42 69 43
REMARK SMILES IDX 68 44 33 46 59 47 42 48 58 49 43 50 46 51 57 52 73 53 44 54
REMARK SMILES IDX 45 55 56 57 74 58 47 59 34 60 35 61 40 62 36 63 37 64 39 65
REMARK SMILES IDX 41 66 38 67 60 68 61 69 66 70 62 71 63 72 65 73 67 74 64 75
REMARK SMILES IDX 48 76 49 77 54 78 50 79 51 80 53 81 55 82 52 83
REMARK H PARENT 7 16 72 45 46 56
REMARK Flexibility Score: inf
ROOT
ATOM      1  C   UNL A   1      33.897  28.598  27.270  1.00  0.00     0.275 C 
ENDROOT
BRANCH   1   2
ATOM      2  O   UNL A   1      34.124  27.404  26.513  1.00  0.00    -0.458 OA
BRANCH   2   3
ATOM      3  C   UNL A   1      32.992  26.855  26.013  1.00  0.00     0.339 C 
ATOM      4  O   UNL A   1      31.847  27.246  26.160  1.00  0.00    -0.246 OA
BRANCH   3   5
ATOM      5  C   UNL A   1      33.294  25.611  25.305  1.00  0.00     0.075 A 
ATOM      6  C   UNL A   1      33.880  23.260  25.395  1.00  0.00     0.088 A 
ATOM      7  C   UNL A   1      34.151  23.286  24.028  1.00  0.00     0.023 A 
ATOM      8  C   UNL A   1      33.401  24.415  26.024  1.00  0.00     0.039 A 
ATOM      9  C   UNL A   1      34.071  24.492  23.320  1.00  0.00     0.018 A 
ATOM     10  C   UNL A   1      33.664  25.661  23.961  1.00  0.00     0.032 A 
ATOM     11  Br  UNL A   1      33.672  27.275  22.961  1.00  0.00    -0.050 Br
BRANCH   6  12
ATOM     12  S   UNL A   1      34.333  21.898  26.465  1.00  0.00     0.261 S 
ATOM     13  O   UNL A   1      34.385  22.438  27.807  1.00  0.00    -0.201 OA
ATOM     14  O   UNL A   1      35.495  21.279  25.865  1.00  0.00    -0.201 OA
BRANCH  12  15
ATOM     15  N   UNL A   1      33.086  20.782  26.480  1.00  0.00    -0.280 N 
ATOM     16  H   UNL A   1      32.554  20.710  27.305  1.00  0.00     0.180 HD
BRANCH  15  17
ATOM     17  C   UNL A   1      32.730  19.929  25.399  1.00  0.00     0.049 A 
ATOM     18  C   UNL A   1      31.881  20.510  21.733  1.00  0.00     0.044 C 
ATOM     19  C   UNL A   1      32.221  19.822  23.021  1.00  0.00    -0.049 A 
ATOM     20  C   UNL A   1      32.508  18.454  23.041  1.00  0.00     0.003 A 
ATOM     21  C   UNL A   1      32.340  20.555  24.209  1.00  0.00     0.030 A 
ATOM     22  C   UNL A   1      32.797  17.813  24.246  1.00  0.00     0.002 A 
ATOM     23  C   UNL A   1      32.866  18.542  25.433  1.00  0.00     0.027 A 
ENDBRANCH  15  17
ENDBRANCH  12  15
ENDBRANCH   6  12
ENDBRANCH   3   5
ENDBRANCH   2   3
ENDBRANCH   1   2
BRANCH   1  24
ATOM     24  C   UNL A   1      35.055  29.594  27.144  1.00  0.00     0.275 C 
BRANCH  24  25
ATOM     25  O   UNL A   1      35.148  30.672  28.125  1.00  0.00    -0.458 OA
BRANCH  25  26
ATOM     26  C   UNL A   1      36.065  30.904  29.098  1.00  0.00     0.338 C 
ATOM     27  O   UNL A   1      35.914  31.787  29.935  1.00  0.00    -0.246 OA
BRANCH  26  28
ATOM     28  C   UNL A   1      37.246  30.033  29.164  1.00  0.00     0.060 A 
ATOM     29  C   UNL A   1      37.289  28.975  30.088  1.00  0.00     0.016 A 
ATOM     30  C   UNL A   1      38.283  30.228  28.266  1.00  0.00     0.016 A 
ATOM     31  C   UNL A   1      38.299  28.019  30.007  1.00  0.00     0.010 A 
ATOM     32  C   UNL A   1      39.189  29.216  28.082  1.00  0.00     0.010 A 
ATOM     33  C   UNL A   1      39.227  28.133  28.973  1.00  0.00    -0.014 A 
BRANCH  33  34
ATOM     34  C   UNL A   1      40.479  27.392  28.914  1.00  0.00     0.031 A 
ATOM     35  C   UNL A   1      40.589  25.970  28.560  1.00  0.00     0.074 A 
ATOM     36  C   UNL A   1      41.551  28.188  29.120  1.00  0.00     0.049 A 
ATOM     37  N   UNL A   1      41.602  25.244  28.890  1.00  0.00    -0.248 NA
ATOM     38  C   UNL A   1      39.584  25.230  27.809  1.00  0.00     0.031 C 
ATOM     39  C   UNL A   1      42.967  27.954  28.924  1.00  0.00     0.029 A 
ATOM     40  N   UNL A   1      41.497  29.448  29.734  1.00  0.00    -0.354 N 
ATOM     41  C   UNL A   1      41.519  24.055  28.197  1.00  0.00     0.074 A 
ATOM     42  C   UNL A   1      40.201  24.057  27.605  1.00  0.00     0.031 C 
ATOM     43  C   UNL A   1      43.645  28.863  29.654  1.00  0.00     0.029 A 
ATOM     44  C   UNL A   1      42.677  29.604  30.458  1.00  0.00     0.049 A 
ATOM     45  H   UNL A   1      40.763  30.099  29.665  1.00  0.00     0.167 HD
ATOM     46  C   UNL A   1      42.633  23.274  28.097  1.00  0.00     0.037 A 
ATOM     47  C   UNL A   1      42.555  29.587  31.821  1.00  0.00     0.037 A 
ATOM     48  C   UNL A   1      43.744  23.884  28.824  1.00  0.00     0.049 A 
ATOM     49  C   UNL A   1      43.131  28.324  32.433  1.00  0.00     0.074 A 
ATOM     50  C   UNL A   1      44.753  24.760  28.458  1.00  0.00     0.029 A 
ATOM     51  N   UNL A   1      43.678  23.930  30.201  1.00  0.00    -0.354 N 
ATOM     52  N   UNL A   1      43.566  27.305  31.740  1.00  0.00    -0.248 NA
ATOM     53  C   UNL A   1      43.205  28.086  33.872  1.00  0.00     0.031 C 
ATOM     54  C   UNL A   1      45.236  25.392  29.643  1.00  0.00     0.029 A 
ATOM     55  C   UNL A   1      44.538  24.877  30.721  1.00  0.00     0.049 A 
ATOM     56  H   UNL A   1      43.091  23.358  30.745  1.00  0.00     0.167 HD
ATOM     57  C   UNL A   1      43.972  26.316  32.584  1.00  0.00     0.074 A 
ATOM     58  C   UNL A   1      43.709  26.840  33.912  1.00  0.00     0.031 C 
ATOM     59  C   UNL A   1      44.491  25.132  32.150  1.00  0.00     0.037 A 
BRANCH  46  60
ATOM     60  C   UNL A   1      42.802  22.093  27.175  1.00  0.00     0.057 A 
ATOM     61  C   UNL A   1      41.990  20.949  27.328  1.00  0.00     0.134 A 
ATOM     62  C   UNL A   1      43.730  22.013  26.123  1.00  0.00     0.134 A 
ATOM     63  F   UNL A   1      41.017  20.895  28.248  1.00  0.00    -0.206 F 
ATOM     64  C   UNL A   1      42.136  19.794  26.550  1.00  0.00     0.040 A 
ATOM     65  C   UNL A   1      43.912  20.847  25.358  1.00  0.00     0.040 A 
ATOM     66  F   UNL A   1      44.468  23.069  25.759  1.00  0.00    -0.206 F 
ATOM     67  C   UNL A   1      43.118  19.729  25.575  1.00  0.00     0.006 A 
ENDBRANCH  46  60
BRANCH  47  68
ATOM     68  C   UNL A   1      41.325  30.306  32.306  1.00  0.00     0.057 A 
ATOM     69  C   UNL A   1      41.256  31.711  32.162  1.00  0.00     0.134 A 
ATOM     70  C   UNL A   1      40.120  29.657  32.596  1.00  0.00     0.134 A 
ATOM     71  F   UNL A   1      42.365  32.417  31.885  1.00  0.00    -0.206 F 
ATOM     72  C   UNL A   1      40.044  32.410  32.183  1.00  0.00     0.040 A 
ATOM     73  C   UNL A   1      38.903  30.354  32.652  1.00  0.00     0.040 A 
ATOM     74  F   UNL A   1      40.076  28.327  32.747  1.00  0.00    -0.206 F 
ATOM     75  C   UNL A   1      38.855  31.725  32.404  1.00  0.00     0.006 A 
ENDBRANCH  47  68
BRANCH  59  76
ATOM     76  C   UNL A   1      45.024  24.110  33.100  1.00  0.00     0.057 A 
ATOM     77  C   UNL A   1      44.240  23.030  33.523  1.00  0.00     0.134 A 
ATOM     78  C   UNL A   1      46.280  24.247  33.717  1.00  0.00     0.134 A 
ATOM     79  F   UNL A   1      42.999  22.848  33.045  1.00  0.00    -0.206 F 
ATOM     80  C   UNL A   1      44.699  22.108  34.465  1.00  0.00     0.040 A 
ATOM     81  C   UNL A   1      46.726  23.367  34.702  1.00  0.00     0.040 A 
ATOM     82  F   UNL A   1      47.133  25.224  33.375  1.00  0.00    -0.206 F 
ATOM     83  C   UNL A   1      45.941  22.282  35.067  1.00  0.00     0.006 A 
ENDBRANCH  59  76
ENDBRANCH  33  34
ENDBRANCH  26  28
ENDBRANCH  25  26
ENDBRANCH  24  25
ENDBRANCH   1  24
TORSDOF 14
ENDMDL
