MODEL 1
REMARK VINA RESULT:     -12.2      0.000      0.000
REMARK SMILES CCc1ccc(Oc2ncnc(N3CCC(C(=O)OCCOC(=O)c4ccc(-c5c6nc(c(-c7c(F)cccc7F)c7ccc([nH]7)c(-c7c(F)cccc7F)c7nc(c(-c8c(F)cccc8F)c8ccc5[nH]8)C=C7)C=C6)cc4)CC3)c2[N+](=O)[O-])cc1
REMARK SMILES IDX 20 1 19 2 17 3 18 4 16 5 13 6 14 7 80 8 15 9 79 10 12 11
REMARK SMILES IDX 8 12 9 13 81 14 10 15 11 16 7 17 6 18 3 19 4 20 86 21 5 22
REMARK SMILES IDX 85 23 2 24 1 25 82 26 83 27 84 28 21 29 22 30 23 31 24 32
REMARK SMILES IDX 25 33 26 34 78 35 27 36 77 37 28 38 29 39 30 40 71 41 31 42
REMARK SMILES IDX 76 43 70 44 72 45 32 46 75 47 69 48 68 49 33 51 59 52 42 53
REMARK SMILES IDX 58 54 43 55 46 56 57 57 73 58 44 59 45 60 56 62 74 63 47 64
REMARK SMILES IDX 34 65 35 66 40 67 36 68 37 69 39 70 41 71 38 72 60 73 61 74
REMARK SMILES IDX 66 75 62 76 63 77 65 78 67 79 64 80 48 81 49 82 54 83 50 84
REMARK SMILES IDX 51 85 53 86 55 87 52 88
REMARK H PARENT 72 50 46 61
REMARK Flexibility Score: inf
ROOT
ATOM      1  C   UNL A   1      39.828  21.314  26.201  1.00  0.00     0.274 C 
ENDROOT
BRANCH   1   2
ATOM      2  O   UNL A   1      38.608  21.898  25.706  1.00  0.00    -0.462 OA
BRANCH   2   3
ATOM      3  C   UNL A   1      37.626  21.028  25.362  1.00  0.00     0.309 C 
ATOM      4  O   UNL A   1      37.808  19.935  24.837  1.00  0.00    -0.252 OA
BRANCH   3   5
ATOM      5  C   UNL A   1      36.240  21.529  25.702  1.00  0.00     0.103 C 
ATOM      6  N   UNL A   1      33.677  22.725  25.419  1.00  0.00    -0.351 N 
ATOM      7  C   UNL A   1      34.681  23.407  26.232  1.00  0.00     0.119 C 
ATOM      8  C   UNL A   1      33.792  21.280  25.245  1.00  0.00     0.119 C 
ATOM      9  C   UNL A   1      36.084  23.052  25.753  1.00  0.00     0.037 C 
ATOM     10  C   UNL A   1      35.197  20.927  24.759  1.00  0.00     0.037 C 
BRANCH   6  11
ATOM     11  C   UNL A   1      32.860  23.486  24.611  1.00  0.00     0.215 A 
ATOM     12  C   UNL A   1      30.983  24.852  24.131  1.00  0.00     0.305 A 
ATOM     13  N   UNL A   1      31.415  25.079  22.874  1.00  0.00    -0.195 NA
ATOM     14  C   UNL A   1      31.649  24.022  25.008  1.00  0.00     0.373 A 
ATOM     15  C   UNL A   1      32.573  24.500  22.552  1.00  0.00     0.228 A 
ATOM     16  N   UNL A   1      33.324  23.743  23.367  1.00  0.00    -0.212 NA
BRANCH  12  17
ATOM     17  O   UNL A   1      29.832  25.529  24.459  1.00  0.00    -0.434 OA
BRANCH  17  18
ATOM     18  C   UNL A   1      29.733  26.846  24.056  1.00  0.00     0.129 A 
ATOM     19  C   UNL A   1      29.253  29.517  23.307  1.00  0.00    -0.048 A 
ATOM     20  C   UNL A   1      28.307  28.517  23.044  1.00  0.00     0.007 A 
ATOM     21  C   UNL A   1      30.472  29.145  23.886  1.00  0.00     0.007 A 
ATOM     22  C   UNL A   1      28.542  27.192  23.421  1.00  0.00     0.047 A 
ATOM     23  C   UNL A   1      30.717  27.819  24.249  1.00  0.00     0.047 A 
BRANCH  19  24
ATOM     24  C   UNL A   1      28.953  30.943  22.905  1.00  0.00     0.032 C 
ATOM     25  C   UNL A   1      27.709  31.549  23.546  1.00  0.00     0.009 C 
ENDBRANCH  19  24
ENDBRANCH  17  18
ENDBRANCH  12  17
BRANCH  14  26
ATOM     26  N   UNL A   1      31.125  23.801  26.318  1.00  0.00     0.072 N 
ATOM     27  O   UNL A   1      31.406  24.625  27.200  1.00  0.00    -0.258 OA
ATOM     28  O   UNL A   1      30.437  22.783  26.481  1.00  0.00    -0.258 OA
ENDBRANCH  14  26
ENDBRANCH   6  11
ENDBRANCH   3   5
ENDBRANCH   2   3
ENDBRANCH   1   2
BRANCH   1  29
ATOM     29  C   UNL A   1      40.812  22.395  26.656  1.00  0.00     0.275 C 
BRANCH  29  30
ATOM     30  O   UNL A   1      40.241  23.715  26.555  1.00  0.00    -0.458 OA
BRANCH  30  31
ATOM     31  C   UNL A   1      41.140  24.723  26.465  1.00  0.00     0.338 C 
ATOM     32  O   UNL A   1      42.008  24.869  25.621  1.00  0.00    -0.246 OA
BRANCH  31  33
ATOM     33  C   UNL A   1      40.846  25.752  27.476  1.00  0.00     0.060 A 
ATOM     34  C   UNL A   1      41.703  26.853  27.542  1.00  0.00     0.016 A 
ATOM     35  C   UNL A   1      39.812  25.604  28.401  1.00  0.00     0.016 A 
ATOM     36  C   UNL A   1      41.525  27.822  28.526  1.00  0.00     0.010 A 
ATOM     37  C   UNL A   1      39.639  26.573  29.398  1.00  0.00     0.010 A 
ATOM     38  C   UNL A   1      40.499  27.684  29.470  1.00  0.00    -0.014 A 
BRANCH  38  39
ATOM     39  C   UNL A   1      40.378  28.691  30.550  1.00  0.00     0.031 A 
ATOM     40  C   UNL A   1      39.345  29.777  30.459  1.00  0.00     0.074 A 
ATOM     41  C   UNL A   1      41.156  28.592  31.644  1.00  0.00     0.049 A 
ATOM     42  N   UNL A   1      39.081  30.740  31.305  1.00  0.00    -0.248 NA
ATOM     43  C   UNL A   1      38.493  29.775  29.260  1.00  0.00     0.031 C 
ATOM     44  C   UNL A   1      42.170  27.563  31.867  1.00  0.00     0.029 A 
ATOM     45  N   UNL A   1      41.205  29.365  32.777  1.00  0.00    -0.354 N 
ATOM     46  C   UNL A   1      38.043  31.467  30.737  1.00  0.00     0.074 A 
ATOM     47  C   UNL A   1      37.736  30.844  29.466  1.00  0.00     0.031 C 
ATOM     48  C   UNL A   1      42.735  27.760  33.069  1.00  0.00     0.029 A 
ATOM     49  C   UNL A   1      42.147  28.947  33.685  1.00  0.00     0.049 A 
ATOM     50  H   UNL A   1      40.622  30.143  32.925  1.00  0.00     0.167 HD
ATOM     51  C   UNL A   1      37.403  32.554  31.232  1.00  0.00     0.037 A 
ATOM     52  C   UNL A   1      42.506  29.471  34.872  1.00  0.00     0.037 A 
ATOM     53  C   UNL A   1      37.697  33.167  32.501  1.00  0.00     0.049 A 
ATOM     54  C   UNL A   1      41.806  30.700  35.380  1.00  0.00     0.074 A 
ATOM     55  C   UNL A   1      37.085  34.258  33.095  1.00  0.00     0.029 A 
ATOM     56  N   UNL A   1      38.686  32.740  33.374  1.00  0.00    -0.354 N 
ATOM     57  N   UNL A   1      40.824  31.376  34.835  1.00  0.00    -0.248 NA
ATOM     58  C   UNL A   1      42.268  31.242  36.666  1.00  0.00     0.031 C 
ATOM     59  C   UNL A   1      37.730  34.514  34.311  1.00  0.00     0.029 A 
ATOM     60  C   UNL A   1      38.718  33.559  34.491  1.00  0.00     0.049 A 
ATOM     61  H   UNL A   1      39.279  31.969  33.222  1.00  0.00     0.167 HD
ATOM     62  C   UNL A   1      40.546  32.415  35.713  1.00  0.00     0.074 A 
ATOM     63  C   UNL A   1      41.446  32.268  36.837  1.00  0.00     0.031 C 
ATOM     64  C   UNL A   1      39.628  33.406  35.596  1.00  0.00     0.037 A 
BRANCH  51  65
ATOM     65  C   UNL A   1      36.332  33.169  30.382  1.00  0.00     0.057 A 
ATOM     66  C   UNL A   1      36.634  34.003  29.300  1.00  0.00     0.134 A 
ATOM     67  C   UNL A   1      34.982  32.892  30.630  1.00  0.00     0.134 A 
ATOM     68  F   UNL A   1      37.908  34.318  29.018  1.00  0.00    -0.206 F 
ATOM     69  C   UNL A   1      35.630  34.555  28.503  1.00  0.00     0.040 A 
ATOM     70  C   UNL A   1      33.970  33.421  29.829  1.00  0.00     0.040 A 
ATOM     71  F   UNL A   1      34.626  32.097  31.650  1.00  0.00    -0.206 F 
ATOM     72  C   UNL A   1      34.292  34.259  28.764  1.00  0.00     0.006 A 
ENDBRANCH  51  65
BRANCH  52  73
ATOM     73  C   UNL A   1      43.596  28.842  35.658  1.00  0.00     0.057 A 
ATOM     74  C   UNL A   1      43.337  27.802  36.556  1.00  0.00     0.134 A 
ATOM     75  C   UNL A   1      44.921  29.276  35.533  1.00  0.00     0.134 A 
ATOM     76  F   UNL A   1      42.083  27.362  36.737  1.00  0.00    -0.206 F 
ATOM     77  C   UNL A   1      44.357  27.221  37.312  1.00  0.00     0.040 A 
ATOM     78  C   UNL A   1      45.954  28.689  36.264  1.00  0.00     0.040 A 
ATOM     79  F   UNL A   1      45.232  30.271  34.688  1.00  0.00    -0.206 F 
ATOM     80  C   UNL A   1      45.671  27.660  37.161  1.00  0.00     0.006 A 
ENDBRANCH  52  73
BRANCH  64  81
ATOM     81  C   UNL A   1      39.554  34.399  36.716  1.00  0.00     0.057 A 
ATOM     82  C   UNL A   1      38.821  34.138  37.881  1.00  0.00     0.134 A 
ATOM     83  C   UNL A   1      40.238  35.619  36.639  1.00  0.00     0.134 A 
ATOM     84  F   UNL A   1      38.133  32.993  38.009  1.00  0.00    -0.206 F 
ATOM     85  C   UNL A   1      38.753  35.065  38.921  1.00  0.00     0.040 A 
ATOM     86  C   UNL A   1      40.194  36.545  37.682  1.00  0.00     0.040 A 
ATOM     87  F   UNL A   1      40.963  35.926  35.554  1.00  0.00    -0.206 F 
ATOM     88  C   UNL A   1      39.444  36.272  38.825  1.00  0.00     0.006 A 
ENDBRANCH  64  81
ENDBRANCH  38  39
ENDBRANCH  31  33
ENDBRANCH  30  31
ENDBRANCH  29  30
ENDBRANCH   1  29
TORSDOF 16
ENDMDL
MODEL 2
REMARK VINA RESULT:     -11.9      1.143      2.089
REMARK SMILES CCc1ccc(Oc2ncnc(N3CCC(C(=O)OCCOC(=O)c4ccc(-c5c6nc(c(-c7c(F)cccc7F)c7ccc([nH]7)c(-c7c(F)cccc7F)c7nc(c(-c8c(F)cccc8F)c8ccc5[nH]8)C=C7)C=C6)cc4)CC3)c2[N+](=O)[O-])cc1
REMARK SMILES IDX 20 1 19 2 17 3 18 4 16 5 13 6 14 7 80 8 15 9 79 10 12 11
REMARK SMILES IDX 8 12 9 13 81 14 10 15 11 16 7 17 6 18 3 19 4 20 86 21 5 22
REMARK SMILES IDX 85 23 2 24 1 25 82 26 83 27 84 28 21 29 22 30 23 31 24 32
REMARK SMILES IDX 25 33 26 34 78 35 27 36 77 37 28 38 29 39 30 40 71 41 31 42
REMARK SMILES IDX 76 43 70 44 72 45 32 46 75 47 69 48 68 49 33 51 59 52 42 53
REMARK SMILES IDX 58 54 43 55 46 56 57 57 73 58 44 59 45 60 56 62 74 63 47 64
REMARK SMILES IDX 34 65 35 66 40 67 36 68 37 69 39 70 41 71 38 72 60 73 61 74
REMARK SMILES IDX 66 75 62 76 63 77 65 78 67 79 64 80 48 81 49 82 54 83 50 84
REMARK SMILES IDX 51 85 53 86 55 87 52 88
REMARK H PARENT 72 50 46 61
REMARK Flexibility Score: inf
ROOT
ATOM      1  C   UNL A   1      40.209  21.411  26.237  1.00  0.00     0.274 C 
ENDROOT
BRANCH   1   2
ATOM      2  O   UNL A   1      38.895  21.848  25.842  1.00  0.00    -0.462 OA
BRANCH   2   3
ATOM      3  C   UNL A   1      38.132  20.935  25.190  1.00  0.00     0.309 C 
ATOM      4  O   UNL A   1      38.418  19.751  25.055  1.00  0.00    -0.252 OA
BRANCH   3   5
ATOM      5  C   UNL A   1      36.851  21.517  24.635  1.00  0.00     0.103 C 
ATOM      6  N   UNL A   1      34.353  22.866  24.509  1.00  0.00    -0.351 N 
ATOM      7  C   UNL A   1      34.375  21.416  24.332  1.00  0.00     0.119 C 
ATOM      8  C   UNL A   1      35.565  23.619  24.201  1.00  0.00     0.119 C 
ATOM      9  C   UNL A   1      35.564  20.808  25.066  1.00  0.00     0.037 C 
ATOM     10  C   UNL A   1      36.754  23.012  24.943  1.00  0.00     0.037 C 
BRANCH   6  11
ATOM     11  C   UNL A   1      33.322  23.422  25.237  1.00  0.00     0.215 A 
ATOM     12  C   UNL A   1      31.527  24.921  25.619  1.00  0.00     0.305 A 
ATOM     13  N   UNL A   1      31.217  24.322  26.786  1.00  0.00    -0.195 NA
ATOM     14  C   UNL A   1      32.601  24.534  24.845  1.00  0.00     0.373 A 
ATOM     15  C   UNL A   1      31.980  23.278  27.115  1.00  0.00     0.228 A 
ATOM     16  N   UNL A   1      32.992  22.786  26.384  1.00  0.00    -0.212 NA
BRANCH  12  17
ATOM     17  O   UNL A   1      30.672  25.939  25.266  1.00  0.00    -0.434 OA
BRANCH  17  18
ATOM     18  C   UNL A   1      31.045  27.225  25.603  1.00  0.00     0.129 A 
ATOM     19  C   UNL A   1      32.012  29.730  26.450  1.00  0.00    -0.048 A 
ATOM     20  C   UNL A   1      31.943  28.649  27.340  1.00  0.00     0.007 A 
ATOM     21  C   UNL A   1      31.523  29.555  25.150  1.00  0.00     0.007 A 
ATOM     22  C   UNL A   1      31.469  27.404  26.918  1.00  0.00     0.047 A 
ATOM     23  C   UNL A   1      31.032  28.316  24.730  1.00  0.00     0.047 A 
BRANCH  19  24
ATOM     24  C   UNL A   1      32.553  31.055  26.937  1.00  0.00     0.032 C 
ATOM     25  C   UNL A   1      33.956  31.003  27.533  1.00  0.00     0.009 C 
ENDBRANCH  19  24
ENDBRANCH  17  18
ENDBRANCH  12  17
BRANCH  14  26
ATOM     26  N   UNL A   1      32.893  25.227  23.631  1.00  0.00     0.072 N 
ATOM     27  O   UNL A   1      33.634  26.217  23.693  1.00  0.00    -0.258 OA
ATOM     28  O   UNL A   1      32.363  24.792  22.598  1.00  0.00    -0.258 OA
ENDBRANCH  14  26
ENDBRANCH   6  11
ENDBRANCH   3   5
ENDBRANCH   2   3
ENDBRANCH   1   2
BRANCH   1  29
ATOM     29  C   UNL A   1      41.195  22.582  26.268  1.00  0.00     0.275 C 
BRANCH  29  30
ATOM     30  O   UNL A   1      40.535  23.828  26.569  1.00  0.00    -0.458 OA
BRANCH  30  31
ATOM     31  C   UNL A   1      41.291  24.936  26.386  1.00  0.00     0.338 C 
ATOM     32  O   UNL A   1      42.045  25.173  25.457  1.00  0.00    -0.246 OA
BRANCH  31  33
ATOM     33  C   UNL A   1      40.979  25.936  27.419  1.00  0.00     0.060 A 
ATOM     34  C   UNL A   1      41.801  27.062  27.495  1.00  0.00     0.016 A 
ATOM     35  C   UNL A   1      39.963  25.737  28.355  1.00  0.00     0.016 A 
ATOM     36  C   UNL A   1      41.605  28.006  28.499  1.00  0.00     0.010 A 
ATOM     37  C   UNL A   1      39.773  26.682  29.373  1.00  0.00     0.010 A 
ATOM     38  C   UNL A   1      40.598  27.818  29.454  1.00  0.00    -0.014 A 
BRANCH  38  39
ATOM     39  C   UNL A   1      40.460  28.801  30.555  1.00  0.00     0.031 A 
ATOM     40  C   UNL A   1      39.411  29.873  30.484  1.00  0.00     0.074 A 
ATOM     41  C   UNL A   1      41.238  28.691  31.648  1.00  0.00     0.049 A 
ATOM     42  N   UNL A   1      39.131  30.815  31.348  1.00  0.00    -0.248 NA
ATOM     43  C   UNL A   1      38.562  29.884  29.283  1.00  0.00     0.031 C 
ATOM     44  C   UNL A   1      42.266  27.672  31.852  1.00  0.00     0.029 A 
ATOM     45  N   UNL A   1      41.273  29.440  32.797  1.00  0.00    -0.354 N 
ATOM     46  C   UNL A   1      38.084  31.538  30.794  1.00  0.00     0.074 A 
ATOM     47  C   UNL A   1      37.789  30.937  29.509  1.00  0.00     0.031 C 
ATOM     48  C   UNL A   1      42.826  27.852  33.059  1.00  0.00     0.029 A 
ATOM     49  C   UNL A   1      42.219  29.018  33.698  1.00  0.00     0.049 A 
ATOM     50  H   UNL A   1      40.678  30.207  32.959  1.00  0.00     0.167 HD
ATOM     51  C   UNL A   1      37.427  32.605  31.309  1.00  0.00     0.037 A 
ATOM     52  C   UNL A   1      42.568  29.522  34.896  1.00  0.00     0.037 A 
ATOM     53  C   UNL A   1      37.709  33.195  32.592  1.00  0.00     0.049 A 
ATOM     54  C   UNL A   1      41.849  30.730  35.428  1.00  0.00     0.074 A 
ATOM     55  C   UNL A   1      37.081  34.265  33.206  1.00  0.00     0.029 A 
ATOM     56  N   UNL A   1      38.703  32.765  33.458  1.00  0.00    -0.354 N 
ATOM     57  N   UNL A   1      40.858  31.403  34.895  1.00  0.00    -0.248 NA
ATOM     58  C   UNL A   1      42.301  31.252  36.726  1.00  0.00     0.031 C 
ATOM     59  C   UNL A   1      37.719  34.505  34.429  1.00  0.00     0.029 A 
ATOM     60  C   UNL A   1      38.720  33.562  34.591  1.00  0.00     0.049 A 
ATOM     61  H   UNL A   1      39.307  32.006  33.291  1.00  0.00     0.167 HD
ATOM     62  C   UNL A   1      40.562  32.419  35.794  1.00  0.00     0.074 A 
ATOM     63  C   UNL A   1      41.463  32.262  36.916  1.00  0.00     0.031 C 
ATOM     64  C   UNL A   1      39.630  33.399  35.695  1.00  0.00     0.037 A 
BRANCH  51  65
ATOM     65  C   UNL A   1      36.349  33.221  30.470  1.00  0.00     0.057 A 
ATOM     66  C   UNL A   1      36.642  34.011  29.352  1.00  0.00     0.134 A 
ATOM     67  C   UNL A   1      34.999  32.990  30.766  1.00  0.00     0.134 A 
ATOM     68  F   UNL A   1      37.915  34.281  29.025  1.00  0.00    -0.206 F 
ATOM     69  C   UNL A   1      35.630  34.564  28.566  1.00  0.00     0.040 A 
ATOM     70  C   UNL A   1      33.979  33.521  29.976  1.00  0.00     0.040 A 
ATOM     71  F   UNL A   1      34.652  32.239  31.821  1.00  0.00    -0.206 F 
ATOM     72  C   UNL A   1      34.293  34.315  28.874  1.00  0.00     0.006 A 
ENDBRANCH  51  65
BRANCH  52  73
ATOM     73  C   UNL A   1      43.665  28.894  35.672  1.00  0.00     0.057 A 
ATOM     74  C   UNL A   1      43.414  27.857  36.576  1.00  0.00     0.134 A 
ATOM     75  C   UNL A   1      44.990  29.325  35.530  1.00  0.00     0.134 A 
ATOM     76  F   UNL A   1      42.162  27.420  36.773  1.00  0.00    -0.206 F 
ATOM     77  C   UNL A   1      44.442  27.275  37.321  1.00  0.00     0.040 A 
ATOM     78  C   UNL A   1      46.030  28.737  36.251  1.00  0.00     0.040 A 
ATOM     79  F   UNL A   1      45.293  30.316  34.679  1.00  0.00    -0.206 F 
ATOM     80  C   UNL A   1      45.755  27.712  37.154  1.00  0.00     0.006 A 
ENDBRANCH  52  73
BRANCH  64  81
ATOM     81  C   UNL A   1      39.540  34.368  36.836  1.00  0.00     0.057 A 
ATOM     82  C   UNL A   1      40.177  35.614  36.790  1.00  0.00     0.134 A 
ATOM     83  C   UNL A   1      38.795  34.060  37.981  1.00  0.00     0.134 A 
ATOM     84  F   UNL A   1      40.917  35.962  35.727  1.00  0.00    -0.206 F 
ATOM     85  C   UNL A   1      40.094  36.513  37.854  1.00  0.00     0.040 A 
ATOM     86  C   UNL A   1      38.687  34.960  39.042  1.00  0.00     0.040 A 
ATOM     87  F   UNL A   1      38.156  32.886  38.083  1.00  0.00    -0.206 F 
ATOM     88  C   UNL A   1      39.343  36.188  38.983  1.00  0.00     0.006 A 
ENDBRANCH  64  81
ENDBRANCH  38  39
ENDBRANCH  31  33
ENDBRANCH  30  31
ENDBRANCH  29  30
ENDBRANCH   1  29
TORSDOF 16
ENDMDL
MODEL 3
REMARK VINA RESULT:     -11.9      5.014     10.008
REMARK SMILES CCc1ccc(Oc2ncnc(N3CCC(C(=O)OCCOC(=O)c4ccc(-c5c6nc(c(-c7c(F)cccc7F)c7ccc([nH]7)c(-c7c(F)cccc7F)c7nc(c(-c8c(F)cccc8F)c8ccc5[nH]8)C=C7)C=C6)cc4)CC3)c2[N+](=O)[O-])cc1
REMARK SMILES IDX 20 1 19 2 17 3 18 4 16 5 13 6 14 7 80 8 15 9 79 10 12 11
REMARK SMILES IDX 8 12 9 13 81 14 10 15 11 16 7 17 6 18 3 19 4 20 86 21 5 22
REMARK SMILES IDX 85 23 2 24 1 25 82 26 83 27 84 28 21 29 22 30 23 31 24 32
REMARK SMILES IDX 25 33 26 34 78 35 27 36 77 37 28 38 29 39 30 40 71 41 31 42
REMARK SMILES IDX 76 43 70 44 72 45 32 46 75 47 69 48 68 49 33 51 59 52 42 53
REMARK SMILES IDX 58 54 43 55 46 56 57 57 73 58 44 59 45 60 56 62 74 63 47 64
REMARK SMILES IDX 34 65 35 66 40 67 36 68 37 69 39 70 41 71 38 72 60 73 61 74
REMARK SMILES IDX 66 75 62 76 63 77 65 78 67 79 64 80 48 81 49 82 54 83 50 84
REMARK SMILES IDX 51 85 53 86 55 87 52 88
REMARK H PARENT 72 50 46 61
REMARK Flexibility Score: inf
ROOT
ATOM      1  C   UNL A   1      34.531  34.121  30.119  1.00  0.00     0.274 C 
ENDROOT
BRANCH   1   2
ATOM      2  O   UNL A   1      33.740  33.243  29.298  1.00  0.00    -0.462 OA
BRANCH   2   3
ATOM      3  C   UNL A   1      34.382  32.659  28.255  1.00  0.00     0.309 C 
ATOM      4  O   UNL A   1      35.308  33.164  27.630  1.00  0.00    -0.252 OA
BRANCH   3   5
ATOM      5  C   UNL A   1      33.851  31.282  27.924  1.00  0.00     0.103 C 
ATOM      6  N   UNL A   1      33.235  28.928  26.455  1.00  0.00    -0.351 N 
ATOM      7  C   UNL A   1      32.142  29.819  26.840  1.00  0.00     0.119 C 
ATOM      8  C   UNL A   1      34.458  28.950  27.251  1.00  0.00     0.119 C 
ATOM      9  C   UNL A   1      32.646  31.250  26.979  1.00  0.00     0.037 C 
ATOM     10  C   UNL A   1      34.965  30.385  27.383  1.00  0.00     0.037 C 
BRANCH   6  11
ATOM     11  C   UNL A   1      33.195  28.343  25.207  1.00  0.00     0.215 A 
ATOM     12  C   UNL A   1      32.609  26.667  23.638  1.00  0.00     0.305 A 
ATOM     13  N   UNL A   1      33.107  27.389  22.614  1.00  0.00    -0.195 NA
ATOM     14  C   UNL A   1      32.683  27.086  24.950  1.00  0.00     0.373 A 
ATOM     15  C   UNL A   1      33.618  28.576  22.945  1.00  0.00     0.228 A 
ATOM     16  N   UNL A   1      33.658  29.096  24.182  1.00  0.00    -0.212 NA
BRANCH  12  17
ATOM     17  O   UNL A   1      32.016  25.487  23.256  1.00  0.00    -0.434 OA
BRANCH  17  18
ATOM     18  C   UNL A   1      32.637  24.313  23.632  1.00  0.00     0.129 A 
ATOM     19  C   UNL A   1      33.680  21.780  24.285  1.00  0.00    -0.048 A 
ATOM     20  C   UNL A   1      32.308  22.043  24.402  1.00  0.00     0.007 A 
ATOM     21  C   UNL A   1      34.529  22.826  23.904  1.00  0.00     0.007 A 
ATOM     22  C   UNL A   1      31.789  23.298  24.072  1.00  0.00     0.047 A 
ATOM     23  C   UNL A   1      34.015  24.087  23.591  1.00  0.00     0.047 A 
BRANCH  19  24
ATOM     24  C   UNL A   1      34.201  20.403  24.628  1.00  0.00     0.032 C 
ATOM     25  C   UNL A   1      35.679  20.344  24.999  1.00  0.00     0.009 C 
ENDBRANCH  19  24
ENDBRANCH  17  18
ENDBRANCH  12  17
BRANCH  14  26
ATOM     26  N   UNL A   1      32.160  26.262  25.992  1.00  0.00     0.072 N 
ATOM     27  O   UNL A   1      30.955  26.365  26.263  1.00  0.00    -0.258 OA
ATOM     28  O   UNL A   1      32.962  25.511  26.567  1.00  0.00    -0.258 OA
ENDBRANCH  14  26
ENDBRANCH   6  11
ENDBRANCH   3   5
ENDBRANCH   2   3
ENDBRANCH   1   2
BRANCH   1  29
ATOM     29  C   UNL A   1      34.428  33.737  31.598  1.00  0.00     0.275 C 
BRANCH  29  30
ATOM     30  O   UNL A   1      34.765  32.352  31.815  1.00  0.00    -0.458 OA
BRANCH  30  31
ATOM     31  C   UNL A   1      35.843  32.141  32.605  1.00  0.00     0.338 C 
ATOM     32  O   UNL A   1      35.919  32.297  33.813  1.00  0.00    -0.246 OA
BRANCH  31  33
ATOM     33  C   UNL A   1      36.933  31.537  31.821  1.00  0.00     0.060 A 
ATOM     34  C   UNL A   1      38.031  31.035  32.523  1.00  0.00     0.016 A 
ATOM     35  C   UNL A   1      36.929  31.543  30.426  1.00  0.00     0.016 A 
ATOM     36  C   UNL A   1      39.127  30.522  31.837  1.00  0.00     0.010 A 
ATOM     37  C   UNL A   1      38.037  31.036  29.734  1.00  0.00     0.010 A 
ATOM     38  C   UNL A   1      39.145  30.529  30.436  1.00  0.00    -0.014 A 
BRANCH  38  39
ATOM     39  C   UNL A   1      40.356  30.045  29.732  1.00  0.00     0.031 A 
ATOM     40  C   UNL A   1      41.532  30.958  29.534  1.00  0.00     0.074 A 
ATOM     41  C   UNL A   1      40.423  28.763  29.327  1.00  0.00     0.049 A 
ATOM     42  N   UNL A   1      42.679  30.715  28.953  1.00  0.00    -0.248 NA
ATOM     43  C   UNL A   1      41.400  32.324  30.063  1.00  0.00     0.031 C 
ATOM     44  C   UNL A   1      39.364  27.769  29.496  1.00  0.00     0.029 A 
ATOM     45  N   UNL A   1      41.432  28.077  28.701  1.00  0.00    -0.354 N 
ATOM     46  C   UNL A   1      43.401  31.897  29.033  1.00  0.00     0.074 A 
ATOM     47  C   UNL A   1      42.557  32.864  29.705  1.00  0.00     0.031 C 
ATOM     48  C   UNL A   1      39.783  26.596  28.994  1.00  0.00     0.029 A 
ATOM     49  C   UNL A   1      41.124  26.764  28.440  1.00  0.00     0.049 A 
ATOM     50  H   UNL A   1      42.295  28.486  28.460  1.00  0.00     0.167 HD
ATOM     51  C   UNL A   1      44.656  32.153  28.590  1.00  0.00     0.037 A 
ATOM     52  C   UNL A   1      41.836  25.810  27.813  1.00  0.00     0.037 A 
ATOM     53  C   UNL A   1      45.502  31.190  27.935  1.00  0.00     0.049 A 
ATOM     54  C   UNL A   1      43.210  26.130  27.296  1.00  0.00     0.074 A 
ATOM     55  C   UNL A   1      46.796  31.354  27.471  1.00  0.00     0.029 A 
ATOM     56  N   UNL A   1      45.139  29.883  27.652  1.00  0.00    -0.354 N 
ATOM     57  N   UNL A   1      43.884  27.252  27.382  1.00  0.00    -0.248 NA
ATOM     58  C   UNL A   1      43.922  25.055  26.591  1.00  0.00     0.031 C 
ATOM     59  C   UNL A   1      47.203  30.154  26.873  1.00  0.00     0.029 A 
ATOM     60  C   UNL A   1      46.175  29.234  26.999  1.00  0.00     0.049 A 
ATOM     61  H   UNL A   1      44.272  29.475  27.881  1.00  0.00     0.167 HD
ATOM     62  C   UNL A   1      45.098  27.015  26.752  1.00  0.00     0.074 A 
ATOM     63  C   UNL A   1      45.078  25.637  26.308  1.00  0.00     0.031 C 
ATOM     64  C   UNL A   1      46.135  27.865  26.554  1.00  0.00     0.037 A 
BRANCH  51  65
ATOM     65  C   UNL A   1      45.182  33.544  28.778  1.00  0.00     0.057 A 
ATOM     66  C   UNL A   1      44.972  34.549  27.827  1.00  0.00     0.134 A 
ATOM     67  C   UNL A   1      45.878  33.889  29.944  1.00  0.00     0.134 A 
ATOM     68  F   UNL A   1      44.326  34.279  26.683  1.00  0.00    -0.206 F 
ATOM     69  C   UNL A   1      45.451  35.846  28.021  1.00  0.00     0.040 A 
ATOM     70  C   UNL A   1      46.343  35.187  30.158  1.00  0.00     0.040 A 
ATOM     71  F   UNL A   1      46.109  32.972  30.895  1.00  0.00    -0.206 F 
ATOM     72  C   UNL A   1      46.134  36.169  29.193  1.00  0.00     0.006 A 
ENDBRANCH  51  65
BRANCH  52  73
ATOM     73  C   UNL A   1      41.255  24.458  27.624  1.00  0.00     0.057 A 
ATOM     74  C   UNL A   1      41.705  23.363  28.368  1.00  0.00     0.134 A 
ATOM     75  C   UNL A   1      40.240  24.232  26.686  1.00  0.00     0.134 A 
ATOM     76  F   UNL A   1      42.692  23.514  29.263  1.00  0.00    -0.206 F 
ATOM     77  C   UNL A   1      41.173  22.086  28.180  1.00  0.00     0.040 A 
ATOM     78  C   UNL A   1      39.684  22.966  26.503  1.00  0.00     0.040 A 
ATOM     79  F   UNL A   1      39.768  25.242  25.941  1.00  0.00    -0.206 F 
ATOM     80  C   UNL A   1      40.154  21.887  27.250  1.00  0.00     0.006 A 
ENDBRANCH  52  73
BRANCH  64  81
ATOM     81  C   UNL A   1      47.331  27.321  25.831  1.00  0.00     0.057 A 
ATOM     82  C   UNL A   1      47.491  27.488  24.450  1.00  0.00     0.134 A 
ATOM     83  C   UNL A   1      48.341  26.643  26.525  1.00  0.00     0.134 A 
ATOM     84  F   UNL A   1      46.552  28.117  23.727  1.00  0.00    -0.206 F 
ATOM     85  C   UNL A   1      48.603  26.979  23.779  1.00  0.00     0.040 A 
ATOM     86  C   UNL A   1      49.468  26.147  25.868  1.00  0.00     0.040 A 
ATOM     87  F   UNL A   1      48.250  26.456  27.849  1.00  0.00    -0.206 F 
ATOM     88  C   UNL A   1      49.598  26.309  24.489  1.00  0.00     0.006 A 
ENDBRANCH  64  81
ENDBRANCH  38  39
ENDBRANCH  31  33
ENDBRANCH  30  31
ENDBRANCH  29  30
ENDBRANCH   1  29
TORSDOF 16
ENDMDL
