MODEL 1
REMARK VINA RESULT:     -12.4      0.000      0.000
REMARK SMILES Cc1ccc(NC(=O)C[C@@H]2C[NH2+]CCO2)c(C(=O)OCCOC(=O)c2ccc(-c3c4nc(c(-c5c(F)cccc5F)c5ccc([nH]5)c(-c5c(F)cccc5F)c5nc(c(-c6c(F)cccc6F)c6ccc3[nH]6)C=C5)C=C4)cc2)c1
REMARK SMILES IDX 20 1 19 2 17 3 18 4 16 5 1 6 2 7 3 8 79 9 4 10 5 11 6 12
REMARK SMILES IDX 7 13 8 15 9 16 10 17 11 18 15 19 12 20 14 21 13 22 21 25
REMARK SMILES IDX 22 26 23 27 24 28 25 29 26 30 78 31 27 32 77 33 28 34 29 35
REMARK SMILES IDX 30 36 71 37 31 38 76 39 70 40 72 41 32 42 75 43 69 44 68 45
REMARK SMILES IDX 33 47 59 48 42 49 58 50 43 51 46 52 57 53 73 54 44 55 45 56
REMARK SMILES IDX 56 58 74 59 47 60 34 61 35 62 40 63 36 64 37 65 39 66 41 67
REMARK SMILES IDX 38 68 60 69 61 70 66 71 62 72 63 73 65 74 67 75 64 76 48 77
REMARK SMILES IDX 49 78 54 79 50 80 51 81 53 82 55 83 52 84
REMARK H PARENT 6 14 12 23 12 24 72 46 46 57
REMARK Flexibility Score: inf
ROOT
ATOM      1  C   UNL A   1      34.220  28.307  26.379  1.00  0.00     0.275 C 
ENDROOT
BRANCH   1   2
ATOM      2  O   UNL A   1      33.850  27.949  25.022  1.00  0.00    -0.458 OA
BRANCH   2   3
ATOM      3  C   UNL A   1      33.080  26.820  25.047  1.00  0.00     0.340 C 
ATOM      4  O   UNL A   1      33.552  25.695  24.905  1.00  0.00    -0.246 OA
BRANCH   3   5
ATOM      5  C   UNL A   1      31.600  26.909  24.986  1.00  0.00     0.083 A 
ATOM      6  C   UNL A   1      29.605  28.887  22.398  1.00  0.00     0.044 C 
ATOM      7  C   UNL A   1      29.958  27.868  23.435  1.00  0.00    -0.050 A 
ATOM      8  C   UNL A   1      29.064  26.871  23.797  1.00  0.00     0.005 A 
ATOM      9  C   UNL A   1      31.216  27.880  24.033  1.00  0.00     0.021 A 
ATOM     10  C   UNL A   1      29.417  25.927  24.764  1.00  0.00     0.027 A 
ATOM     11  C   UNL A   1      30.652  25.959  25.430  1.00  0.00     0.055 A 
BRANCH  11  12
ATOM     12  N   UNL A   1      30.909  25.086  26.512  1.00  0.00    -0.325 N 
ATOM     13  C   UNL A   1      31.368  23.791  26.600  1.00  0.00     0.227 C 
ATOM     14  H   UNL A   1      30.721  25.492  27.389  1.00  0.00     0.169 HD
ATOM     15  O   UNL A   1      31.610  23.348  27.730  1.00  0.00    -0.275 OA
BRANCH  13  16
ATOM     16  C   UNL A   1      31.514  22.848  25.417  1.00  0.00     0.138 C 
BRANCH  16  17
ATOM     17  C   UNL A   1      32.278  21.561  25.773  1.00  0.00     0.182 C 
ATOM     18  C   UNL A   1      33.807  21.800  25.679  1.00  0.00     0.293 C 
ATOM     19  O   UNL A   1      31.827  20.520  24.904  1.00  0.00    -0.366 OA
ATOM     20  N   UNL A   1      34.601  20.558  25.687  1.00  0.00    -0.342 N 
ATOM     21  C   UNL A   1      32.616  19.344  24.880  1.00  0.00     0.222 C 
ATOM     22  C   UNL A   1      34.081  19.681  24.622  1.00  0.00     0.289 C 
ATOM     23  H   UNL A   1      34.512  20.095  26.591  1.00  0.00     0.346 HD
ATOM     24  H   UNL A   1      35.587  20.765  25.527  1.00  0.00     0.346 HD
ENDBRANCH  16  17
ENDBRANCH  13  16
ENDBRANCH  11  12
ENDBRANCH   3   5
ENDBRANCH   2   3
ENDBRANCH   1   2
BRANCH   1  25
ATOM     25  C   UNL A   1      33.726  29.649  26.943  1.00  0.00     0.275 C 
BRANCH  25  26
ATOM     26  O   UNL A   1      34.400  30.332  28.027  1.00  0.00    -0.458 OA
BRANCH  26  27
ATOM     27  C   UNL A   1      35.523  31.064  27.901  1.00  0.00     0.338 C 
ATOM     28  O   UNL A   1      35.524  32.231  27.532  1.00  0.00    -0.246 OA
BRANCH  27  29
ATOM     29  C   UNL A   1      36.766  30.355  28.219  1.00  0.00     0.060 A 
ATOM     30  C   UNL A   1      36.784  29.607  29.401  1.00  0.00     0.016 A 
ATOM     31  C   UNL A   1      37.822  30.315  27.312  1.00  0.00     0.016 A 
ATOM     32  C   UNL A   1      37.774  28.668  29.619  1.00  0.00     0.010 A 
ATOM     33  C   UNL A   1      38.816  29.389  27.523  1.00  0.00     0.010 A 
ATOM     34  C   UNL A   1      38.788  28.580  28.678  1.00  0.00    -0.014 A 
BRANCH  34  35
ATOM     35  C   UNL A   1      40.059  27.964  28.999  1.00  0.00     0.031 A 
ATOM     36  C   UNL A   1      40.404  26.601  28.576  1.00  0.00     0.074 A 
ATOM     37  C   UNL A   1      40.894  28.902  29.492  1.00  0.00     0.049 A 
ATOM     38  N   UNL A   1      41.531  26.043  28.830  1.00  0.00    -0.248 NA
ATOM     39  C   UNL A   1      39.494  25.698  27.882  1.00  0.00     0.031 C 
ATOM     40  C   UNL A   1      42.338  29.005  29.489  1.00  0.00     0.029 A 
ATOM     41  N   UNL A   1      40.478  29.992  30.270  1.00  0.00    -0.354 N 
ATOM     42  C   UNL A   1      41.624  24.906  28.048  1.00  0.00     0.074 A 
ATOM     43  C   UNL A   1      40.285  24.658  27.598  1.00  0.00     0.031 C 
ATOM     44  C   UNL A   1      42.702  29.905  30.425  1.00  0.00     0.029 A 
ATOM     45  C   UNL A   1      41.501  30.243  31.183  1.00  0.00     0.049 A 
ATOM     46  H   UNL A   1      39.628  30.484  30.187  1.00  0.00     0.167 HD
ATOM     47  C   UNL A   1      42.875  24.448  27.760  1.00  0.00     0.037 A 
ATOM     48  C   UNL A   1      41.286  29.896  32.490  1.00  0.00     0.037 A 
ATOM     49  C   UNL A   1      43.831  25.152  28.613  1.00  0.00     0.049 A 
ATOM     50  C   UNL A   1      42.216  28.778  32.889  1.00  0.00     0.074 A 
ATOM     51  C   UNL A   1      44.588  26.291  28.402  1.00  0.00     0.029 A 
ATOM     52  N   UNL A   1      43.759  24.965  29.990  1.00  0.00    -0.354 N 
ATOM     53  N   UNL A   1      42.556  27.779  32.115  1.00  0.00    -0.248 NA
ATOM     54  C   UNL A   1      42.944  28.808  34.150  1.00  0.00     0.031 C 
ATOM     55  C   UNL A   1      44.861  26.862  29.676  1.00  0.00     0.029 A 
ATOM     56  C   UNL A   1      44.289  26.057  30.650  1.00  0.00     0.049 A 
ATOM     57  H   UNL A   1      43.383  24.170  30.431  1.00  0.00     0.167 HD
ATOM     58  C   UNL A   1      43.600  27.111  32.703  1.00  0.00     0.074 A 
ATOM     59  C   UNL A   1      43.784  27.776  33.984  1.00  0.00     0.031 C 
ATOM     60  C   UNL A   1      44.305  26.106  32.103  1.00  0.00     0.037 A 
BRANCH  47  61
ATOM     61  C   UNL A   1      43.292  23.624  26.555  1.00  0.00     0.057 A 
ATOM     62  C   UNL A   1      43.260  22.213  26.637  1.00  0.00     0.134 A 
ATOM     63  C   UNL A   1      43.836  24.109  25.351  1.00  0.00     0.134 A 
ATOM     64  F   UNL A   1      42.737  21.584  27.700  1.00  0.00    -0.206 F 
ATOM     65  C   UNL A   1      43.776  21.368  25.645  1.00  0.00     0.040 A 
ATOM     66  C   UNL A   1      44.348  23.272  24.344  1.00  0.00     0.040 A 
ATOM     67  F   UNL A   1      43.915  25.411  25.069  1.00  0.00    -0.206 F 
ATOM     68  C   UNL A   1      44.333  21.896  24.493  1.00  0.00     0.006 A 
ENDBRANCH  47  61
BRANCH  48  69
ATOM     69  C   UNL A   1      39.854  30.036  32.913  1.00  0.00     0.057 A 
ATOM     70  C   UNL A   1      39.310  31.337  33.003  1.00  0.00     0.134 A 
ATOM     71  C   UNL A   1      38.940  28.978  32.873  1.00  0.00     0.134 A 
ATOM     72  F   UNL A   1      40.124  32.403  33.061  1.00  0.00    -0.206 F 
ATOM     73  C   UNL A   1      37.939  31.582  32.911  1.00  0.00     0.040 A 
ATOM     74  C   UNL A   1      37.558  29.212  32.811  1.00  0.00     0.040 A 
ATOM     75  F   UNL A   1      39.360  27.708  32.795  1.00  0.00    -0.206 F 
ATOM     76  C   UNL A   1      37.061  30.515  32.789  1.00  0.00     0.006 A 
ENDBRANCH  48  69
BRANCH  60  77
ATOM     77  C   UNL A   1      45.189  25.131  32.839  1.00  0.00     0.057 A 
ATOM     78  C   UNL A   1      46.493  25.432  33.256  1.00  0.00     0.134 A 
ATOM     79  C   UNL A   1      44.678  23.900  33.309  1.00  0.00     0.134 A 
ATOM     80  F   UNL A   1      47.056  26.624  33.015  1.00  0.00    -0.206 F 
ATOM     81  C   UNL A   1      47.267  24.537  34.001  1.00  0.00     0.040 A 
ATOM     82  C   UNL A   1      45.415  23.033  34.117  1.00  0.00     0.040 A 
ATOM     83  F   UNL A   1      43.429  23.495  33.038  1.00  0.00    -0.206 F 
ATOM     84  C   UNL A   1      46.725  23.339  34.444  1.00  0.00     0.006 A 
ENDBRANCH  60  77
ENDBRANCH  34  35
ENDBRANCH  27  29
ENDBRANCH  26  27
ENDBRANCH  25  26
ENDBRANCH   1  25
TORSDOF 14
ENDMDL
MODEL 2
REMARK VINA RESULT:     -12.3      1.383      2.418
REMARK SMILES Cc1ccc(NC(=O)C[C@@H]2C[NH2+]CCO2)c(C(=O)OCCOC(=O)c2ccc(-c3c4nc(c(-c5c(F)cccc5F)c5ccc([nH]5)c(-c5c(F)cccc5F)c5nc(c(-c6c(F)cccc6F)c6ccc3[nH]6)C=C5)C=C4)cc2)c1
REMARK SMILES IDX 20 1 19 2 17 3 18 4 16 5 1 6 2 7 3 8 79 9 4 10 5 11 6 12
REMARK SMILES IDX 7 13 8 15 9 16 10 17 11 18 15 19 12 20 14 21 13 22 21 25
REMARK SMILES IDX 22 26 23 27 24 28 25 29 26 30 78 31 27 32 77 33 28 34 29 35
REMARK SMILES IDX 30 36 71 37 31 38 76 39 70 40 72 41 32 42 75 43 69 44 68 45
REMARK SMILES IDX 33 47 59 48 42 49 58 50 43 51 46 52 57 53 73 54 44 55 45 56
REMARK SMILES IDX 56 58 74 59 47 60 34 61 35 62 40 63 36 64 37 65 39 66 41 67
REMARK SMILES IDX 38 68 60 69 61 70 66 71 62 72 63 73 65 74 67 75 64 76 48 77
REMARK SMILES IDX 49 78 54 79 50 80 51 81 53 82 55 83 52 84
REMARK H PARENT 6 14 12 23 12 24 72 46 46 57
REMARK Flexibility Score: inf
ROOT
ATOM      1  C   UNL A   1      33.233  28.383  26.082  1.00  0.00     0.275 C 
ENDROOT
BRANCH   1   2
ATOM      2  O   UNL A   1      33.354  26.998  26.500  1.00  0.00    -0.458 OA
BRANCH   2   3
ATOM      3  C   UNL A   1      33.915  26.270  25.489  1.00  0.00     0.340 C 
ATOM      4  O   UNL A   1      34.030  26.704  24.346  1.00  0.00    -0.246 OA
BRANCH   3   5
ATOM      5  C   UNL A   1      34.178  24.818  25.654  1.00  0.00     0.083 A 
ATOM      6  C   UNL A   1      37.534  23.094  25.056  1.00  0.00     0.044 C 
ATOM      7  C   UNL A   1      36.157  23.370  25.573  1.00  0.00    -0.050 A 
ATOM      8  C   UNL A   1      35.554  22.529  26.498  1.00  0.00     0.005 A 
ATOM      9  C   UNL A   1      35.463  24.503  25.157  1.00  0.00     0.021 A 
ATOM     10  C   UNL A   1      34.269  22.809  26.970  1.00  0.00     0.027 A 
ATOM     11  C   UNL A   1      33.524  23.908  26.515  1.00  0.00     0.055 A 
BRANCH  11  12
ATOM     12  N   UNL A   1      32.171  24.067  26.894  1.00  0.00    -0.325 N 
ATOM     13  C   UNL A   1      31.023  23.354  26.636  1.00  0.00     0.227 C 
ATOM     14  H   UNL A   1      32.019  24.854  27.464  1.00  0.00     0.169 HD
ATOM     15  O   UNL A   1      29.995  23.693  27.235  1.00  0.00    -0.275 OA
BRANCH  13  16
ATOM     16  C   UNL A   1      30.914  22.240  25.606  1.00  0.00     0.138 C 
BRANCH  16  17
ATOM     17  C   UNL A   1      30.981  22.758  24.160  1.00  0.00     0.182 C 
ATOM     18  C   UNL A   1      32.207  22.154  23.428  1.00  0.00     0.293 C 
ATOM     19  O   UNL A   1      31.010  24.187  24.199  1.00  0.00    -0.366 OA
ATOM     20  N   UNL A   1      32.532  22.832  22.160  1.00  0.00    -0.342 N 
ATOM     21  C   UNL A   1      31.366  24.836  22.992  1.00  0.00     0.222 C 
ATOM     22  C   UNL A   1      32.672  24.272  22.440  1.00  0.00     0.289 C 
ATOM     23  H   UNL A   1      31.783  22.682  21.484  1.00  0.00     0.346 HD
ATOM     24  H   UNL A   1      33.397  22.460  21.770  1.00  0.00     0.346 HD
ENDBRANCH  16  17
ENDBRANCH  13  16
ENDBRANCH  11  12
ENDBRANCH   3   5
ENDBRANCH   2   3
ENDBRANCH   1   2
BRANCH   1  25
ATOM     25  C   UNL A   1      33.481  29.487  27.124  1.00  0.00     0.275 C 
BRANCH  25  26
ATOM     26  O   UNL A   1      34.591  30.412  27.025  1.00  0.00    -0.458 OA
BRANCH  26  27
ATOM     27  C   UNL A   1      35.276  30.912  28.070  1.00  0.00     0.338 C 
ATOM     28  O   UNL A   1      34.887  31.866  28.732  1.00  0.00    -0.246 OA
BRANCH  27  29
ATOM     29  C   UNL A   1      36.548  30.242  28.357  1.00  0.00     0.060 A 
ATOM     30  C   UNL A   1      36.616  29.487  29.532  1.00  0.00     0.016 A 
ATOM     31  C   UNL A   1      37.585  30.244  27.428  1.00  0.00     0.016 A 
ATOM     32  C   UNL A   1      37.640  28.579  29.721  1.00  0.00     0.010 A 
ATOM     33  C   UNL A   1      38.613  29.350  27.610  1.00  0.00     0.010 A 
ATOM     34  C   UNL A   1      38.637  28.532  28.758  1.00  0.00    -0.014 A 
BRANCH  34  35
ATOM     35  C   UNL A   1      39.934  27.956  29.047  1.00  0.00     0.031 A 
ATOM     36  C   UNL A   1      40.294  26.587  28.656  1.00  0.00     0.074 A 
ATOM     37  C   UNL A   1      40.766  28.928  29.474  1.00  0.00     0.049 A 
ATOM     38  N   UNL A   1      41.444  26.063  28.882  1.00  0.00    -0.248 NA
ATOM     39  C   UNL A   1      39.378  25.641  28.031  1.00  0.00     0.031 C 
ATOM     40  C   UNL A   1      42.205  29.064  29.409  1.00  0.00     0.029 A 
ATOM     41  N   UNL A   1      40.355  30.035  30.232  1.00  0.00    -0.354 N 
ATOM     42  C   UNL A   1      41.531  24.903  28.136  1.00  0.00     0.074 A 
ATOM     43  C   UNL A   1      40.182  24.609  27.750  1.00  0.00     0.031 C 
ATOM     44  C   UNL A   1      42.585  30.003  30.298  1.00  0.00     0.029 A 
ATOM     45  C   UNL A   1      41.408  30.340  31.093  1.00  0.00     0.049 A 
ATOM     46  H   UNL A   1      39.492  30.504  30.167  1.00  0.00     0.167 HD
ATOM     47  C   UNL A   1      42.780  24.463  27.812  1.00  0.00     0.037 A 
ATOM     48  C   UNL A   1      41.254  30.033  32.418  1.00  0.00     0.037 A 
ATOM     49  C   UNL A   1      43.753  25.217  28.601  1.00  0.00     0.049 A 
ATOM     50  C   UNL A   1      42.226  28.951  32.816  1.00  0.00     0.074 A 
ATOM     51  C   UNL A   1      44.474  26.365  28.321  1.00  0.00     0.029 A 
ATOM     52  N   UNL A   1      43.741  25.076  29.986  1.00  0.00    -0.354 N 
ATOM     53  N   UNL A   1      42.558  27.934  32.063  1.00  0.00    -0.248 NA
ATOM     54  C   UNL A   1      43.002  29.041  34.044  1.00  0.00     0.031 C 
ATOM     55  C   UNL A   1      44.784  26.985  29.563  1.00  0.00     0.029 A 
ATOM     56  C   UNL A   1      44.271  26.202  30.587  1.00  0.00     0.049 A 
ATOM     57  H   UNL A   1      43.402  24.289  30.468  1.00  0.00     0.167 HD
ATOM     58  C   UNL A   1      43.640  27.310  32.629  1.00  0.00     0.074 A 
ATOM     59  C   UNL A   1      43.860  28.022  33.878  1.00  0.00     0.031 C 
ATOM     60  C   UNL A   1      44.345  26.300  32.035  1.00  0.00     0.037 A 
BRANCH  47  61
ATOM     61  C   UNL A   1      43.168  23.608  26.620  1.00  0.00     0.057 A 
ATOM     62  C   UNL A   1      43.120  22.200  26.733  1.00  0.00     0.134 A 
ATOM     63  C   UNL A   1      43.699  24.059  25.396  1.00  0.00     0.134 A 
ATOM     64  F   UNL A   1      42.606  21.601  27.817  1.00  0.00    -0.206 F 
ATOM     65  C   UNL A   1      43.610  21.326  25.752  1.00  0.00     0.040 A 
ATOM     66  C   UNL A   1      44.184  23.194  24.400  1.00  0.00     0.040 A 
ATOM     67  F   UNL A   1      43.789  25.353  25.085  1.00  0.00    -0.206 F 
ATOM     68  C   UNL A   1      44.155  21.822  24.580  1.00  0.00     0.006 A 
ENDBRANCH  47  61
BRANCH  48  69
ATOM     69  C   UNL A   1      39.837  30.156  32.894  1.00  0.00     0.057 A 
ATOM     70  C   UNL A   1      39.280  31.449  33.001  1.00  0.00     0.134 A 
ATOM     71  C   UNL A   1      38.937  29.086  32.893  1.00  0.00     0.134 A 
ATOM     72  F   UNL A   1      40.081  32.527  33.025  1.00  0.00    -0.206 F 
ATOM     73  C   UNL A   1      37.903  31.676  32.960  1.00  0.00     0.040 A 
ATOM     74  C   UNL A   1      37.551  29.301  32.883  1.00  0.00     0.040 A 
ATOM     75  F   UNL A   1      39.371  27.821  32.803  1.00  0.00    -0.206 F 
ATOM     76  C   UNL A   1      37.035  30.597  32.875  1.00  0.00     0.006 A 
ENDBRANCH  48  69
BRANCH  60  77
ATOM     77  C   UNL A   1      45.280  25.372  32.766  1.00  0.00     0.057 A 
ATOM     78  C   UNL A   1      46.630  25.664  33.006  1.00  0.00     0.134 A 
ATOM     79  C   UNL A   1      44.794  24.213  33.413  1.00  0.00     0.134 A 
ATOM     80  F   UNL A   1      47.193  26.805  32.584  1.00  0.00    -0.206 F 
ATOM     81  C   UNL A   1      47.459  24.820  33.749  1.00  0.00     0.040 A 
ATOM     82  C   UNL A   1      45.594  23.404  34.220  1.00  0.00     0.040 A 
ATOM     83  F   UNL A   1      43.512  23.829  33.323  1.00  0.00    -0.206 F 
ATOM     84  C   UNL A   1      46.940  23.692  34.370  1.00  0.00     0.006 A 
ENDBRANCH  60  77
ENDBRANCH  34  35
ENDBRANCH  27  29
ENDBRANCH  26  27
ENDBRANCH  25  26
ENDBRANCH   1  25
TORSDOF 14
ENDMDL
MODEL 3
REMARK VINA RESULT:     -12.2      3.528      8.479
REMARK SMILES Cc1ccc(NC(=O)C[C@@H]2C[NH2+]CCO2)c(C(=O)OCCOC(=O)c2ccc(-c3c4nc(c(-c5c(F)cccc5F)c5ccc([nH]5)c(-c5c(F)cccc5F)c5nc(c(-c6c(F)cccc6F)c6ccc3[nH]6)C=C5)C=C4)cc2)c1
REMARK SMILES IDX 20 1 19 2 17 3 18 4 16 5 1 6 2 7 3 8 79 9 4 10 5 11 6 12
REMARK SMILES IDX 7 13 8 15 9 16 10 17 11 18 15 19 12 20 14 21 13 22 21 25
REMARK SMILES IDX 22 26 23 27 24 28 25 29 26 30 78 31 27 32 77 33 28 34 29 35
REMARK SMILES IDX 30 36 71 37 31 38 76 39 70 40 72 41 32 42 75 43 69 44 68 45
REMARK SMILES IDX 33 47 59 48 42 49 58 50 43 51 46 52 57 53 73 54 44 55 45 56
REMARK SMILES IDX 56 58 74 59 47 60 34 61 35 62 40 63 36 64 37 65 39 66 41 67
REMARK SMILES IDX 38 68 60 69 61 70 66 71 62 72 63 73 65 74 67 75 64 76 48 77
REMARK SMILES IDX 49 78 54 79 50 80 51 81 53 82 55 83 52 84
REMARK H PARENT 6 14 12 23 12 24 72 46 46 57
REMARK Flexibility Score: inf
ROOT
ATOM      1  C   UNL A   1      35.885  22.881  24.739  1.00  0.00     0.275 C 
ENDROOT
BRANCH   1   2
ATOM      2  O   UNL A   1      34.918  23.821  24.202  1.00  0.00    -0.458 OA
BRANCH   2   3
ATOM      3  C   UNL A   1      34.458  24.620  25.210  1.00  0.00     0.340 C 
ATOM      4  O   UNL A   1      34.242  24.197  26.343  1.00  0.00    -0.246 OA
BRANCH   3   5
ATOM      5  C   UNL A   1      33.945  25.984  24.925  1.00  0.00     0.083 A 
ATOM      6  C   UNL A   1      33.840  28.876  27.419  1.00  0.00     0.044 C 
ATOM      7  C   UNL A   1      33.875  28.122  26.126  1.00  0.00    -0.050 A 
ATOM      8  C   UNL A   1      33.946  28.785  24.910  1.00  0.00     0.005 A 
ATOM      9  C   UNL A   1      33.872  26.730  26.124  1.00  0.00     0.021 A 
ATOM     10  C   UNL A   1      33.982  28.061  23.716  1.00  0.00     0.027 A 
ATOM     11  C   UNL A   1      33.912  26.659  23.684  1.00  0.00     0.055 A 
BRANCH  11  12
ATOM     12  N   UNL A   1      33.789  25.972  22.455  1.00  0.00    -0.325 N 
ATOM     13  C   UNL A   1      32.779  25.858  21.527  1.00  0.00     0.227 C 
ATOM     14  H   UNL A   1      34.599  25.468  22.211  1.00  0.00     0.169 HD
ATOM     15  O   UNL A   1      33.040  25.271  20.470  1.00  0.00    -0.275 OA
BRANCH  13  16
ATOM     16  C   UNL A   1      31.350  26.328  21.748  1.00  0.00     0.138 C 
BRANCH  16  17
ATOM     17  C   UNL A   1      30.587  25.457  22.760  1.00  0.00     0.182 C 
ATOM     18  C   UNL A   1      30.138  26.311  23.974  1.00  0.00     0.293 C 
ATOM     19  O   UNL A   1      31.432  24.366  23.135  1.00  0.00    -0.366 OA
ATOM     20  N   UNL A   1      29.690  25.509  25.127  1.00  0.00    -0.342 N 
ATOM     21  C   UNL A   1      31.024  23.625  24.271  1.00  0.00     0.222 C 
ATOM     22  C   UNL A   1      30.760  24.550  25.454  1.00  0.00     0.289 C 
ATOM     23  H   UNL A   1      28.835  25.007  24.889  1.00  0.00     0.346 HD
ATOM     24  H   UNL A   1      29.498  26.113  25.926  1.00  0.00     0.346 HD
ENDBRANCH  16  17
ENDBRANCH  13  16
ENDBRANCH  11  12
ENDBRANCH   3   5
ENDBRANCH   2   3
ENDBRANCH   1   2
BRANCH   1  25
ATOM     25  C   UNL A   1      37.305  23.387  25.044  1.00  0.00     0.275 C 
BRANCH  25  26
ATOM     26  O   UNL A   1      37.835  23.449  26.391  1.00  0.00    -0.458 OA
BRANCH  26  27
ATOM     27  C   UNL A   1      39.110  23.740  26.707  1.00  0.00     0.338 C 
ATOM     28  O   UNL A   1      40.032  22.946  26.572  1.00  0.00    -0.246 OA
BRANCH  27  29
ATOM     29  C   UNL A   1      39.324  25.084  27.253  1.00  0.00     0.060 A 
ATOM     30  C   UNL A   1      38.953  25.293  28.585  1.00  0.00     0.016 A 
ATOM     31  C   UNL A   1      39.998  26.056  26.519  1.00  0.00     0.016 A 
ATOM     32  C   UNL A   1      39.402  26.407  29.269  1.00  0.00     0.010 A 
ATOM     33  C   UNL A   1      40.443  27.172  27.187  1.00  0.00     0.010 A 
ATOM     34  C   UNL A   1      40.134  27.342  28.553  1.00  0.00    -0.014 A 
BRANCH  34  35
ATOM     35  C   UNL A   1      40.284  28.702  29.028  1.00  0.00     0.031 A 
ATOM     36  C   UNL A   1      39.202  29.691  28.943  1.00  0.00     0.074 A 
ATOM     37  C   UNL A   1      41.424  28.799  29.742  1.00  0.00     0.049 A 
ATOM     38  N   UNL A   1      39.304  30.895  29.377  1.00  0.00    -0.248 NA
ATOM     39  C   UNL A   1      37.914  29.452  28.302  1.00  0.00     0.031 C 
ATOM     40  C   UNL A   1      41.815  29.681  30.821  1.00  0.00     0.029 A 
ATOM     41  N   UNL A   1      42.589  28.069  29.462  1.00  0.00    -0.354 N 
ATOM     42  C   UNL A   1      38.035  31.442  29.406  1.00  0.00     0.074 A 
ATOM     43  C   UNL A   1      37.238  30.568  28.594  1.00  0.00     0.031 C 
ATOM     44  C   UNL A   1      43.158  29.647  30.934  1.00  0.00     0.029 A 
ATOM     45  C   UNL A   1      43.664  28.894  29.790  1.00  0.00     0.049 A 
ATOM     46  H   UNL A   1      42.637  27.152  29.105  1.00  0.00     0.167 HD
ATOM     47  C   UNL A   1      37.820  32.471  30.273  1.00  0.00     0.037 A 
ATOM     48  C   UNL A   1      44.384  29.438  28.760  1.00  0.00     0.037 A 
ATOM     49  C   UNL A   1      39.115  32.929  30.775  1.00  0.00     0.049 A 
ATOM     50  C   UNL A   1      44.206  30.935  28.739  1.00  0.00     0.074 A 
ATOM     51  C   UNL A   1      39.832  32.595  31.910  1.00  0.00     0.029 A 
ATOM     52  N   UNL A   1      40.019  33.485  29.876  1.00  0.00    -0.354 N 
ATOM     53  N   UNL A   1      43.083  31.556  28.998  1.00  0.00    -0.248 NA
ATOM     54  C   UNL A   1      45.339  31.833  28.568  1.00  0.00     0.031 C 
ATOM     55  C   UNL A   1      41.205  32.838  31.632  1.00  0.00     0.029 A 
ATOM     56  C   UNL A   1      41.311  33.337  30.341  1.00  0.00     0.049 A 
ATOM     57  H   UNL A   1      39.774  33.921  29.028  1.00  0.00     0.167 HD
ATOM     58  C   UNL A   1      43.350  32.894  29.140  1.00  0.00     0.074 A 
ATOM     59  C   UNL A   1      44.767  33.017  28.832  1.00  0.00     0.031 C 
ATOM     60  C   UNL A   1      42.438  33.820  29.561  1.00  0.00     0.037 A 
BRANCH  47  61
ATOM     61  C   UNL A   1      36.499  32.876  30.902  1.00  0.00     0.057 A 
ATOM     62  C   UNL A   1      35.662  33.791  30.224  1.00  0.00     0.134 A 
ATOM     63  C   UNL A   1      36.034  32.526  32.183  1.00  0.00     0.134 A 
ATOM     64  F   UNL A   1      35.935  34.200  28.977  1.00  0.00    -0.206 F 
ATOM     65  C   UNL A   1      34.507  34.350  30.790  1.00  0.00     0.040 A 
ATOM     66  C   UNL A   1      34.873  33.072  32.758  1.00  0.00     0.040 A 
ATOM     67  F   UNL A   1      36.665  31.646  32.962  1.00  0.00    -0.206 F 
ATOM     68  C   UNL A   1      34.111  33.999  32.068  1.00  0.00     0.006 A 
ENDBRANCH  47  61
BRANCH  48  69
ATOM     69  C   UNL A   1      44.463  28.547  27.556  1.00  0.00     0.057 A 
ATOM     70  C   UNL A   1      45.260  27.385  27.638  1.00  0.00     0.134 A 
ATOM     71  C   UNL A   1      43.537  28.598  26.509  1.00  0.00     0.134 A 
ATOM     72  F   UNL A   1      46.183  27.269  28.607  1.00  0.00    -0.206 F 
ATOM     73  C   UNL A   1      45.050  26.274  26.819  1.00  0.00     0.040 A 
ATOM     74  C   UNL A   1      43.339  27.499  25.659  1.00  0.00     0.040 A 
ATOM     75  F   UNL A   1      42.741  29.663  26.345  1.00  0.00    -0.206 F 
ATOM     76  C   UNL A   1      44.068  26.324  25.841  1.00  0.00     0.006 A 
ENDBRANCH  48  69
BRANCH  60  77
ATOM     77  C   UNL A   1      42.591  35.309  29.377  1.00  0.00     0.057 A 
ATOM     78  C   UNL A   1      43.449  36.100  30.154  1.00  0.00     0.134 A 
ATOM     79  C   UNL A   1      41.998  35.969  28.277  1.00  0.00     0.134 A 
ATOM     80  F   UNL A   1      44.195  35.580  31.137  1.00  0.00    -0.206 F 
ATOM     81  C   UNL A   1      43.628  37.466  29.916  1.00  0.00     0.040 A 
ATOM     82  C   UNL A   1      42.230  37.313  27.986  1.00  0.00     0.040 A 
ATOM     83  F   UNL A   1      41.195  35.334  27.412  1.00  0.00    -0.206 F 
ATOM     84  C   UNL A   1      43.028  38.075  28.823  1.00  0.00     0.006 A 
ENDBRANCH  60  77
ENDBRANCH  34  35
ENDBRANCH  27  29
ENDBRANCH  26  27
ENDBRANCH  25  26
ENDBRANCH   1  25
TORSDOF 14
ENDMDL
