MODEL 1
REMARK VINA RESULT:     -12.2      0.000      0.000
REMARK SMILES Cc1cc(NC(=O)c2ccc(Br)cc2N)ccc1C(=O)OCCOC(=O)c1ccc(-c2c3nc(c(-c4c(F)cccc4F)c4ccc([nH]4)c(-c4c(F)cccc4F)c4nc(c(-c5c(F)cccc5F)c5ccc2[nH]5)C=C4)C=C3)cc1
REMARK SMILES IDX 22 1 21 2 19 3 20 4 18 5 1 6 2 7 3 8 4 9 17 10 16 11 5 12
REMARK SMILES IDX 6 13 7 15 8 16 9 17 14 18 10 19 13 20 11 21 12 22 15 23
REMARK SMILES IDX 23 26 24 27 25 28 26 29 27 30 28 31 80 32 29 33 79 34 30 35
REMARK SMILES IDX 31 36 32 37 73 38 33 39 78 40 72 41 74 42 34 43 77 44 71 45
REMARK SMILES IDX 70 46 35 48 61 49 44 50 60 51 45 52 48 53 59 54 75 55 46 56
REMARK SMILES IDX 47 57 58 59 76 60 49 61 36 62 37 63 42 64 38 65 39 66 41 67
REMARK SMILES IDX 43 68 40 69 62 70 63 71 68 72 64 73 65 74 67 75 69 76 66 77
REMARK SMILES IDX 50 78 51 79 56 80 52 81 53 82 55 83 57 84 54 85
REMARK H PARENT 5 14 15 24 15 25 74 47 48 58
REMARK Flexibility Score: inf
ROOT
ATOM      1  C   UNL A   1      33.498  29.113  25.872  1.00  0.00     0.275 C 
ENDROOT
BRANCH   1   2
ATOM      2  O   UNL A   1      32.381  28.212  25.855  1.00  0.00    -0.458 OA
BRANCH   2   3
ATOM      3  C   UNL A   1      31.606  28.388  24.758  1.00  0.00     0.338 C 
ATOM      4  O   UNL A   1      31.139  29.447  24.368  1.00  0.00    -0.246 OA
BRANCH   3   5
ATOM      5  C   UNL A   1      31.218  27.131  24.106  1.00  0.00     0.063 A 
ATOM      6  C   UNL A   1      33.098  27.514  22.404  1.00  0.00     0.045 C 
ATOM      7  C   UNL A   1      32.004  26.696  23.033  1.00  0.00    -0.035 A 
ATOM      8  C   UNL A   1      31.825  25.395  22.564  1.00  0.00     0.030 A 
ATOM      9  C   UNL A   1      30.974  24.498  23.208  1.00  0.00     0.041 A 
ATOM     10  C   UNL A   1      30.237  26.293  24.656  1.00  0.00     0.018 A 
ATOM     11  C   UNL A   1      30.122  24.969  24.210  1.00  0.00     0.027 A 
BRANCH   9  12
ATOM     12  N   UNL A   1      30.981  23.126  22.898  1.00  0.00    -0.322 N 
ATOM     13  C   UNL A   1      32.045  22.236  22.920  1.00  0.00     0.257 C 
ATOM     14  H   UNL A   1      30.114  22.746  22.629  1.00  0.00     0.170 HD
ATOM     15  O   UNL A   1      31.965  21.167  22.317  1.00  0.00    -0.269 OA
BRANCH  13  16
ATOM     16  C   UNL A   1      33.277  22.528  23.709  1.00  0.00     0.063 A 
ATOM     17  C   UNL A   1      34.372  23.052  22.997  1.00  0.00     0.017 A 
ATOM     18  C   UNL A   1      33.360  22.334  25.106  1.00  0.00     0.045 A 
ATOM     19  C   UNL A   1      35.540  23.415  23.669  1.00  0.00     0.016 A 
ATOM     20  C   UNL A   1      34.557  22.675  25.755  1.00  0.00     0.042 A 
ATOM     21  C   UNL A   1      35.625  23.227  25.046  1.00  0.00     0.020 A 
ATOM     22  Br  UNL A   1      37.203  23.716  25.966  1.00  0.00    -0.051 Br
BRANCH  18  23
ATOM     23  N   UNL A   1      32.365  21.709  25.853  1.00  0.00    -0.398 N 
ATOM     24  H   UNL A   1      32.516  20.807  26.218  1.00  0.00     0.156 HD
ATOM     25  H   UNL A   1      31.510  22.169  26.016  1.00  0.00     0.156 HD
ENDBRANCH  18  23
ENDBRANCH  13  16
ENDBRANCH   9  12
ENDBRANCH   3   5
ENDBRANCH   2   3
ENDBRANCH   1   2
BRANCH   1  26
ATOM     26  C   UNL A   1      34.364  28.997  27.130  1.00  0.00     0.275 C 
BRANCH  26  27
ATOM     27  O   UNL A   1      35.587  29.785  27.235  1.00  0.00    -0.458 OA
BRANCH  27  28
ATOM     28  C   UNL A   1      36.360  30.042  28.314  1.00  0.00     0.338 C 
ATOM     29  O   UNL A   1      36.012  30.825  29.195  1.00  0.00    -0.246 OA
BRANCH  28  30
ATOM     30  C   UNL A   1      37.644  29.344  28.429  1.00  0.00     0.060 A 
ATOM     31  C   UNL A   1      38.604  29.502  27.412  1.00  0.00     0.016 A 
ATOM     32  C   UNL A   1      37.917  28.602  29.572  1.00  0.00     0.016 A 
ATOM     33  C   UNL A   1      39.882  28.994  27.583  1.00  0.00     0.010 A 
ATOM     34  C   UNL A   1      39.213  28.241  29.819  1.00  0.00     0.010 A 
ATOM     35  C   UNL A   1      40.167  28.379  28.798  1.00  0.00    -0.014 A 
BRANCH  35  36
ATOM     36  C   UNL A   1      41.296  27.489  28.980  1.00  0.00     0.031 A 
ATOM     37  C   UNL A   1      41.201  26.067  28.631  1.00  0.00     0.074 A 
ATOM     38  C   UNL A   1      42.387  28.208  29.329  1.00  0.00     0.049 A 
ATOM     39  N   UNL A   1      41.924  25.142  29.152  1.00  0.00    -0.248 NA
ATOM     40  C   UNL A   1      40.208  25.533  27.703  1.00  0.00     0.031 C 
ATOM     41  C   UNL A   1      43.803  27.916  29.327  1.00  0.00     0.029 A 
ATOM     42  N   UNL A   1      42.316  29.486  29.918  1.00  0.00    -0.354 N 
ATOM     43  C   UNL A   1      41.781  24.022  28.352  1.00  0.00     0.074 A 
ATOM     44  C   UNL A   1      40.564  24.245  27.620  1.00  0.00     0.031 C 
ATOM     45  C   UNL A   1      44.415  28.791  30.155  1.00  0.00     0.029 A 
ATOM     46  C   UNL A   1      43.377  29.586  30.809  1.00  0.00     0.049 A 
ATOM     47  H   UNL A   1      41.642  30.179  29.733  1.00  0.00     0.167 HD
ATOM     48  C   UNL A   1      42.845  23.172  28.234  1.00  0.00     0.037 A 
ATOM     49  C   UNL A   1      43.060  29.565  32.138  1.00  0.00     0.037 A 
ATOM     50  C   UNL A   1      43.936  23.684  29.066  1.00  0.00     0.049 A 
ATOM     51  C   UNL A   1      43.545  28.267  32.734  1.00  0.00     0.074 A 
ATOM     52  C   UNL A   1      45.007  24.505  28.752  1.00  0.00     0.029 A 
ATOM     53  N   UNL A   1      43.779  23.742  30.445  1.00  0.00    -0.354 N 
ATOM     54  N   UNL A   1      43.537  27.116  32.111  1.00  0.00    -0.248 NA
ATOM     55  C   UNL A   1      44.222  28.222  34.023  1.00  0.00     0.031 C 
ATOM     56  C   UNL A   1      45.426  25.142  29.951  1.00  0.00     0.029 A 
ATOM     57  C   UNL A   1      44.607  24.711  30.984  1.00  0.00     0.049 A 
ATOM     58  H   UNL A   1      43.167  23.174  30.966  1.00  0.00     0.167 HD
ATOM     59  C   UNL A   1      44.281  26.222  32.836  1.00  0.00     0.074 A 
ATOM     60  C   UNL A   1      44.662  26.953  34.034  1.00  0.00     0.031 C 
ATOM     61  C   UNL A   1      44.608  24.965  32.412  1.00  0.00     0.037 A 
BRANCH  48  62
ATOM     62  C   UNL A   1      43.070  22.118  27.160  1.00  0.00     0.057 A 
ATOM     63  C   UNL A   1      42.286  20.941  27.154  1.00  0.00     0.134 A 
ATOM     64  C   UNL A   1      44.031  22.160  26.134  1.00  0.00     0.134 A 
ATOM     65  F   UNL A   1      41.269  20.767  28.010  1.00  0.00    -0.206 F 
ATOM     66  C   UNL A   1      42.493  19.875  26.265  1.00  0.00     0.040 A 
ATOM     67  C   UNL A   1      44.261  21.093  25.248  1.00  0.00     0.040 A 
ATOM     68  F   UNL A   1      44.772  23.246  25.899  1.00  0.00    -0.206 F 
ATOM     69  C   UNL A   1      43.497  19.939  25.316  1.00  0.00     0.006 A 
ENDBRANCH  48  62
BRANCH  49  70
ATOM     70  C   UNL A   1      41.784  30.288  32.486  1.00  0.00     0.057 A 
ATOM     71  C   UNL A   1      41.739  31.694  32.335  1.00  0.00     0.134 A 
ATOM     72  C   UNL A   1      40.555  29.662  32.711  1.00  0.00     0.134 A 
ATOM     73  F   UNL A   1      42.874  32.385  32.134  1.00  0.00    -0.206 F 
ATOM     74  C   UNL A   1      40.541  32.418  32.295  1.00  0.00     0.040 A 
ATOM     75  C   UNL A   1      39.344  30.383  32.702  1.00  0.00     0.040 A 
ATOM     76  F   UNL A   1      40.480  28.335  32.875  1.00  0.00    -0.206 F 
ATOM     77  C   UNL A   1      39.332  31.757  32.460  1.00  0.00     0.006 A 
ENDBRANCH  49  70
BRANCH  61  78
ATOM     78  C   UNL A   1      45.064  23.864  33.330  1.00  0.00     0.057 A 
ATOM     79  C   UNL A   1      46.373  23.773  33.825  1.00  0.00     0.134 A 
ATOM     80  C   UNL A   1      44.139  22.962  33.901  1.00  0.00     0.134 A 
ATOM     81  F   UNL A   1      47.322  24.653  33.478  1.00  0.00    -0.206 F 
ATOM     82  C   UNL A   1      46.754  22.802  34.755  1.00  0.00     0.040 A 
ATOM     83  C   UNL A   1      44.493  22.042  34.887  1.00  0.00     0.040 A 
ATOM     84  F   UNL A   1      42.842  22.958  33.558  1.00  0.00    -0.206 F 
ATOM     85  C   UNL A   1      45.811  21.943  35.300  1.00  0.00     0.006 A 
ENDBRANCH  61  78
ENDBRANCH  35  36
ENDBRANCH  28  30
ENDBRANCH  27  28
ENDBRANCH  26  27
ENDBRANCH   1  26
TORSDOF 14
ENDMDL
MODEL 2
REMARK VINA RESULT:     -12.1      0.806      1.340
REMARK SMILES Cc1cc(NC(=O)c2ccc(Br)cc2N)ccc1C(=O)OCCOC(=O)c1ccc(-c2c3nc(c(-c4c(F)cccc4F)c4ccc([nH]4)c(-c4c(F)cccc4F)c4nc(c(-c5c(F)cccc5F)c5ccc2[nH]5)C=C4)C=C3)cc1
REMARK SMILES IDX 22 1 21 2 19 3 20 4 18 5 1 6 2 7 3 8 4 9 17 10 16 11 5 12
REMARK SMILES IDX 6 13 7 15 8 16 9 17 14 18 10 19 13 20 11 21 12 22 15 23
REMARK SMILES IDX 23 26 24 27 25 28 26 29 27 30 28 31 80 32 29 33 79 34 30 35
REMARK SMILES IDX 31 36 32 37 73 38 33 39 78 40 72 41 74 42 34 43 77 44 71 45
REMARK SMILES IDX 70 46 35 48 61 49 44 50 60 51 45 52 48 53 59 54 75 55 46 56
REMARK SMILES IDX 47 57 58 59 76 60 49 61 36 62 37 63 42 64 38 65 39 66 41 67
REMARK SMILES IDX 43 68 40 69 62 70 63 71 68 72 64 73 65 74 67 75 69 76 66 77
REMARK SMILES IDX 50 78 51 79 56 80 52 81 53 82 55 83 57 84 54 85
REMARK H PARENT 5 14 15 24 15 25 74 47 48 58
REMARK Flexibility Score: inf
ROOT
ATOM      1  C   UNL A   1      33.214  29.033  26.052  1.00  0.00     0.275 C 
ENDROOT
BRANCH   1   2
ATOM      2  O   UNL A   1      33.125  27.651  26.428  1.00  0.00    -0.458 OA
BRANCH   2   3
ATOM      3  C   UNL A   1      31.862  27.299  26.768  1.00  0.00     0.338 C 
ATOM      4  O   UNL A   1      31.179  27.817  27.639  1.00  0.00    -0.246 OA
BRANCH   3   5
ATOM      5  C   UNL A   1      31.383  26.092  26.084  1.00  0.00     0.063 A 
ATOM      6  C   UNL A   1      30.550  27.588  24.173  1.00  0.00     0.045 C 
ATOM      7  C   UNL A   1      30.837  26.253  24.805  1.00  0.00    -0.035 A 
ATOM      8  C   UNL A   1      30.615  25.115  24.030  1.00  0.00     0.030 A 
ATOM      9  C   UNL A   1      31.030  23.854  24.452  1.00  0.00     0.041 A 
ATOM     10  C   UNL A   1      31.649  24.810  26.588  1.00  0.00     0.018 A 
ATOM     11  C   UNL A   1      31.479  23.688  25.764  1.00  0.00     0.027 A 
BRANCH   9  12
ATOM     12  N   UNL A   1      31.040  22.752  23.576  1.00  0.00    -0.322 N 
ATOM     13  C   UNL A   1      32.128  22.083  23.035  1.00  0.00     0.257 C 
ATOM     14  H   UNL A   1      30.155  22.410  23.312  1.00  0.00     0.170 HD
ATOM     15  O   UNL A   1      31.979  21.366  22.047  1.00  0.00    -0.269 OA
BRANCH  13  16
ATOM     16  C   UNL A   1      33.478  22.176  23.662  1.00  0.00     0.063 A 
ATOM     17  C   UNL A   1      34.270  23.278  23.292  1.00  0.00     0.017 A 
ATOM     18  C   UNL A   1      33.952  21.241  24.609  1.00  0.00     0.045 A 
ATOM     19  C   UNL A   1      35.520  23.476  23.881  1.00  0.00     0.016 A 
ATOM     20  C   UNL A   1      35.226  21.443  25.163  1.00  0.00     0.042 A 
ATOM     21  C   UNL A   1      35.990  22.558  24.817  1.00  0.00     0.020 A 
ATOM     22  Br  UNL A   1      37.682  22.818  25.622  1.00  0.00    -0.051 Br
BRANCH  18  23
ATOM     23  N   UNL A   1      33.277  20.066  24.930  1.00  0.00    -0.398 N 
ATOM     24  H   UNL A   1      32.684  20.038  25.716  1.00  0.00     0.156 HD
ATOM     25  H   UNL A   1      33.393  19.263  24.372  1.00  0.00     0.156 HD
ENDBRANCH  18  23
ENDBRANCH  13  16
ENDBRANCH   9  12
ENDBRANCH   3   5
ENDBRANCH   2   3
ENDBRANCH   1   2
BRANCH   1  26
ATOM     26  C   UNL A   1      34.026  29.886  27.031  1.00  0.00     0.275 C 
BRANCH  26  27
ATOM     27  O   UNL A   1      35.245  29.340  27.619  1.00  0.00    -0.458 OA
BRANCH  27  28
ATOM     28  C   UNL A   1      36.247  29.971  28.271  1.00  0.00     0.338 C 
ATOM     29  O   UNL A   1      36.101  31.081  28.778  1.00  0.00    -0.246 OA
BRANCH  28  30
ATOM     30  C   UNL A   1      37.540  29.289  28.380  1.00  0.00     0.060 A 
ATOM     31  C   UNL A   1      38.483  29.435  27.344  1.00  0.00     0.016 A 
ATOM     32  C   UNL A   1      37.839  28.573  29.534  1.00  0.00     0.016 A 
ATOM     33  C   UNL A   1      39.768  28.944  27.506  1.00  0.00     0.010 A 
ATOM     34  C   UNL A   1      39.142  28.231  29.767  1.00  0.00     0.010 A 
ATOM     35  C   UNL A   1      40.078  28.357  28.728  1.00  0.00    -0.014 A 
BRANCH  35  36
ATOM     36  C   UNL A   1      41.219  27.483  28.911  1.00  0.00     0.031 A 
ATOM     37  C   UNL A   1      41.141  26.058  28.572  1.00  0.00     0.074 A 
ATOM     38  C   UNL A   1      42.303  28.218  29.249  1.00  0.00     0.049 A 
ATOM     39  N   UNL A   1      41.878  25.145  29.095  1.00  0.00    -0.248 NA
ATOM     40  C   UNL A   1      40.151  25.505  27.651  1.00  0.00     0.031 C 
ATOM     41  C   UNL A   1      43.722  27.943  29.243  1.00  0.00     0.029 A 
ATOM     42  N   UNL A   1      42.219  29.498  29.831  1.00  0.00    -0.354 N 
ATOM     43  C   UNL A   1      41.746  24.018  28.302  1.00  0.00     0.074 A 
ATOM     44  C   UNL A   1      40.522  24.221  27.575  1.00  0.00     0.031 C 
ATOM     45  C   UNL A   1      44.327  28.832  30.063  1.00  0.00     0.029 A 
ATOM     46  C   UNL A   1      43.282  29.618  30.717  1.00  0.00     0.049 A 
ATOM     47  H   UNL A   1      41.535  30.182  29.645  1.00  0.00     0.167 HD
ATOM     48  C   UNL A   1      42.820  23.181  28.186  1.00  0.00     0.037 A 
ATOM     49  C   UNL A   1      42.972  29.602  32.047  1.00  0.00     0.037 A 
ATOM     50  C   UNL A   1      43.908  23.712  29.009  1.00  0.00     0.049 A 
ATOM     51  C   UNL A   1      43.476  28.314  32.649  1.00  0.00     0.074 A 
ATOM     52  C   UNL A   1      44.967  24.545  28.684  1.00  0.00     0.029 A 
ATOM     53  N   UNL A   1      43.756  23.777  30.388  1.00  0.00    -0.354 N 
ATOM     54  N   UNL A   1      43.479  27.158  32.033  1.00  0.00    -0.248 NA
ATOM     55  C   UNL A   1      44.160  28.285  33.935  1.00  0.00     0.031 C 
ATOM     56  C   UNL A   1      45.383  25.194  29.877  1.00  0.00     0.029 A 
ATOM     57  C   UNL A   1      44.575  24.760  30.916  1.00  0.00     0.049 A 
ATOM     58  H   UNL A   1      43.154  23.205  30.916  1.00  0.00     0.167 HD
ATOM     59  C   UNL A   1      44.238  26.279  32.760  1.00  0.00     0.074 A 
ATOM     60  C   UNL A   1      44.615  27.022  33.952  1.00  0.00     0.031 C 
ATOM     61  C   UNL A   1      44.579  25.023  32.344  1.00  0.00     0.037 A 
BRANCH  48  62
ATOM     62  C   UNL A   1      43.053  22.123  27.117  1.00  0.00     0.057 A 
ATOM     63  C   UNL A   1      42.283  20.936  27.122  1.00  0.00     0.134 A 
ATOM     64  C   UNL A   1      44.008  22.171  26.087  1.00  0.00     0.134 A 
ATOM     65  F   UNL A   1      41.274  20.755  27.984  1.00  0.00    -0.206 F 
ATOM     66  C   UNL A   1      42.500  19.867  26.239  1.00  0.00     0.040 A 
ATOM     67  C   UNL A   1      44.248  21.101  25.206  1.00  0.00     0.040 A 
ATOM     68  F   UNL A   1      44.734  23.264  25.840  1.00  0.00    -0.206 F 
ATOM     69  C   UNL A   1      43.499  19.937  25.285  1.00  0.00     0.006 A 
ENDBRANCH  48  62
BRANCH  49  70
ATOM     70  C   UNL A   1      41.689  30.310  32.396  1.00  0.00     0.057 A 
ATOM     71  C   UNL A   1      40.581  29.538  32.817  1.00  0.00     0.134 A 
ATOM     72  C   UNL A   1      41.570  31.691  32.578  1.00  0.00     0.134 A 
ATOM     73  F   UNL A   1      40.595  28.202  32.664  1.00  0.00    -0.206 F 
ATOM     74  C   UNL A   1      39.477  30.087  33.480  1.00  0.00     0.040 A 
ATOM     75  C   UNL A   1      40.451  32.260  33.218  1.00  0.00     0.040 A 
ATOM     76  F   UNL A   1      42.555  32.520  32.209  1.00  0.00    -0.206 F 
ATOM     77  C   UNL A   1      39.418  31.456  33.701  1.00  0.00     0.006 A 
ENDBRANCH  49  70
BRANCH  61  78
ATOM     78  C   UNL A   1      45.054  23.934  33.267  1.00  0.00     0.057 A 
ATOM     79  C   UNL A   1      46.352  23.887  33.792  1.00  0.00     0.134 A 
ATOM     80  C   UNL A   1      44.148  22.996  33.810  1.00  0.00     0.134 A 
ATOM     81  F   UNL A   1      47.277  24.804  33.472  1.00  0.00    -0.206 F 
ATOM     82  C   UNL A   1      46.747  22.926  34.725  1.00  0.00     0.040 A 
ATOM     83  C   UNL A   1      44.512  22.083  34.799  1.00  0.00     0.040 A 
ATOM     84  F   UNL A   1      42.862  22.946  33.436  1.00  0.00    -0.206 F 
ATOM     85  C   UNL A   1      45.823  22.030  35.244  1.00  0.00     0.006 A 
ENDBRANCH  61  78
ENDBRANCH  35  36
ENDBRANCH  28  30
ENDBRANCH  27  28
ENDBRANCH  26  27
ENDBRANCH   1  26
TORSDOF 14
ENDMDL
MODEL 3
REMARK VINA RESULT:     -12.0      3.941      9.225
REMARK SMILES Cc1cc(NC(=O)c2ccc(Br)cc2N)ccc1C(=O)OCCOC(=O)c1ccc(-c2c3nc(c(-c4c(F)cccc4F)c4ccc([nH]4)c(-c4c(F)cccc4F)c4nc(c(-c5c(F)cccc5F)c5ccc2[nH]5)C=C4)C=C3)cc1
REMARK SMILES IDX 22 1 21 2 19 3 20 4 18 5 1 6 2 7 3 8 4 9 17 10 16 11 5 12
REMARK SMILES IDX 6 13 7 15 8 16 9 17 14 18 10 19 13 20 11 21 12 22 15 23
REMARK SMILES IDX 23 26 24 27 25 28 26 29 27 30 28 31 80 32 29 33 79 34 30 35
REMARK SMILES IDX 31 36 32 37 73 38 33 39 78 40 72 41 74 42 34 43 77 44 71 45
REMARK SMILES IDX 70 46 35 48 61 49 44 50 60 51 45 52 48 53 59 54 75 55 46 56
REMARK SMILES IDX 47 57 58 59 76 60 49 61 36 62 37 63 42 64 38 65 39 66 41 67
REMARK SMILES IDX 43 68 40 69 62 70 63 71 68 72 64 73 65 74 67 75 69 76 66 77
REMARK SMILES IDX 50 78 51 79 56 80 52 81 53 82 55 83 57 84 54 85
REMARK H PARENT 5 14 15 24 15 25 74 47 48 58
REMARK Flexibility Score: inf
ROOT
ATOM      1  C   UNL A   1      36.414  22.943  25.573  1.00  0.00     0.275 C 
ENDROOT
BRANCH   1   2
ATOM      2  O   UNL A   1      35.702  23.950  24.841  1.00  0.00    -0.458 OA
BRANCH   2   3
ATOM      3  C   UNL A   1      35.387  23.540  23.589  1.00  0.00     0.338 C 
ATOM      4  O   UNL A   1      36.149  23.013  22.791  1.00  0.00    -0.246 OA
BRANCH   3   5
ATOM      5  C   UNL A   1      34.033  23.917  23.169  1.00  0.00     0.063 A 
ATOM      6  C   UNL A   1      33.185  21.703  24.148  1.00  0.00     0.045 C 
ATOM      7  C   UNL A   1      32.987  23.058  23.526  1.00  0.00    -0.035 A 
ATOM      8  C   UNL A   1      31.676  23.509  23.374  1.00  0.00     0.030 A 
ATOM      9  C   UNL A   1      31.396  24.819  22.990  1.00  0.00     0.041 A 
ATOM     10  C   UNL A   1      33.761  25.180  22.621  1.00  0.00     0.018 A 
ATOM     11  C   UNL A   1      32.437  25.634  22.540  1.00  0.00     0.027 A 
BRANCH   9  12
ATOM     12  N   UNL A   1      30.096  25.349  23.081  1.00  0.00    -0.322 N 
ATOM     13  C   UNL A   1      29.601  26.290  23.972  1.00  0.00     0.257 C 
ATOM     14  H   UNL A   1      29.449  25.005  22.422  1.00  0.00     0.170 HD
ATOM     15  O   UNL A   1      28.388  26.405  24.135  1.00  0.00    -0.269 OA
BRANCH  13  16
ATOM     16  C   UNL A   1      30.518  27.210  24.707  1.00  0.00     0.063 A 
ATOM     17  C   UNL A   1      31.057  26.730  25.914  1.00  0.00     0.017 A 
ATOM     18  C   UNL A   1      30.873  28.489  24.224  1.00  0.00     0.045 A 
ATOM     19  C   UNL A   1      31.974  27.500  26.631  1.00  0.00     0.016 A 
ATOM     20  C   UNL A   1      31.772  29.259  24.978  1.00  0.00     0.042 A 
ATOM     21  C   UNL A   1      32.329  28.760  26.157  1.00  0.00     0.020 A 
ATOM     22  Br  UNL A   1      33.571  29.812  27.120  1.00  0.00    -0.051 Br
BRANCH  18  23
ATOM     23  N   UNL A   1      30.288  29.076  23.104  1.00  0.00    -0.398 N 
ATOM     24  H   UNL A   1      29.720  29.874  23.207  1.00  0.00     0.156 HD
ATOM     25  H   UNL A   1      30.441  28.692  22.211  1.00  0.00     0.156 HD
ENDBRANCH  18  23
ENDBRANCH  13  16
ENDBRANCH   9  12
ENDBRANCH   3   5
ENDBRANCH   2   3
ENDBRANCH   1   2
BRANCH   1  26
ATOM     26  C   UNL A   1      37.901  23.255  25.762  1.00  0.00     0.275 C 
BRANCH  26  27
ATOM     27  O   UNL A   1      38.322  24.098  26.875  1.00  0.00    -0.458 OA
BRANCH  27  28
ATOM     28  C   UNL A   1      39.526  24.659  27.128  1.00  0.00     0.338 C 
ATOM     29  O   UNL A   1      40.581  24.114  26.809  1.00  0.00    -0.246 OA
BRANCH  28  30
ATOM     30  C   UNL A   1      39.557  25.966  27.791  1.00  0.00     0.060 A 
ATOM     31  C   UNL A   1      39.101  26.073  29.118  1.00  0.00     0.016 A 
ATOM     32  C   UNL A   1      40.104  27.056  27.124  1.00  0.00     0.016 A 
ATOM     33  C   UNL A   1      39.281  27.255  29.818  1.00  0.00     0.010 A 
ATOM     34  C   UNL A   1      40.432  28.166  27.853  1.00  0.00     0.010 A 
ATOM     35  C   UNL A   1      39.959  28.283  29.170  1.00  0.00    -0.014 A 
BRANCH  35  36
ATOM     36  C   UNL A   1      39.894  29.663  29.608  1.00  0.00     0.031 A 
ATOM     37  C   UNL A   1      38.790  30.535  29.192  1.00  0.00     0.074 A 
ATOM     38  C   UNL A   1      40.860  29.893  30.525  1.00  0.00     0.049 A 
ATOM     39  N   UNL A   1      38.862  31.817  29.128  1.00  0.00    -0.248 NA
ATOM     40  C   UNL A   1      37.501  30.032  28.724  1.00  0.00     0.031 C 
ATOM     41  C   UNL A   1      41.065  30.940  31.501  1.00  0.00     0.029 A 
ATOM     42  N   UNL A   1      42.026  29.109  30.634  1.00  0.00    -0.354 N 
ATOM     43  C   UNL A   1      37.564  32.287  29.025  1.00  0.00     0.074 A 
ATOM     44  C   UNL A   1      36.800  31.161  28.563  1.00  0.00     0.031 C 
ATOM     45  C   UNL A   1      42.369  30.934  31.857  1.00  0.00     0.029 A 
ATOM     46  C   UNL A   1      43.058  29.959  31.013  1.00  0.00     0.049 A 
ATOM     47  H   UNL A   1      42.098  28.141  30.473  1.00  0.00     0.167 HD
ATOM     48  C   UNL A   1      37.270  33.499  29.586  1.00  0.00     0.037 A 
ATOM     49  C   UNL A   1      44.000  30.235  30.063  1.00  0.00     0.037 A 
ATOM     50  C   UNL A   1      38.497  34.043  30.172  1.00  0.00     0.049 A 
ATOM     51  C   UNL A   1      43.856  31.675  29.639  1.00  0.00     0.074 A 
ATOM     52  C   UNL A   1      38.999  33.963  31.461  1.00  0.00     0.029 A 
ATOM     53  N   UNL A   1      39.565  34.372  29.346  1.00  0.00    -0.354 N 
ATOM     54  N   UNL A   1      42.714  32.308  29.534  1.00  0.00    -0.248 NA
ATOM     55  C   UNL A   1      45.015  32.540  29.461  1.00  0.00     0.031 C 
ATOM     56  C   UNL A   1      40.406  34.144  31.385  1.00  0.00     0.029 A 
ATOM     57  C   UNL A   1      40.752  34.327  30.055  1.00  0.00     0.049 A 
ATOM     58  H   UNL A   1      39.489  34.605  28.393  1.00  0.00     0.167 HD
ATOM     59  C   UNL A   1      42.969  33.646  29.390  1.00  0.00     0.074 A 
ATOM     60  C   UNL A   1      44.419  33.736  29.320  1.00  0.00     0.031 C 
ATOM     61  C   UNL A   1      42.012  34.621  29.397  1.00  0.00     0.037 A 
BRANCH  48  62
ATOM     62  C   UNL A   1      35.894  34.044  29.933  1.00  0.00     0.057 A 
ATOM     63  C   UNL A   1      35.013  34.444  28.900  1.00  0.00     0.134 A 
ATOM     64  C   UNL A   1      35.371  34.237  31.224  1.00  0.00     0.134 A 
ATOM     65  F   UNL A   1      35.315  34.258  27.608  1.00  0.00    -0.206 F 
ATOM     66  C   UNL A   1      33.770  35.050  29.132  1.00  0.00     0.040 A 
ATOM     67  C   UNL A   1      34.134  34.859  31.472  1.00  0.00     0.040 A 
ATOM     68  F   UNL A   1      35.999  33.798  32.319  1.00  0.00    -0.206 F 
ATOM     69  C   UNL A   1      33.330  35.278  30.423  1.00  0.00     0.006 A 
ENDBRANCH  48  62
BRANCH  49  70
ATOM     70  C   UNL A   1      44.345  29.070  29.172  1.00  0.00     0.057 A 
ATOM     71  C   UNL A   1      43.932  29.106  27.819  1.00  0.00     0.134 A 
ATOM     72  C   UNL A   1      45.255  28.062  29.502  1.00  0.00     0.134 A 
ATOM     73  F   UNL A   1      43.044  30.029  27.411  1.00  0.00    -0.206 F 
ATOM     74  C   UNL A   1      44.475  28.271  26.834  1.00  0.00     0.040 A 
ATOM     75  C   UNL A   1      45.788  27.196  28.526  1.00  0.00     0.040 A 
ATOM     76  F   UNL A   1      45.709  27.929  30.755  1.00  0.00    -0.206 F 
ATOM     77  C   UNL A   1      45.424  27.321  27.185  1.00  0.00     0.006 A 
ENDBRANCH  49  70
BRANCH  61  78
ATOM     78  C   UNL A   1      42.224  36.008  28.854  1.00  0.00     0.057 A 
ATOM     79  C   UNL A   1      42.926  37.003  29.549  1.00  0.00     0.134 A 
ATOM     80  C   UNL A   1      41.890  36.326  27.519  1.00  0.00     0.134 A 
ATOM     81  F   UNL A   1      43.427  36.790  30.774  1.00  0.00    -0.206 F 
ATOM     82  C   UNL A   1      43.200  38.254  28.990  1.00  0.00     0.040 A 
ATOM     83  C   UNL A   1      42.228  37.541  26.926  1.00  0.00     0.040 A 
ATOM     84  F   UNL A   1      41.254  35.459  26.717  1.00  0.00    -0.206 F 
ATOM     85  C   UNL A   1      42.865  38.521  27.670  1.00  0.00     0.006 A 
ENDBRANCH  61  78
ENDBRANCH  35  36
ENDBRANCH  28  30
ENDBRANCH  27  28
ENDBRANCH  26  27
ENDBRANCH   1  26
TORSDOF 14
ENDMDL
