MODEL 1
REMARK VINA RESULT:     -11.3      0.000      0.000
REMARK SMILES C/C(=N\[NH+]=C1/NC(=O)[C@@H](CC(=O)OCCOC(=O)c2ccc(-c3c4nc(c(-c5c(F)cccc5F)c5ccc([nH]5)c(-c5c(F)cccc5F)c5nc(c(-c6c(F)cccc6F)c6ccc3[nH]6)C=C5)C=C4)cc2)S1)c1ccc(Br)cc1
REMARK SMILES IDX 14 1 13 2 11 3 12 4 10 5 9 6 4 7 5 8 6 10 73 11 7 12 8 14
REMARK SMILES IDX 3 15 1 16 2 17 74 18 75 19 80 20 76 21 79 22 77 23 78 24
REMARK SMILES IDX 15 25 16 26 17 27 18 28 19 29 20 30 72 31 21 32 71 33 22 34
REMARK SMILES IDX 23 35 24 36 65 37 25 38 70 39 64 40 66 41 26 42 69 43 63 44
REMARK SMILES IDX 62 45 27 47 53 48 36 49 52 50 37 51 40 52 51 53 67 54 38 55
REMARK SMILES IDX 39 56 50 58 68 59 41 60 28 61 29 62 34 63 30 64 31 65 33 66
REMARK SMILES IDX 35 67 32 68 54 69 55 70 60 71 56 72 57 73 59 74 61 75 58 76
REMARK SMILES IDX 42 77 43 78 48 79 44 80 45 81 47 82 49 83 46 84
REMARK H PARENT 4 9 6 13 66 46 40 57
REMARK Flexibility Score: inf
ROOT
ATOM      1  C   UNL A   1      31.716  28.606  24.467  1.00  0.00     0.274 C 
ENDROOT
BRANCH   1   2
ATOM      2  O   UNL A   1      30.649  27.703  24.835  1.00  0.00    -0.462 OA
BRANCH   2   3
ATOM      3  C   UNL A   1      30.917  26.875  25.876  1.00  0.00     0.307 C 
ATOM      4  O   UNL A   1      31.837  27.024  26.673  1.00  0.00    -0.252 OA
BRANCH   3   5
ATOM      5  C   UNL A   1      30.050  25.640  25.889  1.00  0.00     0.150 C 
BRANCH   5   6
ATOM      6  C   UNL A   1      30.760  24.350  25.512  1.00  0.00     0.184 C 
ATOM      7  N   UNL A   1      34.423  24.104  24.329  1.00  0.00    -0.142 N 
ATOM      8  C   UNL A   1      33.280  24.281  24.898  1.00  0.00     0.337 C 
ATOM      9  H   UNL A   1      34.565  24.246  23.366  1.00  0.00     0.343 HD
ATOM     10  N   UNL A   1      33.042  24.090  26.208  1.00  0.00    -0.202 N 
ATOM     11  S   UNL A   1      31.823  24.653  24.038  1.00  0.00    -0.020 SA
ATOM     12  C   UNL A   1      31.751  23.931  26.582  1.00  0.00     0.322 C 
ATOM     13  H   UNL A   1      33.774  24.067  26.866  1.00  0.00     0.316 HD
ATOM     14  O   UNL A   1      31.446  23.442  27.658  1.00  0.00    -0.246 OA
BRANCH   7  15
ATOM     15  N   UNL A   1      35.452  23.694  25.195  1.00  0.00    -0.090 NA
ATOM     16  C   UNL A   1      36.637  22.931  23.131  1.00  0.00     0.071 C 
ATOM     17  C   UNL A   1      36.530  23.237  24.617  1.00  0.00     0.088 C 
BRANCH  17  18
ATOM     18  C   UNL A   1      37.731  22.933  25.463  1.00  0.00    -0.000 A 
ATOM     19  C   UNL A   1      38.304  23.941  26.252  1.00  0.00     0.011 A 
ATOM     20  C   UNL A   1      38.316  21.660  25.453  1.00  0.00     0.011 A 
ATOM     21  C   UNL A   1      39.444  23.674  27.020  1.00  0.00     0.016 A 
ATOM     22  C   UNL A   1      39.459  21.397  26.211  1.00  0.00     0.016 A 
ATOM     23  C   UNL A   1      40.018  22.405  26.993  1.00  0.00     0.018 A 
ATOM     24  Br  UNL A   1      41.568  22.046  28.012  1.00  0.00    -0.051 Br
ENDBRANCH  17  18
ENDBRANCH   7  15
ENDBRANCH   5   6
ENDBRANCH   3   5
ENDBRANCH   2   3
ENDBRANCH   1   2
BRANCH   1  25
ATOM     25  C   UNL A   1      31.652  29.909  25.259  1.00  0.00     0.275 C 
BRANCH  25  26
ATOM     26  O   UNL A   1      32.913  30.152  25.904  1.00  0.00    -0.458 OA
BRANCH  26  27
ATOM     27  C   UNL A   1      32.910  31.145  26.824  1.00  0.00     0.338 C 
ATOM     28  O   UNL A   1      32.098  32.045  26.936  1.00  0.00    -0.246 OA
BRANCH  27  29
ATOM     29  C   UNL A   1      34.095  31.002  27.687  1.00  0.00     0.060 A 
ATOM     30  C   UNL A   1      34.854  32.124  28.025  1.00  0.00     0.016 A 
ATOM     31  C   UNL A   1      34.525  29.727  28.048  1.00  0.00     0.016 A 
ATOM     32  C   UNL A   1      36.094  31.971  28.634  1.00  0.00     0.010 A 
ATOM     33  C   UNL A   1      35.723  29.581  28.751  1.00  0.00     0.010 A 
ATOM     34  C   UNL A   1      36.531  30.699  29.024  1.00  0.00    -0.014 A 
BRANCH  34  35
ATOM     35  C   UNL A   1      37.831  30.542  29.721  1.00  0.00     0.031 A 
ATOM     36  C   UNL A   1      38.957  29.784  29.078  1.00  0.00     0.074 A 
ATOM     37  C   UNL A   1      37.991  31.079  30.945  1.00  0.00     0.049 A 
ATOM     38  N   UNL A   1      40.104  29.419  29.592  1.00  0.00    -0.248 NA
ATOM     39  C   UNL A   1      38.768  29.379  27.676  1.00  0.00     0.031 C 
ATOM     40  C   UNL A   1      36.989  31.875  31.659  1.00  0.00     0.029 A 
ATOM     41  N   UNL A   1      39.055  31.032  31.809  1.00  0.00    -0.354 N 
ATOM     42  C   UNL A   1      40.760  28.714  28.592  1.00  0.00     0.074 A 
ATOM     43  C   UNL A   1      39.881  28.695  27.442  1.00  0.00     0.031 C 
ATOM     44  C   UNL A   1      37.491  32.251  32.845  1.00  0.00     0.029 A 
ATOM     45  C   UNL A   1      38.815  31.664  33.004  1.00  0.00     0.049 A 
ATOM     46  H   UNL A   1      39.907  30.590  31.593  1.00  0.00     0.167 HD
ATOM     47  C   UNL A   1      41.984  28.136  28.632  1.00  0.00     0.037 A 
ATOM     48  C   UNL A   1      39.560  31.727  34.123  1.00  0.00     0.037 A 
ATOM     49  C   UNL A   1      42.865  28.176  29.772  1.00  0.00     0.049 A 
ATOM     50  C   UNL A   1      40.886  31.027  34.163  1.00  0.00     0.074 A 
ATOM     51  C   UNL A   1      44.131  27.632  29.904  1.00  0.00     0.029 A 
ATOM     52  N   UNL A   1      42.572  28.799  30.976  1.00  0.00    -0.354 N 
ATOM     53  N   UNL A   1      41.486  30.342  33.220  1.00  0.00    -0.248 NA
ATOM     54  C   UNL A   1      41.631  31.096  35.426  1.00  0.00     0.031 C 
ATOM     55  C   UNL A   1      44.589  27.896  31.200  1.00  0.00     0.029 A 
ATOM     56  C   UNL A   1      43.625  28.638  31.862  1.00  0.00     0.049 A 
ATOM     57  H   UNL A   1      41.738  29.285  31.172  1.00  0.00     0.167 HD
ATOM     58  C   UNL A   1      42.685  29.912  33.770  1.00  0.00     0.074 A 
ATOM     59  C   UNL A   1      42.734  30.427  35.123  1.00  0.00     0.031 C 
ATOM     60  C   UNL A   1      43.657  29.156  33.205  1.00  0.00     0.037 A 
BRANCH  47  61
ATOM     61  C   UNL A   1      42.434  27.379  27.419  1.00  0.00     0.057 A 
ATOM     62  C   UNL A   1      42.349  25.983  27.341  1.00  0.00     0.134 A 
ATOM     63  C   UNL A   1      42.920  28.062  26.296  1.00  0.00     0.134 A 
ATOM     64  F   UNL A   1      41.906  25.269  28.386  1.00  0.00    -0.206 F 
ATOM     65  C   UNL A   1      42.748  25.292  26.195  1.00  0.00     0.040 A 
ATOM     66  C   UNL A   1      43.301  27.384  25.138  1.00  0.00     0.040 A 
ATOM     67  F   UNL A   1      43.022  29.399  26.305  1.00  0.00    -0.206 F 
ATOM     68  C   UNL A   1      43.220  25.994  25.086  1.00  0.00     0.006 A 
ENDBRANCH  47  61
BRANCH  48  69
ATOM     69  C   UNL A   1      39.047  32.456  35.308  1.00  0.00     0.057 A 
ATOM     70  C   UNL A   1      38.278  31.805  36.277  1.00  0.00     0.134 A 
ATOM     71  C   UNL A   1      39.317  33.816  35.500  1.00  0.00     0.134 A 
ATOM     72  F   UNL A   1      37.971  30.506  36.136  1.00  0.00    -0.206 F 
ATOM     73  C   UNL A   1      37.787  32.482  37.394  1.00  0.00     0.040 A 
ATOM     74  C   UNL A   1      38.853  34.500  36.623  1.00  0.00     0.040 A 
ATOM     75  F   UNL A   1      40.053  34.493  34.606  1.00  0.00    -0.206 F 
ATOM     76  C   UNL A   1      38.080  33.833  37.571  1.00  0.00     0.006 A 
ENDBRANCH  48  69
BRANCH  60  77
ATOM     77  C   UNL A   1      44.866  28.866  34.044  1.00  0.00     0.057 A 
ATOM     78  C   UNL A   1      45.965  29.734  34.074  1.00  0.00     0.134 A 
ATOM     79  C   UNL A   1      44.920  27.719  34.844  1.00  0.00     0.134 A 
ATOM     80  F   UNL A   1      45.979  30.840  33.316  1.00  0.00    -0.206 F 
ATOM     81  C   UNL A   1      47.086  29.459  34.859  1.00  0.00     0.040 A 
ATOM     82  C   UNL A   1      46.026  27.446  35.649  1.00  0.00     0.040 A 
ATOM     83  F   UNL A   1      43.897  26.851  34.862  1.00  0.00    -0.206 F 
ATOM     84  C   UNL A   1      47.116  28.314  35.654  1.00  0.00     0.006 A 
ENDBRANCH  60  77
ENDBRANCH  34  35
ENDBRANCH  27  29
ENDBRANCH  26  27
ENDBRANCH  25  26
ENDBRANCH   1  25
TORSDOF 14
ENDMDL
MODEL 2
REMARK VINA RESULT:     -11.2      2.222      6.905
REMARK SMILES C/C(=N\[NH+]=C1/NC(=O)[C@@H](CC(=O)OCCOC(=O)c2ccc(-c3c4nc(c(-c5c(F)cccc5F)c5ccc([nH]5)c(-c5c(F)cccc5F)c5nc(c(-c6c(F)cccc6F)c6ccc3[nH]6)C=C5)C=C4)cc2)S1)c1ccc(Br)cc1
REMARK SMILES IDX 14 1 13 2 11 3 12 4 10 5 9 6 4 7 5 8 6 10 73 11 7 12 8 14
REMARK SMILES IDX 3 15 1 16 2 17 74 18 75 19 80 20 76 21 79 22 77 23 78 24
REMARK SMILES IDX 15 25 16 26 17 27 18 28 19 29 20 30 72 31 21 32 71 33 22 34
REMARK SMILES IDX 23 35 24 36 65 37 25 38 70 39 64 40 66 41 26 42 69 43 63 44
REMARK SMILES IDX 62 45 27 47 53 48 36 49 52 50 37 51 40 52 51 53 67 54 38 55
REMARK SMILES IDX 39 56 50 58 68 59 41 60 28 61 29 62 34 63 30 64 31 65 33 66
REMARK SMILES IDX 35 67 32 68 54 69 55 70 60 71 56 72 57 73 59 74 61 75 58 76
REMARK SMILES IDX 42 77 43 78 48 79 44 80 45 81 47 82 49 83 46 84
REMARK H PARENT 4 9 6 13 66 46 40 57
REMARK Flexibility Score: inf
ROOT
ATOM      1  C   UNL A   1      31.491  32.052  26.939  1.00  0.00     0.274 C 
ENDROOT
BRANCH   1   2
ATOM      2  O   UNL A   1      32.090  30.947  26.227  1.00  0.00    -0.462 OA
BRANCH   2   3
ATOM      3  C   UNL A   1      32.812  30.084  26.986  1.00  0.00     0.307 C 
ATOM      4  O   UNL A   1      33.965  30.273  27.359  1.00  0.00    -0.252 OA
BRANCH   3   5
ATOM      5  C   UNL A   1      32.109  28.770  27.219  1.00  0.00     0.150 C 
BRANCH   5   6
ATOM      6  C   UNL A   1      31.914  27.913  25.979  1.00  0.00     0.184 C 
ATOM      7  N   UNL A   1      34.334  25.154  24.793  1.00  0.00    -0.142 N 
ATOM      8  C   UNL A   1      33.517  25.965  25.372  1.00  0.00     0.337 C 
ATOM      9  H   UNL A   1      35.084  25.463  24.236  1.00  0.00     0.343 HD
ATOM     10  N   UNL A   1      32.475  25.585  26.134  1.00  0.00    -0.202 N 
ATOM     11  S   UNL A   1      33.539  27.683  25.142  1.00  0.00    -0.020 SA
ATOM     12  C   UNL A   1      31.500  26.499  26.342  1.00  0.00     0.322 C 
ATOM     13  H   UNL A   1      32.424  24.682  26.522  1.00  0.00     0.316 HD
ATOM     14  O   UNL A   1      30.388  26.180  26.730  1.00  0.00    -0.246 OA
BRANCH   7  15
ATOM     15  N   UNL A   1      34.070  23.793  25.022  1.00  0.00    -0.090 NA
ATOM     16  C   UNL A   1      33.478  23.687  22.595  1.00  0.00     0.071 C 
ATOM     17  C   UNL A   1      33.766  23.089  23.963  1.00  0.00     0.088 C 
BRANCH  17  18
ATOM     18  C   UNL A   1      33.631  21.601  24.100  1.00  0.00    -0.000 A 
ATOM     19  C   UNL A   1      34.629  20.864  24.752  1.00  0.00     0.011 A 
ATOM     20  C   UNL A   1      32.533  20.925  23.550  1.00  0.00     0.011 A 
ATOM     21  C   UNL A   1      34.526  19.472  24.856  1.00  0.00     0.016 A 
ATOM     22  C   UNL A   1      32.436  19.535  23.644  1.00  0.00     0.016 A 
ATOM     23  C   UNL A   1      33.432  18.814  24.298  1.00  0.00     0.018 A 
ATOM     24  Br  UNL A   1      33.299  16.932  24.416  1.00  0.00    -0.051 Br
ENDBRANCH  17  18
ENDBRANCH   7  15
ENDBRANCH   5   6
ENDBRANCH   3   5
ENDBRANCH   2   3
ENDBRANCH   1   2
BRANCH   1  25
ATOM     25  C   UNL A   1      32.390  33.286  26.930  1.00  0.00     0.275 C 
BRANCH  25  26
ATOM     26  O   UNL A   1      32.226  34.020  28.154  1.00  0.00    -0.458 OA
BRANCH  26  27
ATOM     27  C   UNL A   1      33.286  34.778  28.519  1.00  0.00     0.338 C 
ATOM     28  O   UNL A   1      33.380  35.991  28.466  1.00  0.00    -0.246 OA
BRANCH  27  29
ATOM     29  C   UNL A   1      34.373  33.895  28.976  1.00  0.00     0.060 A 
ATOM     30  C   UNL A   1      34.082  32.767  29.746  1.00  0.00     0.016 A 
ATOM     31  C   UNL A   1      35.695  34.268  28.746  1.00  0.00     0.016 A 
ATOM     32  C   UNL A   1      35.106  32.068  30.374  1.00  0.00     0.010 A 
ATOM     33  C   UNL A   1      36.728  33.504  29.294  1.00  0.00     0.010 A 
ATOM     34  C   UNL A   1      36.441  32.416  30.137  1.00  0.00    -0.014 A 
BRANCH  34  35
ATOM     35  C   UNL A   1      37.535  31.636  30.766  1.00  0.00     0.031 A 
ATOM     36  C   UNL A   1      37.952  31.909  32.183  1.00  0.00     0.074 A 
ATOM     37  C   UNL A   1      38.161  30.683  30.050  1.00  0.00     0.049 A 
ATOM     38  N   UNL A   1      38.976  31.436  32.846  1.00  0.00    -0.248 NA
ATOM     39  C   UNL A   1      37.110  32.837  32.954  1.00  0.00     0.031 C 
ATOM     40  C   UNL A   1      37.822  30.293  28.679  1.00  0.00     0.029 A 
ATOM     41  N   UNL A   1      39.219  29.873  30.374  1.00  0.00    -0.354 N 
ATOM     42  C   UNL A   1      38.924  32.032  34.100  1.00  0.00     0.074 A 
ATOM     43  C   UNL A   1      37.771  32.908  34.103  1.00  0.00     0.031 C 
ATOM     44  C   UNL A   1      38.647  29.311  28.284  1.00  0.00     0.029 A 
ATOM     45  C   UNL A   1      39.614  29.055  29.344  1.00  0.00     0.049 A 
ATOM     46  H   UNL A   1      39.652  29.876  31.257  1.00  0.00     0.167 HD
ATOM     47  C   UNL A   1      39.763  31.863  35.149  1.00  0.00     0.037 A 
ATOM     48  C   UNL A   1      40.667  28.223  29.245  1.00  0.00     0.037 A 
ATOM     49  C   UNL A   1      40.896  30.973  35.148  1.00  0.00     0.049 A 
ATOM     50  C   UNL A   1      41.616  28.099  30.400  1.00  0.00     0.074 A 
ATOM     51  C   UNL A   1      41.797  30.722  36.169  1.00  0.00     0.029 A 
ATOM     52  N   UNL A   1      41.283  30.185  34.074  1.00  0.00    -0.354 N 
ATOM     53  N   UNL A   1      41.572  28.686  31.571  1.00  0.00    -0.248 NA
ATOM     54  C   UNL A   1      42.769  27.208  30.214  1.00  0.00     0.031 C 
ATOM     55  C   UNL A   1      42.749  29.809  35.700  1.00  0.00     0.029 A 
ATOM     56  C   UNL A   1      42.418  29.462  34.400  1.00  0.00     0.049 A 
ATOM     57  H   UNL A   1      40.817  30.146  33.207  1.00  0.00     0.167 HD
ATOM     58  C   UNL A   1      42.679  28.225  32.267  1.00  0.00     0.074 A 
ATOM     59  C   UNL A   1      43.368  27.298  31.393  1.00  0.00     0.031 C 
ATOM     60  C   UNL A   1      43.091  28.544  33.518  1.00  0.00     0.037 A 
BRANCH  47  61
ATOM     61  C   UNL A   1      39.508  32.681  36.379  1.00  0.00     0.057 A 
ATOM     62  C   UNL A   1      40.169  33.894  36.614  1.00  0.00     0.134 A 
ATOM     63  C   UNL A   1      38.557  32.269  37.322  1.00  0.00     0.134 A 
ATOM     64  F   UNL A   1      41.100  34.338  35.757  1.00  0.00    -0.206 F 
ATOM     65  C   UNL A   1      39.904  34.659  37.752  1.00  0.00     0.040 A 
ATOM     66  C   UNL A   1      38.269  33.035  38.451  1.00  0.00     0.040 A 
ATOM     67  F   UNL A   1      37.887  31.119  37.153  1.00  0.00    -0.206 F 
ATOM     68  C   UNL A   1      38.946  34.232  38.671  1.00  0.00     0.006 A 
ENDBRANCH  47  61
BRANCH  48  69
ATOM     69  C   UNL A   1      40.893  27.469  27.988  1.00  0.00     0.057 A 
ATOM     70  C   UNL A   1      41.636  28.020  26.941  1.00  0.00     0.134 A 
ATOM     71  C   UNL A   1      40.376  26.180  27.809  1.00  0.00     0.134 A 
ATOM     72  F   UNL A   1      42.139  29.260  27.048  1.00  0.00    -0.206 F 
ATOM     73  C   UNL A   1      41.851  27.321  25.753  1.00  0.00     0.040 A 
ATOM     74  C   UNL A   1      40.603  25.460  26.637  1.00  0.00     0.040 A 
ATOM     75  F   UNL A   1      39.659  25.597  28.781  1.00  0.00    -0.206 F 
ATOM     76  C   UNL A   1      41.338  26.034  25.602  1.00  0.00     0.006 A 
ENDBRANCH  48  69
BRANCH  60  77
ATOM     77  C   UNL A   1      44.328  27.862  34.021  1.00  0.00     0.057 A 
ATOM     78  C   UNL A   1      45.595  28.441  33.881  1.00  0.00     0.134 A 
ATOM     79  C   UNL A   1      44.246  26.624  34.669  1.00  0.00     0.134 A 
ATOM     80  F   UNL A   1      45.740  29.617  33.253  1.00  0.00    -0.206 F 
ATOM     81  C   UNL A   1      46.742  27.800  34.352  1.00  0.00     0.040 A 
ATOM     82  C   UNL A   1      45.384  25.985  35.164  1.00  0.00     0.040 A 
ATOM     83  F   UNL A   1      43.060  26.020  34.838  1.00  0.00    -0.206 F 
ATOM     84  C   UNL A   1      46.637  26.571  35.001  1.00  0.00     0.006 A 
ENDBRANCH  60  77
ENDBRANCH  34  35
ENDBRANCH  27  29
ENDBRANCH  26  27
ENDBRANCH  25  26
ENDBRANCH   1  25
TORSDOF 14
ENDMDL
MODEL 3
REMARK VINA RESULT:     -11.1      3.875      8.822
REMARK SMILES C/C(=N\[NH+]=C1/NC(=O)[C@@H](CC(=O)OCCOC(=O)c2ccc(-c3c4nc(c(-c5c(F)cccc5F)c5ccc([nH]5)c(-c5c(F)cccc5F)c5nc(c(-c6c(F)cccc6F)c6ccc3[nH]6)C=C5)C=C4)cc2)S1)c1ccc(Br)cc1
REMARK SMILES IDX 14 1 13 2 11 3 12 4 10 5 9 6 4 7 5 8 6 10 73 11 7 12 8 14
REMARK SMILES IDX 3 15 1 16 2 17 74 18 75 19 80 20 76 21 79 22 77 23 78 24
REMARK SMILES IDX 15 25 16 26 17 27 18 28 19 29 20 30 72 31 21 32 71 33 22 34
REMARK SMILES IDX 23 35 24 36 65 37 25 38 70 39 64 40 66 41 26 42 69 43 63 44
REMARK SMILES IDX 62 45 27 47 53 48 36 49 52 50 37 51 40 52 51 53 67 54 38 55
REMARK SMILES IDX 39 56 50 58 68 59 41 60 28 61 29 62 34 63 30 64 31 65 33 66
REMARK SMILES IDX 35 67 32 68 54 69 55 70 60 71 56 72 57 73 59 74 61 75 58 76
REMARK SMILES IDX 42 77 43 78 48 79 44 80 45 81 47 82 49 83 46 84
REMARK H PARENT 4 9 6 13 66 46 40 57
REMARK Flexibility Score: inf
ROOT
ATOM      1  C   UNL A   1      35.938  22.588  23.739  1.00  0.00     0.274 C 
ENDROOT
BRANCH   1   2
ATOM      2  O   UNL A   1      34.703  22.462  24.477  1.00  0.00    -0.462 OA
BRANCH   2   3
ATOM      3  C   UNL A   1      33.624  22.075  23.751  1.00  0.00     0.307 C 
ATOM      4  O   UNL A   1      32.969  21.058  23.955  1.00  0.00    -0.252 OA
BRANCH   3   5
ATOM      5  C   UNL A   1      33.374  22.951  22.548  1.00  0.00     0.150 C 
BRANCH   5   6
ATOM      6  C   UNL A   1      32.546  24.196  22.818  1.00  0.00     0.184 C 
ATOM      7  N   UNL A   1      32.586  26.210  26.107  1.00  0.00    -0.142 N 
ATOM      8  C   UNL A   1      32.783  25.575  25.004  1.00  0.00     0.337 C 
ATOM      9  H   UNL A   1      31.980  25.881  26.810  1.00  0.00     0.343 HD
ATOM     10  N   UNL A   1      33.594  25.993  24.016  1.00  0.00    -0.202 N 
ATOM     11  S   UNL A   1      31.919  24.142  24.549  1.00  0.00    -0.020 SA
ATOM     12  C   UNL A   1      33.404  25.448  22.792  1.00  0.00     0.322 C 
ATOM     13  H   UNL A   1      34.294  26.666  24.175  1.00  0.00     0.316 HD
ATOM     14  O   UNL A   1      33.844  25.967  21.779  1.00  0.00    -0.246 OA
BRANCH   7  15
ATOM     15  N   UNL A   1      33.305  27.412  26.228  1.00  0.00    -0.090 NA
ATOM     16  C   UNL A   1      31.394  28.204  27.632  1.00  0.00     0.071 C 
ATOM     17  C   UNL A   1      32.786  28.305  27.028  1.00  0.00     0.088 C 
BRANCH  17  18
ATOM     18  C   UNL A   1      33.574  29.544  27.336  1.00  0.00    -0.000 A 
ATOM     19  C   UNL A   1      32.949  30.798  27.296  1.00  0.00     0.011 A 
ATOM     20  C   UNL A   1      34.943  29.473  27.628  1.00  0.00     0.011 A 
ATOM     21  C   UNL A   1      33.684  31.962  27.551  1.00  0.00     0.016 A 
ATOM     22  C   UNL A   1      35.678  30.635  27.872  1.00  0.00     0.016 A 
ATOM     23  C   UNL A   1      35.045  31.876  27.833  1.00  0.00     0.018 A 
ATOM     24  Br  UNL A   1      36.047  33.445  28.156  1.00  0.00    -0.051 Br
ENDBRANCH  17  18
ENDBRANCH   7  15
ENDBRANCH   5   6
ENDBRANCH   3   5
ENDBRANCH   2   3
ENDBRANCH   1   2
BRANCH   1  25
ATOM     25  C   UNL A   1      36.978  21.569  24.197  1.00  0.00     0.275 C 
BRANCH  25  26
ATOM     26  O   UNL A   1      37.325  21.809  25.570  1.00  0.00    -0.458 OA
BRANCH  26  27
ATOM     27  C   UNL A   1      38.587  21.462  25.916  1.00  0.00     0.338 C 
ATOM     28  O   UNL A   1      39.107  20.366  25.811  1.00  0.00    -0.246 OA
BRANCH  27  29
ATOM     29  C   UNL A   1      39.264  22.635  26.497  1.00  0.00     0.060 A 
ATOM     30  C   UNL A   1      38.864  23.923  26.139  1.00  0.00     0.016 A 
ATOM     31  C   UNL A   1      40.388  22.444  27.298  1.00  0.00     0.016 A 
ATOM     32  C   UNL A   1      39.641  25.019  26.494  1.00  0.00     0.010 A 
ATOM     33  C   UNL A   1      41.111  23.554  27.739  1.00  0.00     0.010 A 
ATOM     34  C   UNL A   1      40.761  24.848  27.316  1.00  0.00    -0.014 A 
BRANCH  34  35
ATOM     35  C   UNL A   1      41.561  26.025  27.737  1.00  0.00     0.031 A 
ATOM     36  C   UNL A   1      40.965  27.074  28.632  1.00  0.00     0.074 A 
ATOM     37  C   UNL A   1      42.829  26.149  27.303  1.00  0.00     0.049 A 
ATOM     38  N   UNL A   1      41.457  28.235  28.981  1.00  0.00    -0.248 NA
ATOM     39  C   UNL A   1      39.642  26.782  29.205  1.00  0.00     0.031 C 
ATOM     40  C   UNL A   1      43.537  25.177  26.466  1.00  0.00     0.029 A 
ATOM     41  N   UNL A   1      43.746  27.149  27.499  1.00  0.00    -0.354 N 
ATOM     42  C   UNL A   1      40.493  28.829  29.786  1.00  0.00     0.074 A 
ATOM     43  C   UNL A   1      39.383  27.903  29.868  1.00  0.00     0.031 C 
ATOM     44  C   UNL A   1      44.781  25.623  26.232  1.00  0.00     0.029 A 
ATOM     45  C   UNL A   1      44.932  26.939  26.839  1.00  0.00     0.049 A 
ATOM     46  H   UNL A   1      43.573  27.939  28.060  1.00  0.00     0.167 HD
ATOM     47  C   UNL A   1      40.533  30.036  30.398  1.00  0.00     0.037 A 
ATOM     48  C   UNL A   1      46.006  27.737  26.698  1.00  0.00     0.037 A 
ATOM     49  C   UNL A   1      41.650  30.945  30.331  1.00  0.00     0.049 A 
ATOM     50  C   UNL A   1      46.001  29.095  27.336  1.00  0.00     0.074 A 
ATOM     51  C   UNL A   1      41.790  32.185  30.930  1.00  0.00     0.029 A 
ATOM     52  N   UNL A   1      42.820  30.709  29.624  1.00  0.00    -0.354 N 
ATOM     53  N   UNL A   1      45.074  29.656  28.074  1.00  0.00    -0.248 NA
ATOM     54  C   UNL A   1      47.184  29.935  27.110  1.00  0.00     0.031 C 
ATOM     55  C   UNL A   1      43.030  32.715  30.556  1.00  0.00     0.029 A 
ATOM     56  C   UNL A   1      43.679  31.787  29.757  1.00  0.00     0.049 A 
ATOM     57  H   UNL A   1      43.011  29.895  29.105  1.00  0.00     0.167 HD
ATOM     58  C   UNL A   1      45.567  30.907  28.413  1.00  0.00     0.074 A 
ATOM     59  C   UNL A   1      46.882  31.017  27.813  1.00  0.00     0.031 C 
ATOM     60  C   UNL A   1      44.983  31.881  29.153  1.00  0.00     0.037 A 
BRANCH  47  61
ATOM     61  C   UNL A   1      39.320  30.463  31.169  1.00  0.00     0.057 A 
ATOM     62  C   UNL A   1      39.163  30.165  32.528  1.00  0.00     0.134 A 
ATOM     63  C   UNL A   1      38.314  31.217  30.550  1.00  0.00     0.134 A 
ATOM     64  F   UNL A   1      40.083  29.435  33.176  1.00  0.00    -0.206 F 
ATOM     65  C   UNL A   1      38.040  30.590  33.241  1.00  0.00     0.040 A 
ATOM     66  C   UNL A   1      37.198  31.665  31.257  1.00  0.00     0.040 A 
ATOM     67  F   UNL A   1      38.407  31.538  29.251  1.00  0.00    -0.206 F 
ATOM     68  C   UNL A   1      37.056  31.348  32.606  1.00  0.00     0.006 A 
ENDBRANCH  47  61
BRANCH  48  69
ATOM     69  C   UNL A   1      47.161  27.279  25.889  1.00  0.00     0.057 A 
ATOM     70  C   UNL A   1      47.207  27.500  24.509  1.00  0.00     0.134 A 
ATOM     71  C   UNL A   1      48.246  26.617  26.477  1.00  0.00     0.134 A 
ATOM     72  F   UNL A   1      46.187  28.112  23.888  1.00  0.00    -0.206 F 
ATOM     73  C   UNL A   1      48.288  27.069  23.739  1.00  0.00     0.040 A 
ATOM     74  C   UNL A   1      49.343  26.204  25.723  1.00  0.00     0.040 A 
ATOM     75  F   UNL A   1      48.260  26.382  27.797  1.00  0.00    -0.206 F 
ATOM     76  C   UNL A   1      49.363  26.425  24.348  1.00  0.00     0.006 A 
ENDBRANCH  48  69
BRANCH  60  77
ATOM     77  C   UNL A   1      45.775  33.134  29.375  1.00  0.00     0.057 A 
ATOM     78  C   UNL A   1      45.663  34.236  28.518  1.00  0.00     0.134 A 
ATOM     79  C   UNL A   1      46.642  33.246  30.468  1.00  0.00     0.134 A 
ATOM     80  F   UNL A   1      44.862  34.183  27.443  1.00  0.00    -0.206 F 
ATOM     81  C   UNL A   1      46.403  35.400  28.731  1.00  0.00     0.040 A 
ATOM     82  C   UNL A   1      47.369  34.413  30.703  1.00  0.00     0.040 A 
ATOM     83  F   UNL A   1      46.790  32.226  31.328  1.00  0.00    -0.206 F 
ATOM     84  C   UNL A   1      47.255  35.492  29.830  1.00  0.00     0.006 A 
ENDBRANCH  60  77
ENDBRANCH  34  35
ENDBRANCH  27  29
ENDBRANCH  26  27
ENDBRANCH  25  26
ENDBRANCH   1  25
TORSDOF 14
ENDMDL
