MODEL 1
REMARK VINA RESULT:     -12.9      0.000      0.000
REMARK SMILES CC1(C)[C@H](C(=O)Nc2ccc(C(=O)Nc3cccnc3)c(Cl)c2)[C@H]1C(=O)OCCOC(=O)c1ccc(-c2c3nc(c(-c4c(F)cccc4F)c4ccc([nH]4)c(-c4c(F)cccc4F)c4nc(c(-c5c(F)cccc5F)c5ccc2[nH]5)C=C4)C=C3)cc1
REMARK SMILES IDX 28 1 27 2 25 3 26 4 24 5 1 6 2 7 3 8 4 9 5 10 6 11 7 12 8 14
REMARK SMILES IDX 9 15 23 16 10 17 21 18 11 19 22 20 12 21 13 22 14 23 15 25
REMARK SMILES IDX 16 26 20 27 17 28 19 29 18 30 29 31 30 32 31 33 32 34 33 35
REMARK SMILES IDX 34 36 86 37 35 38 85 39 36 40 37 41 38 42 79 43 39 44 84 45
REMARK SMILES IDX 78 46 80 47 40 48 83 49 77 50 76 51 41 53 67 54 50 55 66 56
REMARK SMILES IDX 51 57 54 58 65 59 81 60 52 61 53 62 64 64 82 65 55 66 42 67
REMARK SMILES IDX 43 68 48 69 44 70 45 71 47 72 49 73 46 74 68 75 69 76 74 77
REMARK SMILES IDX 70 78 71 79 73 80 75 81 72 82 56 83 57 84 62 85 58 86 59 87
REMARK SMILES IDX 61 88 63 89 60 90
REMARK H PARENT 7 13 14 24 80 52 54 63
REMARK Flexibility Score: inf
ROOT
ATOM      1  C   UNL A   1      35.501  20.587  25.063  1.00  0.00     0.274 C 
ENDROOT
BRANCH   1   2
ATOM      2  O   UNL A   1      35.198  21.919  25.510  1.00  0.00    -0.462 OA
BRANCH   2   3
ATOM      3  C   UNL A   1      34.209  22.069  26.428  1.00  0.00     0.310 C 
ATOM      4  O   UNL A   1      34.187  21.608  27.549  1.00  0.00    -0.252 OA
BRANCH   3   5
ATOM      5  C   UNL A   1      33.142  22.990  25.955  1.00  0.00     0.118 C 
ATOM      6  C   UNL A   1      32.190  21.336  24.043  1.00  0.00     0.013 C 
ATOM      7  C   UNL A   1      32.272  22.689  24.721  1.00  0.00    -0.009 C 
ATOM      8  C   UNL A   1      32.336  23.778  23.679  1.00  0.00     0.013 C 
ATOM      9  C   UNL A   1      31.700  22.687  26.153  1.00  0.00     0.100 C 
BRANCH   9  10
ATOM     10  C   UNL A   1      30.617  23.521  26.764  1.00  0.00     0.228 C 
ATOM     11  O   UNL A   1      29.759  22.913  27.405  1.00  0.00    -0.274 OA
ATOM     12  N   UNL A   1      30.686  24.889  26.949  1.00  0.00    -0.326 N 
ATOM     13  H   UNL A   1      30.698  25.186  27.887  1.00  0.00     0.169 HD
BRANCH  12  14
ATOM     14  C   UNL A   1      30.743  25.918  25.997  1.00  0.00     0.042 A 
ATOM     15  C   UNL A   1      29.992  25.877  24.846  1.00  0.00     0.027 A 
ATOM     16  C   UNL A   1      31.434  27.097  26.258  1.00  0.00     0.047 A 
ATOM     17  C   UNL A   1      30.242  26.750  23.793  1.00  0.00     0.017 A 
ATOM     18  C   UNL A   1      31.512  28.099  25.271  1.00  0.00     0.055 A 
ATOM     19  C   UNL A   1      31.123  27.818  23.960  1.00  0.00     0.058 A 
ATOM     20  Cl  UNL A   1      31.898  29.698  25.809  1.00  0.00    -0.083 Cl
BRANCH  19  21
ATOM     21  C   UNL A   1      31.508  28.533  22.711  1.00  0.00     0.257 C 
ATOM     22  O   UNL A   1      32.579  28.225  22.182  1.00  0.00    -0.269 OA
ATOM     23  N   UNL A   1      30.779  29.549  22.132  1.00  0.00    -0.321 N 
ATOM     24  H   UNL A   1      31.181  29.914  21.311  1.00  0.00     0.170 HD
BRANCH  23  25
ATOM     25  C   UNL A   1      29.571  30.161  22.497  1.00  0.00     0.059 A 
ATOM     26  C   UNL A   1      29.465  31.417  23.090  1.00  0.00     0.029 A 
ATOM     27  C   UNL A   1      28.404  29.413  22.365  1.00  0.00     0.137 A 
ATOM     28  C   UNL A   1      28.268  31.795  23.687  1.00  0.00     0.022 A 
ATOM     29  N   UNL A   1      27.236  29.741  22.960  1.00  0.00    -0.263 NA
ATOM     30  C   UNL A   1      27.217  30.901  23.646  1.00  0.00     0.111 A 
ENDBRANCH  23  25
ENDBRANCH  19  21
ENDBRANCH  12  14
ENDBRANCH   9  10
ENDBRANCH   3   5
ENDBRANCH   2   3
ENDBRANCH   1   2
BRANCH   1  31
ATOM     31  C   UNL A   1      37.003  20.474  24.782  1.00  0.00     0.275 C 
BRANCH  31  32
ATOM     32  O   UNL A   1      37.734  21.546  25.413  1.00  0.00    -0.458 OA
BRANCH  32  33
ATOM     33  C   UNL A   1      38.920  21.187  25.958  1.00  0.00     0.338 C 
ATOM     34  O   UNL A   1      39.498  20.119  25.838  1.00  0.00    -0.246 OA
BRANCH  33  35
ATOM     35  C   UNL A   1      39.543  22.349  26.618  1.00  0.00     0.060 A 
ATOM     36  C   UNL A   1      39.119  23.609  26.203  1.00  0.00     0.016 A 
ATOM     37  C   UNL A   1      40.577  22.229  27.551  1.00  0.00     0.016 A 
ATOM     38  C   UNL A   1      39.725  24.750  26.714  1.00  0.00     0.010 A 
ATOM     39  C   UNL A   1      41.188  23.387  28.066  1.00  0.00     0.010 A 
ATOM     40  C   UNL A   1      40.767  24.658  27.644  1.00  0.00    -0.014 A 
BRANCH  40  41
ATOM     41  C   UNL A   1      41.432  25.921  28.062  1.00  0.00     0.031 A 
ATOM     42  C   UNL A   1      42.789  26.253  27.510  1.00  0.00     0.074 A 
ATOM     43  C   UNL A   1      40.761  26.837  28.789  1.00  0.00     0.049 A 
ATOM     44  N   UNL A   1      43.460  27.375  27.581  1.00  0.00    -0.248 NA
ATOM     45  C   UNL A   1      43.468  25.189  26.756  1.00  0.00     0.031 C 
ATOM     46  C   UNL A   1      39.394  26.673  29.280  1.00  0.00     0.029 A 
ATOM     47  N   UNL A   1      41.103  28.113  29.175  1.00  0.00    -0.354 N 
ATOM     48  C   UNL A   1      44.657  27.140  26.917  1.00  0.00     0.074 A 
ATOM     49  C   UNL A   1      44.605  25.782  26.420  1.00  0.00     0.031 C 
ATOM     50  C   UNL A   1      38.985  27.831  29.825  1.00  0.00     0.029 A 
ATOM     51  C   UNL A   1      40.068  28.812  29.760  1.00  0.00     0.049 A 
ATOM     52  H   UNL A   1      42.002  28.492  29.045  1.00  0.00     0.167 HD
ATOM     53  C   UNL A   1      45.711  27.974  26.753  1.00  0.00     0.037 A 
ATOM     54  C   UNL A   1      39.996  30.103  30.158  1.00  0.00     0.037 A 
ATOM     55  C   UNL A   1      45.773  29.321  27.252  1.00  0.00     0.049 A 
ATOM     56  C   UNL A   1      41.207  30.990  29.978  1.00  0.00     0.074 A 
ATOM     57  C   UNL A   1      46.819  30.224  27.158  1.00  0.00     0.029 A 
ATOM     58  N   UNL A   1      44.757  29.957  27.946  1.00  0.00    -0.354 N 
ATOM     59  N   UNL A   1      42.341  30.747  29.364  1.00  0.00    -0.248 NA
ATOM     60  C   UNL A   1      41.129  32.334  30.572  1.00  0.00     0.031 C 
ATOM     61  C   UNL A   1      46.450  31.394  27.829  1.00  0.00     0.029 A 
ATOM     62  C   UNL A   1      45.157  31.236  28.299  1.00  0.00     0.049 A 
ATOM     63  H   UNL A   1      43.882  29.559  28.157  1.00  0.00     0.167 HD
ATOM     64  C   UNL A   1      43.084  31.918  29.461  1.00  0.00     0.074 A 
ATOM     65  C   UNL A   1      42.269  32.878  30.172  1.00  0.00     0.031 C 
ATOM     66  C   UNL A   1      44.338  32.177  29.016  1.00  0.00     0.037 A 
BRANCH  53  67
ATOM     67  C   UNL A   1      46.917  27.426  26.055  1.00  0.00     0.057 A 
ATOM     68  C   UNL A   1      47.939  26.769  26.749  1.00  0.00     0.134 A 
ATOM     69  C   UNL A   1      47.035  27.526  24.663  1.00  0.00     0.134 A 
ATOM     70  F   UNL A   1      47.886  26.650  28.083  1.00  0.00    -0.206 F 
ATOM     71  C   UNL A   1      49.048  26.243  26.082  1.00  0.00     0.040 A 
ATOM     72  C   UNL A   1      48.127  26.987  23.983  1.00  0.00     0.040 A 
ATOM     73  F   UNL A   1      46.085  28.141  23.942  1.00  0.00    -0.206 F 
ATOM     74  C   UNL A   1      49.140  26.346  24.694  1.00  0.00     0.006 A 
ENDBRANCH  53  67
BRANCH  54  75
ATOM     75  C   UNL A   1      38.725  30.672  30.710  1.00  0.00     0.057 A 
ATOM     76  C   UNL A   1      38.404  30.569  32.074  1.00  0.00     0.134 A 
ATOM     77  C   UNL A   1      37.777  31.305  29.899  1.00  0.00     0.134 A 
ATOM     78  F   UNL A   1      39.191  29.880  32.909  1.00  0.00    -0.206 F 
ATOM     79  C   UNL A   1      37.234  31.108  32.613  1.00  0.00     0.040 A 
ATOM     80  C   UNL A   1      36.603  31.857  30.424  1.00  0.00     0.040 A 
ATOM     81  F   UNL A   1      37.975  31.404  28.576  1.00  0.00    -0.206 F 
ATOM     82  C   UNL A   1      36.333  31.766  31.786  1.00  0.00     0.006 A 
ENDBRANCH  54  75
BRANCH  66  83
ATOM     83  C   UNL A   1      44.910  33.537  29.301  1.00  0.00     0.057 A 
ATOM     84  C   UNL A   1      44.728  34.609  28.416  1.00  0.00     0.134 A 
ATOM     85  C   UNL A   1      45.610  33.795  30.487  1.00  0.00     0.134 A 
ATOM     86  F   UNL A   1      44.073  34.430  27.258  1.00  0.00    -0.206 F 
ATOM     87  C   UNL A   1      45.243  35.878  28.685  1.00  0.00     0.040 A 
ATOM     88  C   UNL A   1      46.107  35.068  30.780  1.00  0.00     0.040 A 
ATOM     89  F   UNL A   1      45.809  32.822  31.388  1.00  0.00    -0.206 F 
ATOM     90  C   UNL A   1      45.930  36.111  29.875  1.00  0.00     0.006 A 
ENDBRANCH  66  83
ENDBRANCH  40  41
ENDBRANCH  33  35
ENDBRANCH  32  33
ENDBRANCH  31  32
ENDBRANCH   1  31
TORSDOF 15
ENDMDL
MODEL 2
REMARK VINA RESULT:     -12.6      3.930      9.386
REMARK SMILES CC1(C)[C@H](C(=O)Nc2ccc(C(=O)Nc3cccnc3)c(Cl)c2)[C@H]1C(=O)OCCOC(=O)c1ccc(-c2c3nc(c(-c4c(F)cccc4F)c4ccc([nH]4)c(-c4c(F)cccc4F)c4nc(c(-c5c(F)cccc5F)c5ccc2[nH]5)C=C4)C=C3)cc1
REMARK SMILES IDX 28 1 27 2 25 3 26 4 24 5 1 6 2 7 3 8 4 9 5 10 6 11 7 12 8 14
REMARK SMILES IDX 9 15 23 16 10 17 21 18 11 19 22 20 12 21 13 22 14 23 15 25
REMARK SMILES IDX 16 26 20 27 17 28 19 29 18 30 29 31 30 32 31 33 32 34 33 35
REMARK SMILES IDX 34 36 86 37 35 38 85 39 36 40 37 41 38 42 79 43 39 44 84 45
REMARK SMILES IDX 78 46 80 47 40 48 83 49 77 50 76 51 41 53 67 54 50 55 66 56
REMARK SMILES IDX 51 57 54 58 65 59 81 60 52 61 53 62 64 64 82 65 55 66 42 67
REMARK SMILES IDX 43 68 48 69 44 70 45 71 47 72 49 73 46 74 68 75 69 76 74 77
REMARK SMILES IDX 70 78 71 79 73 80 75 81 72 82 56 83 57 84 62 85 58 86 59 87
REMARK SMILES IDX 61 88 63 89 60 90
REMARK H PARENT 7 13 14 24 80 52 54 63
REMARK Flexibility Score: inf
ROOT
ATOM      1  C   UNL A   1      31.779  29.386  25.847  1.00  0.00     0.274 C 
ENDROOT
BRANCH   1   2
ATOM      2  O   UNL A   1      33.038  29.005  25.269  1.00  0.00    -0.462 OA
BRANCH   2   3
ATOM      3  C   UNL A   1      33.066  28.721  23.941  1.00  0.00     0.310 C 
ATOM      4  O   UNL A   1      33.674  29.327  23.085  1.00  0.00    -0.252 OA
BRANCH   3   5
ATOM      5  C   UNL A   1      32.333  27.468  23.622  1.00  0.00     0.118 C 
ATOM      6  C   UNL A   1      30.234  28.683  22.432  1.00  0.00     0.013 C 
ATOM      7  C   UNL A   1      30.913  27.465  23.026  1.00  0.00    -0.009 C 
ATOM      8  C   UNL A   1      29.926  26.691  23.864  1.00  0.00     0.013 C 
ATOM      9  C   UNL A   1      32.145  27.003  22.222  1.00  0.00     0.100 C 
BRANCH   9  10
ATOM     10  C   UNL A   1      32.453  25.677  21.599  1.00  0.00     0.228 C 
ATOM     11  O   UNL A   1      32.083  25.525  20.434  1.00  0.00    -0.274 OA
ATOM     12  N   UNL A   1      33.380  24.775  22.087  1.00  0.00    -0.326 N 
ATOM     13  H   UNL A   1      34.160  24.620  21.506  1.00  0.00     0.169 HD
BRANCH  12  14
ATOM     14  C   UNL A   1      33.375  24.049  23.286  1.00  0.00     0.042 A 
ATOM     15  C   UNL A   1      34.502  23.937  24.065  1.00  0.00     0.027 A 
ATOM     16  C   UNL A   1      32.189  23.552  23.817  1.00  0.00     0.047 A 
ATOM     17  C   UNL A   1      34.572  23.012  25.101  1.00  0.00     0.017 A 
ATOM     18  C   UNL A   1      32.215  22.789  25.001  1.00  0.00     0.055 A 
ATOM     19  C   UNL A   1      33.430  22.319  25.502  1.00  0.00     0.058 A 
ATOM     20  Cl  UNL A   1      30.729  22.660  25.880  1.00  0.00    -0.083 Cl
BRANCH  19  21
ATOM     21  C   UNL A   1      33.665  21.183  26.437  1.00  0.00     0.257 C 
ATOM     22  O   UNL A   1      33.886  21.451  27.621  1.00  0.00    -0.269 OA
ATOM     23  N   UNL A   1      33.704  19.856  26.065  1.00  0.00    -0.321 N 
ATOM     24  H   UNL A   1      33.875  19.236  26.810  1.00  0.00     0.170 HD
BRANCH  23  25
ATOM     25  C   UNL A   1      33.546  19.227  24.822  1.00  0.00     0.059 A 
ATOM     26  C   UNL A   1      32.492  19.461  23.942  1.00  0.00     0.029 A 
ATOM     27  C   UNL A   1      34.442  18.212  24.495  1.00  0.00     0.137 A 
ATOM     28  C   UNL A   1      32.263  18.576  22.895  1.00  0.00     0.022 A 
ATOM     29  N   UNL A   1      34.230  17.320  23.503  1.00  0.00    -0.263 NA
ATOM     30  C   UNL A   1      33.118  17.500  22.762  1.00  0.00     0.111 A 
ENDBRANCH  23  25
ENDBRANCH  19  21
ENDBRANCH  12  14
ENDBRANCH   9  10
ENDBRANCH   3   5
ENDBRANCH   2   3
ENDBRANCH   1   2
BRANCH   1  31
ATOM     31  C   UNL A   1      31.782  30.892  26.127  1.00  0.00     0.275 C 
BRANCH  31  32
ATOM     32  O   UNL A   1      32.348  31.181  27.423  1.00  0.00    -0.458 OA
BRANCH  32  33
ATOM     33  C   UNL A   1      33.104  32.302  27.480  1.00  0.00     0.338 C 
ATOM     34  O   UNL A   1      32.734  33.454  27.329  1.00  0.00    -0.246 OA
BRANCH  33  35
ATOM     35  C   UNL A   1      34.468  31.967  27.927  1.00  0.00     0.060 A 
ATOM     36  C   UNL A   1      34.683  30.661  28.364  1.00  0.00     0.016 A 
ATOM     37  C   UNL A   1      35.496  32.912  28.009  1.00  0.00     0.016 A 
ATOM     38  C   UNL A   1      35.919  30.297  28.885  1.00  0.00     0.010 A 
ATOM     39  C   UNL A   1      36.745  32.538  28.537  1.00  0.00     0.010 A 
ATOM     40  C   UNL A   1      36.962  31.225  28.985  1.00  0.00    -0.014 A 
BRANCH  40  41
ATOM     41  C   UNL A   1      38.217  30.783  29.649  1.00  0.00     0.031 A 
ATOM     42  C   UNL A   1      38.428  31.100  31.103  1.00  0.00     0.074 A 
ATOM     43  C   UNL A   1      39.076  29.965  29.010  1.00  0.00     0.049 A 
ATOM     44  N   UNL A   1      39.342  30.650  31.925  1.00  0.00    -0.248 NA
ATOM     45  C   UNL A   1      37.465  32.025  31.718  1.00  0.00     0.031 C 
ATOM     46  C   UNL A   1      38.913  29.495  27.636  1.00  0.00     0.029 A 
ATOM     47  N   UNL A   1      40.211  29.323  29.449  1.00  0.00    -0.354 N 
ATOM     48  C   UNL A   1      39.091  31.268  33.142  1.00  0.00     0.074 A 
ATOM     49  C   UNL A   1      37.918  32.096  32.962  1.00  0.00     0.031 C 
ATOM     50  C   UNL A   1      39.860  28.578  27.373  1.00  0.00     0.029 A 
ATOM     51  C   UNL A   1      40.723  28.417  28.544  1.00  0.00     0.049 A 
ATOM     52  H   UNL A   1      40.620  29.493  30.329  1.00  0.00     0.167 HD
ATOM     53  C   UNL A   1      39.786  31.169  34.300  1.00  0.00     0.037 A 
ATOM     54  C   UNL A   1      41.743  27.537  28.663  1.00  0.00     0.037 A 
ATOM     55  C   UNL A   1      40.958  30.355  34.484  1.00  0.00     0.049 A 
ATOM     56  C   UNL A   1      42.507  27.480  29.967  1.00  0.00     0.074 A 
ATOM     57  C   UNL A   1      41.742  30.224  35.617  1.00  0.00     0.029 A 
ATOM     58  N   UNL A   1      41.520  29.546  33.512  1.00  0.00    -0.354 N 
ATOM     59  N   UNL A   1      42.268  28.086  31.106  1.00  0.00    -0.248 NA
ATOM     60  C   UNL A   1      43.703  26.623  29.989  1.00  0.00     0.031 C 
ATOM     61  C   UNL A   1      42.802  29.363  35.319  1.00  0.00     0.029 A 
ATOM     62  C   UNL A   1      42.650  28.922  34.015  1.00  0.00     0.049 A 
ATOM     63  H   UNL A   1      41.170  29.430  32.599  1.00  0.00     0.167 HD
ATOM     64  C   UNL A   1      43.254  27.648  31.984  1.00  0.00     0.074 A 
ATOM     65  C   UNL A   1      44.080  26.710  31.256  1.00  0.00     0.031 C 
ATOM     66  C   UNL A   1      43.470  27.999  33.275  1.00  0.00     0.037 A 
BRANCH  53  67
ATOM     67  C   UNL A   1      39.332  32.017  35.448  1.00  0.00     0.057 A 
ATOM     68  C   UNL A   1      39.760  33.340  35.605  1.00  0.00     0.134 A 
ATOM     69  C   UNL A   1      38.422  31.511  36.385  1.00  0.00     0.134 A 
ATOM     70  F   UNL A   1      40.637  33.876  34.745  1.00  0.00    -0.206 F 
ATOM     71  C   UNL A   1      39.310  34.126  36.668  1.00  0.00     0.040 A 
ATOM     72  C   UNL A   1      37.950  32.293  37.439  1.00  0.00     0.040 A 
ATOM     73  F   UNL A   1      37.972  30.251  36.284  1.00  0.00    -0.206 F 
ATOM     74  C   UNL A   1      38.397  33.604  37.585  1.00  0.00     0.006 A 
ENDBRANCH  53  67
BRANCH  54  75
ATOM     75  C   UNL A   1      42.079  26.587  27.555  1.00  0.00     0.057 A 
ATOM     76  C   UNL A   1      41.546  25.289  27.512  1.00  0.00     0.134 A 
ATOM     77  C   UNL A   1      42.964  26.926  26.526  1.00  0.00     0.134 A 
ATOM     78  F   UNL A   1      40.783  24.831  28.512  1.00  0.00    -0.206 F 
ATOM     79  C   UNL A   1      41.831  24.394  26.479  1.00  0.00     0.040 A 
ATOM     80  C   UNL A   1      43.256  26.045  25.479  1.00  0.00     0.040 A 
ATOM     81  F   UNL A   1      43.562  28.127  26.514  1.00  0.00    -0.206 F 
ATOM     82  C   UNL A   1      42.682  24.776  25.450  1.00  0.00     0.006 A 
ENDBRANCH  54  75
BRANCH  66  83
ATOM     83  C   UNL A   1      44.652  27.387  33.974  1.00  0.00     0.057 A 
ATOM     84  C   UNL A   1      45.909  28.007  33.966  1.00  0.00     0.134 A 
ATOM     85  C   UNL A   1      44.528  26.194  34.697  1.00  0.00     0.134 A 
ATOM     86  F   UNL A   1      46.099  29.149  33.287  1.00  0.00    -0.206 F 
ATOM     87  C   UNL A   1      47.005  27.451  34.627  1.00  0.00     0.040 A 
ATOM     88  C   UNL A   1      45.611  25.641  35.386  1.00  0.00     0.040 A 
ATOM     89  F   UNL A   1      43.352  25.553  34.762  1.00  0.00    -0.206 F 
ATOM     90  C   UNL A   1      46.855  26.266  35.346  1.00  0.00     0.006 A 
ENDBRANCH  66  83
ENDBRANCH  40  41
ENDBRANCH  33  35
ENDBRANCH  32  33
ENDBRANCH  31  32
ENDBRANCH   1  31
TORSDOF 15
ENDMDL
MODEL 3
REMARK VINA RESULT:     -12.5      3.996      9.212
REMARK SMILES CC1(C)[C@H](C(=O)Nc2ccc(C(=O)Nc3cccnc3)c(Cl)c2)[C@H]1C(=O)OCCOC(=O)c1ccc(-c2c3nc(c(-c4c(F)cccc4F)c4ccc([nH]4)c(-c4c(F)cccc4F)c4nc(c(-c5c(F)cccc5F)c5ccc2[nH]5)C=C4)C=C3)cc1
REMARK SMILES IDX 28 1 27 2 25 3 26 4 24 5 1 6 2 7 3 8 4 9 5 10 6 11 7 12 8 14
REMARK SMILES IDX 9 15 23 16 10 17 21 18 11 19 22 20 12 21 13 22 14 23 15 25
REMARK SMILES IDX 16 26 20 27 17 28 19 29 18 30 29 31 30 32 31 33 32 34 33 35
REMARK SMILES IDX 34 36 86 37 35 38 85 39 36 40 37 41 38 42 79 43 39 44 84 45
REMARK SMILES IDX 78 46 80 47 40 48 83 49 77 50 76 51 41 53 67 54 50 55 66 56
REMARK SMILES IDX 51 57 54 58 65 59 81 60 52 61 53 62 64 64 82 65 55 66 42 67
REMARK SMILES IDX 43 68 48 69 44 70 45 71 47 72 49 73 46 74 68 75 69 76 74 77
REMARK SMILES IDX 70 78 71 79 73 80 75 81 72 82 56 83 57 84 62 85 58 86 59 87
REMARK SMILES IDX 61 88 63 89 60 90
REMARK H PARENT 7 13 14 24 80 52 54 63
REMARK Flexibility Score: inf
ROOT
ATOM      1  C   UNL A   1      31.400  29.811  24.962  1.00  0.00     0.274 C 
ENDROOT
BRANCH   1   2
ATOM      2  O   UNL A   1      32.731  29.280  24.857  1.00  0.00    -0.462 OA
BRANCH   2   3
ATOM      3  C   UNL A   1      33.086  28.686  23.688  1.00  0.00     0.310 C 
ATOM      4  O   UNL A   1      33.717  29.189  22.784  1.00  0.00    -0.252 OA
BRANCH   3   5
ATOM      5  C   UNL A   1      32.707  27.248  23.654  1.00  0.00     0.118 C 
ATOM      6  C   UNL A   1      33.951  26.591  25.961  1.00  0.00     0.013 C 
ATOM      7  C   UNL A   1      33.244  26.224  24.671  1.00  0.00    -0.009 C 
ATOM      8  C   UNL A   1      33.948  25.062  24.017  1.00  0.00     0.013 C 
ATOM      9  C   UNL A   1      31.766  26.661  24.644  1.00  0.00     0.100 C 
BRANCH   9  10
ATOM     10  C   UNL A   1      30.522  25.857  24.428  1.00  0.00     0.228 C 
ATOM     11  O   UNL A   1      29.455  26.448  24.599  1.00  0.00    -0.274 OA
ATOM     12  N   UNL A   1      30.470  24.654  23.748  1.00  0.00    -0.326 N 
ATOM     13  H   UNL A   1      29.958  24.669  22.908  1.00  0.00     0.169 HD
BRANCH  12  14
ATOM     14  C   UNL A   1      31.041  23.417  24.078  1.00  0.00     0.042 A 
ATOM     15  C   UNL A   1      31.028  22.938  25.366  1.00  0.00     0.027 A 
ATOM     16  C   UNL A   1      31.494  22.550  23.087  1.00  0.00     0.047 A 
ATOM     17  C   UNL A   1      31.815  21.853  25.739  1.00  0.00     0.017 A 
ATOM     18  C   UNL A   1      32.101  21.331  23.444  1.00  0.00     0.055 A 
ATOM     19  C   UNL A   1      32.477  21.100  24.769  1.00  0.00     0.058 A 
ATOM     20  Cl  UNL A   1      32.153  20.098  22.230  1.00  0.00    -0.083 Cl
BRANCH  19  21
ATOM     21  C   UNL A   1      33.482  20.130  25.287  1.00  0.00     0.257 C 
ATOM     22  O   UNL A   1      33.087  18.999  25.584  1.00  0.00    -0.269 OA
ATOM     23  N   UNL A   1      34.812  20.419  25.507  1.00  0.00    -0.321 N 
ATOM     24  H   UNL A   1      35.335  19.662  25.857  1.00  0.00     0.170 HD
BRANCH  23  25
ATOM     25  C   UNL A   1      35.557  21.593  25.327  1.00  0.00     0.059 A 
ATOM     26  C   UNL A   1      36.424  21.828  24.261  1.00  0.00     0.029 A 
ATOM     27  C   UNL A   1      35.520  22.543  26.344  1.00  0.00     0.137 A 
ATOM     28  C   UNL A   1      37.335  22.874  24.336  1.00  0.00     0.022 A 
ATOM     29  N   UNL A   1      36.412  23.551  26.457  1.00  0.00    -0.263 NA
ATOM     30  C   UNL A   1      37.326  23.657  25.473  1.00  0.00     0.111 A 
ENDBRANCH  23  25
ENDBRANCH  19  21
ENDBRANCH  12  14
ENDBRANCH   9  10
ENDBRANCH   3   5
ENDBRANCH   2   3
ENDBRANCH   1   2
BRANCH   1  31
ATOM     31  C   UNL A   1      31.401  30.998  25.931  1.00  0.00     0.275 C 
BRANCH  31  32
ATOM     32  O   UNL A   1      32.426  30.850  26.936  1.00  0.00    -0.458 OA
BRANCH  32  33
ATOM     33  C   UNL A   1      33.042  32.000  27.299  1.00  0.00     0.338 C 
ATOM     34  O   UNL A   1      32.552  33.115  27.359  1.00  0.00    -0.246 OA
BRANCH  33  35
ATOM     35  C   UNL A   1      34.400  31.709  27.792  1.00  0.00     0.060 A 
ATOM     36  C   UNL A   1      34.673  30.388  28.141  1.00  0.00     0.016 A 
ATOM     37  C   UNL A   1      35.363  32.702  28.001  1.00  0.00     0.016 A 
ATOM     38  C   UNL A   1      35.901  30.055  28.698  1.00  0.00     0.010 A 
ATOM     39  C   UNL A   1      36.604  32.360  28.566  1.00  0.00     0.010 A 
ATOM     40  C   UNL A   1      36.879  31.030  28.924  1.00  0.00    -0.014 A 
BRANCH  40  41
ATOM     41  C   UNL A   1      38.125  30.611  29.619  1.00  0.00     0.031 A 
ATOM     42  C   UNL A   1      38.293  30.930  31.078  1.00  0.00     0.074 A 
ATOM     43  C   UNL A   1      39.015  29.808  29.001  1.00  0.00     0.049 A 
ATOM     44  N   UNL A   1      39.194  30.496  31.923  1.00  0.00    -0.248 NA
ATOM     45  C   UNL A   1      37.299  31.837  31.669  1.00  0.00     0.031 C 
ATOM     46  C   UNL A   1      38.895  29.337  27.624  1.00  0.00     0.029 A 
ATOM     47  N   UNL A   1      40.149  29.186  29.469  1.00  0.00    -0.354 N 
ATOM     48  C   UNL A   1      38.901  31.108  33.134  1.00  0.00     0.074 A 
ATOM     49  C   UNL A   1      37.719  31.915  32.924  1.00  0.00     0.031 C 
ATOM     50  C   UNL A   1      39.863  28.437  27.385  1.00  0.00     0.029 A 
ATOM     51  C   UNL A   1      40.700  28.291  28.577  1.00  0.00     0.049 A 
ATOM     52  H   UNL A   1      40.533  29.363  30.359  1.00  0.00     0.167 HD
ATOM     53  C   UNL A   1      39.568  31.020  34.309  1.00  0.00     0.037 A 
ATOM     54  C   UNL A   1      41.732  27.429  28.722  1.00  0.00     0.037 A 
ATOM     55  C   UNL A   1      40.750  30.227  34.522  1.00  0.00     0.049 A 
ATOM     56  C   UNL A   1      42.463  27.384  30.045  1.00  0.00     0.074 A 
ATOM     57  C   UNL A   1      41.507  30.109  35.674  1.00  0.00     0.029 A 
ATOM     58  N   UNL A   1      41.351  29.429  33.564  1.00  0.00    -0.354 N 
ATOM     59  N   UNL A   1      42.185  27.985  31.177  1.00  0.00    -0.248 NA
ATOM     60  C   UNL A   1      43.673  26.548  30.096  1.00  0.00     0.031 C 
ATOM     61  C   UNL A   1      42.590  29.267  35.403  1.00  0.00     0.029 A 
ATOM     62  C   UNL A   1      42.479  28.824  34.095  1.00  0.00     0.049 A 
ATOM     63  H   UNL A   1      41.025  29.308  32.643  1.00  0.00     0.167 HD
ATOM     64  C   UNL A   1      43.156  27.563  32.080  1.00  0.00     0.074 A 
ATOM     65  C   UNL A   1      44.017  26.641  31.372  1.00  0.00     0.031 C 
ATOM     66  C   UNL A   1      43.333  27.917  33.376  1.00  0.00     0.037 A 
BRANCH  53  67
ATOM     67  C   UNL A   1      39.070  31.859  35.445  1.00  0.00     0.057 A 
ATOM     68  C   UNL A   1      38.216  31.345  36.426  1.00  0.00     0.134 A 
ATOM     69  C   UNL A   1      39.486  33.191  35.575  1.00  0.00     0.134 A 
ATOM     70  F   UNL A   1      37.778  30.081  36.350  1.00  0.00    -0.206 F 
ATOM     71  C   UNL A   1      37.778  32.134  37.492  1.00  0.00     0.040 A 
ATOM     72  C   UNL A   1      39.072  33.982  36.646  1.00  0.00     0.040 A 
ATOM     73  F   UNL A   1      40.309  33.738  34.668  1.00  0.00    -0.206 F 
ATOM     74  C   UNL A   1      38.212  33.455  37.607  1.00  0.00     0.006 A 
ENDBRANCH  53  67
BRANCH  54  75
ATOM     75  C   UNL A   1      42.113  26.486  27.623  1.00  0.00     0.057 A 
ATOM     76  C   UNL A   1      41.561  25.198  27.534  1.00  0.00     0.134 A 
ATOM     77  C   UNL A   1      43.059  26.821  26.647  1.00  0.00     0.134 A 
ATOM     78  F   UNL A   1      40.736  24.742  28.484  1.00  0.00    -0.206 F 
ATOM     79  C   UNL A   1      41.888  24.309  26.507  1.00  0.00     0.040 A 
ATOM     80  C   UNL A   1      43.393  25.946  25.608  1.00  0.00     0.040 A 
ATOM     81  F   UNL A   1      43.677  28.012  26.683  1.00  0.00    -0.206 F 
ATOM     82  C   UNL A   1      42.801  24.688  25.531  1.00  0.00     0.006 A 
ENDBRANCH  54  75
BRANCH  66  83
ATOM     83  C   UNL A   1      44.507  27.325  34.104  1.00  0.00     0.057 A 
ATOM     84  C   UNL A   1      45.744  27.985  34.158  1.00  0.00     0.134 A 
ATOM     85  C   UNL A   1      44.395  26.112  34.794  1.00  0.00     0.134 A 
ATOM     86  F   UNL A   1      45.921  29.148  33.513  1.00  0.00    -0.206 F 
ATOM     87  C   UNL A   1      46.832  27.447  34.847  1.00  0.00     0.040 A 
ATOM     88  C   UNL A   1      45.470  25.577  35.511  1.00  0.00     0.040 A 
ATOM     89  F   UNL A   1      43.239  25.433  34.800  1.00  0.00    -0.206 F 
ATOM     90  C   UNL A   1      46.694  26.241  35.532  1.00  0.00     0.006 A 
ENDBRANCH  66  83
ENDBRANCH  40  41
ENDBRANCH  33  35
ENDBRANCH  32  33
ENDBRANCH  31  32
ENDBRANCH   1  31
TORSDOF 15
ENDMDL
