MODEL 1
REMARK VINA RESULT:     -12.7      0.000      0.000
REMARK SMILES Cc1cc(OCC(=O)N[C@@H](Cc2ccc(Cl)cc2)C(=O)OCCOC(=O)c2ccc(-c3c4nc(c(-c5c(F)cccc5F)c5ccc([nH]5)c(-c5c(F)cccc5F)c5nc(c(-c6c(F)cccc6F)c6ccc3[nH]6)C=C5)C=C4)cc2)c2c(C)c(C)c(=O)oc2c1
REMARK SMILES IDX 22 1 21 2 19 3 20 4 10 5 9 6 7 7 8 8 6 10 5 11 4 12 1 13
REMARK SMILES IDX 2 14 3 15 90 16 89 17 81 18 88 19 82 20 86 21 83 22 84 23
REMARK SMILES IDX 87 24 85 25 11 26 12 27 13 28 18 29 14 30 17 31 15 32 16 33
REMARK SMILES IDX 23 34 24 35 25 36 26 37 27 38 28 39 80 40 29 41 79 42 30 43
REMARK SMILES IDX 31 44 32 45 73 46 33 47 78 48 72 49 74 50 34 51 77 52 71 53
REMARK SMILES IDX 70 54 35 56 61 57 44 58 60 59 45 60 48 61 59 62 75 63 46 64
REMARK SMILES IDX 47 65 58 67 76 68 49 69 36 70 37 71 42 72 38 73 39 74 41 75
REMARK SMILES IDX 43 76 40 77 62 78 63 79 68 80 64 81 65 82 67 83 69 84 66 85
REMARK SMILES IDX 50 86 51 87 56 88 52 89 53 90 55 91 57 92 54 93
REMARK H PARENT 9 9 74 55 48 66
REMARK Flexibility Score: inf
ROOT
ATOM      1  C   UNL A   1      32.963  30.225  27.187  1.00  0.00     0.274 C 
ENDROOT
BRANCH   1   2
ATOM      2  O   UNL A   1      33.251  28.820  27.052  1.00  0.00    -0.461 OA
BRANCH   2   3
ATOM      3  C   UNL A   1      32.208  27.958  27.200  1.00  0.00     0.329 C 
ATOM      4  O   UNL A   1      31.270  28.121  27.973  1.00  0.00    -0.250 OA
BRANCH   3   5
ATOM      5  C   UNL A   1      32.379  26.682  26.359  1.00  0.00     0.196 C 
BRANCH   5   6
ATOM      6  N   UNL A   1      31.338  25.680  26.611  1.00  0.00    -0.339 N 
ATOM      7  C   UNL A   1      31.453  24.346  26.863  1.00  0.00     0.258 C 
ATOM      8  O   UNL A   1      30.433  23.699  27.113  1.00  0.00    -0.271 OA
ATOM      9  H   UNL A   1      30.415  26.024  26.596  1.00  0.00     0.164 HD
BRANCH   7  10
ATOM     10  C   UNL A   1      32.829  23.664  26.829  1.00  0.00     0.329 C 
BRANCH  10  11
ATOM     11  O   UNL A   1      33.387  23.382  25.554  1.00  0.00    -0.483 OA
BRANCH  11  12
ATOM     12  C   UNL A   1      34.587  22.728  25.469  1.00  0.00     0.131 A 
ATOM     13  C   UNL A   1      38.300  23.483  25.998  1.00  0.00     0.044 C 
ATOM     14  C   UNL A   1      37.028  22.741  25.721  1.00  0.00    -0.044 A 
ATOM     15  C   UNL A   1      35.802  23.405  25.715  1.00  0.00     0.050 A 
ATOM     16  C   UNL A   1      37.042  21.389  25.421  1.00  0.00     0.051 A 
ATOM     17  C   UNL A   1      35.841  20.727  25.135  1.00  0.00     0.142 A 
ATOM     18  C   UNL A   1      34.584  21.350  25.137  1.00  0.00     0.063 A 
ATOM     19  O   UNL A   1      36.010  19.361  24.850  1.00  0.00    -0.422 OA
ATOM     20  C   UNL A   1      33.408  20.488  24.795  1.00  0.00    -0.026 A 
ATOM     21  C   UNL A   1      34.947  18.542  24.556  1.00  0.00     0.339 A 
ATOM     22  C   UNL A   1      32.004  21.031  24.705  1.00  0.00     0.046 C 
ATOM     23  C   UNL A   1      33.603  19.172  24.531  1.00  0.00     0.038 A 
ATOM     24  O   UNL A   1      35.110  17.349  24.325  1.00  0.00    -0.246 OA
ATOM     25  C   UNL A   1      32.522  18.177  24.180  1.00  0.00     0.052 C 
ENDBRANCH  11  12
ENDBRANCH  10  11
ENDBRANCH   7  10
ENDBRANCH   5   6
BRANCH   5  26
ATOM     26  C   UNL A   1      32.463  27.068  24.870  1.00  0.00     0.072 C 
BRANCH  26  27
ATOM     27  C   UNL A   1      31.193  27.727  24.378  1.00  0.00    -0.045 A 
ATOM     28  C   UNL A   1      30.069  26.949  24.055  1.00  0.00     0.005 A 
ATOM     29  C   UNL A   1      31.172  29.104  24.121  1.00  0.00     0.005 A 
ATOM     30  C   UNL A   1      28.974  27.529  23.415  1.00  0.00     0.021 A 
ATOM     31  C   UNL A   1      30.069  29.684  23.496  1.00  0.00     0.021 A 
ATOM     32  C   UNL A   1      28.983  28.892  23.129  1.00  0.00     0.041 A 
ATOM     33  Cl  UNL A   1      27.654  29.595  22.295  1.00  0.00    -0.084 Cl
ENDBRANCH  26  27
ENDBRANCH   5  26
ENDBRANCH   3   5
ENDBRANCH   2   3
ENDBRANCH   1   2
BRANCH   1  34
ATOM     34  C   UNL A   1      34.054  30.922  28.000  1.00  0.00     0.275 C 
BRANCH  34  35
ATOM     35  O   UNL A   1      35.128  30.016  28.311  1.00  0.00    -0.458 OA
BRANCH  35  36
ATOM     36  C   UNL A   1      35.992  30.457  29.252  1.00  0.00     0.338 C 
ATOM     37  O   UNL A   1      35.749  31.088  30.265  1.00  0.00    -0.246 OA
BRANCH  36  38
ATOM     38  C   UNL A   1      37.318  29.900  28.975  1.00  0.00     0.060 A 
ATOM     39  C   UNL A   1      37.795  29.796  27.673  1.00  0.00     0.016 A 
ATOM     40  C   UNL A   1      38.122  29.556  30.064  1.00  0.00     0.016 A 
ATOM     41  C   UNL A   1      39.095  29.332  27.469  1.00  0.00     0.010 A 
ATOM     42  C   UNL A   1      39.426  29.136  29.866  1.00  0.00     0.010 A 
ATOM     43  C   UNL A   1      39.916  29.010  28.564  1.00  0.00    -0.014 A 
BRANCH  43  44
ATOM     44  C   UNL A   1      41.312  28.575  28.370  1.00  0.00     0.031 A 
ATOM     45  C   UNL A   1      41.623  27.140  28.068  1.00  0.00     0.074 A 
ATOM     46  C   UNL A   1      42.294  29.478  28.529  1.00  0.00     0.049 A 
ATOM     47  N   UNL A   1      42.780  26.584  27.819  1.00  0.00    -0.248 NA
ATOM     48  C   UNL A   1      40.490  26.203  28.069  1.00  0.00     0.031 C 
ATOM     49  C   UNL A   1      42.095  30.882  28.892  1.00  0.00     0.029 A 
ATOM     50  N   UNL A   1      43.650  29.353  28.399  1.00  0.00    -0.354 N 
ATOM     51  C   UNL A   1      42.513  25.236  27.619  1.00  0.00     0.074 A 
ATOM     52  C   UNL A   1      41.097  25.047  27.848  1.00  0.00     0.031 C 
ATOM     53  C   UNL A   1      43.285  31.502  28.903  1.00  0.00     0.029 A 
ATOM     54  C   UNL A   1      44.326  30.533  28.580  1.00  0.00     0.049 A 
ATOM     55  H   UNL A   1      44.097  28.499  28.195  1.00  0.00     0.167 HD
ATOM     56  C   UNL A   1      43.370  24.254  27.251  1.00  0.00     0.037 A 
ATOM     57  C   UNL A   1      45.640  30.798  28.482  1.00  0.00     0.037 A 
ATOM     58  C   UNL A   1      44.781  24.461  27.047  1.00  0.00     0.049 A 
ATOM     59  C   UNL A   1      46.578  29.680  28.129  1.00  0.00     0.074 A 
ATOM     60  C   UNL A   1      45.735  23.559  26.612  1.00  0.00     0.029 A 
ATOM     61  N   UNL A   1      45.443  25.656  27.292  1.00  0.00    -0.354 N 
ATOM     62  N   UNL A   1      46.305  28.432  27.833  1.00  0.00    -0.248 NA
ATOM     63  C   UNL A   1      48.008  30.008  28.105  1.00  0.00     0.031 C 
ATOM     64  C   UNL A   1      46.983  24.193  26.651  1.00  0.00     0.029 A 
ATOM     65  C   UNL A   1      46.800  25.504  27.063  1.00  0.00     0.049 A 
ATOM     66  H   UNL A   1      45.010  26.491  27.585  1.00  0.00     0.167 HD
ATOM     67  C   UNL A   1      47.527  27.827  27.574  1.00  0.00     0.074 A 
ATOM     68  C   UNL A   1      48.538  28.855  27.724  1.00  0.00     0.031 C 
ATOM     69  C   UNL A   1      47.790  26.538  27.245  1.00  0.00     0.037 A 
BRANCH  56  70
ATOM     70  C   UNL A   1      42.793  22.880  27.062  1.00  0.00     0.057 A 
ATOM     71  C   UNL A   1      42.465  22.081  28.164  1.00  0.00     0.134 A 
ATOM     72  C   UNL A   1      42.540  22.353  25.787  1.00  0.00     0.134 A 
ATOM     73  F   UNL A   1      42.686  22.517  29.413  1.00  0.00    -0.206 F 
ATOM     74  C   UNL A   1      41.892  20.816  28.005  1.00  0.00     0.040 A 
ATOM     75  C   UNL A   1      41.938  21.103  25.617  1.00  0.00     0.040 A 
ATOM     76  F   UNL A   1      42.818  23.069  24.687  1.00  0.00    -0.206 F 
ATOM     77  C   UNL A   1      41.615  20.331  26.729  1.00  0.00     0.006 A 
ENDBRANCH  56  70
BRANCH  57  78
ATOM     78  C   UNL A   1      46.133  32.184  28.671  1.00  0.00     0.057 A 
ATOM     79  C   UNL A   1      46.466  32.681  29.936  1.00  0.00     0.134 A 
ATOM     80  C   UNL A   1      46.261  33.050  27.581  1.00  0.00     0.134 A 
ATOM     81  F   UNL A   1      46.354  31.903  31.022  1.00  0.00    -0.206 F 
ATOM     82  C   UNL A   1      46.903  33.995  30.110  1.00  0.00     0.040 A 
ATOM     83  C   UNL A   1      46.718  34.358  27.736  1.00  0.00     0.040 A 
ATOM     84  F   UNL A   1      45.967  32.625  26.343  1.00  0.00    -0.206 F 
ATOM     85  C   UNL A   1      47.035  34.837  29.007  1.00  0.00     0.006 A 
ENDBRANCH  57  78
BRANCH  69  86
ATOM     86  C   UNL A   1      49.233  26.179  27.036  1.00  0.00     0.057 A 
ATOM     87  C   UNL A   1      49.807  26.226  25.760  1.00  0.00     0.134 A 
ATOM     88  C   UNL A   1      50.048  25.772  28.100  1.00  0.00     0.134 A 
ATOM     89  F   UNL A   1      49.080  26.602  24.698  1.00  0.00    -0.206 F 
ATOM     90  C   UNL A   1      51.142  25.879  25.550  1.00  0.00     0.040 A 
ATOM     91  C   UNL A   1      51.392  25.449  27.906  1.00  0.00     0.040 A 
ATOM     92  F   UNL A   1      49.562  25.723  29.349  1.00  0.00    -0.206 F 
ATOM     93  C   UNL A   1      51.941  25.496  26.626  1.00  0.00     0.006 A 
ENDBRANCH  69  86
ENDBRANCH  43  44
ENDBRANCH  36  38
ENDBRANCH  35  36
ENDBRANCH  34  35
ENDBRANCH   1  34
TORSDOF 17
ENDMDL
MODEL 2
REMARK VINA RESULT:     -12.4      1.155      2.078
REMARK SMILES Cc1cc(OCC(=O)N[C@@H](Cc2ccc(Cl)cc2)C(=O)OCCOC(=O)c2ccc(-c3c4nc(c(-c5c(F)cccc5F)c5ccc([nH]5)c(-c5c(F)cccc5F)c5nc(c(-c6c(F)cccc6F)c6ccc3[nH]6)C=C5)C=C4)cc2)c2c(C)c(C)c(=O)oc2c1
REMARK SMILES IDX 22 1 21 2 19 3 20 4 10 5 9 6 7 7 8 8 6 10 5 11 4 12 1 13
REMARK SMILES IDX 2 14 3 15 90 16 89 17 81 18 88 19 82 20 86 21 83 22 84 23
REMARK SMILES IDX 87 24 85 25 11 26 12 27 13 28 18 29 14 30 17 31 15 32 16 33
REMARK SMILES IDX 23 34 24 35 25 36 26 37 27 38 28 39 80 40 29 41 79 42 30 43
REMARK SMILES IDX 31 44 32 45 73 46 33 47 78 48 72 49 74 50 34 51 77 52 71 53
REMARK SMILES IDX 70 54 35 56 61 57 44 58 60 59 45 60 48 61 59 62 75 63 46 64
REMARK SMILES IDX 47 65 58 67 76 68 49 69 36 70 37 71 42 72 38 73 39 74 41 75
REMARK SMILES IDX 43 76 40 77 62 78 63 79 68 80 64 81 65 82 67 83 69 84 66 85
REMARK SMILES IDX 50 86 51 87 56 88 52 89 53 90 55 91 57 92 54 93
REMARK H PARENT 9 9 74 55 48 66
REMARK Flexibility Score: inf
ROOT
ATOM      1  C   UNL A   1      33.039  30.509  27.446  1.00  0.00     0.274 C 
ENDROOT
BRANCH   1   2
ATOM      2  O   UNL A   1      33.225  29.087  27.315  1.00  0.00    -0.461 OA
BRANCH   2   3
ATOM      3  C   UNL A   1      32.105  28.314  27.311  1.00  0.00     0.329 C 
ATOM      4  O   UNL A   1      31.150  28.460  28.067  1.00  0.00    -0.250 OA
BRANCH   3   5
ATOM      5  C   UNL A   1      32.200  27.151  26.309  1.00  0.00     0.196 C 
BRANCH   5   6
ATOM      6  N   UNL A   1      31.341  26.015  26.660  1.00  0.00    -0.339 N 
ATOM      7  C   UNL A   1      31.664  24.706  26.859  1.00  0.00     0.258 C 
ATOM      8  O   UNL A   1      30.777  23.925  27.215  1.00  0.00    -0.271 OA
ATOM      9  H   UNL A   1      30.386  26.231  26.768  1.00  0.00     0.164 HD
BRANCH   7  10
ATOM     10  C   UNL A   1      33.102  24.217  26.637  1.00  0.00     0.329 C 
BRANCH  10  11
ATOM     11  O   UNL A   1      33.323  23.297  25.578  1.00  0.00    -0.483 OA
BRANCH  11  12
ATOM     12  C   UNL A   1      34.526  22.648  25.484  1.00  0.00     0.131 A 
ATOM     13  C   UNL A   1      38.235  23.401  26.041  1.00  0.00     0.044 C 
ATOM     14  C   UNL A   1      36.966  22.663  25.745  1.00  0.00    -0.044 A 
ATOM     15  C   UNL A   1      35.738  23.323  25.748  1.00  0.00     0.050 A 
ATOM     16  C   UNL A   1      36.984  21.317  25.418  1.00  0.00     0.051 A 
ATOM     17  C   UNL A   1      35.786  20.658  25.115  1.00  0.00     0.142 A 
ATOM     18  C   UNL A   1      34.527  21.277  25.124  1.00  0.00     0.063 A 
ATOM     19  O   UNL A   1      35.960  19.298  24.803  1.00  0.00    -0.422 OA
ATOM     20  C   UNL A   1      33.355  20.419  24.762  1.00  0.00    -0.026 A 
ATOM     21  C   UNL A   1      34.899  18.482  24.489  1.00  0.00     0.339 A 
ATOM     22  C   UNL A   1      31.949  20.961  24.677  1.00  0.00     0.046 C 
ATOM     23  C   UNL A   1      33.554  19.109  24.472  1.00  0.00     0.038 A 
ATOM     24  O   UNL A   1      35.067  17.295  24.235  1.00  0.00    -0.246 OA
ATOM     25  C   UNL A   1      32.477  18.119  24.098  1.00  0.00     0.052 C 
ENDBRANCH  11  12
ENDBRANCH  10  11
ENDBRANCH   7  10
ENDBRANCH   5   6
BRANCH   5  26
ATOM     26  C   UNL A   1      31.908  27.681  24.892  1.00  0.00     0.072 C 
BRANCH  26  27
ATOM     27  C   UNL A   1      32.277  26.678  23.821  1.00  0.00    -0.045 A 
ATOM     28  C   UNL A   1      31.276  26.051  23.062  1.00  0.00     0.005 A 
ATOM     29  C   UNL A   1      33.610  26.274  23.668  1.00  0.00     0.005 A 
ATOM     30  C   UNL A   1      31.596  24.986  22.221  1.00  0.00     0.021 A 
ATOM     31  C   UNL A   1      33.929  25.220  22.814  1.00  0.00     0.021 A 
ATOM     32  C   UNL A   1      32.920  24.568  22.108  1.00  0.00     0.041 A 
ATOM     33  Cl  UNL A   1      33.306  23.223  21.110  1.00  0.00    -0.084 Cl
ENDBRANCH  26  27
ENDBRANCH   5  26
ENDBRANCH   3   5
ENDBRANCH   2   3
ENDBRANCH   1   2
BRANCH   1  34
ATOM     34  C   UNL A   1      34.326  31.178  27.930  1.00  0.00     0.275 C 
BRANCH  34  35
ATOM     35  O   UNL A   1      35.290  30.200  28.357  1.00  0.00    -0.458 OA
BRANCH  35  36
ATOM     36  C   UNL A   1      36.169  30.633  29.288  1.00  0.00     0.338 C 
ATOM     37  O   UNL A   1      35.943  31.273  30.300  1.00  0.00    -0.246 OA
BRANCH  36  38
ATOM     38  C   UNL A   1      37.483  30.055  29.004  1.00  0.00     0.060 A 
ATOM     39  C   UNL A   1      37.918  29.870  27.695  1.00  0.00     0.016 A 
ATOM     40  C   UNL A   1      38.322  29.776  30.084  1.00  0.00     0.016 A 
ATOM     41  C   UNL A   1      39.209  29.390  27.478  1.00  0.00     0.010 A 
ATOM     42  C   UNL A   1      39.618  29.340  29.870  1.00  0.00     0.010 A 
ATOM     43  C   UNL A   1      40.066  29.132  28.564  1.00  0.00    -0.014 A 
BRANCH  43  44
ATOM     44  C   UNL A   1      41.454  28.682  28.351  1.00  0.00     0.031 A 
ATOM     45  C   UNL A   1      41.745  27.242  28.053  1.00  0.00     0.074 A 
ATOM     46  C   UNL A   1      42.447  29.575  28.490  1.00  0.00     0.049 A 
ATOM     47  N   UNL A   1      42.892  26.672  27.790  1.00  0.00    -0.248 NA
ATOM     48  C   UNL A   1      40.602  26.317  28.077  1.00  0.00     0.031 C 
ATOM     49  C   UNL A   1      42.269  30.983  28.848  1.00  0.00     0.029 A 
ATOM     50  N   UNL A   1      43.800  29.435  28.340  1.00  0.00    -0.354 N 
ATOM     51  C   UNL A   1      42.608  25.326  27.602  1.00  0.00     0.074 A 
ATOM     52  C   UNL A   1      41.194  25.154  27.853  1.00  0.00     0.031 C 
ATOM     53  C   UNL A   1      43.465  31.591  28.837  1.00  0.00     0.029 A 
ATOM     54  C   UNL A   1      44.491  30.608  28.504  1.00  0.00     0.049 A 
ATOM     55  H   UNL A   1      44.235  28.575  28.134  1.00  0.00     0.167 HD
ATOM     56  C   UNL A   1      43.449  24.333  27.227  1.00  0.00     0.037 A 
ATOM     57  C   UNL A   1      45.806  30.859  28.385  1.00  0.00     0.037 A 
ATOM     58  C   UNL A   1      44.858  24.523  27.000  1.00  0.00     0.049 A 
ATOM     59  C   UNL A   1      46.727  29.728  28.025  1.00  0.00     0.074 A 
ATOM     60  C   UNL A   1      45.796  23.608  26.556  1.00  0.00     0.029 A 
ATOM     61  N   UNL A   1      45.537  25.713  27.228  1.00  0.00    -0.354 N 
ATOM     62  N   UNL A   1      46.436  28.482  27.740  1.00  0.00    -0.248 NA
ATOM     63  C   UNL A   1      48.160  30.041  27.977  1.00  0.00     0.031 C 
ATOM     64  C   UNL A   1      47.051  24.230  26.573  1.00  0.00     0.029 A 
ATOM     65  C   UNL A   1      46.889  25.544  26.980  1.00  0.00     0.049 A 
ATOM     66  H   UNL A   1      45.117  26.553  27.523  1.00  0.00     0.167 HD
ATOM     67  C   UNL A   1      47.647  27.862  27.466  1.00  0.00     0.074 A 
ATOM     68  C   UNL A   1      48.672  28.880  27.596  1.00  0.00     0.031 C 
ATOM     69  C   UNL A   1      47.892  26.569  27.141  1.00  0.00     0.037 A 
BRANCH  56  70
ATOM     70  C   UNL A   1      42.854  22.964  27.054  1.00  0.00     0.057 A 
ATOM     71  C   UNL A   1      42.581  22.455  25.778  1.00  0.00     0.134 A 
ATOM     72  C   UNL A   1      42.569  22.137  28.151  1.00  0.00     0.134 A 
ATOM     73  F   UNL A   1      42.822  23.192  24.684  1.00  0.00    -0.206 F 
ATOM     74  C   UNL A   1      42.064  21.169  25.600  1.00  0.00     0.040 A 
ATOM     75  C   UNL A   1      42.081  20.839  27.983  1.00  0.00     0.040 A 
ATOM     76  F   UNL A   1      42.816  22.556  29.402  1.00  0.00    -0.206 F 
ATOM     77  C   UNL A   1      41.825  20.353  26.703  1.00  0.00     0.006 A 
ENDBRANCH  56  70
BRANCH  57  78
ATOM     78  C   UNL A   1      46.316  32.240  28.559  1.00  0.00     0.057 A 
ATOM     79  C   UNL A   1      46.388  33.139  27.488  1.00  0.00     0.134 A 
ATOM     80  C   UNL A   1      46.764  32.684  29.807  1.00  0.00     0.134 A 
ATOM     81  F   UNL A   1      45.984  32.770  26.264  1.00  0.00    -0.206 F 
ATOM     82  C   UNL A   1      46.894  34.429  27.653  1.00  0.00     0.040 A 
ATOM     83  C   UNL A   1      47.251  33.977  29.991  1.00  0.00     0.040 A 
ATOM     84  F   UNL A   1      46.709  31.870  30.872  1.00  0.00    -0.206 F 
ATOM     85  C   UNL A   1      47.324  34.853  28.909  1.00  0.00     0.006 A 
ENDBRANCH  57  78
BRANCH  69  86
ATOM     86  C   UNL A   1      49.327  26.193  26.912  1.00  0.00     0.057 A 
ATOM     87  C   UNL A   1      50.151  25.818  27.980  1.00  0.00     0.134 A 
ATOM     88  C   UNL A   1      49.896  26.217  25.631  1.00  0.00     0.134 A 
ATOM     89  F   UNL A   1      49.670  25.780  29.232  1.00  0.00    -0.206 F 
ATOM     90  C   UNL A   1      51.491  25.483  27.784  1.00  0.00     0.040 A 
ATOM     91  C   UNL A   1      51.227  25.856  25.419  1.00  0.00     0.040 A 
ATOM     92  F   UNL A   1      49.155  26.549  24.564  1.00  0.00    -0.206 F 
ATOM     93  C   UNL A   1      52.031  25.494  26.499  1.00  0.00     0.006 A 
ENDBRANCH  69  86
ENDBRANCH  43  44
ENDBRANCH  36  38
ENDBRANCH  35  36
ENDBRANCH  34  35
ENDBRANCH   1  34
TORSDOF 17
ENDMDL
MODEL 3
REMARK VINA RESULT:     -12.3      2.144      6.600
REMARK SMILES Cc1cc(OCC(=O)N[C@@H](Cc2ccc(Cl)cc2)C(=O)OCCOC(=O)c2ccc(-c3c4nc(c(-c5c(F)cccc5F)c5ccc([nH]5)c(-c5c(F)cccc5F)c5nc(c(-c6c(F)cccc6F)c6ccc3[nH]6)C=C5)C=C4)cc2)c2c(C)c(C)c(=O)oc2c1
REMARK SMILES IDX 22 1 21 2 19 3 20 4 10 5 9 6 7 7 8 8 6 10 5 11 4 12 1 13
REMARK SMILES IDX 2 14 3 15 90 16 89 17 81 18 88 19 82 20 86 21 83 22 84 23
REMARK SMILES IDX 87 24 85 25 11 26 12 27 13 28 18 29 14 30 17 31 15 32 16 33
REMARK SMILES IDX 23 34 24 35 25 36 26 37 27 38 28 39 80 40 29 41 79 42 30 43
REMARK SMILES IDX 31 44 32 45 73 46 33 47 78 48 72 49 74 50 34 51 77 52 71 53
REMARK SMILES IDX 70 54 35 56 61 57 44 58 60 59 45 60 48 61 59 62 75 63 46 64
REMARK SMILES IDX 47 65 58 67 76 68 49 69 36 70 37 71 42 72 38 73 39 74 41 75
REMARK SMILES IDX 43 76 40 77 62 78 63 79 68 80 64 81 65 82 67 83 69 84 66 85
REMARK SMILES IDX 50 86 51 87 56 88 52 89 53 90 55 91 57 92 54 93
REMARK H PARENT 9 9 74 55 48 66
REMARK Flexibility Score: inf
ROOT
ATOM      1  C   UNL A   1      33.642  28.559  25.147  1.00  0.00     0.274 C 
ENDROOT
BRANCH   1   2
ATOM      2  O   UNL A   1      33.351  27.170  25.385  1.00  0.00    -0.461 OA
BRANCH   2   3
ATOM      3  C   UNL A   1      32.130  26.717  24.991  1.00  0.00     0.329 C 
ATOM      4  O   UNL A   1      31.282  26.244  25.741  1.00  0.00    -0.250 OA
BRANCH   3   5
ATOM      5  C   UNL A   1      31.953  26.764  23.464  1.00  0.00     0.196 C 
BRANCH   5   6
ATOM      6  N   UNL A   1      32.866  25.866  22.748  1.00  0.00    -0.339 N 
ATOM      7  C   UNL A   1      32.938  24.505  22.759  1.00  0.00     0.258 C 
ATOM      8  O   UNL A   1      33.755  23.949  22.019  1.00  0.00    -0.271 OA
ATOM      9  H   UNL A   1      33.526  26.315  22.172  1.00  0.00     0.164 HD
BRANCH   7  10
ATOM     10  C   UNL A   1      32.025  23.685  23.681  1.00  0.00     0.329 C 
BRANCH  10  11
ATOM     11  O   UNL A   1      32.603  23.144  24.860  1.00  0.00    -0.483 OA
BRANCH  11  12
ATOM     12  C   UNL A   1      33.226  21.925  24.812  1.00  0.00     0.131 A 
ATOM     13  C   UNL A   1      32.328  18.280  24.071  1.00  0.00     0.044 C 
ATOM     14  C   UNL A   1      33.124  19.510  24.386  1.00  0.00    -0.044 A 
ATOM     15  C   UNL A   1      32.499  20.749  24.527  1.00  0.00     0.050 A 
ATOM     16  C   UNL A   1      34.493  19.442  24.588  1.00  0.00     0.051 A 
ATOM     17  C   UNL A   1      35.207  20.602  24.913  1.00  0.00     0.142 A 
ATOM     18  C   UNL A   1      34.623  21.871  25.046  1.00  0.00     0.063 A 
ATOM     19  O   UNL A   1      36.584  20.380  25.087  1.00  0.00    -0.422 OA
ATOM     20  C   UNL A   1      35.540  22.996  25.409  1.00  0.00    -0.026 A 
ATOM     21  C   UNL A   1      37.452  21.398  25.399  1.00  0.00     0.339 A 
ATOM     22  C   UNL A   1      35.045  24.403  25.639  1.00  0.00     0.046 C 
ATOM     23  C   UNL A   1      36.865  22.751  25.566  1.00  0.00     0.038 A 
ATOM     24  O   UNL A   1      38.653  21.190  25.533  1.00  0.00    -0.246 OA
ATOM     25  C   UNL A   1      37.912  23.779  25.922  1.00  0.00     0.052 C 
ENDBRANCH  11  12
ENDBRANCH  10  11
ENDBRANCH   7  10
ENDBRANCH   5   6
BRANCH   5  26
ATOM     26  C   UNL A   1      30.477  26.485  23.118  1.00  0.00     0.072 C 
BRANCH  26  27
ATOM     27  C   UNL A   1      29.677  27.759  22.963  1.00  0.00    -0.045 A 
ATOM     28  C   UNL A   1      30.313  28.958  22.605  1.00  0.00     0.005 A 
ATOM     29  C   UNL A   1      28.317  27.777  23.301  1.00  0.00     0.005 A 
ATOM     30  C   UNL A   1      29.619  30.166  22.658  1.00  0.00     0.021 A 
ATOM     31  C   UNL A   1      27.621  28.985  23.338  1.00  0.00     0.021 A 
ATOM     32  C   UNL A   1      28.278  30.175  23.034  1.00  0.00     0.041 A 
ATOM     33  Cl  UNL A   1      27.437  31.670  23.148  1.00  0.00    -0.084 Cl
ENDBRANCH  26  27
ENDBRANCH   5  26
ENDBRANCH   3   5
ENDBRANCH   2   3
ENDBRANCH   1   2
BRANCH   1  34
ATOM     34  C   UNL A   1      33.311  29.398  26.382  1.00  0.00     0.275 C 
BRANCH  34  35
ATOM     35  O   UNL A   1      34.249  29.149  27.444  1.00  0.00    -0.458 OA
BRANCH  35  36
ATOM     36  C   UNL A   1      34.794  30.256  27.995  1.00  0.00     0.338 C 
ATOM     37  O   UNL A   1      34.240  31.293  28.314  1.00  0.00    -0.246 OA
BRANCH  36  38
ATOM     38  C   UNL A   1      36.189  29.975  28.342  1.00  0.00     0.060 A 
ATOM     39  C   UNL A   1      36.530  29.470  29.592  1.00  0.00     0.016 A 
ATOM     40  C   UNL A   1      37.157  30.151  27.350  1.00  0.00     0.016 A 
ATOM     41  C   UNL A   1      37.863  29.145  29.844  1.00  0.00     0.010 A 
ATOM     42  C   UNL A   1      38.472  29.789  27.584  1.00  0.00     0.010 A 
ATOM     43  C   UNL A   1      38.835  29.295  28.839  1.00  0.00    -0.014 A 
BRANCH  43  44
ATOM     44  C   UNL A   1      40.238  28.901  29.069  1.00  0.00     0.031 A 
ATOM     45  C   UNL A   1      41.181  29.833  29.768  1.00  0.00     0.074 A 
ATOM     46  C   UNL A   1      40.660  27.721  28.585  1.00  0.00     0.049 A 
ATOM     47  N   UNL A   1      42.431  29.640  30.101  1.00  0.00    -0.248 NA
ATOM     48  C   UNL A   1      40.660  31.162  30.118  1.00  0.00     0.031 C 
ATOM     49  C   UNL A   1      39.836  26.777  27.829  1.00  0.00     0.029 A 
ATOM     50  N   UNL A   1      41.883  27.112  28.663  1.00  0.00    -0.354 N 
ATOM     51  C   UNL A   1      42.841  30.817  30.713  1.00  0.00     0.074 A 
ATOM     52  C   UNL A   1      41.731  31.742  30.638  1.00  0.00     0.031 C 
ATOM     53  C   UNL A   1      40.562  25.682  27.560  1.00  0.00     0.029 A 
ATOM     54  C   UNL A   1      41.908  25.864  28.094  1.00  0.00     0.049 A 
ATOM     55  H   UNL A   1      42.669  27.529  29.086  1.00  0.00     0.167 HD
ATOM     56  C   UNL A   1      44.028  31.088  31.305  1.00  0.00     0.037 A 
ATOM     57  C   UNL A   1      42.906  24.966  28.027  1.00  0.00     0.037 A 
ATOM     58  C   UNL A   1      45.128  30.160  31.351  1.00  0.00     0.049 A 
ATOM     59  C   UNL A   1      44.231  25.313  28.641  1.00  0.00     0.074 A 
ATOM     60  C   UNL A   1      46.353  30.297  31.977  1.00  0.00     0.029 A 
ATOM     61  N   UNL A   1      45.139  28.924  30.717  1.00  0.00    -0.354 N 
ATOM     62  N   UNL A   1      44.577  26.382  29.315  1.00  0.00    -0.248 NA
ATOM     63  C   UNL A   1      45.306  24.327  28.477  1.00  0.00     0.031 C 
ATOM     64  C   UNL A   1      47.127  29.170  31.672  1.00  0.00     0.029 A 
ATOM     65  C   UNL A   1      46.367  28.308  30.897  1.00  0.00     0.049 A 
ATOM     66  H   UNL A   1      44.384  28.542  30.214  1.00  0.00     0.167 HD
ATOM     67  C   UNL A   1      45.906  26.196  29.668  1.00  0.00     0.074 A 
ATOM     68  C   UNL A   1      46.293  24.896  29.153  1.00  0.00     0.031 C 
ATOM     69  C   UNL A   1      46.734  27.024  30.353  1.00  0.00     0.037 A 
BRANCH  56  70
ATOM     70  C   UNL A   1      44.184  32.444  31.934  1.00  0.00     0.057 A 
ATOM     71  C   UNL A   1      43.826  32.661  33.270  1.00  0.00     0.134 A 
ATOM     72  C   UNL A   1      44.708  33.534  31.224  1.00  0.00     0.134 A 
ATOM     73  F   UNL A   1      43.311  31.667  34.009  1.00  0.00    -0.206 F 
ATOM     74  C   UNL A   1      44.000  33.906  33.880  1.00  0.00     0.040 A 
ATOM     75  C   UNL A   1      44.916  34.774  31.832  1.00  0.00     0.040 A 
ATOM     76  F   UNL A   1      45.084  33.394  29.943  1.00  0.00    -0.206 F 
ATOM     77  C   UNL A   1      44.559  34.963  33.165  1.00  0.00     0.006 A 
ENDBRANCH  56  70
BRANCH  57  78
ATOM     78  C   UNL A   1      42.671  23.643  27.400  1.00  0.00     0.057 A 
ATOM     79  C   UNL A   1      42.827  23.441  26.024  1.00  0.00     0.134 A 
ATOM     80  C   UNL A   1      42.263  22.551  28.172  1.00  0.00     0.134 A 
ATOM     81  F   UNL A   1      43.206  24.452  25.229  1.00  0.00    -0.206 F 
ATOM     82  C   UNL A   1      42.578  22.201  25.436  1.00  0.00     0.040 A 
ATOM     83  C   UNL A   1      42.033  21.299  27.602  1.00  0.00     0.040 A 
ATOM     84  F   UNL A   1      42.108  22.682  29.497  1.00  0.00    -0.206 F 
ATOM     85  C   UNL A   1      42.184  21.123  26.227  1.00  0.00     0.006 A 
ENDBRANCH  57  78
BRANCH  69  86
ATOM     86  C   UNL A   1      48.139  26.540  30.571  1.00  0.00     0.057 A 
ATOM     87  C   UNL A   1      48.476  25.805  31.712  1.00  0.00     0.134 A 
ATOM     88  C   UNL A   1      49.160  26.818  29.652  1.00  0.00     0.134 A 
ATOM     89  F   UNL A   1      47.547  25.510  32.633  1.00  0.00    -0.206 F 
ATOM     90  C   UNL A   1      49.782  25.364  31.935  1.00  0.00     0.040 A 
ATOM     91  C   UNL A   1      50.463  26.358  29.850  1.00  0.00     0.040 A 
ATOM     92  F   UNL A   1      48.897  27.503  28.529  1.00  0.00    -0.206 F 
ATOM     93  C   UNL A   1      50.778  25.634  30.998  1.00  0.00     0.006 A 
ENDBRANCH  69  86
ENDBRANCH  43  44
ENDBRANCH  36  38
ENDBRANCH  35  36
ENDBRANCH  34  35
ENDBRANCH   1  34
TORSDOF 17
ENDMDL
