MODEL 1
REMARK VINA RESULT:     -11.4      0.000      0.000
REMARK SMILES O=C(OCCOC(=O)[C@H]1C=C[C@H](Nc2ccc([N+](=O)[O-])cc2C(F)F)C1)c1ccc(-c2c3nc(c(-c4c(F)cccc4F)c4ccc([nH]4)c(-c4c(F)cccc4F)c4nc(c(-c5c(F)cccc5F)c5ccc2[nH]5)C=C4)C=C3)cc1
REMARK SMILES IDX 5 1 4 2 3 3 2 4 1 5 27 6 28 7 80 8 29 9 79 10 30 11 31 12
REMARK SMILES IDX 32 13 73 14 33 15 78 16 72 17 74 18 34 19 77 20 71 21 70 22
REMARK SMILES IDX 35 24 61 25 44 26 60 27 45 28 48 29 59 30 75 31 46 32 47 33
REMARK SMILES IDX 58 35 76 36 49 37 36 38 37 39 42 40 38 41 39 42 41 43 43 44
REMARK SMILES IDX 40 45 62 46 63 47 68 48 64 49 65 50 67 51 69 52 66 53 50 54
REMARK SMILES IDX 51 55 56 56 52 57 53 58 55 59 57 60 54 61 6 62 7 63 8 64
REMARK SMILES IDX 9 65 10 66 26 67 11 68 12 69 13 70 14 72 15 73 22 74 16 75
REMARK SMILES IDX 21 76 17 77 23 78 24 79 25 80 18 81 19 82 20 83
REMARK H PARENT 74 23 48 34 13 71
REMARK Flexibility Score: inf
ROOT
ATOM      1  C   UNL A   1      43.243  21.169  25.751  1.00  0.00     0.274 C 
ENDROOT
BRANCH   1   2
ATOM      2  C   UNL A   1      44.240  21.989  24.924  1.00  0.00     0.275 C 
BRANCH   2   3
ATOM      3  O   UNL A   1      43.781  23.300  24.566  1.00  0.00    -0.458 OA
BRANCH   3   4
ATOM      4  C   UNL A   1      44.170  24.504  25.044  1.00  0.00     0.338 C 
ATOM      5  O   UNL A   1      45.237  24.971  24.642  1.00  0.00    -0.246 OA
BRANCH   4   6
ATOM      6  C   UNL A   1      43.463  25.242  26.141  1.00  0.00     0.060 A 
ATOM      7  C   UNL A   1      42.490  24.735  27.006  1.00  0.00     0.016 A 
ATOM      8  C   UNL A   1      43.874  26.574  26.335  1.00  0.00     0.016 A 
ATOM      9  C   UNL A   1      42.024  25.481  28.094  1.00  0.00     0.010 A 
ATOM     10  C   UNL A   1      43.442  27.311  27.439  1.00  0.00     0.010 A 
ATOM     11  C   UNL A   1      42.515  26.763  28.334  1.00  0.00    -0.014 A 
BRANCH  11  12
ATOM     12  C   UNL A   1      41.943  27.596  29.416  1.00  0.00     0.031 A 
ATOM     13  C   UNL A   1      42.580  27.511  30.772  1.00  0.00     0.074 A 
ATOM     14  C   UNL A   1      40.895  28.414  29.200  1.00  0.00     0.049 A 
ATOM     15  N   UNL A   1      42.251  28.110  31.884  1.00  0.00    -0.248 NA
ATOM     16  C   UNL A   1      43.744  26.614  30.890  1.00  0.00     0.031 C 
ATOM     17  C   UNL A   1      40.210  28.609  27.922  1.00  0.00     0.029 A 
ATOM     18  N   UNL A   1      40.212  29.231  30.066  1.00  0.00    -0.354 N 
ATOM     19  C   UNL A   1      43.178  27.678  32.822  1.00  0.00     0.074 A 
ATOM     20  C   UNL A   1      44.004  26.679  32.183  1.00  0.00     0.031 C 
ATOM     21  C   UNL A   1      39.184  29.464  28.094  1.00  0.00     0.029 A 
ATOM     22  C   UNL A   1      39.149  29.884  29.490  1.00  0.00     0.049 A 
ATOM     23  H   UNL A   1      40.460  29.338  31.012  1.00  0.00     0.167 HD
ATOM     24  C   UNL A   1      43.375  28.119  34.085  1.00  0.00     0.037 A 
ATOM     25  C   UNL A   1      38.254  30.726  30.038  1.00  0.00     0.037 A 
ATOM     26  C   UNL A   1      42.559  29.116  34.714  1.00  0.00     0.049 A 
ATOM     27  C   UNL A   1      38.392  31.091  31.487  1.00  0.00     0.074 A 
ATOM     28  C   UNL A   1      42.675  29.665  35.975  1.00  0.00     0.029 A 
ATOM     29  N   UNL A   1      41.456  29.709  34.113  1.00  0.00    -0.354 N 
ATOM     30  N   UNL A   1      39.302  30.711  32.351  1.00  0.00    -0.248 NA
ATOM     31  C   UNL A   1      37.394  32.023  32.029  1.00  0.00     0.031 C 
ATOM     32  C   UNL A   1      41.619  30.565  36.154  1.00  0.00     0.029 A 
ATOM     33  C   UNL A   1      40.871  30.607  34.986  1.00  0.00     0.049 A 
ATOM     34  H   UNL A   1      41.138  29.518  33.201  1.00  0.00     0.167 HD
ATOM     35  C   UNL A   1      39.025  31.404  33.521  1.00  0.00     0.074 A 
ATOM     36  C   UNL A   1      37.842  32.202  33.263  1.00  0.00     0.031 C 
ATOM     37  C   UNL A   1      39.706  31.404  34.693  1.00  0.00     0.037 A 
BRANCH  24  38
ATOM     38  C   UNL A   1      44.529  27.509  34.823  1.00  0.00     0.057 A 
ATOM     39  C   UNL A   1      45.814  28.073  34.766  1.00  0.00     0.134 A 
ATOM     40  C   UNL A   1      44.385  26.297  35.504  1.00  0.00     0.134 A 
ATOM     41  F   UNL A   1      46.024  29.220  34.100  1.00  0.00    -0.206 F 
ATOM     42  C   UNL A   1      46.923  27.421  35.307  1.00  0.00     0.040 A 
ATOM     43  C   UNL A   1      45.482  25.650  36.075  1.00  0.00     0.040 A 
ATOM     44  F   UNL A   1      43.186  25.702  35.591  1.00  0.00    -0.206 F 
ATOM     45  C   UNL A   1      46.758  26.202  35.961  1.00  0.00     0.006 A 
ENDBRANCH  24  38
BRANCH  25  46
ATOM     46  C   UNL A   1      37.140  31.287  29.236  1.00  0.00     0.057 A 
ATOM     47  C   UNL A   1      37.164  32.594  28.745  1.00  0.00     0.134 A 
ATOM     48  C   UNL A   1      35.987  30.532  29.005  1.00  0.00     0.134 A 
ATOM     49  F   UNL A   1      38.225  33.382  28.972  1.00  0.00    -0.206 F 
ATOM     50  C   UNL A   1      36.076  33.130  28.048  1.00  0.00     0.040 A 
ATOM     51  C   UNL A   1      34.901  31.045  28.297  1.00  0.00     0.040 A 
ATOM     52  F   UNL A   1      35.899  29.291  29.500  1.00  0.00    -0.206 F 
ATOM     53  C   UNL A   1      34.943  32.352  27.818  1.00  0.00     0.006 A 
ENDBRANCH  25  46
BRANCH  37  54
ATOM     54  C   UNL A   1      39.245  32.362  35.747  1.00  0.00     0.057 A 
ATOM     55  C   UNL A   1      38.336  31.995  36.744  1.00  0.00     0.134 A 
ATOM     56  C   UNL A   1      39.759  33.664  35.779  1.00  0.00     0.134 A 
ATOM     57  F   UNL A   1      37.794  30.768  36.753  1.00  0.00    -0.206 F 
ATOM     58  C   UNL A   1      37.942  32.897  37.733  1.00  0.00     0.040 A 
ATOM     59  C   UNL A   1      39.395  34.566  36.776  1.00  0.00     0.040 A 
ATOM     60  F   UNL A   1      40.637  34.074  34.849  1.00  0.00    -0.206 F 
ATOM     61  C   UNL A   1      38.481  34.184  37.755  1.00  0.00     0.006 A 
ENDBRANCH  37  54
ENDBRANCH  11  12
ENDBRANCH   4   6
ENDBRANCH   3   4
ENDBRANCH   2   3
ENDBRANCH   1   2
BRANCH   1  62
ATOM     62  O   UNL A   1      41.885  21.648  25.667  1.00  0.00    -0.462 OA
BRANCH  62  63
ATOM     63  C   UNL A   1      40.909  20.746  25.977  1.00  0.00     0.312 C 
ATOM     64  O   UNL A   1      41.003  19.537  25.791  1.00  0.00    -0.252 OA
BRANCH  63  65
ATOM     65  C   UNL A   1      39.627  21.378  26.525  1.00  0.00     0.124 C 
ATOM     66  C   UNL A   1      39.749  22.785  26.997  1.00  0.00    -0.014 C 
ATOM     67  C   UNL A   1      38.520  21.471  25.463  1.00  0.00     0.048 C 
ATOM     68  C   UNL A   1      38.797  23.576  26.493  1.00  0.00    -0.006 C 
ATOM     69  C   UNL A   1      37.809  22.822  25.672  1.00  0.00     0.103 C 
BRANCH  69  70
ATOM     70  N   UNL A   1      36.601  22.669  26.485  1.00  0.00    -0.378 N 
ATOM     71  H   UNL A   1      36.601  22.111  27.296  1.00  0.00     0.161 HD
BRANCH  70  72
ATOM     72  C   UNL A   1      35.445  23.343  26.068  1.00  0.00     0.044 A 
ATOM     73  C   UNL A   1      35.553  24.315  25.055  1.00  0.00     0.033 A 
ATOM     74  C   UNL A   1      34.173  23.033  26.578  1.00  0.00     0.048 A 
ATOM     75  C   UNL A   1      34.427  24.971  24.547  1.00  0.00     0.088 A 
ATOM     76  C   UNL A   1      33.041  23.715  26.084  1.00  0.00     0.097 A 
ATOM     77  C   UNL A   1      33.169  24.668  25.066  1.00  0.00     0.270 A 
BRANCH  74  78
ATOM     78  C   UNL A   1      33.989  21.991  27.649  1.00  0.00     0.375 C 
ATOM     79  F   UNL A   1      32.997  22.307  28.535  1.00  0.00    -0.205 F 
ATOM     80  F   UNL A   1      33.643  20.772  27.144  1.00  0.00    -0.205 F 
ENDBRANCH  74  78
BRANCH  77  81
ATOM     81  N   UNL A   1      31.977  25.356  24.551  1.00  0.00     0.062 N 
ATOM     82  O   UNL A   1      32.127  26.126  23.592  1.00  0.00    -0.258 OA
ATOM     83  O   UNL A   1      30.896  25.142  25.118  1.00  0.00    -0.258 OA
ENDBRANCH  77  81
ENDBRANCH  70  72
ENDBRANCH  69  70
ENDBRANCH  63  65
ENDBRANCH  62  63
ENDBRANCH   1  62
TORSDOF 15
ENDMDL
MODEL 2
REMARK VINA RESULT:     -11.3      3.146      8.257
REMARK SMILES O=C(OCCOC(=O)[C@H]1C=C[C@H](Nc2ccc([N+](=O)[O-])cc2C(F)F)C1)c1ccc(-c2c3nc(c(-c4c(F)cccc4F)c4ccc([nH]4)c(-c4c(F)cccc4F)c4nc(c(-c5c(F)cccc5F)c5ccc2[nH]5)C=C4)C=C3)cc1
REMARK SMILES IDX 5 1 4 2 3 3 2 4 1 5 27 6 28 7 80 8 29 9 79 10 30 11 31 12
REMARK SMILES IDX 32 13 73 14 33 15 78 16 72 17 74 18 34 19 77 20 71 21 70 22
REMARK SMILES IDX 35 24 61 25 44 26 60 27 45 28 48 29 59 30 75 31 46 32 47 33
REMARK SMILES IDX 58 35 76 36 49 37 36 38 37 39 42 40 38 41 39 42 41 43 43 44
REMARK SMILES IDX 40 45 62 46 63 47 68 48 64 49 65 50 67 51 69 52 66 53 50 54
REMARK SMILES IDX 51 55 56 56 52 57 53 58 55 59 57 60 54 61 6 62 7 63 8 64
REMARK SMILES IDX 9 65 10 66 26 67 11 68 12 69 13 70 14 72 15 73 22 74 16 75
REMARK SMILES IDX 21 76 17 77 23 78 24 79 25 80 18 81 19 82 20 83
REMARK H PARENT 74 23 48 34 13 71
REMARK Flexibility Score: inf
ROOT
ATOM      1  C   UNL A   1      32.407  31.155  26.541  1.00  0.00     0.274 C 
ENDROOT
BRANCH   1   2
ATOM      2  C   UNL A   1      31.585  32.386  26.938  1.00  0.00     0.275 C 
BRANCH   2   3
ATOM      3  O   UNL A   1      32.348  33.593  27.076  1.00  0.00    -0.458 OA
BRANCH   3   4
ATOM      4  C   UNL A   1      33.083  34.026  28.125  1.00  0.00     0.338 C 
ATOM      5  O   UNL A   1      32.758  35.084  28.665  1.00  0.00    -0.246 OA
BRANCH   4   6
ATOM      6  C   UNL A   1      34.357  33.380  28.584  1.00  0.00     0.060 A 
ATOM      7  C   UNL A   1      35.660  33.832  28.355  1.00  0.00     0.016 A 
ATOM      8  C   UNL A   1      34.199  32.222  29.367  1.00  0.00     0.016 A 
ATOM      9  C   UNL A   1      36.758  33.226  28.974  1.00  0.00     0.010 A 
ATOM     10  C   UNL A   1      35.286  31.635  30.018  1.00  0.00     0.010 A 
ATOM     11  C   UNL A   1      36.578  32.142  29.831  1.00  0.00    -0.014 A 
BRANCH  11  12
ATOM     12  C   UNL A   1      37.746  31.430  30.398  1.00  0.00     0.031 A 
ATOM     13  C   UNL A   1      38.148  31.760  31.805  1.00  0.00     0.074 A 
ATOM     14  C   UNL A   1      38.425  30.508  29.688  1.00  0.00     0.049 A 
ATOM     15  N   UNL A   1      39.143  31.303  32.514  1.00  0.00    -0.248 NA
ATOM     16  C   UNL A   1      37.315  32.756  32.504  1.00  0.00     0.031 C 
ATOM     17  C   UNL A   1      38.114  30.076  28.325  1.00  0.00     0.029 A 
ATOM     18  N   UNL A   1      39.535  29.772  30.019  1.00  0.00    -0.354 N 
ATOM     19  C   UNL A   1      39.041  31.939  33.743  1.00  0.00     0.074 A 
ATOM     20  C   UNL A   1      37.965  32.899  33.644  1.00  0.00     0.031 C 
ATOM     21  C   UNL A   1      39.030  29.175  27.925  1.00  0.00     0.029 A 
ATOM     22  C   UNL A   1      39.983  28.959  29.007  1.00  0.00     0.049 A 
ATOM     23  H   UNL A   1      39.969  29.822  30.902  1.00  0.00     0.167 HD
ATOM     24  C   UNL A   1      39.733  31.702  34.880  1.00  0.00     0.037 A 
ATOM     25  C   UNL A   1      41.048  28.136  28.969  1.00  0.00     0.037 A 
ATOM     26  C   UNL A   1      40.795  30.744  34.978  1.00  0.00     0.049 A 
ATOM     27  C   UNL A   1      41.902  27.996  30.194  1.00  0.00     0.074 A 
ATOM     28  C   UNL A   1      41.550  30.394  36.080  1.00  0.00     0.029 A 
ATOM     29  N   UNL A   1      41.256  29.984  33.912  1.00  0.00    -0.354 N 
ATOM     30  N   UNL A   1      41.766  28.568  31.365  1.00  0.00    -0.248 NA
ATOM     31  C   UNL A   1      43.043  27.074  30.098  1.00  0.00     0.031 C 
ATOM     32  C   UNL A   1      42.496  29.447  35.671  1.00  0.00     0.029 A 
ATOM     33  C   UNL A   1      42.299  29.177  34.325  1.00  0.00     0.049 A 
ATOM     34  H   UNL A   1      40.894  30.015  32.997  1.00  0.00     0.167 HD
ATOM     35  C   UNL A   1      42.764  28.031  32.166  1.00  0.00     0.074 A 
ATOM     36  C   UNL A   1      43.517  27.112  31.336  1.00  0.00     0.031 C 
ATOM     37  C   UNL A   1      43.016  28.255  33.480  1.00  0.00     0.037 A 
BRANCH  24  38
ATOM     38  C   UNL A   1      39.322  32.503  36.080  1.00  0.00     0.057 A 
ATOM     39  C   UNL A   1      38.332  32.043  36.962  1.00  0.00     0.134 A 
ATOM     40  C   UNL A   1      39.837  33.785  36.297  1.00  0.00     0.134 A 
ATOM     41  F   UNL A   1      37.775  30.834  36.789  1.00  0.00    -0.206 F 
ATOM     42  C   UNL A   1      37.825  32.853  37.979  1.00  0.00     0.040 A 
ATOM     43  C   UNL A   1      39.359  34.593  37.330  1.00  0.00     0.040 A 
ATOM     44  F   UNL A   1      40.781  34.287  35.488  1.00  0.00    -0.206 F 
ATOM     45  C   UNL A   1      38.338  34.136  38.162  1.00  0.00     0.006 A 
ENDBRANCH  24  38
BRANCH  25  46
ATOM     46  C   UNL A   1      41.384  27.378  27.739  1.00  0.00     0.057 A 
ATOM     47  C   UNL A   1      42.123  27.942  26.698  1.00  0.00     0.134 A 
ATOM     48  C   UNL A   1      40.901  26.079  27.558  1.00  0.00     0.134 A 
ATOM     49  F   UNL A   1      42.576  29.201  26.795  1.00  0.00    -0.206 F 
ATOM     50  C   UNL A   1      42.372  27.237  25.516  1.00  0.00     0.040 A 
ATOM     51  C   UNL A   1      41.156  25.355  26.393  1.00  0.00     0.040 A 
ATOM     52  F   UNL A   1      40.145  25.515  28.508  1.00  0.00    -0.206 F 
ATOM     53  C   UNL A   1      41.893  25.937  25.364  1.00  0.00     0.006 A 
ENDBRANCH  25  46
BRANCH  37  54
ATOM     54  C   UNL A   1      44.086  27.424  34.117  1.00  0.00     0.057 A 
ATOM     55  C   UNL A   1      43.821  26.175  34.686  1.00  0.00     0.134 A 
ATOM     56  C   UNL A   1      45.411  27.875  34.118  1.00  0.00     0.134 A 
ATOM     57  F   UNL A   1      42.568  25.699  34.732  1.00  0.00    -0.206 F 
ATOM     58  C   UNL A   1      44.840  25.405  35.249  1.00  0.00     0.040 A 
ATOM     59  C   UNL A   1      46.442  27.105  34.653  1.00  0.00     0.040 A 
ATOM     60  F   UNL A   1      45.727  29.066  33.584  1.00  0.00    -0.206 F 
ATOM     61  C   UNL A   1      46.156  25.867  35.224  1.00  0.00     0.006 A 
ENDBRANCH  37  54
ENDBRANCH  11  12
ENDBRANCH   4   6
ENDBRANCH   3   4
ENDBRANCH   2   3
ENDBRANCH   1   2
BRANCH   1  62
ATOM     62  O   UNL A   1      31.627  30.105  25.934  1.00  0.00    -0.462 OA
BRANCH  62  63
ATOM     63  C   UNL A   1      31.669  28.889  26.554  1.00  0.00     0.312 C 
ATOM     64  O   UNL A   1      31.399  28.709  27.737  1.00  0.00    -0.252 OA
BRANCH  63  65
ATOM     65  C   UNL A   1      32.157  27.749  25.658  1.00  0.00     0.124 C 
ATOM     66  C   UNL A   1      33.635  27.592  25.557  1.00  0.00    -0.014 C 
ATOM     67  C   UNL A   1      31.703  26.370  26.165  1.00  0.00     0.048 C 
ATOM     68  C   UNL A   1      34.029  26.332  25.763  1.00  0.00    -0.006 C 
ATOM     69  C   UNL A   1      32.880  25.401  25.944  1.00  0.00     0.103 C 
BRANCH  69  70
ATOM     70  N   UNL A   1      32.729  24.656  24.692  1.00  0.00    -0.378 N 
ATOM     71  H   UNL A   1      32.513  25.117  23.849  1.00  0.00     0.161 HD
BRANCH  70  72
ATOM     72  C   UNL A   1      32.901  23.266  24.736  1.00  0.00     0.044 A 
ATOM     73  C   UNL A   1      31.848  22.466  25.221  1.00  0.00     0.033 A 
ATOM     74  C   UNL A   1      34.059  22.639  24.247  1.00  0.00     0.048 A 
ATOM     75  C   UNL A   1      31.931  21.069  25.224  1.00  0.00     0.088 A 
ATOM     76  C   UNL A   1      34.152  21.231  24.276  1.00  0.00     0.097 A 
ATOM     77  C   UNL A   1      33.089  20.454  24.750  1.00  0.00     0.270 A 
BRANCH  74  78
ATOM     78  C   UNL A   1      35.212  23.437  23.699  1.00  0.00     0.375 C 
ATOM     79  F   UNL A   1      36.036  23.923  24.675  1.00  0.00    -0.205 F 
ATOM     80  F   UNL A   1      36.020  22.701  22.882  1.00  0.00    -0.205 F 
ENDBRANCH  74  78
BRANCH  77  81
ATOM     81  N   UNL A   1      33.197  18.988  24.756  1.00  0.00     0.062 N 
ATOM     82  O   UNL A   1      32.156  18.336  24.916  1.00  0.00    -0.258 OA
ATOM     83  O   UNL A   1      34.324  18.491  24.621  1.00  0.00    -0.258 OA
ENDBRANCH  77  81
ENDBRANCH  70  72
ENDBRANCH  69  70
ENDBRANCH  63  65
ENDBRANCH  62  63
ENDBRANCH   1  62
TORSDOF 15
ENDMDL
MODEL 3
REMARK VINA RESULT:     -11.2      4.701     11.314
REMARK SMILES O=C(OCCOC(=O)[C@H]1C=C[C@H](Nc2ccc([N+](=O)[O-])cc2C(F)F)C1)c1ccc(-c2c3nc(c(-c4c(F)cccc4F)c4ccc([nH]4)c(-c4c(F)cccc4F)c4nc(c(-c5c(F)cccc5F)c5ccc2[nH]5)C=C4)C=C3)cc1
REMARK SMILES IDX 5 1 4 2 3 3 2 4 1 5 27 6 28 7 80 8 29 9 79 10 30 11 31 12
REMARK SMILES IDX 32 13 73 14 33 15 78 16 72 17 74 18 34 19 77 20 71 21 70 22
REMARK SMILES IDX 35 24 61 25 44 26 60 27 45 28 48 29 59 30 75 31 46 32 47 33
REMARK SMILES IDX 58 35 76 36 49 37 36 38 37 39 42 40 38 41 39 42 41 43 43 44
REMARK SMILES IDX 40 45 62 46 63 47 68 48 64 49 65 50 67 51 69 52 66 53 50 54
REMARK SMILES IDX 51 55 56 56 52 57 53 58 55 59 57 60 54 61 6 62 7 63 8 64
REMARK SMILES IDX 9 65 10 66 26 67 11 68 12 69 13 70 14 72 15 73 22 74 16 75
REMARK SMILES IDX 21 76 17 77 23 78 24 79 25 80 18 81 19 82 20 83
REMARK H PARENT 74 23 48 34 13 71
REMARK Flexibility Score: inf
ROOT
ATOM      1  C   UNL A   1      33.020  36.778  30.463  1.00  0.00     0.274 C 
ENDROOT
BRANCH   1   2
ATOM      2  C   UNL A   1      33.131  36.466  28.967  1.00  0.00     0.275 C 
BRANCH   2   3
ATOM      3  O   UNL A   1      32.498  35.244  28.565  1.00  0.00    -0.458 OA
BRANCH   3   4
ATOM      4  C   UNL A   1      33.057  34.057  28.236  1.00  0.00     0.338 C 
ATOM      5  O   UNL A   1      32.396  33.272  27.556  1.00  0.00    -0.246 OA
BRANCH   4   6
ATOM      6  C   UNL A   1      34.372  33.571  28.767  1.00  0.00     0.060 A 
ATOM      7  C   UNL A   1      34.578  32.735  29.868  1.00  0.00     0.016 A 
ATOM      8  C   UNL A   1      35.505  33.972  28.036  1.00  0.00     0.016 A 
ATOM      9  C   UNL A   1      35.846  32.223  30.165  1.00  0.00     0.010 A 
ATOM     10  C   UNL A   1      36.766  33.436  28.303  1.00  0.00     0.010 A 
ATOM     11  C   UNL A   1      36.944  32.547  29.370  1.00  0.00    -0.014 A 
BRANCH  11  12
ATOM     12  C   UNL A   1      38.303  32.098  29.746  1.00  0.00     0.031 A 
ATOM     13  C   UNL A   1      38.728  30.725  29.315  1.00  0.00     0.074 A 
ATOM     14  C   UNL A   1      39.142  32.890  30.442  1.00  0.00     0.049 A 
ATOM     15  N   UNL A   1      39.846  30.091  29.543  1.00  0.00    -0.248 NA
ATOM     16  C   UNL A   1      37.748  29.957  28.527  1.00  0.00     0.031 C 
ATOM     17  C   UNL A   1      38.859  34.253  30.890  1.00  0.00     0.029 A 
ATOM     18  N   UNL A   1      40.411  32.649  30.906  1.00  0.00    -0.354 N 
ATOM     19  C   UNL A   1      39.707  28.864  28.909  1.00  0.00     0.074 A 
ATOM     20  C   UNL A   1      38.359  28.795  28.394  1.00  0.00     0.031 C 
ATOM     21  C   UNL A   1      39.910  34.717  31.592  1.00  0.00     0.029 A 
ATOM     22  C   UNL A   1      40.942  33.688  31.631  1.00  0.00     0.049 A 
ATOM     23  H   UNL A   1      40.896  31.809  30.734  1.00  0.00     0.167 HD
ATOM     24  C   UNL A   1      40.638  27.903  28.710  1.00  0.00     0.037 A 
ATOM     25  C   UNL A   1      42.131  33.786  32.254  1.00  0.00     0.037 A 
ATOM     26  C   UNL A   1      41.977  27.979  29.216  1.00  0.00     0.049 A 
ATOM     27  C   UNL A   1      43.101  32.646  32.154  1.00  0.00     0.074 A 
ATOM     28  C   UNL A   1      43.017  27.084  29.058  1.00  0.00     0.029 A 
ATOM     29  N   UNL A   1      42.455  29.023  29.997  1.00  0.00    -0.354 N 
ATOM     30  N   UNL A   1      42.975  31.509  31.512  1.00  0.00    -0.248 NA
ATOM     31  C   UNL A   1      44.387  32.813  32.843  1.00  0.00     0.031 C 
ATOM     32  C   UNL A   1      44.117  27.569  29.775  1.00  0.00     0.029 A 
ATOM     33  C   UNL A   1      43.773  28.787  30.343  1.00  0.00     0.049 A 
ATOM     34  H   UNL A   1      41.933  29.814  30.265  1.00  0.00     0.167 HD
ATOM     35  C   UNL A   1      44.187  30.852  31.667  1.00  0.00     0.074 A 
ATOM     36  C   UNL A   1      45.022  31.704  32.490  1.00  0.00     0.031 C 
ATOM     37  C   UNL A   1      44.585  29.665  31.147  1.00  0.00     0.037 A 
BRANCH  24  38
ATOM     38  C   UNL A   1      40.199  26.720  27.902  1.00  0.00     0.057 A 
ATOM     39  C   UNL A   1      39.418  25.698  28.465  1.00  0.00     0.134 A 
ATOM     40  C   UNL A   1      40.645  26.543  26.589  1.00  0.00     0.134 A 
ATOM     41  F   UNL A   1      38.985  25.793  29.732  1.00  0.00    -0.206 F 
ATOM     42  C   UNL A   1      39.150  24.516  27.772  1.00  0.00     0.040 A 
ATOM     43  C   UNL A   1      40.358  25.378  25.875  1.00  0.00     0.040 A 
ATOM     44  F   UNL A   1      41.399  27.479  25.993  1.00  0.00    -0.206 F 
ATOM     45  C   UNL A   1      39.624  24.353  26.473  1.00  0.00     0.006 A 
ENDBRANCH  24  38
BRANCH  25  46
ATOM     46  C   UNL A   1      42.488  34.996  33.035  1.00  0.00     0.057 A 
ATOM     47  C   UNL A   1      42.069  35.178  34.354  1.00  0.00     0.134 A 
ATOM     48  C   UNL A   1      43.205  36.035  32.436  1.00  0.00     0.134 A 
ATOM     49  F   UNL A   1      41.340  34.234  34.968  1.00  0.00    -0.206 F 
ATOM     50  C   UNL A   1      42.355  36.355  35.054  1.00  0.00     0.040 A 
ATOM     51  C   UNL A   1      43.515  37.207  33.125  1.00  0.00     0.040 A 
ATOM     52  F   UNL A   1      43.584  35.926  31.157  1.00  0.00    -0.206 F 
ATOM     53  C   UNL A   1      43.085  37.371  34.440  1.00  0.00     0.006 A 
ENDBRANCH  25  46
BRANCH  37  54
ATOM     54  C   UNL A   1      46.010  29.267  31.376  1.00  0.00     0.057 A 
ATOM     55  C   UNL A   1      46.400  28.476  32.462  1.00  0.00     0.134 A 
ATOM     56  C   UNL A   1      46.998  29.653  30.462  1.00  0.00     0.134 A 
ATOM     57  F   UNL A   1      45.502  28.092  33.381  1.00  0.00    -0.206 F 
ATOM     58  C   UNL A   1      47.730  28.094  32.639  1.00  0.00     0.040 A 
ATOM     59  C   UNL A   1      48.324  29.256  30.612  1.00  0.00     0.040 A 
ATOM     60  F   UNL A   1      46.684  30.410  29.398  1.00  0.00    -0.206 F 
ATOM     61  C   UNL A   1      48.694  28.476  31.706  1.00  0.00     0.006 A 
ENDBRANCH  37  54
ENDBRANCH  11  12
ENDBRANCH   4   6
ENDBRANCH   3   4
ENDBRANCH   2   3
ENDBRANCH   1   2
BRANCH   1  62
ATOM     62  O   UNL A   1      33.921  36.009  31.286  1.00  0.00    -0.462 OA
BRANCH  62  63
ATOM     63  C   UNL A   1      33.349  35.296  32.300  1.00  0.00     0.312 C 
ATOM     64  O   UNL A   1      32.140  35.128  32.428  1.00  0.00    -0.252 OA
BRANCH  63  65
ATOM     65  C   UNL A   1      34.348  34.766  33.331  1.00  0.00     0.124 C 
ATOM     66  C   UNL A   1      34.285  33.302  33.600  1.00  0.00    -0.014 C 
ATOM     67  C   UNL A   1      35.807  34.967  32.889  1.00  0.00     0.048 C 
ATOM     68  C   UNL A   1      35.486  32.721  33.537  1.00  0.00    -0.006 C 
ATOM     69  C   UNL A   1      36.582  33.705  33.311  1.00  0.00     0.103 C 
BRANCH  69  70
ATOM     70  N   UNL A   1      37.259  33.898  34.595  1.00  0.00    -0.378 N 
ATOM     71  H   UNL A   1      37.075  34.688  35.153  1.00  0.00     0.161 HD
BRANCH  70  72
ATOM     72  C   UNL A   1      38.178  32.920  35.001  1.00  0.00     0.044 A 
ATOM     73  C   UNL A   1      38.844  32.163  34.018  1.00  0.00     0.033 A 
ATOM     74  C   UNL A   1      38.509  32.719  36.351  1.00  0.00     0.048 A 
ATOM     75  C   UNL A   1      39.822  31.222  34.356  1.00  0.00     0.088 A 
ATOM     76  C   UNL A   1      39.477  31.751  36.693  1.00  0.00     0.097 A 
ATOM     77  C   UNL A   1      40.136  31.019  35.699  1.00  0.00     0.270 A 
BRANCH  74  78
ATOM     78  C   UNL A   1      37.846  33.509  37.448  1.00  0.00     0.375 C 
ATOM     79  F   UNL A   1      38.319  34.788  37.544  1.00  0.00    -0.205 F 
ATOM     80  F   UNL A   1      36.500  33.637  37.265  1.00  0.00    -0.205 F 
ENDBRANCH  74  78
BRANCH  77  81
ATOM     81  N   UNL A   1      41.155  30.027  36.073  1.00  0.00     0.062 N 
ATOM     82  O   UNL A   1      42.299  30.440  36.310  1.00  0.00    -0.258 OA
ATOM     83  O   UNL A   1      40.817  28.836  36.109  1.00  0.00    -0.258 OA
ENDBRANCH  77  81
ENDBRANCH  70  72
ENDBRANCH  69  70
ENDBRANCH  63  65
ENDBRANCH  62  63
ENDBRANCH   1  62
TORSDOF 15
ENDMDL
