MODEL 1
REMARK VINA RESULT:     -11.8      0.000      0.000
REMARK SMILES O=C(OCCOC(=O)c1cccc(Nc2ccc([N+](=O)[O-])cc2)c1)c1ccc(-c2c3nc(c(-c4c(F)cccc4F)c4ccc([nH]4)c(-c4c(F)cccc4F)c4nc(c(-c5c(F)cccc5F)c5ccc2[nH]5)C=C4)C=C3)cc1
REMARK SMILES IDX 5 1 4 2 3 3 2 4 1 5 25 6 26 7 78 8 27 9 77 10 28 11 29 12
REMARK SMILES IDX 30 13 71 14 31 15 76 16 70 17 72 18 32 19 75 20 69 21 68 22
REMARK SMILES IDX 33 24 59 25 42 26 58 27 43 28 46 29 57 30 73 31 44 32 45 33
REMARK SMILES IDX 56 35 74 36 47 37 34 38 35 39 40 40 36 41 37 42 39 43 41 44
REMARK SMILES IDX 38 45 60 46 61 47 66 48 62 49 63 50 65 51 67 52 64 53 48 54
REMARK SMILES IDX 49 55 54 56 50 57 51 58 53 59 55 60 52 61 6 62 7 63 8 64
REMARK SMILES IDX 9 65 10 66 24 67 11 68 13 69 12 70 14 71 15 73 16 74 23 75
REMARK SMILES IDX 17 76 22 77 18 78 19 79 20 80 21 81
REMARK H PARENT 72 23 46 34 14 72
REMARK Flexibility Score: inf
ROOT
ATOM      1  C   UNL A   1      38.222  21.359  25.372  1.00  0.00     0.275 C 
ENDROOT
BRANCH   1   2
ATOM      2  C   UNL A   1      38.625  19.914  25.064  1.00  0.00     0.275 C 
BRANCH   2   3
ATOM      3  O   UNL A   1      39.581  19.352  25.981  1.00  0.00    -0.458 OA
BRANCH   3   4
ATOM      4  C   UNL A   1      40.925  19.521  25.995  1.00  0.00     0.338 C 
ATOM      5  O   UNL A   1      41.657  18.560  25.764  1.00  0.00    -0.246 OA
BRANCH   4   6
ATOM      6  C   UNL A   1      41.567  20.779  26.482  1.00  0.00     0.060 A 
ATOM      7  C   UNL A   1      41.715  21.156  27.819  1.00  0.00     0.016 A 
ATOM      8  C   UNL A   1      42.030  21.661  25.490  1.00  0.00     0.016 A 
ATOM      9  C   UNL A   1      42.379  22.337  28.162  1.00  0.00     0.010 A 
ATOM     10  C   UNL A   1      42.701  22.840  25.826  1.00  0.00     0.010 A 
ATOM     11  C   UNL A   1      42.873  23.186  27.170  1.00  0.00    -0.014 A 
BRANCH  11  12
ATOM     12  C   UNL A   1      43.381  24.525  27.537  1.00  0.00     0.031 A 
ATOM     13  C   UNL A   1      42.378  25.585  27.884  1.00  0.00     0.074 A 
ATOM     14  C   UNL A   1      44.701  24.779  27.606  1.00  0.00     0.049 A 
ATOM     15  N   UNL A   1      42.573  26.835  28.207  1.00  0.00    -0.248 NA
ATOM     16  C   UNL A   1      40.965  25.172  27.888  1.00  0.00     0.031 C 
ATOM     17  C   UNL A   1      45.766  23.805  27.371  1.00  0.00     0.029 A 
ATOM     18  N   UNL A   1      45.370  25.945  27.872  1.00  0.00    -0.354 N 
ATOM     19  C   UNL A   1      41.315  27.343  28.497  1.00  0.00     0.074 A 
ATOM     20  C   UNL A   1      40.355  26.295  28.229  1.00  0.00     0.031 C 
ATOM     21  C   UNL A   1      46.955  24.428  27.436  1.00  0.00     0.029 A 
ATOM     22  C   UNL A   1      46.732  25.843  27.710  1.00  0.00     0.049 A 
ATOM     23  H   UNL A   1      44.921  26.775  28.152  1.00  0.00     0.167 HD
ATOM     24  C   UNL A   1      40.991  28.562  28.986  1.00  0.00     0.037 A 
ATOM     25  C   UNL A   1      47.677  26.801  27.736  1.00  0.00     0.037 A 
ATOM     26  C   UNL A   1      41.951  29.605  29.218  1.00  0.00     0.049 A 
ATOM     27  C   UNL A   1      47.270  28.212  28.035  1.00  0.00     0.074 A 
ATOM     28  C   UNL A   1      41.751  30.870  29.734  1.00  0.00     0.029 A 
ATOM     29  N   UNL A   1      43.303  29.500  28.919  1.00  0.00    -0.354 N 
ATOM     30  N   UNL A   1      46.081  28.681  28.322  1.00  0.00    -0.248 NA
ATOM     31  C   UNL A   1      48.336  29.223  28.022  1.00  0.00     0.031 C 
ATOM     32  C   UNL A   1      42.975  31.550  29.700  1.00  0.00     0.029 A 
ATOM     33  C   UNL A   1      43.944  30.692  29.205  1.00  0.00     0.049 A 
ATOM     34  H   UNL A   1      43.740  28.696  28.555  1.00  0.00     0.167 HD
ATOM     35  C   UNL A   1      46.260  30.032  28.581  1.00  0.00     0.074 A 
ATOM     36  C   UNL A   1      47.667  30.313  28.374  1.00  0.00     0.031 C 
ATOM     37  C   UNL A   1      45.347  30.945  28.992  1.00  0.00     0.037 A 
BRANCH  24  38
ATOM     38  C   UNL A   1      39.543  28.804  29.286  1.00  0.00     0.057 A 
ATOM     39  C   UNL A   1      38.671  29.327  28.320  1.00  0.00     0.134 A 
ATOM     40  C   UNL A   1      39.023  28.560  30.562  1.00  0.00     0.134 A 
ATOM     41  F   UNL A   1      39.113  29.606  27.084  1.00  0.00    -0.206 F 
ATOM     42  C   UNL A   1      37.344  29.635  28.623  1.00  0.00     0.040 A 
ATOM     43  C   UNL A   1      37.691  28.841  30.871  1.00  0.00     0.040 A 
ATOM     44  F   UNL A   1      39.804  28.064  31.532  1.00  0.00    -0.206 F 
ATOM     45  C   UNL A   1      36.851  29.391  29.903  1.00  0.00     0.006 A 
ENDBRANCH  24  38
BRANCH  25  46
ATOM     46  C   UNL A   1      49.076  26.481  27.366  1.00  0.00     0.057 A 
ATOM     47  C   UNL A   1      49.529  26.455  26.048  1.00  0.00     0.134 A 
ATOM     48  C   UNL A   1      49.996  26.163  28.369  1.00  0.00     0.134 A 
ATOM     49  F   UNL A   1      48.684  26.697  25.037  1.00  0.00    -0.206 F 
ATOM     50  C   UNL A   1      50.861  26.147  25.746  1.00  0.00     0.040 A 
ATOM     51  C   UNL A   1      51.332  25.881  28.089  1.00  0.00     0.040 A 
ATOM     52  F   UNL A   1      49.585  26.085  29.638  1.00  0.00    -0.206 F 
ATOM     53  C   UNL A   1      51.768  25.873  26.769  1.00  0.00     0.006 A 
ENDBRANCH  25  46
BRANCH  37  54
ATOM     54  C   UNL A   1      45.861  32.311  29.325  1.00  0.00     0.057 A 
ATOM     55  C   UNL A   1      45.858  33.355  28.396  1.00  0.00     0.134 A 
ATOM     56  C   UNL A   1      46.326  32.586  30.618  1.00  0.00     0.134 A 
ATOM     57  F   UNL A   1      45.443  33.144  27.137  1.00  0.00    -0.206 F 
ATOM     58  C   UNL A   1      46.311  34.630  28.739  1.00  0.00     0.040 A 
ATOM     59  C   UNL A   1      46.760  33.860  30.979  1.00  0.00     0.040 A 
ATOM     60  F   UNL A   1      46.352  31.622  31.551  1.00  0.00    -0.206 F 
ATOM     61  C   UNL A   1      46.755  34.885  30.036  1.00  0.00     0.006 A 
ENDBRANCH  37  54
ENDBRANCH  11  12
ENDBRANCH   4   6
ENDBRANCH   3   4
ENDBRANCH   2   3
ENDBRANCH   1   2
BRANCH   1  62
ATOM     62  O   UNL A   1      37.341  21.924  24.389  1.00  0.00    -0.458 OA
BRANCH  62  63
ATOM     63  C   UNL A   1      36.522  22.898  24.865  1.00  0.00     0.338 C 
ATOM     64  O   UNL A   1      36.822  23.796  25.633  1.00  0.00    -0.246 OA
BRANCH  63  65
ATOM     65  C   UNL A   1      35.211  22.825  24.194  1.00  0.00     0.062 A 
ATOM     66  C   UNL A   1      34.766  23.972  23.530  1.00  0.00     0.016 A 
ATOM     67  C   UNL A   1      34.419  21.672  24.230  1.00  0.00     0.041 A 
ATOM     68  C   UNL A   1      33.553  23.946  22.851  1.00  0.00     0.003 A 
ATOM     69  C   UNL A   1      33.159  21.661  23.605  1.00  0.00     0.039 A 
ATOM     70  C   UNL A   1      32.762  22.795  22.884  1.00  0.00     0.026 A 
BRANCH  69  71
ATOM     71  N   UNL A   1      32.339  20.525  23.718  1.00  0.00    -0.355 N 
ATOM     72  H   UNL A   1      31.382  20.679  23.544  1.00  0.00     0.167 HD
BRANCH  71  73
ATOM     73  C   UNL A   1      32.681  19.201  24.041  1.00  0.00     0.039 A 
ATOM     74  C   UNL A   1      32.559  18.774  25.371  1.00  0.00     0.033 A 
ATOM     75  C   UNL A   1      33.115  18.288  23.071  1.00  0.00     0.033 A 
ATOM     76  C   UNL A   1      32.878  17.463  25.735  1.00  0.00     0.088 A 
ATOM     77  C   UNL A   1      33.455  16.975  23.422  1.00  0.00     0.088 A 
ATOM     78  C   UNL A   1      33.343  16.572  24.759  1.00  0.00     0.269 A 
BRANCH  78  79
ATOM     79  N   UNL A   1      33.775  15.228  25.157  1.00  0.00     0.062 N 
ATOM     80  O   UNL A   1      34.993  15.040  25.310  1.00  0.00    -0.258 OA
ATOM     81  O   UNL A   1      32.906  14.362  25.316  1.00  0.00    -0.258 OA
ENDBRANCH  78  79
ENDBRANCH  71  73
ENDBRANCH  69  71
ENDBRANCH  63  65
ENDBRANCH  62  63
ENDBRANCH   1  62
TORSDOF 14
ENDMDL
MODEL 2
REMARK VINA RESULT:     -11.7      4.421      8.554
REMARK SMILES O=C(OCCOC(=O)c1cccc(Nc2ccc([N+](=O)[O-])cc2)c1)c1ccc(-c2c3nc(c(-c4c(F)cccc4F)c4ccc([nH]4)c(-c4c(F)cccc4F)c4nc(c(-c5c(F)cccc5F)c5ccc2[nH]5)C=C4)C=C3)cc1
REMARK SMILES IDX 5 1 4 2 3 3 2 4 1 5 25 6 26 7 78 8 27 9 77 10 28 11 29 12
REMARK SMILES IDX 30 13 71 14 31 15 76 16 70 17 72 18 32 19 75 20 69 21 68 22
REMARK SMILES IDX 33 24 59 25 42 26 58 27 43 28 46 29 57 30 73 31 44 32 45 33
REMARK SMILES IDX 56 35 74 36 47 37 34 38 35 39 40 40 36 41 37 42 39 43 41 44
REMARK SMILES IDX 38 45 60 46 61 47 66 48 62 49 63 50 65 51 67 52 64 53 48 54
REMARK SMILES IDX 49 55 54 56 50 57 51 58 53 59 55 60 52 61 6 62 7 63 8 64
REMARK SMILES IDX 9 65 10 66 24 67 11 68 13 69 12 70 14 71 15 73 16 74 23 75
REMARK SMILES IDX 17 76 22 77 18 78 19 79 20 80 21 81
REMARK H PARENT 72 23 46 34 14 72
REMARK Flexibility Score: inf
ROOT
ATOM      1  C   UNL A   1      42.968  21.036  26.161  1.00  0.00     0.275 C 
ENDROOT
BRANCH   1   2
ATOM      2  C   UNL A   1      43.942  21.751  25.219  1.00  0.00     0.275 C 
BRANCH   2   3
ATOM      3  O   UNL A   1      43.516  23.060  24.802  1.00  0.00    -0.458 OA
BRANCH   3   4
ATOM      4  C   UNL A   1      44.107  24.252  25.059  1.00  0.00     0.338 C 
ATOM      5  O   UNL A   1      45.230  24.478  24.612  1.00  0.00    -0.246 OA
BRANCH   4   6
ATOM      6  C   UNL A   1      43.542  25.229  26.038  1.00  0.00     0.060 A 
ATOM      7  C   UNL A   1      43.757  26.609  26.032  1.00  0.00     0.016 A 
ATOM      8  C   UNL A   1      42.749  24.687  27.064  1.00  0.00     0.016 A 
ATOM      9  C   UNL A   1      43.135  27.437  26.970  1.00  0.00     0.010 A 
ATOM     10  C   UNL A   1      42.118  25.509  28.002  1.00  0.00     0.010 A 
ATOM     11  C   UNL A   1      42.315  26.893  27.961  1.00  0.00    -0.014 A 
BRANCH  11  12
ATOM     12  C   UNL A   1      41.836  27.748  29.068  1.00  0.00     0.031 A 
ATOM     13  C   UNL A   1      42.549  27.654  30.385  1.00  0.00     0.074 A 
ATOM     14  C   UNL A   1      40.825  28.618  28.894  1.00  0.00     0.049 A 
ATOM     15  N   UNL A   1      42.300  28.275  31.507  1.00  0.00    -0.248 NA
ATOM     16  C   UNL A   1      43.714  26.754  30.435  1.00  0.00     0.031 C 
ATOM     17  C   UNL A   1      40.114  28.854  27.639  1.00  0.00     0.029 A 
ATOM     18  N   UNL A   1      40.205  29.452  29.788  1.00  0.00    -0.354 N 
ATOM     19  C   UNL A   1      43.303  27.877  32.380  1.00  0.00     0.074 A 
ATOM     20  C   UNL A   1      44.112  26.897  31.689  1.00  0.00     0.031 C 
ATOM     21  C   UNL A   1      39.109  29.720  27.857  1.00  0.00     0.029 A 
ATOM     22  C   UNL A   1      39.106  30.093  29.267  1.00  0.00     0.049 A 
ATOM     23  H   UNL A   1      40.516  29.580  30.714  1.00  0.00     0.167 HD
ATOM     24  C   UNL A   1      43.554  28.322  33.632  1.00  0.00     0.037 A 
ATOM     25  C   UNL A   1      38.181  30.855  29.880  1.00  0.00     0.037 A 
ATOM     26  C   UNL A   1      42.724  29.273  34.318  1.00  0.00     0.049 A 
ATOM     27  C   UNL A   1      38.331  31.140  31.343  1.00  0.00     0.074 A 
ATOM     28  C   UNL A   1      42.887  29.819  35.576  1.00  0.00     0.029 A 
ATOM     29  N   UNL A   1      41.548  29.798  33.799  1.00  0.00    -0.354 N 
ATOM     30  N   UNL A   1      39.289  30.772  32.158  1.00  0.00    -0.248 NA
ATOM     31  C   UNL A   1      37.280  31.952  31.969  1.00  0.00     0.031 C 
ATOM     32  C   UNL A   1      41.783  30.639  35.838  1.00  0.00     0.029 A 
ATOM     33  C   UNL A   1      40.956  30.636  34.725  1.00  0.00     0.049 A 
ATOM     34  H   UNL A   1      41.190  29.603  32.902  1.00  0.00     0.167 HD
ATOM     35  C   UNL A   1      38.990  31.353  33.381  1.00  0.00     0.074 A 
ATOM     36  C   UNL A   1      37.736  32.062  33.210  1.00  0.00     0.031 C 
ATOM     37  C   UNL A   1      39.709  31.333  34.529  1.00  0.00     0.037 A 
BRANCH  24  38
ATOM     38  C   UNL A   1      44.769  27.768  34.312  1.00  0.00     0.057 A 
ATOM     39  C   UNL A   1      44.700  26.624  35.122  1.00  0.00     0.134 A 
ATOM     40  C   UNL A   1      46.009  28.406  34.199  1.00  0.00     0.134 A 
ATOM     41  F   UNL A   1      43.535  25.980  35.290  1.00  0.00    -0.206 F 
ATOM     42  C   UNL A   1      45.812  26.159  35.825  1.00  0.00     0.040 A 
ATOM     43  C   UNL A   1      47.134  27.936  34.879  1.00  0.00     0.040 A 
ATOM     44  F   UNL A   1      46.143  29.507  33.445  1.00  0.00    -0.206 F 
ATOM     45  C   UNL A   1      47.034  26.816  35.704  1.00  0.00     0.006 A 
ENDBRANCH  24  38
BRANCH  25  46
ATOM     46  C   UNL A   1      36.978  31.309  29.142  1.00  0.00     0.057 A 
ATOM     47  C   UNL A   1      35.884  30.485  28.887  1.00  0.00     0.134 A 
ATOM     48  C   UNL A   1      36.928  32.615  28.648  1.00  0.00     0.134 A 
ATOM     49  F   UNL A   1      35.892  29.206  29.286  1.00  0.00    -0.206 F 
ATOM     50  C   UNL A   1      34.769  30.957  28.186  1.00  0.00     0.040 A 
ATOM     51  C   UNL A   1      35.816  33.112  27.971  1.00  0.00     0.040 A 
ATOM     52  F   UNL A   1      37.992  33.412  28.788  1.00  0.00    -0.206 F 
ATOM     53  C   UNL A   1      34.728  32.278  27.739  1.00  0.00     0.006 A 
ENDBRANCH  25  46
BRANCH  37  54
ATOM     54  C   UNL A   1      39.200  32.170  35.660  1.00  0.00     0.057 A 
ATOM     55  C   UNL A   1      39.534  33.521  35.797  1.00  0.00     0.134 A 
ATOM     56  C   UNL A   1      38.324  31.613  36.602  1.00  0.00     0.134 A 
ATOM     57  F   UNL A   1      40.384  34.101  34.937  1.00  0.00    -0.206 F 
ATOM     58  C   UNL A   1      39.020  34.291  36.841  1.00  0.00     0.040 A 
ATOM     59  C   UNL A   1      37.787  32.378  37.636  1.00  0.00     0.040 A 
ATOM     60  F   UNL A   1      37.969  30.322  36.521  1.00  0.00    -0.206 F 
ATOM     61  C   UNL A   1      38.138  33.720  37.759  1.00  0.00     0.006 A 
ENDBRANCH  37  54
ENDBRANCH  11  12
ENDBRANCH   4   6
ENDBRANCH   3   4
ENDBRANCH   2   3
ENDBRANCH   1   2
BRANCH   1  62
ATOM     62  O   UNL A   1      41.611  21.048  25.689  1.00  0.00    -0.458 OA
BRANCH  62  63
ATOM     63  C   UNL A   1      40.676  20.992  26.673  1.00  0.00     0.338 C 
ATOM     64  O   UNL A   1      40.755  20.378  27.724  1.00  0.00    -0.246 OA
BRANCH  63  65
ATOM     65  C   UNL A   1      39.571  21.921  26.371  1.00  0.00     0.062 A 
ATOM     66  C   UNL A   1      39.712  23.244  26.799  1.00  0.00     0.016 A 
ATOM     67  C   UNL A   1      38.411  21.508  25.706  1.00  0.00     0.041 A 
ATOM     68  C   UNL A   1      38.716  24.170  26.509  1.00  0.00     0.003 A 
ATOM     69  C   UNL A   1      37.369  22.423  25.471  1.00  0.00     0.039 A 
ATOM     70  C   UNL A   1      37.559  23.761  25.843  1.00  0.00     0.026 A 
BRANCH  69  71
ATOM     71  N   UNL A   1      36.176  21.977  24.875  1.00  0.00    -0.355 N 
ATOM     72  H   UNL A   1      36.292  21.420  24.071  1.00  0.00     0.167 HD
BRANCH  71  73
ATOM     73  C   UNL A   1      34.844  22.207  25.256  1.00  0.00     0.039 A 
ATOM     74  C   UNL A   1      34.557  22.466  26.604  1.00  0.00     0.033 A 
ATOM     75  C   UNL A   1      33.796  22.213  24.325  1.00  0.00     0.033 A 
ATOM     76  C   UNL A   1      33.248  22.711  27.024  1.00  0.00     0.088 A 
ATOM     77  C   UNL A   1      32.475  22.440  24.733  1.00  0.00     0.088 A 
ATOM     78  C   UNL A   1      32.206  22.679  26.086  1.00  0.00     0.269 A 
BRANCH  78  79
ATOM     79  N   UNL A   1      30.821  22.834  26.542  1.00  0.00     0.062 N 
ATOM     80  O   UNL A   1      30.555  23.824  27.242  1.00  0.00    -0.258 OA
ATOM     81  O   UNL A   1      29.999  21.971  26.205  1.00  0.00    -0.258 OA
ENDBRANCH  78  79
ENDBRANCH  71  73
ENDBRANCH  69  71
ENDBRANCH  63  65
ENDBRANCH  62  63
ENDBRANCH   1  62
TORSDOF 14
ENDMDL
MODEL 3
REMARK VINA RESULT:     -11.6      0.729      6.395
REMARK SMILES O=C(OCCOC(=O)c1cccc(Nc2ccc([N+](=O)[O-])cc2)c1)c1ccc(-c2c3nc(c(-c4c(F)cccc4F)c4ccc([nH]4)c(-c4c(F)cccc4F)c4nc(c(-c5c(F)cccc5F)c5ccc2[nH]5)C=C4)C=C3)cc1
REMARK SMILES IDX 5 1 4 2 3 3 2 4 1 5 25 6 26 7 78 8 27 9 77 10 28 11 29 12
REMARK SMILES IDX 30 13 71 14 31 15 76 16 70 17 72 18 32 19 75 20 69 21 68 22
REMARK SMILES IDX 33 24 59 25 42 26 58 27 43 28 46 29 57 30 73 31 44 32 45 33
REMARK SMILES IDX 56 35 74 36 47 37 34 38 35 39 40 40 36 41 37 42 39 43 41 44
REMARK SMILES IDX 38 45 60 46 61 47 66 48 62 49 63 50 65 51 67 52 64 53 48 54
REMARK SMILES IDX 49 55 54 56 50 57 51 58 53 59 55 60 52 61 6 62 7 63 8 64
REMARK SMILES IDX 9 65 10 66 24 67 11 68 13 69 12 70 14 71 15 73 16 74 23 75
REMARK SMILES IDX 17 76 22 77 18 78 19 79 20 80 21 81
REMARK H PARENT 72 23 46 34 14 72
REMARK Flexibility Score: inf
ROOT
ATOM      1  C   UNL A   1      38.172  21.297  25.371  1.00  0.00     0.275 C 
ENDROOT
BRANCH   1   2
ATOM      2  C   UNL A   1      38.426  19.843  24.961  1.00  0.00     0.275 C 
BRANCH   2   3
ATOM      3  O   UNL A   1      39.391  19.153  25.775  1.00  0.00    -0.458 OA
BRANCH   3   4
ATOM      4  C   UNL A   1      40.708  19.431  25.927  1.00  0.00     0.338 C 
ATOM      5  O   UNL A   1      41.535  18.534  25.783  1.00  0.00    -0.246 OA
BRANCH   4   6
ATOM      6  C   UNL A   1      41.190  20.738  26.467  1.00  0.00     0.060 A 
ATOM      7  C   UNL A   1      41.089  21.162  27.795  1.00  0.00     0.016 A 
ATOM      8  C   UNL A   1      41.769  21.617  25.535  1.00  0.00     0.016 A 
ATOM      9  C   UNL A   1      41.622  22.388  28.200  1.00  0.00     0.010 A 
ATOM     10  C   UNL A   1      42.310  22.842  25.933  1.00  0.00     0.010 A 
ATOM     11  C   UNL A   1      42.232  23.236  27.273  1.00  0.00    -0.014 A 
BRANCH  11  12
ATOM     12  C   UNL A   1      42.600  24.613  27.669  1.00  0.00     0.031 A 
ATOM     13  C   UNL A   1      44.059  24.939  27.794  1.00  0.00     0.074 A 
ATOM     14  C   UNL A   1      41.664  25.559  27.864  1.00  0.00     0.049 A 
ATOM     15  N   UNL A   1      44.629  26.058  28.152  1.00  0.00    -0.248 NA
ATOM     16  C   UNL A   1      45.002  23.862  27.447  1.00  0.00     0.031 C 
ATOM     17  C   UNL A   1      40.224  25.379  27.691  1.00  0.00     0.029 A 
ATOM     18  N   UNL A   1      41.788  26.861  28.276  1.00  0.00    -0.354 N 
ATOM     19  C   UNL A   1      45.993  25.834  28.029  1.00  0.00     0.074 A 
ATOM     20  C   UNL A   1      46.170  24.451  27.648  1.00  0.00     0.031 C 
ATOM     21  C   UNL A   1      39.591  26.505  28.060  1.00  0.00     0.029 A 
ATOM     22  C   UNL A   1      40.581  27.481  28.500  1.00  0.00     0.049 A 
ATOM     23  H   UNL A   1      42.656  27.309  28.400  1.00  0.00     0.167 HD
ATOM     24  C   UNL A   1      47.007  26.718  28.176  1.00  0.00     0.037 A 
ATOM     25  C   UNL A   1      40.318  28.683  29.044  1.00  0.00     0.037 A 
ATOM     26  C   UNL A   1      46.819  28.082  28.586  1.00  0.00     0.049 A 
ATOM     27  C   UNL A   1      41.462  29.564  29.443  1.00  0.00     0.074 A 
ATOM     28  C   UNL A   1      47.763  29.077  28.746  1.00  0.00     0.029 A 
ATOM     29  N   UNL A   1      45.590  28.630  28.926  1.00  0.00    -0.354 N 
ATOM     30  N   UNL A   1      42.748  29.352  29.310  1.00  0.00    -0.248 NA
ATOM     31  C   UNL A   1      41.120  30.853  30.058  1.00  0.00     0.031 C 
ATOM     32  C   UNL A   1      47.110  30.217  29.231  1.00  0.00     0.029 A 
ATOM     33  C   UNL A   1      45.754  29.943  29.330  1.00  0.00     0.049 A 
ATOM     34  H   UNL A   1      44.728  28.155  28.885  1.00  0.00     0.167 HD
ATOM     35  C   UNL A   1      43.371  30.501  29.771  1.00  0.00     0.074 A 
ATOM     36  C   UNL A   1      42.320  31.391  30.228  1.00  0.00     0.031 C 
ATOM     37  C   UNL A   1      44.692  30.808  29.778  1.00  0.00     0.037 A 
BRANCH  24  38
ATOM     38  C   UNL A   1      48.388  26.209  27.894  1.00  0.00     0.057 A 
ATOM     39  C   UNL A   1      49.179  25.636  28.902  1.00  0.00     0.134 A 
ATOM     40  C   UNL A   1      48.954  26.334  26.621  1.00  0.00     0.134 A 
ATOM     41  F   UNL A   1      48.704  25.509  30.150  1.00  0.00    -0.206 F 
ATOM     42  C   UNL A   1      50.496  25.243  28.661  1.00  0.00     0.040 A 
ATOM     43  C   UNL A   1      50.262  25.922  26.361  1.00  0.00     0.040 A 
ATOM     44  F   UNL A   1      48.253  26.876  25.614  1.00  0.00    -0.206 F 
ATOM     45  C   UNL A   1      51.041  25.385  27.387  1.00  0.00     0.006 A 
ENDBRANCH  24  38
BRANCH  25  46
ATOM     46  C   UNL A   1      38.921  29.079  29.343  1.00  0.00     0.057 A 
ATOM     47  C   UNL A   1      38.076  29.664  28.402  1.00  0.00     0.134 A 
ATOM     48  C   UNL A   1      38.413  28.886  30.631  1.00  0.00     0.134 A 
ATOM     49  F   UNL A   1      38.519  29.926  27.165  1.00  0.00    -0.206 F 
ATOM     50  C   UNL A   1      36.763  30.021  28.729  1.00  0.00     0.040 A 
ATOM     51  C   UNL A   1      37.100  29.210  30.968  1.00  0.00     0.040 A 
ATOM     52  F   UNL A   1      39.215  28.414  31.590  1.00  0.00    -0.206 F 
ATOM     53  C   UNL A   1      36.269  29.781  30.011  1.00  0.00     0.006 A 
ENDBRANCH  25  46
BRANCH  37  54
ATOM     54  C   UNL A   1      45.063  32.190  30.215  1.00  0.00     0.057 A 
ATOM     55  C   UNL A   1      45.421  32.483  31.534  1.00  0.00     0.134 A 
ATOM     56  C   UNL A   1      45.101  33.232  29.279  1.00  0.00     0.134 A 
ATOM     57  F   UNL A   1      45.382  31.529  32.477  1.00  0.00    -0.206 F 
ATOM     58  C   UNL A   1      45.796  33.772  31.913  1.00  0.00     0.040 A 
ATOM     59  C   UNL A   1      45.495  34.518  29.640  1.00  0.00     0.040 A 
ATOM     60  F   UNL A   1      44.768  33.009  27.999  1.00  0.00    -0.206 F 
ATOM     61  C   UNL A   1      45.841  34.791  30.962  1.00  0.00     0.006 A 
ENDBRANCH  37  54
ENDBRANCH  11  12
ENDBRANCH   4   6
ENDBRANCH   3   4
ENDBRANCH   2   3
ENDBRANCH   1   2
BRANCH   1  62
ATOM     62  O   UNL A   1      37.307  21.999  24.464  1.00  0.00    -0.458 OA
BRANCH  62  63
ATOM     63  C   UNL A   1      36.422  22.834  25.068  1.00  0.00     0.338 C 
ATOM     64  O   UNL A   1      36.655  23.614  25.975  1.00  0.00    -0.246 OA
BRANCH  63  65
ATOM     65  C   UNL A   1      35.127  22.790  24.363  1.00  0.00     0.062 A 
ATOM     66  C   UNL A   1      34.669  23.979  23.790  1.00  0.00     0.016 A 
ATOM     67  C   UNL A   1      34.364  21.620  24.280  1.00  0.00     0.041 A 
ATOM     68  C   UNL A   1      33.472  23.985  23.083  1.00  0.00     0.003 A 
ATOM     69  C   UNL A   1      33.118  21.636  23.628  1.00  0.00     0.039 A 
ATOM     70  C   UNL A   1      32.709  22.819  22.998  1.00  0.00     0.026 A 
BRANCH  69  71
ATOM     71  N   UNL A   1      32.324  20.476  23.623  1.00  0.00    -0.355 N 
ATOM     72  H   UNL A   1      31.391  20.607  23.335  1.00  0.00     0.167 HD
BRANCH  71  73
ATOM     73  C   UNL A   1      32.662  19.156  23.967  1.00  0.00     0.039 A 
ATOM     74  C   UNL A   1      32.577  18.761  25.310  1.00  0.00     0.033 A 
ATOM     75  C   UNL A   1      33.057  18.215  23.007  1.00  0.00     0.033 A 
ATOM     76  C   UNL A   1      32.893  17.456  25.695  1.00  0.00     0.088 A 
ATOM     77  C   UNL A   1      33.394  16.908  23.378  1.00  0.00     0.088 A 
ATOM     78  C   UNL A   1      33.319  16.537  24.727  1.00  0.00     0.269 A 
BRANCH  78  79
ATOM     79  N   UNL A   1      33.749  15.199  25.144  1.00  0.00     0.062 N 
ATOM     80  O   UNL A   1      34.969  15.001  25.266  1.00  0.00    -0.258 OA
ATOM     81  O   UNL A   1      32.876  14.345  25.348  1.00  0.00    -0.258 OA
ENDBRANCH  78  79
ENDBRANCH  71  73
ENDBRANCH  69  71
ENDBRANCH  63  65
ENDBRANCH  62  63
ENDBRANCH   1  62
TORSDOF 14
ENDMDL
