MODEL 1
REMARK VINA RESULT:     -11.0      0.000      0.000
REMARK SMILES CCCC[C@@H](Sc1nc(OCCC2CCCCC2)cc(OCCC2CCCCC2)n1)C(=O)OCCOC(=O)c1ccc(-c2c3nc(c(-c4c(F)cccc4F)c4ccc([nH]4)c(-c4c(F)cccc4F)c4nc(c(-c5c(F)cccc5F)c5ccc2[nH]5)C=C4)C=C3)cc1
REMARK SMILES IDX 31 1 32 2 5 3 4 4 3 5 2 6 1 7 6 8 7 9 8 10 30 11 9 12 20 13
REMARK SMILES IDX 19 14 10 15 11 16 12 17 13 18 14 19 18 20 15 21 17 22 16 23
REMARK SMILES IDX 21 24 22 25 23 26 24 27 25 28 29 29 26 30 28 31 27 32 33 33
REMARK SMILES IDX 34 34 35 35 36 36 37 37 38 38 39 39 40 40 92 41 41 42 91 43
REMARK SMILES IDX 42 44 43 45 44 46 85 47 45 48 90 49 84 50 86 51 46 52 89 53
REMARK SMILES IDX 83 54 82 55 47 57 73 58 56 59 72 60 57 61 60 62 71 63 87 64
REMARK SMILES IDX 58 65 59 66 70 68 88 69 61 70 48 71 49 72 54 73 50 74 51 75
REMARK SMILES IDX 53 76 55 77 52 78 74 79 75 80 80 81 76 82 77 83 79 84 81 85
REMARK SMILES IDX 78 86 62 87 63 88 68 89 64 90 65 91 67 92 69 93 66 94
REMARK H PARENT 86 56 60 67
REMARK Flexibility Score: inf
ROOT
ATOM      1  C   UNL A   1      37.613  21.097  25.171  1.00  0.00     0.319 C 
ATOM      2  O   UNL A   1      37.830  19.940  24.823  1.00  0.00    -0.251 OA
ENDROOT
BRANCH   1   3
ATOM      3  C   UNL A   1      36.274  21.785  24.952  1.00  0.00     0.164 C 
BRANCH   3   4
ATOM      4  C   UNL A   1      35.706  22.431  26.237  1.00  0.00     0.027 C 
BRANCH   4   5
ATOM      5  C   UNL A   1      34.547  21.671  26.909  1.00  0.00     0.001 C 
BRANCH   5   6
ATOM      6  C   UNL A   1      33.198  22.387  26.880  1.00  0.00    -0.003 C 
ATOM      7  C   UNL A   1      33.315  23.876  26.597  1.00  0.00     0.004 C 
ENDBRANCH   5   6
ENDBRANCH   4   5
ENDBRANCH   3   4
BRANCH   3   8
ATOM      8  S   UNL A   1      36.515  22.953  23.562  1.00  0.00    -0.071 SA
BRANCH   8   9
ATOM      9  C   UNL A   1      34.822  23.378  23.327  1.00  0.00     0.195 A 
ATOM     10  N   UNL A   1      34.531  24.626  22.935  1.00  0.00    -0.187 NA
ATOM     11  N   UNL A   1      33.957  22.364  23.389  1.00  0.00    -0.187 NA
ATOM     12  C   UNL A   1      33.250  24.875  22.646  1.00  0.00     0.221 A 
ATOM     13  C   UNL A   1      32.694  22.632  23.052  1.00  0.00     0.221 A 
ATOM     14  C   UNL A   1      32.282  23.900  22.729  1.00  0.00     0.136 A 
BRANCH  12  15
ATOM     15  O   UNL A   1      33.049  26.111  22.086  1.00  0.00    -0.477 OA
BRANCH  15  16
ATOM     16  C   UNL A   1      33.555  27.261  22.756  1.00  0.00     0.231 C 
BRANCH  16  17
ATOM     17  C   UNL A   1      32.523  28.381  23.026  1.00  0.00     0.045 C 
BRANCH  17  18
ATOM     18  C   UNL A   1      31.927  28.461  24.444  1.00  0.00    -0.008 C 
ATOM     19  C   UNL A   1      32.083  27.147  25.233  1.00  0.00     0.004 C 
ATOM     20  C   UNL A   1      32.542  29.595  25.276  1.00  0.00     0.004 C 
ATOM     21  C   UNL A   1      31.401  27.251  26.603  1.00  0.00     0.000 C 
ATOM     22  C   UNL A   1      31.820  29.740  26.612  1.00  0.00     0.000 C 
ATOM     23  C   UNL A   1      31.887  28.450  27.412  1.00  0.00     0.000 C 
ENDBRANCH  17  18
ENDBRANCH  16  17
ENDBRANCH  15  16
ENDBRANCH  12  15
BRANCH  13  24
ATOM     24  O   UNL A   1      31.914  21.520  23.085  1.00  0.00    -0.477 OA
BRANCH  24  25
ATOM     25  C   UNL A   1      32.331  20.345  23.770  1.00  0.00     0.231 C 
BRANCH  25  26
ATOM     26  C   UNL A   1      32.433  19.176  22.779  1.00  0.00     0.045 C 
BRANCH  26  27
ATOM     27  C   UNL A   1      32.567  17.755  23.386  1.00  0.00    -0.008 C 
ATOM     28  C   UNL A   1      33.870  17.032  22.984  1.00  0.00     0.004 C 
ATOM     29  C   UNL A   1      32.202  17.759  24.880  1.00  0.00     0.004 C 
ATOM     30  C   UNL A   1      34.645  16.254  24.047  1.00  0.00     0.000 C 
ATOM     31  C   UNL A   1      32.729  16.548  25.630  1.00  0.00     0.000 C 
ATOM     32  C   UNL A   1      34.233  16.509  25.484  1.00  0.00     0.000 C 
ENDBRANCH  26  27
ENDBRANCH  25  26
ENDBRANCH  24  25
ENDBRANCH  13  24
ENDBRANCH   8   9
ENDBRANCH   3   8
ENDBRANCH   1   3
BRANCH   1  33
ATOM     33  O   UNL A   1      38.529  21.908  25.766  1.00  0.00    -0.461 OA
BRANCH  33  34
ATOM     34  C   UNL A   1      39.763  21.274  26.149  1.00  0.00     0.274 C 
BRANCH  34  35
ATOM     35  C   UNL A   1      40.812  22.310  26.553  1.00  0.00     0.275 C 
BRANCH  35  36
ATOM     36  O   UNL A   1      40.256  23.641  26.545  1.00  0.00    -0.458 OA
BRANCH  36  37
ATOM     37  C   UNL A   1      41.157  24.645  26.520  1.00  0.00     0.338 C 
ATOM     38  O   UNL A   1      42.168  24.722  25.832  1.00  0.00    -0.246 OA
BRANCH  37  39
ATOM     39  C   UNL A   1      40.732  25.746  27.394  1.00  0.00     0.060 A 
ATOM     40  C   UNL A   1      41.486  26.916  27.393  1.00  0.00     0.016 A 
ATOM     41  C   UNL A   1      39.735  25.558  28.350  1.00  0.00     0.016 A 
ATOM     42  C   UNL A   1      41.318  27.865  28.398  1.00  0.00     0.010 A 
ATOM     43  C   UNL A   1      39.515  26.549  29.318  1.00  0.00     0.010 A 
ATOM     44  C   UNL A   1      40.334  27.691  29.380  1.00  0.00    -0.014 A 
BRANCH  44  45
ATOM     45  C   UNL A   1      40.212  28.680  30.487  1.00  0.00     0.031 A 
ATOM     46  C   UNL A   1      39.164  29.763  30.436  1.00  0.00     0.074 A 
ATOM     47  C   UNL A   1      41.013  28.589  31.567  1.00  0.00     0.049 A 
ATOM     48  N   UNL A   1      38.963  30.760  31.261  1.00  0.00    -0.248 NA
ATOM     49  C   UNL A   1      38.223  29.721  29.307  1.00  0.00     0.031 C 
ATOM     50  C   UNL A   1      42.042  27.568  31.773  1.00  0.00     0.029 A 
ATOM     51  N   UNL A   1      41.080  29.362  32.700  1.00  0.00    -0.354 N 
ATOM     52  C   UNL A   1      37.902  31.487  30.730  1.00  0.00     0.074 A 
ATOM     53  C   UNL A   1      37.509  30.821  29.506  1.00  0.00     0.031 C 
ATOM     54  C   UNL A   1      42.617  27.761  32.970  1.00  0.00     0.029 A 
ATOM     55  C   UNL A   1      42.044  28.952  33.588  1.00  0.00     0.049 A 
ATOM     56  H   UNL A   1      40.493  30.135  32.860  1.00  0.00     0.167 HD
ATOM     57  C   UNL A   1      37.308  32.603  31.218  1.00  0.00     0.037 A 
ATOM     58  C   UNL A   1      42.442  29.484  34.759  1.00  0.00     0.037 A 
ATOM     59  C   UNL A   1      37.667  33.246  32.457  1.00  0.00     0.049 A 
ATOM     60  C   UNL A   1      41.780  30.731  35.268  1.00  0.00     0.074 A 
ATOM     61  C   UNL A   1      37.112  34.377  33.035  1.00  0.00     0.029 A 
ATOM     62  N   UNL A   1      38.662  32.807  33.316  1.00  0.00    -0.354 N 
ATOM     63  N   UNL A   1      40.802  31.424  34.739  1.00  0.00    -0.248 NA
ATOM     64  C   UNL A   1      42.283  31.272  36.539  1.00  0.00     0.031 C 
ATOM     65  C   UNL A   1      37.792  34.638  34.230  1.00  0.00     0.029 A 
ATOM     66  C   UNL A   1      38.742  33.647  34.415  1.00  0.00     0.049 A 
ATOM     67  H   UNL A   1      39.227  32.016  33.168  1.00  0.00     0.167 HD
ATOM     68  C   UNL A   1      40.560  32.471  35.618  1.00  0.00     0.074 A 
ATOM     69  C   UNL A   1      41.481  32.312  36.724  1.00  0.00     0.031 C 
ATOM     70  C   UNL A   1      39.657  33.477  35.514  1.00  0.00     0.037 A 
BRANCH  57  71
ATOM     71  C   UNL A   1      36.216  33.222  30.393  1.00  0.00     0.057 A 
ATOM     72  C   UNL A   1      34.863  33.078  30.723  1.00  0.00     0.134 A 
ATOM     73  C   UNL A   1      36.529  34.003  29.273  1.00  0.00     0.134 A 
ATOM     74  F   UNL A   1      34.495  32.332  31.776  1.00  0.00    -0.206 F 
ATOM     75  C   UNL A   1      33.859  33.670  29.955  1.00  0.00     0.040 A 
ATOM     76  C   UNL A   1      35.535  34.620  28.513  1.00  0.00     0.040 A 
ATOM     77  F   UNL A   1      37.807  34.188  28.907  1.00  0.00    -0.206 F 
ATOM     78  C   UNL A   1      34.195  34.450  28.850  1.00  0.00     0.006 A 
ENDBRANCH  57  71
BRANCH  58  79
ATOM     79  C   UNL A   1      43.538  28.842  35.525  1.00  0.00     0.057 A 
ATOM     80  C   UNL A   1      44.868  29.242  35.357  1.00  0.00     0.134 A 
ATOM     81  C   UNL A   1      43.281  27.817  36.443  1.00  0.00     0.134 A 
ATOM     82  F   UNL A   1      45.178  30.203  34.474  1.00  0.00    -0.206 F 
ATOM     83  C   UNL A   1      45.907  28.636  36.066  1.00  0.00     0.040 A 
ATOM     84  C   UNL A   1      44.305  27.220  37.177  1.00  0.00     0.040 A 
ATOM     85  F   UNL A   1      42.025  27.391  36.649  1.00  0.00    -0.206 F 
ATOM     86  C   UNL A   1      45.624  27.626  36.985  1.00  0.00     0.006 A 
ENDBRANCH  58  79
BRANCH  70  87
ATOM     87  C   UNL A   1      39.600  34.457  36.648  1.00  0.00     0.057 A 
ATOM     88  C   UNL A   1      40.278  35.681  36.600  1.00  0.00     0.134 A 
ATOM     89  C   UNL A   1      38.854  34.173  37.797  1.00  0.00     0.134 A 
ATOM     90  F   UNL A   1      41.022  36.005  35.533  1.00  0.00    -0.206 F 
ATOM     91  C   UNL A   1      40.239  36.577  37.671  1.00  0.00     0.040 A 
ATOM     92  C   UNL A   1      38.789  35.070  38.865  1.00  0.00     0.040 A 
ATOM     93  F   UNL A   1      38.177  33.019  37.903  1.00  0.00    -0.206 F 
ATOM     94  C   UNL A   1      39.490  36.273  38.806  1.00  0.00     0.006 A 
ENDBRANCH  70  87
ENDBRANCH  44  45
ENDBRANCH  37  39
ENDBRANCH  36  37
ENDBRANCH  35  36
ENDBRANCH  34  35
ENDBRANCH  33  34
ENDBRANCH   1  33
TORSDOF 24
ENDMDL
MODEL 2
REMARK VINA RESULT:     -10.7      3.889      7.369
REMARK SMILES CCCC[C@@H](Sc1nc(OCCC2CCCCC2)cc(OCCC2CCCCC2)n1)C(=O)OCCOC(=O)c1ccc(-c2c3nc(c(-c4c(F)cccc4F)c4ccc([nH]4)c(-c4c(F)cccc4F)c4nc(c(-c5c(F)cccc5F)c5ccc2[nH]5)C=C4)C=C3)cc1
REMARK SMILES IDX 31 1 32 2 5 3 4 4 3 5 2 6 1 7 6 8 7 9 8 10 30 11 9 12 20 13
REMARK SMILES IDX 19 14 10 15 11 16 12 17 13 18 14 19 18 20 15 21 17 22 16 23
REMARK SMILES IDX 21 24 22 25 23 26 24 27 25 28 29 29 26 30 28 31 27 32 33 33
REMARK SMILES IDX 34 34 35 35 36 36 37 37 38 38 39 39 40 40 92 41 41 42 91 43
REMARK SMILES IDX 42 44 43 45 44 46 85 47 45 48 90 49 84 50 86 51 46 52 89 53
REMARK SMILES IDX 83 54 82 55 47 57 73 58 56 59 72 60 57 61 60 62 71 63 87 64
REMARK SMILES IDX 58 65 59 66 70 68 88 69 61 70 48 71 49 72 54 73 50 74 51 75
REMARK SMILES IDX 53 76 55 77 52 78 74 79 75 80 80 81 76 82 77 83 79 84 81 85
REMARK SMILES IDX 78 86 62 87 63 88 68 89 64 90 65 91 67 92 69 93 66 94
REMARK H PARENT 86 56 60 67
REMARK Flexibility Score: inf
ROOT
ATOM      1  C   UNL A   1      36.443  22.669  25.328  1.00  0.00     0.319 C 
ATOM      2  O   UNL A   1      37.168  23.377  24.635  1.00  0.00    -0.251 OA
ENDROOT
BRANCH   1   3
ATOM      3  C   UNL A   1      35.018  23.056  25.690  1.00  0.00     0.164 C 
BRANCH   3   4
ATOM      4  C   UNL A   1      34.646  22.709  27.150  1.00  0.00     0.027 C 
BRANCH   4   5
ATOM      5  C   UNL A   1      33.210  22.194  27.366  1.00  0.00     0.001 C 
BRANCH   5   6
ATOM      6  C   UNL A   1      32.114  23.248  27.216  1.00  0.00    -0.003 C 
ATOM      7  C   UNL A   1      30.866  22.722  26.525  1.00  0.00     0.004 C 
ENDBRANCH   5   6
ENDBRANCH   4   5
ENDBRANCH   3   4
BRANCH   3   8
ATOM      8  S   UNL A   1      34.844  24.830  25.268  1.00  0.00    -0.071 SA
BRANCH   8   9
ATOM      9  C   UNL A   1      33.437  24.677  24.220  1.00  0.00     0.195 A 
ATOM     10  N   UNL A   1      33.117  23.457  23.764  1.00  0.00    -0.187 NA
ATOM     11  N   UNL A   1      32.684  25.771  24.096  1.00  0.00    -0.187 NA
ATOM     12  C   UNL A   1      31.974  23.361  23.076  1.00  0.00     0.221 A 
ATOM     13  C   UNL A   1      31.529  25.635  23.444  1.00  0.00     0.221 A 
ATOM     14  C   UNL A   1      31.160  24.449  22.861  1.00  0.00     0.136 A 
BRANCH  12  15
ATOM     15  O   UNL A   1      31.619  22.066  22.793  1.00  0.00    -0.477 OA
BRANCH  15  16
ATOM     16  C   UNL A   1      32.554  21.024  23.047  1.00  0.00     0.231 C 
BRANCH  16  17
ATOM     17  C   UNL A   1      32.182  20.063  24.200  1.00  0.00     0.045 C 
BRANCH  17  18
ATOM     18  C   UNL A   1      33.034  18.789  24.357  1.00  0.00    -0.008 C 
ATOM     19  C   UNL A   1      32.626  17.945  25.579  1.00  0.00     0.004 C 
ATOM     20  C   UNL A   1      32.981  17.891  23.114  1.00  0.00     0.004 C 
ATOM     21  C   UNL A   1      33.556  16.736  25.739  1.00  0.00     0.000 C 
ATOM     22  C   UNL A   1      33.955  16.725  23.247  1.00  0.00     0.000 C 
ATOM     23  C   UNL A   1      33.639  15.886  24.474  1.00  0.00     0.000 C 
ENDBRANCH  17  18
ENDBRANCH  16  17
ENDBRANCH  15  16
ENDBRANCH  12  15
BRANCH  13  24
ATOM     24  O   UNL A   1      30.812  26.789  23.434  1.00  0.00    -0.477 OA
BRANCH  24  25
ATOM     25  C   UNL A   1      30.644  27.565  24.615  1.00  0.00     0.231 C 
BRANCH  25  26
ATOM     26  C   UNL A   1      31.012  29.028  24.330  1.00  0.00     0.045 C 
BRANCH  26  27
ATOM     27  C   UNL A   1      30.043  29.828  23.420  1.00  0.00    -0.008 C 
ATOM     28  C   UNL A   1      28.851  28.994  22.904  1.00  0.00     0.004 C 
ATOM     29  C   UNL A   1      29.723  31.202  24.031  1.00  0.00     0.004 C 
ATOM     30  C   UNL A   1      27.455  29.618  22.900  1.00  0.00     0.000 C 
ATOM     31  C   UNL A   1      28.470  31.838  23.454  1.00  0.00     0.000 C 
ATOM     32  C   UNL A   1      27.305  30.904  23.689  1.00  0.00     0.000 C 
ENDBRANCH  26  27
ENDBRANCH  25  26
ENDBRANCH  24  25
ENDBRANCH  13  24
ENDBRANCH   8   9
ENDBRANCH   3   8
ENDBRANCH   1   3
BRANCH   1  33
ATOM     33  O   UNL A   1      36.818  21.478  25.869  1.00  0.00    -0.461 OA
BRANCH  33  34
ATOM     34  C   UNL A   1      36.979  20.395  24.937  1.00  0.00     0.274 C 
BRANCH  34  35
ATOM     35  C   UNL A   1      38.446  19.984  24.817  1.00  0.00     0.275 C 
BRANCH  35  36
ATOM     36  O   UNL A   1      39.127  20.117  26.082  1.00  0.00    -0.458 OA
BRANCH  36  37
ATOM     37  C   UNL A   1      40.452  19.866  26.056  1.00  0.00     0.338 C 
ATOM     38  O   UNL A   1      41.013  18.871  25.613  1.00  0.00    -0.246 OA
BRANCH  37  39
ATOM     39  C   UNL A   1      41.209  21.016  26.567  1.00  0.00     0.060 A 
ATOM     40  C   UNL A   1      41.290  21.190  27.946  1.00  0.00     0.016 A 
ATOM     41  C   UNL A   1      41.652  22.021  25.709  1.00  0.00     0.016 A 
ATOM     42  C   UNL A   1      41.727  22.400  28.480  1.00  0.00     0.010 A 
ATOM     43  C   UNL A   1      42.161  23.212  26.248  1.00  0.00     0.010 A 
ATOM     44  C   UNL A   1      42.162  23.431  27.637  1.00  0.00    -0.014 A 
BRANCH  44  45
ATOM     45  C   UNL A   1      42.560  24.742  28.220  1.00  0.00     0.031 A 
ATOM     46  C   UNL A   1      41.535  25.822  28.454  1.00  0.00     0.074 A 
ATOM     47  C   UNL A   1      43.839  24.959  28.586  1.00  0.00     0.049 A 
ATOM     48  N   UNL A   1      41.706  27.052  28.871  1.00  0.00    -0.248 NA
ATOM     49  C   UNL A   1      40.133  25.475  28.177  1.00  0.00     0.031 C 
ATOM     50  C   UNL A   1      44.931  23.992  28.460  1.00  0.00     0.029 A 
ATOM     51  N   UNL A   1      44.436  26.062  29.146  1.00  0.00    -0.354 N 
ATOM     52  C   UNL A   1      40.444  27.636  28.866  1.00  0.00     0.074 A 
ATOM     53  C   UNL A   1      39.517  26.629  28.395  1.00  0.00     0.031 C 
ATOM     54  C   UNL A   1      46.055  24.532  28.954  1.00  0.00     0.029 A 
ATOM     55  C   UNL A   1      45.781  25.903  29.373  1.00  0.00     0.049 A 
ATOM     56  H   UNL A   1      43.946  26.887  29.364  1.00  0.00     0.167 HD
ATOM     57  C   UNL A   1      40.089  28.894  29.225  1.00  0.00     0.037 A 
ATOM     58  C   UNL A   1      46.699  26.767  29.844  1.00  0.00     0.037 A 
ATOM     59  C   UNL A   1      40.999  29.888  29.734  1.00  0.00     0.049 A 
ATOM     60  C   UNL A   1      46.284  28.160  30.217  1.00  0.00     0.074 A 
ATOM     61  C   UNL A   1      40.725  31.188  30.131  1.00  0.00     0.029 A 
ATOM     62  N   UNL A   1      42.356  29.690  29.931  1.00  0.00    -0.354 N 
ATOM     63  N   UNL A   1      45.094  28.707  30.175  1.00  0.00    -0.248 NA
ATOM     64  C   UNL A   1      47.343  29.058  30.698  1.00  0.00     0.031 C 
ATOM     65  C   UNL A   1      41.924  31.784  30.541  1.00  0.00     0.029 A 
ATOM     66  C   UNL A   1      42.935  30.843  30.437  1.00  0.00     0.049 A 
ATOM     67  H   UNL A   1      42.838  28.853  29.739  1.00  0.00     0.167 HD
ATOM     68  C   UNL A   1      45.257  30.005  30.641  1.00  0.00     0.074 A 
ATOM     69  C   UNL A   1      46.657  30.158  30.976  1.00  0.00     0.031 C 
ATOM     70  C   UNL A   1      44.328  30.983  30.774  1.00  0.00     0.037 A 
BRANCH  57  71
ATOM     71  C   UNL A   1      38.647  29.281  29.053  1.00  0.00     0.057 A 
ATOM     72  C   UNL A   1      38.128  29.679  27.815  1.00  0.00     0.134 A 
ATOM     73  C   UNL A   1      37.761  29.218  30.136  1.00  0.00     0.134 A 
ATOM     74  F   UNL A   1      38.926  29.773  26.740  1.00  0.00    -0.206 F 
ATOM     75  C   UNL A   1      36.783  30.022  27.666  1.00  0.00     0.040 A 
ATOM     76  C   UNL A   1      36.410  29.534  29.993  1.00  0.00     0.040 A 
ATOM     77  F   UNL A   1      38.193  28.835  31.348  1.00  0.00    -0.206 F 
ATOM     78  C   UNL A   1      35.918  29.943  28.756  1.00  0.00     0.006 A 
ENDBRANCH  57  71
BRANCH  58  79
ATOM     79  C   UNL A   1      48.114  26.339  29.977  1.00  0.00     0.057 A 
ATOM     80  C   UNL A   1      48.989  26.388  28.887  1.00  0.00     0.134 A 
ATOM     81  C   UNL A   1      48.622  25.872  31.195  1.00  0.00     0.134 A 
ATOM     82  F   UNL A   1      48.553  26.804  27.689  1.00  0.00    -0.206 F 
ATOM     83  C   UNL A   1      50.318  25.977  29.000  1.00  0.00     0.040 A 
ATOM     84  C   UNL A   1      49.954  25.482  31.330  1.00  0.00     0.040 A 
ATOM     85  F   UNL A   1      47.831  25.802  32.277  1.00  0.00    -0.206 F 
ATOM     86  C   UNL A   1      50.805  25.528  30.227  1.00  0.00     0.006 A 
ENDBRANCH  58  79
BRANCH  70  87
ATOM     87  C   UNL A   1      44.796  32.290  31.342  1.00  0.00     0.057 A 
ATOM     88  C   UNL A   1      44.750  32.556  32.716  1.00  0.00     0.134 A 
ATOM     89  C   UNL A   1      45.302  33.290  30.504  1.00  0.00     0.134 A 
ATOM     90  F   UNL A   1      44.262  31.644  33.570  1.00  0.00    -0.206 F 
ATOM     91  C   UNL A   1      45.164  33.785  33.234  1.00  0.00     0.040 A 
ATOM     92  C   UNL A   1      45.740  34.514  31.011  1.00  0.00     0.040 A 
ATOM     93  F   UNL A   1      45.377  33.095  29.178  1.00  0.00    -0.206 F 
ATOM     94  C   UNL A   1      45.664  34.767  32.380  1.00  0.00     0.006 A 
ENDBRANCH  70  87
ENDBRANCH  44  45
ENDBRANCH  37  39
ENDBRANCH  36  37
ENDBRANCH  35  36
ENDBRANCH  34  35
ENDBRANCH  33  34
ENDBRANCH   1  33
TORSDOF 24
ENDMDL
MODEL 3
REMARK VINA RESULT:     -10.6      0.696      5.840
REMARK SMILES CCCC[C@@H](Sc1nc(OCCC2CCCCC2)cc(OCCC2CCCCC2)n1)C(=O)OCCOC(=O)c1ccc(-c2c3nc(c(-c4c(F)cccc4F)c4ccc([nH]4)c(-c4c(F)cccc4F)c4nc(c(-c5c(F)cccc5F)c5ccc2[nH]5)C=C4)C=C3)cc1
REMARK SMILES IDX 31 1 32 2 5 3 4 4 3 5 2 6 1 7 6 8 7 9 8 10 30 11 9 12 20 13
REMARK SMILES IDX 19 14 10 15 11 16 12 17 13 18 14 19 18 20 15 21 17 22 16 23
REMARK SMILES IDX 21 24 22 25 23 26 24 27 25 28 29 29 26 30 28 31 27 32 33 33
REMARK SMILES IDX 34 34 35 35 36 36 37 37 38 38 39 39 40 40 92 41 41 42 91 43
REMARK SMILES IDX 42 44 43 45 44 46 85 47 45 48 90 49 84 50 86 51 46 52 89 53
REMARK SMILES IDX 83 54 82 55 47 57 73 58 56 59 72 60 57 61 60 62 71 63 87 64
REMARK SMILES IDX 58 65 59 66 70 68 88 69 61 70 48 71 49 72 54 73 50 74 51 75
REMARK SMILES IDX 53 76 55 77 52 78 74 79 75 80 80 81 76 82 77 83 79 84 81 85
REMARK SMILES IDX 78 86 62 87 63 88 68 89 64 90 65 91 67 92 69 93 66 94
REMARK H PARENT 86 56 60 67
REMARK Flexibility Score: inf
ROOT
ATOM      1  C   UNL A   1      37.415  21.261  25.109  1.00  0.00     0.319 C 
ATOM      2  O   UNL A   1      37.530  20.122  24.665  1.00  0.00    -0.251 OA
ENDROOT
BRANCH   1   3
ATOM      3  C   UNL A   1      36.130  22.066  24.987  1.00  0.00     0.164 C 
BRANCH   3   4
ATOM      4  C   UNL A   1      35.803  22.882  26.260  1.00  0.00     0.027 C 
BRANCH   4   5
ATOM      5  C   UNL A   1      34.630  22.352  27.106  1.00  0.00     0.001 C 
BRANCH   5   6
ATOM      6  C   UNL A   1      33.248  22.849  26.684  1.00  0.00    -0.003 C 
ATOM      7  C   UNL A   1      33.194  24.350  26.457  1.00  0.00     0.004 C 
ENDBRANCH   5   6
ENDBRANCH   4   5
ENDBRANCH   3   4
BRANCH   3   8
ATOM      8  S   UNL A   1      36.295  23.073  23.466  1.00  0.00    -0.071 SA
BRANCH   8   9
ATOM      9  C   UNL A   1      34.591  23.476  23.276  1.00  0.00     0.195 A 
ATOM     10  N   UNL A   1      34.271  24.736  22.950  1.00  0.00    -0.187 NA
ATOM     11  N   UNL A   1      33.746  22.444  23.301  1.00  0.00    -0.187 NA
ATOM     12  C   UNL A   1      32.981  24.974  22.692  1.00  0.00     0.221 A 
ATOM     13  C   UNL A   1      32.474  22.703  22.994  1.00  0.00     0.221 A 
ATOM     14  C   UNL A   1      32.033  23.977  22.740  1.00  0.00     0.136 A 
BRANCH  12  15
ATOM     15  O   UNL A   1      32.749  26.232  22.196  1.00  0.00    -0.477 OA
BRANCH  15  16
ATOM     16  C   UNL A   1      33.823  27.166  22.159  1.00  0.00     0.231 C 
BRANCH  16  17
ATOM     17  C   UNL A   1      33.485  28.587  22.665  1.00  0.00     0.045 C 
BRANCH  17  18
ATOM     18  C   UNL A   1      33.254  28.759  24.178  1.00  0.00    -0.008 C 
ATOM     19  C   UNL A   1      31.773  28.617  24.576  1.00  0.00     0.004 C 
ATOM     20  C   UNL A   1      34.072  27.764  25.012  1.00  0.00     0.004 C 
ATOM     21  C   UNL A   1      31.585  28.879  26.076  1.00  0.00     0.000 C 
ATOM     22  C   UNL A   1      33.937  28.066  26.501  1.00  0.00     0.000 C 
ATOM     23  C   UNL A   1      32.484  28.001  26.942  1.00  0.00     0.000 C 
ENDBRANCH  17  18
ENDBRANCH  16  17
ENDBRANCH  15  16
ENDBRANCH  12  15
BRANCH  13  24
ATOM     24  O   UNL A   1      31.715  21.575  22.984  1.00  0.00    -0.477 OA
BRANCH  24  25
ATOM     25  C   UNL A   1      32.293  20.294  23.202  1.00  0.00     0.231 C 
BRANCH  25  26
ATOM     26  C   UNL A   1      32.186  19.925  24.689  1.00  0.00     0.045 C 
BRANCH  26  27
ATOM     27  C   UNL A   1      33.124  18.798  25.198  1.00  0.00    -0.008 C 
ATOM     28  C   UNL A   1      32.400  17.459  25.450  1.00  0.00     0.004 C 
ATOM     29  C   UNL A   1      34.420  18.749  24.373  1.00  0.00     0.004 C 
ATOM     30  C   UNL A   1      33.064  16.160  24.995  1.00  0.00     0.000 C 
ATOM     31  C   UNL A   1      35.164  17.430  24.502  1.00  0.00     0.000 C 
ATOM     32  C   UNL A   1      34.245  16.315  24.057  1.00  0.00     0.000 C 
ENDBRANCH  26  27
ENDBRANCH  25  26
ENDBRANCH  24  25
ENDBRANCH  13  24
ENDBRANCH   8   9
ENDBRANCH   3   8
ENDBRANCH   1   3
BRANCH   1  33
ATOM     33  O   UNL A   1      38.409  21.947  25.737  1.00  0.00    -0.461 OA
BRANCH  33  34
ATOM     34  C   UNL A   1      39.595  21.189  26.032  1.00  0.00     0.274 C 
BRANCH  34  35
ATOM     35  C   UNL A   1      40.488  21.930  27.028  1.00  0.00     0.275 C 
BRANCH  35  36
ATOM     36  O   UNL A   1      40.058  23.297  27.193  1.00  0.00    -0.458 OA
BRANCH  36  37
ATOM     37  C   UNL A   1      40.993  24.234  26.937  1.00  0.00     0.338 C 
ATOM     38  O   UNL A   1      41.921  24.162  26.141  1.00  0.00    -0.246 OA
BRANCH  37  39
ATOM     39  C   UNL A   1      40.719  25.462  27.695  1.00  0.00     0.060 A 
ATOM     40  C   UNL A   1      41.753  26.380  27.856  1.00  0.00     0.016 A 
ATOM     41  C   UNL A   1      39.532  25.613  28.410  1.00  0.00     0.016 A 
ATOM     42  C   UNL A   1      41.650  27.400  28.799  1.00  0.00     0.010 A 
ATOM     43  C   UNL A   1      39.400  26.684  29.306  1.00  0.00     0.010 A 
ATOM     44  C   UNL A   1      40.474  27.562  29.543  1.00  0.00    -0.014 A 
BRANCH  44  45
ATOM     45  C   UNL A   1      40.404  28.614  30.594  1.00  0.00     0.031 A 
ATOM     46  C   UNL A   1      41.383  28.619  31.741  1.00  0.00     0.074 A 
ATOM     47  C   UNL A   1      39.490  29.600  30.506  1.00  0.00     0.049 A 
ATOM     48  N   UNL A   1      41.425  29.401  32.791  1.00  0.00    -0.248 NA
ATOM     49  C   UNL A   1      42.451  27.609  31.704  1.00  0.00     0.031 C 
ATOM     50  C   UNL A   1      38.507  29.748  29.430  1.00  0.00     0.029 A 
ATOM     51  N   UNL A   1      39.243  30.670  31.330  1.00  0.00    -0.354 N 
ATOM     52  C   UNL A   1      42.494  28.952  33.559  1.00  0.00     0.074 A 
ATOM     53  C   UNL A   1      43.068  27.823  32.858  1.00  0.00     0.031 C 
ATOM     54  C   UNL A   1      37.785  30.858  29.646  1.00  0.00     0.029 A 
ATOM     55  C   UNL A   1      38.207  31.466  30.903  1.00  0.00     0.049 A 
ATOM     56  H   UNL A   1      39.758  30.849  32.149  1.00  0.00     0.167 HD
ATOM     57  C   UNL A   1      42.958  29.437  34.737  1.00  0.00     0.037 A 
ATOM     58  C   UNL A   1      37.644  32.549  31.468  1.00  0.00     0.037 A 
ATOM     59  C   UNL A   1      42.418  30.586  35.418  1.00  0.00     0.049 A 
ATOM     60  C   UNL A   1      38.163  33.056  32.781  1.00  0.00     0.074 A 
ATOM     61  C   UNL A   1      42.830  31.155  36.613  1.00  0.00     0.029 A 
ATOM     62  N   UNL A   1      41.357  31.351  34.958  1.00  0.00    -0.354 N 
ATOM     63  N   UNL A   1      39.153  32.601  33.510  1.00  0.00    -0.248 NA
ATOM     64  C   UNL A   1      37.483  34.227  33.353  1.00  0.00     0.031 C 
ATOM     65  C   UNL A   1      42.000  32.248  36.889  1.00  0.00     0.029 A 
ATOM     66  C   UNL A   1      41.098  32.382  35.847  1.00  0.00     0.049 A 
ATOM     67  H   UNL A   1      40.862  31.187  34.124  1.00  0.00     0.167 HD
ATOM     68  C   UNL A   1      39.226  33.438  34.615  1.00  0.00     0.074 A 
ATOM     69  C   UNL A   1      38.193  34.439  34.453  1.00  0.00     0.031 C 
ATOM     70  C   UNL A   1      40.072  33.378  35.673  1.00  0.00     0.037 A 
BRANCH  57  71
ATOM     71  C   UNL A   1      44.099  28.706  35.384  1.00  0.00     0.057 A 
ATOM     72  C   UNL A   1      45.435  29.013  35.098  1.00  0.00     0.134 A 
ATOM     73  C   UNL A   1      43.854  27.706  36.334  1.00  0.00     0.134 A 
ATOM     74  F   UNL A   1      45.738  29.952  34.188  1.00  0.00    -0.206 F 
ATOM     75  C   UNL A   1      46.487  28.335  35.717  1.00  0.00     0.040 A 
ATOM     76  C   UNL A   1      44.897  27.039  36.978  1.00  0.00     0.040 A 
ATOM     77  F   UNL A   1      42.597  27.370  36.660  1.00  0.00    -0.206 F 
ATOM     78  C   UNL A   1      46.219  27.349  36.666  1.00  0.00     0.006 A 
ENDBRANCH  57  71
BRANCH  58  79
ATOM     79  C   UNL A   1      36.506  33.223  30.794  1.00  0.00     0.057 A 
ATOM     80  C   UNL A   1      36.716  34.101  29.726  1.00  0.00     0.134 A 
ATOM     81  C   UNL A   1      35.185  33.004  31.203  1.00  0.00     0.134 A 
ATOM     82  F   UNL A   1      37.961  34.368  29.305  1.00  0.00    -0.206 F 
ATOM     83  C   UNL A   1      35.653  34.747  29.093  1.00  0.00     0.040 A 
ATOM     84  C   UNL A   1      34.111  33.623  30.564  1.00  0.00     0.040 A 
ATOM     85  F   UNL A   1      34.920  32.173  32.222  1.00  0.00    -0.206 F 
ATOM     86  C   UNL A   1      34.345  34.503  29.509  1.00  0.00     0.006 A 
ENDBRANCH  58  79
BRANCH  70  87
ATOM     87  C   UNL A   1      39.935  34.450  36.712  1.00  0.00     0.057 A 
ATOM     88  C   UNL A   1      40.576  35.689  36.583  1.00  0.00     0.134 A 
ATOM     89  C   UNL A   1      39.151  34.241  37.852  1.00  0.00     0.134 A 
ATOM     90  F   UNL A   1      41.353  35.946  35.521  1.00  0.00    -0.206 F 
ATOM     91  C   UNL A   1      40.463  36.673  37.568  1.00  0.00     0.040 A 
ATOM     92  C   UNL A   1      39.013  35.225  38.833  1.00  0.00     0.040 A 
ATOM     93  F   UNL A   1      38.507  33.078  38.033  1.00  0.00    -0.206 F 
ATOM     94  C   UNL A   1      39.676  36.442  38.695  1.00  0.00     0.006 A 
ENDBRANCH  70  87
ENDBRANCH  44  45
ENDBRANCH  37  39
ENDBRANCH  36  37
ENDBRANCH  35  36
ENDBRANCH  34  35
ENDBRANCH  33  34
ENDBRANCH   1  33
TORSDOF 24
ENDMDL
