MODEL 1
REMARK VINA RESULT:     -13.5      0.000      0.000
REMARK SMILES COc1ccc([C@@H](C(=O)OCCOC(=O)c2ccc(-c3c4nc(c(-c5c(F)cccc5F)c5ccc([nH]5)c(-c5c(F)cccc5F)c5nc(c(-c6c(F)cccc6F)c6ccc3[nH]6)C=C5)C=C4)cc2)[NH+]2CCC(C(N)=O)CC2)c(C)c1
REMARK SMILES IDX 11 1 10 2 8 3 9 4 7 5 6 6 3 7 4 8 81 9 5 10 79 11 80 12 2 13
REMARK SMILES IDX 1 14 70 15 71 16 78 17 72 19 77 20 73 21 74 22 75 23 76 24
REMARK SMILES IDX 12 27 13 28 14 29 15 30 16 31 17 32 69 33 18 34 68 35 19 36
REMARK SMILES IDX 20 37 21 38 62 39 22 40 67 41 61 42 63 43 23 44 66 45 60 46
REMARK SMILES IDX 59 47 24 49 50 50 33 51 49 52 34 53 37 54 48 55 64 56 35 57
REMARK SMILES IDX 36 58 47 60 65 61 38 62 25 63 26 64 31 65 27 66 28 67 30 68
REMARK SMILES IDX 32 69 29 70 51 71 52 72 57 73 53 74 54 75 56 76 58 77 55 78
REMARK SMILES IDX 39 79 40 80 45 81 41 82 42 83 44 84 46 85 43 86
REMARK H PARENT 70 18 75 25 75 26 63 48 37 59
REMARK Flexibility Score: inf
ROOT
ATOM      1  C   UNL A   1      37.710  21.781  25.021  1.00  0.00     0.274 C 
ENDROOT
BRANCH   1   2
ATOM      2  O   UNL A   1      37.092  23.049  24.946  1.00  0.00    -0.457 OA
BRANCH   2   3
ATOM      3  C   UNL A   1      36.213  23.130  23.904  1.00  0.00     0.370 C 
ATOM      4  O   UNL A   1      36.617  23.228  22.751  1.00  0.00    -0.245 OA
BRANCH   3   5
ATOM      5  C   UNL A   1      34.656  23.379  24.546  1.00  0.00     0.326 C 
BRANCH   5   6
ATOM      6  C   UNL A   1      33.959  21.580  24.357  1.00  0.00     0.024 A 
ATOM      7  C   UNL A   1      32.529  19.084  24.842  1.00  0.00     0.119 A 
ATOM      8  C   UNL A   1      33.440  19.573  25.763  1.00  0.00     0.047 A 
ATOM      9  C   UNL A   1      32.354  19.754  23.662  1.00  0.00     0.050 A 
ATOM     10  C   UNL A   1      34.190  20.758  25.511  1.00  0.00     0.014 A 
ATOM     11  C   UNL A   1      32.925  21.029  23.429  1.00  0.00    -0.038 A 
ATOM     12  C   UNL A   1      32.075  21.623  22.321  1.00  0.00     0.045 C 
BRANCH   7  13
ATOM     13  O   UNL A   1      31.822  17.928  24.998  1.00  0.00    -0.497 OA
ATOM     14  C   UNL A   1      32.636  16.825  25.402  1.00  0.00     0.278 C 
ENDBRANCH   7  13
ENDBRANCH   5   6
BRANCH   5  15
ATOM     15  N   UNL A   1      33.436  25.154  24.729  1.00  0.00    -0.319 N 
ATOM     16  C   UNL A   1      33.702  26.649  23.885  1.00  0.00     0.264 C 
ATOM     17  C   UNL A   1      31.683  25.234  24.368  1.00  0.00     0.264 C 
ATOM     18  H   UNL A   1      33.761  25.048  25.690  1.00  0.00     0.349 HD
ATOM     19  C   UNL A   1      32.715  27.815  23.732  1.00  0.00     0.075 C 
ATOM     20  C   UNL A   1      30.787  26.448  24.021  1.00  0.00     0.075 C 
ATOM     21  C   UNL A   1      31.436  27.404  23.057  1.00  0.00     0.089 C 
BRANCH  21  22
ATOM     22  C   UNL A   1      30.588  28.645  22.817  1.00  0.00     0.220 C 
ATOM     23  N   UNL A   1      30.852  29.704  23.634  1.00  0.00    -0.369 N 
ATOM     24  O   UNL A   1      29.677  28.705  22.001  1.00  0.00    -0.275 OA
ATOM     25  H   UNL A   1      31.586  29.651  24.288  1.00  0.00     0.159 HD
ATOM     26  H   UNL A   1      30.309  30.523  23.570  1.00  0.00     0.159 HD
ENDBRANCH  21  22
ENDBRANCH   5  15
ENDBRANCH   3   5
ENDBRANCH   2   3
ENDBRANCH   1   2
BRANCH   1  27
ATOM     27  C   UNL A   1      38.830  21.933  26.063  1.00  0.00     0.275 C 
BRANCH  27  28
ATOM     28  O   UNL A   1      39.681  20.749  26.122  1.00  0.00    -0.458 OA
BRANCH  28  29
ATOM     29  C   UNL A   1      40.820  20.513  26.880  1.00  0.00     0.338 C 
ATOM     30  O   UNL A   1      40.778  19.963  27.968  1.00  0.00    -0.246 OA
BRANCH  29  31
ATOM     31  C   UNL A   1      41.913  21.525  26.484  1.00  0.00     0.060 A 
ATOM     32  C   UNL A   1      42.928  22.247  25.042  1.00  0.00     0.016 A 
ATOM     33  C   UNL A   1      41.779  22.418  27.971  1.00  0.00     0.016 A 
ATOM     34  C   UNL A   1      43.369  24.087  25.208  1.00  0.00     0.010 A 
ATOM     35  C   UNL A   1      42.245  23.924  28.077  1.00  0.00     0.010 A 
ATOM     36  C   UNL A   1      43.031  24.872  26.842  1.00  0.00    -0.014 A 
BRANCH  36  37
ATOM     37  C   UNL A   1      42.947  26.252  27.512  1.00  0.00     0.031 A 
ATOM     38  C   UNL A   1      41.664  26.924  27.832  1.00  0.00     0.074 A 
ATOM     39  C   UNL A   1      44.054  26.751  28.201  1.00  0.00     0.049 A 
ATOM     40  N   UNL A   1      41.565  28.190  28.077  1.00  0.00    -0.248 NA
ATOM     41  C   UNL A   1      40.376  26.245  27.917  1.00  0.00     0.031 C 
ATOM     42  C   UNL A   1      44.109  27.569  29.436  1.00  0.00     0.029 A 
ATOM     43  N   UNL A   1      45.418  26.467  28.060  1.00  0.00    -0.354 N 
ATOM     44  C   UNL A   1      40.318  28.425  28.624  1.00  0.00     0.074 A 
ATOM     45  C   UNL A   1      39.567  27.225  28.352  1.00  0.00     0.031 C 
ATOM     46  C   UNL A   1      45.390  27.859  29.768  1.00  0.00     0.029 A 
ATOM     47  C   UNL A   1      46.262  27.328  28.744  1.00  0.00     0.049 A 
ATOM     48  H   UNL A   1      45.751  25.716  27.517  1.00  0.00     0.167 HD
ATOM     49  C   UNL A   1      40.107  29.532  29.399  1.00  0.00     0.037 A 
ATOM     50  C   UNL A   1      47.255  27.952  28.040  1.00  0.00     0.037 A 
ATOM     51  C   UNL A   1      41.382  30.189  29.673  1.00  0.00     0.049 A 
ATOM     52  C   UNL A   1      46.807  29.353  27.775  1.00  0.00     0.074 A 
ATOM     53  C   UNL A   1      42.227  30.145  30.770  1.00  0.00     0.029 A 
ATOM     54  N   UNL A   1      42.106  30.745  28.635  1.00  0.00    -0.354 N 
ATOM     55  N   UNL A   1      45.586  29.733  28.014  1.00  0.00    -0.248 NA
ATOM     56  C   UNL A   1      47.654  30.442  27.313  1.00  0.00     0.031 C 
ATOM     57  C   UNL A   1      43.485  30.664  30.367  1.00  0.00     0.029 A 
ATOM     58  C   UNL A   1      43.394  31.037  29.035  1.00  0.00     0.049 A 
ATOM     59  H   UNL A   1      41.751  30.912  27.732  1.00  0.00     0.167 HD
ATOM     60  C   UNL A   1      45.479  31.068  27.850  1.00  0.00     0.074 A 
ATOM     61  C   UNL A   1      46.793  31.474  27.391  1.00  0.00     0.031 C 
ATOM     62  C   UNL A   1      44.308  31.705  28.117  1.00  0.00     0.037 A 
BRANCH  49  63
ATOM     63  C   UNL A   1      38.836  29.938  30.128  1.00  0.00     0.057 A 
ATOM     64  C   UNL A   1      38.108  31.091  29.744  1.00  0.00     0.134 A 
ATOM     65  C   UNL A   1      38.222  29.193  31.150  1.00  0.00     0.134 A 
ATOM     66  F   UNL A   1      38.518  31.890  28.751  1.00  0.00    -0.206 F 
ATOM     67  C   UNL A   1      36.905  31.487  30.347  1.00  0.00     0.040 A 
ATOM     68  C   UNL A   1      37.026  29.593  31.779  1.00  0.00     0.040 A 
ATOM     69  F   UNL A   1      38.719  28.016  31.554  1.00  0.00    -0.206 F 
ATOM     70  C   UNL A   1      36.361  30.743  31.377  1.00  0.00     0.006 A 
ENDBRANCH  49  63
BRANCH  50  71
ATOM     71  C   UNL A   1      47.929  27.021  27.068  1.00  0.00     0.057 A 
ATOM     72  C   UNL A   1      47.601  27.265  25.714  1.00  0.00     0.134 A 
ATOM     73  C   UNL A   1      49.245  26.645  27.346  1.00  0.00     0.134 A 
ATOM     74  F   UNL A   1      46.335  27.539  25.369  1.00  0.00    -0.206 F 
ATOM     75  C   UNL A   1      48.583  27.464  24.745  1.00  0.00     0.040 A 
ATOM     76  C   UNL A   1      50.228  26.911  26.397  1.00  0.00     0.040 A 
ATOM     77  F   UNL A   1      49.641  26.381  28.600  1.00  0.00    -0.206 F 
ATOM     78  C   UNL A   1      49.906  27.372  25.118  1.00  0.00     0.006 A 
ENDBRANCH  50  71
BRANCH  62  79
ATOM     79  C   UNL A   1      43.957  33.054  27.585  1.00  0.00     0.057 A 
ATOM     80  C   UNL A   1      43.783  33.316  26.220  1.00  0.00     0.134 A 
ATOM     81  C   UNL A   1      43.613  34.107  28.458  1.00  0.00     0.134 A 
ATOM     82  F   UNL A   1      43.905  32.360  25.291  1.00  0.00    -0.206 F 
ATOM     83  C   UNL A   1      43.403  34.571  25.750  1.00  0.00     0.040 A 
ATOM     84  C   UNL A   1      43.142  35.333  28.001  1.00  0.00     0.040 A 
ATOM     85  F   UNL A   1      43.679  33.983  29.792  1.00  0.00    -0.206 F 
ATOM     86  C   UNL A   1      43.070  35.581  26.640  1.00  0.00     0.006 A 
ENDBRANCH  62  79
ENDBRANCH  36  37
ENDBRANCH  29  31
ENDBRANCH  28  29
ENDBRANCH  27  28
ENDBRANCH   1  27
TORSDOF 15
ENDMDL
MODEL 2
REMARK VINA RESULT:     -13.1      1.664      4.472
REMARK SMILES COc1ccc([C@@H](C(=O)OCCOC(=O)c2ccc(-c3c4nc(c(-c5c(F)cccc5F)c5ccc([nH]5)c(-c5c(F)cccc5F)c5nc(c(-c6c(F)cccc6F)c6ccc3[nH]6)C=C5)C=C4)cc2)[NH+]2CCC(C(N)=O)CC2)c(C)c1
REMARK SMILES IDX 11 1 10 2 8 3 9 4 7 5 6 6 3 7 4 8 81 9 5 10 79 11 80 12 2 13
REMARK SMILES IDX 1 14 70 15 71 16 78 17 72 19 77 20 73 21 74 22 75 23 76 24
REMARK SMILES IDX 12 27 13 28 14 29 15 30 16 31 17 32 69 33 18 34 68 35 19 36
REMARK SMILES IDX 20 37 21 38 62 39 22 40 67 41 61 42 63 43 23 44 66 45 60 46
REMARK SMILES IDX 59 47 24 49 50 50 33 51 49 52 34 53 37 54 48 55 64 56 35 57
REMARK SMILES IDX 36 58 47 60 65 61 38 62 25 63 26 64 31 65 27 66 28 67 30 68
REMARK SMILES IDX 32 69 29 70 51 71 52 72 57 73 53 74 54 75 56 76 58 77 55 78
REMARK SMILES IDX 39 79 40 80 45 81 41 82 42 83 44 84 46 85 43 86
REMARK H PARENT 70 18 75 25 75 26 63 48 37 59
REMARK Flexibility Score: inf
ROOT
ATOM      1  C   UNL A   1      37.707  21.081  25.290  1.00  0.00     0.274 C 
ENDROOT
BRANCH   1   2
ATOM      2  O   UNL A   1      37.071  22.241  24.795  1.00  0.00    -0.457 OA
BRANCH   2   3
ATOM      3  C   UNL A   1      35.880  22.479  25.416  1.00  0.00     0.370 C 
ATOM      4  O   UNL A   1      35.847  22.893  26.569  1.00  0.00    -0.245 OA
BRANCH   3   5
ATOM      5  C   UNL A   1      34.641  21.817  24.453  1.00  0.00     0.326 C 
BRANCH   5   6
ATOM      6  C   UNL A   1      33.421  23.323  24.451  1.00  0.00     0.024 A 
ATOM      7  C   UNL A   1      31.164  25.075  23.864  1.00  0.00     0.119 A 
ATOM      8  C   UNL A   1      32.003  24.633  22.855  1.00  0.00     0.047 A 
ATOM      9  C   UNL A   1      31.446  24.734  25.159  1.00  0.00     0.050 A 
ATOM     10  C   UNL A   1      33.143  23.827  23.136  1.00  0.00     0.014 A 
ATOM     11  C   UNL A   1      32.450  23.790  25.486  1.00  0.00    -0.038 A 
ATOM     12  C   UNL A   1      32.070  23.307  26.874  1.00  0.00     0.045 C 
BRANCH   7  13
ATOM     13  O   UNL A   1      30.090  25.894  23.669  1.00  0.00    -0.497 OA
ATOM     14  C   UNL A   1      30.319  27.233  24.113  1.00  0.00     0.278 C 
ENDBRANCH   7  13
ENDBRANCH   5   6
BRANCH   5  15
ATOM     15  N   UNL A   1      34.069  19.774  24.038  1.00  0.00    -0.319 N 
ATOM     16  C   UNL A   1      34.951  18.363  24.534  1.00  0.00     0.264 C 
ATOM     17  C   UNL A   1      32.527  19.019  24.547  1.00  0.00     0.264 C 
ATOM     18  H   UNL A   1      34.180  20.135  23.091  1.00  0.00     0.349 HD
ATOM     19  C   UNL A   1      34.447  16.912  24.547  1.00  0.00     0.075 C 
ATOM     20  C   UNL A   1      32.154  17.528  24.730  1.00  0.00     0.075 C 
ATOM     21  C   UNL A   1      33.233  16.730  25.413  1.00  0.00     0.089 C 
BRANCH  21  22
ATOM     22  C   UNL A   1      32.896  15.247  25.483  1.00  0.00     0.220 C 
ATOM     23  N   UNL A   1      31.592  14.953  25.751  1.00  0.00    -0.369 N 
ATOM     24  O   UNL A   1      33.723  14.351  25.376  1.00  0.00    -0.275 OA
ATOM     25  H   UNL A   1      30.931  15.678  25.835  1.00  0.00     0.159 HD
ATOM     26  H   UNL A   1      31.311  14.016  25.861  1.00  0.00     0.159 HD
ENDBRANCH  21  22
ENDBRANCH   5  15
ENDBRANCH   3   5
ENDBRANCH   2   3
ENDBRANCH   1   2
BRANCH   1  27
ATOM     27  C   UNL A   1      39.052  21.561  25.858  1.00  0.00     0.275 C 
BRANCH  27  28
ATOM     28  O   UNL A   1      39.961  20.449  26.113  1.00  0.00    -0.458 OA
BRANCH  28  29
ATOM     29  C   UNL A   1      41.070  20.384  26.947  1.00  0.00     0.338 C 
ATOM     30  O   UNL A   1      41.006  19.954  28.086  1.00  0.00    -0.246 OA
BRANCH  29  31
ATOM     31  C   UNL A   1      42.110  21.427  26.492  1.00  0.00     0.060 A 
ATOM     32  C   UNL A   1      43.008  22.191  24.995  1.00  0.00     0.016 A 
ATOM     33  C   UNL A   1      42.056  22.299  27.997  1.00  0.00     0.016 A 
ATOM     34  C   UNL A   1      43.416  24.039  25.156  1.00  0.00     0.010 A 
ATOM     35  C   UNL A   1      42.493  23.814  28.093  1.00  0.00     0.010 A 
ATOM     36  C   UNL A   1      43.172  24.796  26.821  1.00  0.00    -0.014 A 
BRANCH  36  37
ATOM     37  C   UNL A   1      43.101  26.165  27.513  1.00  0.00     0.031 A 
ATOM     38  C   UNL A   1      41.825  26.827  27.879  1.00  0.00     0.074 A 
ATOM     39  C   UNL A   1      44.224  26.658  28.180  1.00  0.00     0.049 A 
ATOM     40  N   UNL A   1      41.729  28.089  28.146  1.00  0.00    -0.248 NA
ATOM     41  C   UNL A   1      40.542  26.142  27.988  1.00  0.00     0.031 C 
ATOM     42  C   UNL A   1      44.310  27.457  29.425  1.00  0.00     0.029 A 
ATOM     43  N   UNL A   1      45.586  26.381  27.997  1.00  0.00    -0.354 N 
ATOM     44  C   UNL A   1      40.496  28.310  28.730  1.00  0.00     0.074 A 
ATOM     45  C   UNL A   1      39.742  27.112  28.460  1.00  0.00     0.031 C 
ATOM     46  C   UNL A   1      45.600  27.747  29.727  1.00  0.00     0.029 A 
ATOM     47  C   UNL A   1      46.444  27.235  28.671  1.00  0.00     0.049 A 
ATOM     48  H   UNL A   1      45.906  25.640  27.434  1.00  0.00     0.167 HD
ATOM     49  C   UNL A   1      40.302  29.405  29.527  1.00  0.00     0.037 A 
ATOM     50  C   UNL A   1      47.416  27.874  27.950  1.00  0.00     0.037 A 
ATOM     51  C   UNL A   1      41.582  30.062  29.777  1.00  0.00     0.049 A 
ATOM     52  C   UNL A   1      46.956  29.276  27.719  1.00  0.00     0.074 A 
ATOM     53  C   UNL A   1      42.457  30.005  30.849  1.00  0.00     0.029 A 
ATOM     54  N   UNL A   1      42.276  30.638  28.728  1.00  0.00    -0.354 N 
ATOM     55  N   UNL A   1      45.740  29.648  27.997  1.00  0.00    -0.248 NA
ATOM     56  C   UNL A   1      47.786  30.376  27.251  1.00  0.00     0.031 C 
ATOM     57  C   UNL A   1      43.702  30.535  30.420  1.00  0.00     0.029 A 
ATOM     58  C   UNL A   1      43.573  30.928  29.097  1.00  0.00     0.049 A 
ATOM     59  H   UNL A   1      41.895  30.816  27.837  1.00  0.00     0.167 HD
ATOM     60  C   UNL A   1      45.624  30.985  27.856  1.00  0.00     0.074 A 
ATOM     61  C   UNL A   1      46.924  31.403  27.368  1.00  0.00     0.031 C 
ATOM     62  C   UNL A   1      44.459  31.614  28.165  1.00  0.00     0.037 A 
BRANCH  49  63
ATOM     63  C   UNL A   1      39.050  29.794  30.297  1.00  0.00     0.057 A 
ATOM     64  C   UNL A   1      38.511  28.947  31.296  1.00  0.00     0.134 A 
ATOM     65  C   UNL A   1      38.382  31.025  30.175  1.00  0.00     0.134 A 
ATOM     66  F   UNL A   1      39.053  27.757  31.584  1.00  0.00    -0.206 F 
ATOM     67  C   UNL A   1      37.389  29.275  32.072  1.00  0.00     0.040 A 
ATOM     68  C   UNL A   1      37.241  31.357  30.932  1.00  0.00     0.040 A 
ATOM     69  F   UNL A   1      38.830  31.987  29.358  1.00  0.00    -0.206 F 
ATOM     70  C   UNL A   1      36.740  30.481  31.887  1.00  0.00     0.006 A 
ENDBRANCH  49  63
BRANCH  50  71
ATOM     71  C   UNL A   1      48.067  26.961  26.946  1.00  0.00     0.057 A 
ATOM     72  C   UNL A   1      47.728  27.247  25.602  1.00  0.00     0.134 A 
ATOM     73  C   UNL A   1      49.380  26.557  27.200  1.00  0.00     0.134 A 
ATOM     74  F   UNL A   1      46.464  27.549  25.278  1.00  0.00    -0.206 F 
ATOM     75  C   UNL A   1      48.704  27.458  24.629  1.00  0.00     0.040 A 
ATOM     76  C   UNL A   1      50.357  26.835  26.249  1.00  0.00     0.040 A 
ATOM     77  F   UNL A   1      49.784  26.253  28.441  1.00  0.00    -0.206 F 
ATOM     78  C   UNL A   1      50.030  27.336  24.986  1.00  0.00     0.006 A 
ENDBRANCH  50  71
BRANCH  62  79
ATOM     79  C   UNL A   1      44.089  32.969  27.663  1.00  0.00     0.057 A 
ATOM     80  C   UNL A   1      44.111  34.115  28.468  1.00  0.00     0.134 A 
ATOM     81  C   UNL A   1      43.860  33.192  26.289  1.00  0.00     0.134 A 
ATOM     82  F   UNL A   1      44.484  34.074  29.753  1.00  0.00    -0.206 F 
ATOM     83  C   UNL A   1      43.813  35.379  27.965  1.00  0.00     0.040 A 
ATOM     84  C   UNL A   1      43.655  34.463  25.762  1.00  0.00     0.040 A 
ATOM     85  F   UNL A   1      43.862  32.196  25.391  1.00  0.00    -0.206 F 
ATOM     86  C   UNL A   1      43.595  35.559  26.606  1.00  0.00     0.006 A 
ENDBRANCH  62  79
ENDBRANCH  36  37
ENDBRANCH  29  31
ENDBRANCH  28  29
ENDBRANCH  27  28
ENDBRANCH   1  27
TORSDOF 15
ENDMDL
MODEL 3
REMARK VINA RESULT:     -13.0      6.627     10.818
REMARK SMILES COc1ccc([C@@H](C(=O)OCCOC(=O)c2ccc(-c3c4nc(c(-c5c(F)cccc5F)c5ccc([nH]5)c(-c5c(F)cccc5F)c5nc(c(-c6c(F)cccc6F)c6ccc3[nH]6)C=C5)C=C4)cc2)[NH+]2CCC(C(N)=O)CC2)c(C)c1
REMARK SMILES IDX 11 1 10 2 8 3 9 4 7 5 6 6 3 7 4 8 81 9 5 10 79 11 80 12 2 13
REMARK SMILES IDX 1 14 70 15 71 16 78 17 72 19 77 20 73 21 74 22 75 23 76 24
REMARK SMILES IDX 12 27 13 28 14 29 15 30 16 31 17 32 69 33 18 34 68 35 19 36
REMARK SMILES IDX 20 37 21 38 62 39 22 40 67 41 61 42 63 43 23 44 66 45 60 46
REMARK SMILES IDX 59 47 24 49 50 50 33 51 49 52 34 53 37 54 48 55 64 56 35 57
REMARK SMILES IDX 36 58 47 60 65 61 38 62 25 63 26 64 31 65 27 66 28 67 30 68
REMARK SMILES IDX 32 69 29 70 51 71 52 72 57 73 53 74 54 75 56 76 58 77 55 78
REMARK SMILES IDX 39 79 40 80 45 81 41 82 42 83 44 84 46 85 43 86
REMARK H PARENT 70 18 75 25 75 26 63 48 37 59
REMARK Flexibility Score: inf
ROOT
ATOM      1  C   UNL A   1      47.867  26.467  25.286  1.00  0.00     0.274 C 
ENDROOT
BRANCH   1   2
ATOM      2  O   UNL A   1      46.722  26.683  26.085  1.00  0.00    -0.457 OA
BRANCH   2   3
ATOM      3  C   UNL A   1      45.693  27.225  25.371  1.00  0.00     0.370 C 
ATOM      4  O   UNL A   1      45.630  28.435  25.185  1.00  0.00    -0.245 OA
BRANCH   3   5
ATOM      5  C   UNL A   1      44.515  26.018  25.142  1.00  0.00     0.326 C 
BRANCH   5   6
ATOM      6  C   UNL A   1      43.173  26.664  26.383  1.00  0.00     0.024 A 
ATOM      7  C   UNL A   1      41.074  26.770  28.406  1.00  0.00     0.119 A 
ATOM      8  C   UNL A   1      40.905  26.040  27.242  1.00  0.00     0.047 A 
ATOM      9  C   UNL A   1      42.218  27.502  28.569  1.00  0.00     0.050 A 
ATOM     10  C   UNL A   1      41.896  26.029  26.220  1.00  0.00     0.014 A 
ATOM     11  C   UNL A   1      43.317  27.389  27.682  1.00  0.00    -0.038 A 
ATOM     12  C   UNL A   1      44.501  27.891  28.487  1.00  0.00     0.045 C 
BRANCH   7  13
ATOM     13  O   UNL A   1      40.141  26.867  29.397  1.00  0.00    -0.497 OA
ATOM     14  C   UNL A   1      40.029  28.188  29.932  1.00  0.00     0.278 C 
ENDBRANCH   7  13
ENDBRANCH   5   6
BRANCH   5  15
ATOM     15  N   UNL A   1      44.654  23.979  24.439  1.00  0.00    -0.319 N 
ATOM     16  C   UNL A   1      46.093  23.007  24.451  1.00  0.00     0.264 C 
ATOM     17  C   UNL A   1      43.694  22.607  25.076  1.00  0.00     0.264 C 
ATOM     18  H   UNL A   1      44.369  24.455  23.583  1.00  0.00     0.349 HD
ATOM     19  C   UNL A   1      46.186  21.486  24.265  1.00  0.00     0.075 C 
ATOM     20  C   UNL A   1      43.963  21.084  25.020  1.00  0.00     0.075 C 
ATOM     21  C   UNL A   1      45.400  20.729  25.298  1.00  0.00     0.089 C 
BRANCH  21  22
ATOM     22  C   UNL A   1      45.669  19.241  25.127  1.00  0.00     0.220 C 
ATOM     23  N   UNL A   1      45.296  18.452  26.176  1.00  0.00    -0.369 N 
ATOM     24  O   UNL A   1      46.238  18.753  24.159  1.00  0.00    -0.275 OA
ATOM     25  H   UNL A   1      44.838  18.849  26.952  1.00  0.00     0.159 HD
ATOM     26  H   UNL A   1      45.485  17.486  26.157  1.00  0.00     0.159 HD
ENDBRANCH  21  22
ENDBRANCH   5  15
ENDBRANCH   3   5
ENDBRANCH   2   3
ENDBRANCH   1   2
BRANCH   1  27
ATOM     27  C   UNL A   1      48.711  25.436  26.052  1.00  0.00     0.275 C 
BRANCH  27  28
ATOM     28  O   UNL A   1      49.147  25.946  27.347  1.00  0.00    -0.458 OA
BRANCH  28  29
ATOM     29  C   UNL A   1      48.908  25.450  28.622  1.00  0.00     0.338 C 
ATOM     30  O   UNL A   1      49.729  24.782  29.227  1.00  0.00    -0.246 OA
BRANCH  29  31
ATOM     31  C   UNL A   1      47.387  25.328  28.843  1.00  0.00     0.060 A 
ATOM     32  C   UNL A   1      45.837  24.274  28.506  1.00  0.00     0.016 A 
ATOM     33  C   UNL A   1      47.373  26.483  30.144  1.00  0.00     0.016 A 
ATOM     34  C   UNL A   1      44.539  24.281  29.893  1.00  0.00     0.010 A 
ATOM     35  C   UNL A   1      46.219  26.502  31.222  1.00  0.00     0.010 A 
ATOM     36  C   UNL A   1      44.783  25.512  31.244  1.00  0.00    -0.014 A 
BRANCH  36  37
ATOM     37  C   UNL A   1      44.276  25.859  32.653  1.00  0.00     0.031 A 
ATOM     38  C   UNL A   1      43.676  27.169  33.002  1.00  0.00     0.074 A 
ATOM     39  C   UNL A   1      43.997  24.831  33.556  1.00  0.00     0.049 A 
ATOM     40  N   UNL A   1      43.556  27.596  34.217  1.00  0.00    -0.248 NA
ATOM     41  C   UNL A   1      43.147  28.119  32.030  1.00  0.00     0.031 C 
ATOM     42  C   UNL A   1      42.931  24.736  34.580  1.00  0.00     0.029 A 
ATOM     43  N   UNL A   1      44.495  23.523  33.629  1.00  0.00    -0.354 N 
ATOM     44  C   UNL A   1      42.702  28.682  34.207  1.00  0.00     0.074 A 
ATOM     45  C   UNL A   1      42.609  29.063  32.820  1.00  0.00     0.031 C 
ATOM     46  C   UNL A   1      43.018  23.570  35.264  1.00  0.00     0.029 A 
ATOM     47  C   UNL A   1      44.185  22.852  34.801  1.00  0.00     0.049 A 
ATOM     48  H   UNL A   1      45.023  23.114  32.905  1.00  0.00     0.167 HD
ATOM     49  C   UNL A   1      42.028  29.034  35.344  1.00  0.00     0.037 A 
ATOM     50  C   UNL A   1      45.211  22.306  35.522  1.00  0.00     0.037 A 
ATOM     51  C   UNL A   1      42.210  28.002  36.361  1.00  0.00     0.049 A 
ATOM     52  C   UNL A   1      45.490  23.219  36.671  1.00  0.00     0.074 A 
ATOM     53  C   UNL A   1      41.407  26.946  36.760  1.00  0.00     0.029 A 
ATOM     54  N   UNL A   1      43.469  27.763  36.881  1.00  0.00    -0.354 N 
ATOM     55  N   UNL A   1      44.952  24.402  36.746  1.00  0.00    -0.248 NA
ATOM     56  C   UNL A   1      46.296  22.894  37.837  1.00  0.00     0.031 C 
ATOM     57  C   UNL A   1      42.212  26.051  37.512  1.00  0.00     0.029 A 
ATOM     58  C   UNL A   1      43.494  26.574  37.581  1.00  0.00     0.049 A 
ATOM     59  H   UNL A   1      44.243  28.360  36.767  1.00  0.00     0.167 HD
ATOM     60  C   UNL A   1      45.227  24.957  37.944  1.00  0.00     0.074 A 
ATOM     61  C   UNL A   1      46.089  23.988  38.594  1.00  0.00     0.031 C 
ATOM     62  C   UNL A   1      44.706  26.167  38.281  1.00  0.00     0.037 A 
BRANCH  49  63
ATOM     63  C   UNL A   1      41.013  30.151  35.525  1.00  0.00     0.057 A 
ATOM     64  C   UNL A   1      41.266  31.237  36.398  1.00  0.00     0.134 A 
ATOM     65  C   UNL A   1      39.812  30.271  34.803  1.00  0.00     0.134 A 
ATOM     66  F   UNL A   1      42.387  31.314  37.126  1.00  0.00    -0.206 F 
ATOM     67  C   UNL A   1      40.390  32.319  36.569  1.00  0.00     0.040 A 
ATOM     68  C   UNL A   1      38.913  31.342  34.982  1.00  0.00     0.040 A 
ATOM     69  F   UNL A   1      39.475  29.390  33.853  1.00  0.00    -0.206 F 
ATOM     70  C   UNL A   1      39.201  32.373  35.867  1.00  0.00     0.006 A 
ENDBRANCH  49  63
BRANCH  50  71
ATOM     71  C   UNL A   1      46.226  21.631  34.638  1.00  0.00     0.057 A 
ATOM     72  C   UNL A   1      47.432  22.357  34.487  1.00  0.00     0.134 A 
ATOM     73  C   UNL A   1      46.326  20.240  34.720  1.00  0.00     0.134 A 
ATOM     74  F   UNL A   1      47.398  23.684  34.310  1.00  0.00    -0.206 F 
ATOM     75  C   UNL A   1      48.673  21.779  34.748  1.00  0.00     0.040 A 
ATOM     76  C   UNL A   1      47.557  19.680  35.048  1.00  0.00     0.040 A 
ATOM     77  F   UNL A   1      45.235  19.473  34.850  1.00  0.00    -0.206 F 
ATOM     78  C   UNL A   1      48.719  20.452  35.117  1.00  0.00     0.006 A 
ENDBRANCH  50  71
BRANCH  62  79
ATOM     79  C   UNL A   1      45.261  27.040  39.356  1.00  0.00     0.057 A 
ATOM     80  C   UNL A   1      44.917  26.904  40.706  1.00  0.00     0.134 A 
ATOM     81  C   UNL A   1      46.304  27.948  39.079  1.00  0.00     0.134 A 
ATOM     82  F   UNL A   1      44.069  25.959  41.132  1.00  0.00    -0.206 F 
ATOM     83  C   UNL A   1      45.489  27.695  41.700  1.00  0.00     0.040 A 
ATOM     84  C   UNL A   1      46.946  28.674  40.077  1.00  0.00     0.040 A 
ATOM     85  F   UNL A   1      46.775  28.145  37.839  1.00  0.00    -0.206 F 
ATOM     86  C   UNL A   1      46.515  28.576  41.389  1.00  0.00     0.006 A 
ENDBRANCH  62  79
ENDBRANCH  36  37
ENDBRANCH  29  31
ENDBRANCH  28  29
ENDBRANCH  27  28
ENDBRANCH   1  27
TORSDOF 15
ENDMDL
