MODEL 1
REMARK VINA RESULT:     -11.2      0.000      0.000
REMARK SMILES Cc1cc(C[N@H+]2CC[C@@H](C(=O)OCCOC(=O)c3ccc(-c4c5nc(c(-c6c(F)cccc6F)c6ccc([nH]6)c(-c6c(F)cccc6F)c6nc(c(-c7c(F)cccc7F)c7ccc4[nH]7)C=C6)C=C5)cc3)[C@@H]2C)ccc1Br
REMARK SMILES IDX 13 1 12 2 10 3 11 4 9 5 6 6 7 7 72 8 8 10 73 11 5 12 4 13
REMARK SMILES IDX 1 14 2 15 3 16 76 17 75 18 77 19 74 20 14 21 15 22 16 23
REMARK SMILES IDX 17 24 18 25 19 26 71 27 20 28 70 29 21 30 22 31 23 32 64 33
REMARK SMILES IDX 24 34 69 35 63 36 65 37 25 38 68 39 62 40 61 41 26 43 52 44
REMARK SMILES IDX 35 45 51 46 36 47 39 48 50 49 66 50 37 51 38 52 49 54 67 55
REMARK SMILES IDX 40 56 27 57 28 58 33 59 29 60 30 61 32 62 34 63 31 64 53 65
REMARK SMILES IDX 54 66 59 67 55 68 56 69 58 70 60 71 57 72 41 73 42 74 47 75
REMARK SMILES IDX 43 76 44 77 46 78 48 79 45 80
REMARK H PARENT 6 9 65 42 39 53
REMARK Flexibility Score: inf
ROOT
ATOM      1  C   UNL A   1      31.325  29.665  24.449  1.00  0.00     0.274 C 
ENDROOT
BRANCH   1   2
ATOM      2  O   UNL A   1      30.549  28.478  24.177  1.00  0.00    -0.462 OA
BRANCH   2   3
ATOM      3  C   UNL A   1      30.439  28.078  22.890  1.00  0.00     0.315 C 
ATOM      4  O   UNL A   1      30.116  28.812  21.961  1.00  0.00    -0.252 OA
BRANCH   3   5
ATOM      5  C   UNL A   1      30.717  26.601  22.677  1.00  0.00     0.162 C 
ATOM      6  N   UNL A   1      32.289  24.973  23.515  1.00  0.00    -0.328 N 
ATOM      7  C   UNL A   1      30.936  24.540  23.844  1.00  0.00     0.263 C 
ATOM      8  C   UNL A   1      32.188  26.150  22.628  1.00  0.00     0.195 C 
ATOM      9  H   UNL A   1      32.757  24.219  23.010  1.00  0.00     0.348 HD
ATOM     10  C   UNL A   1      30.076  25.783  23.784  1.00  0.00     0.083 C 
ATOM     11  C   UNL A   1      32.604  25.688  21.225  1.00  0.00     0.076 C 
BRANCH   6  12
ATOM     12  C   UNL A   1      33.207  25.119  24.653  1.00  0.00     0.299 C 
BRANCH  12  13
ATOM     13  C   UNL A   1      34.285  24.069  24.822  1.00  0.00     0.007 A 
ATOM     14  C   UNL A   1      37.845  23.824  26.160  1.00  0.00     0.045 C 
ATOM     15  C   UNL A   1      36.544  23.425  25.524  1.00  0.00    -0.036 A 
ATOM     16  C   UNL A   1      35.514  24.378  25.426  1.00  0.00     0.014 A 
ATOM     17  C   UNL A   1      36.331  22.149  24.984  1.00  0.00     0.020 A 
ATOM     18  C   UNL A   1      35.093  21.811  24.435  1.00  0.00     0.016 A 
ATOM     19  Br  UNL A   1      37.699  20.832  24.925  1.00  0.00    -0.051 Br
ATOM     20  C   UNL A   1      34.076  22.761  24.365  1.00  0.00     0.011 A 
ENDBRANCH  12  13
ENDBRANCH   6  12
ENDBRANCH   3   5
ENDBRANCH   2   3
ENDBRANCH   1   2
BRANCH   1  21
ATOM     21  C   UNL A   1      31.738  29.694  25.921  1.00  0.00     0.275 C 
BRANCH  21  22
ATOM     22  O   UNL A   1      33.072  30.213  26.042  1.00  0.00    -0.458 OA
BRANCH  22  23
ATOM     23  C   UNL A   1      33.211  31.252  26.894  1.00  0.00     0.338 C 
ATOM     24  O   UNL A   1      32.407  32.132  27.144  1.00  0.00    -0.246 OA
BRANCH  23  25
ATOM     25  C   UNL A   1      34.460  31.049  27.633  1.00  0.00     0.060 A 
ATOM     26  C   UNL A   1      35.307  32.144  27.837  1.00  0.00     0.016 A 
ATOM     27  C   UNL A   1      34.784  29.790  28.129  1.00  0.00     0.016 A 
ATOM     28  C   UNL A   1      36.489  31.993  28.546  1.00  0.00     0.010 A 
ATOM     29  C   UNL A   1      35.965  29.638  28.847  1.00  0.00     0.010 A 
ATOM     30  C   UNL A   1      36.820  30.738  29.053  1.00  0.00    -0.014 A 
BRANCH  30  31
ATOM     31  C   UNL A   1      38.099  30.524  29.751  1.00  0.00     0.031 A 
ATOM     32  C   UNL A   1      39.103  29.611  29.128  1.00  0.00     0.074 A 
ATOM     33  C   UNL A   1      38.306  31.084  30.954  1.00  0.00     0.049 A 
ATOM     34  N   UNL A   1      40.163  29.062  29.655  1.00  0.00    -0.248 NA
ATOM     35  C   UNL A   1      38.862  29.246  27.721  1.00  0.00     0.031 C 
ATOM     36  C   UNL A   1      37.410  32.036  31.611  1.00  0.00     0.029 A 
ATOM     37  N   UNL A   1      39.322  30.898  31.854  1.00  0.00    -0.354 N 
ATOM     38  C   UNL A   1      40.693  28.251  28.661  1.00  0.00     0.074 A 
ATOM     39  C   UNL A   1      39.832  28.372  27.504  1.00  0.00     0.031 C 
ATOM     40  C   UNL A   1      37.899  32.323  32.828  1.00  0.00     0.029 A 
ATOM     41  C   UNL A   1      39.103  31.530  33.053  1.00  0.00     0.049 A 
ATOM     42  H   UNL A   1      40.127  30.366  31.660  1.00  0.00     0.167 HD
ATOM     43  C   UNL A   1      41.796  27.471  28.725  1.00  0.00     0.037 A 
ATOM     44  C   UNL A   1      39.770  31.427  34.217  1.00  0.00     0.037 A 
ATOM     45  C   UNL A   1      42.630  27.379  29.893  1.00  0.00     0.049 A 
ATOM     46  C   UNL A   1      40.959  30.507  34.286  1.00  0.00     0.074 A 
ATOM     47  C   UNL A   1      43.784  26.641  30.073  1.00  0.00     0.029 A 
ATOM     48  N   UNL A   1      42.388  28.047  31.087  1.00  0.00    -0.354 N 
ATOM     49  N   UNL A   1      41.461  29.736  33.350  1.00  0.00    -0.248 NA
ATOM     50  C   UNL A   1      41.668  30.435  35.570  1.00  0.00     0.031 C 
ATOM     51  C   UNL A   1      44.209  26.817  31.394  1.00  0.00     0.029 A 
ATOM     52  C   UNL A   1      43.358  27.719  32.016  1.00  0.00     0.049 A 
ATOM     53  H   UNL A   1      41.637  28.663  31.247  1.00  0.00     0.167 HD
ATOM     54  C   UNL A   1      42.567  29.118  33.918  1.00  0.00     0.074 A 
ATOM     55  C   UNL A   1      42.659  29.601  35.282  1.00  0.00     0.031 C 
ATOM     56  C   UNL A   1      43.434  28.236  33.361  1.00  0.00     0.037 A 
BRANCH  43  57
ATOM     57  C   UNL A   1      42.119  26.630  27.527  1.00  0.00     0.057 A 
ATOM     58  C   UNL A   1      41.631  25.326  27.373  1.00  0.00     0.134 A 
ATOM     59  C   UNL A   1      42.937  27.134  26.507  1.00  0.00     0.134 A 
ATOM     60  F   UNL A   1      40.857  24.773  28.320  1.00  0.00    -0.206 F 
ATOM     61  C   UNL A   1      41.970  24.543  26.267  1.00  0.00     0.040 A 
ATOM     62  C   UNL A   1      43.257  26.374  25.382  1.00  0.00     0.040 A 
ATOM     63  F   UNL A   1      43.441  28.376  26.588  1.00  0.00    -0.206 F 
ATOM     64  C   UNL A   1      42.780  25.071  25.263  1.00  0.00     0.006 A 
ENDBRANCH  43  57
BRANCH  44  65
ATOM     65  C   UNL A   1      39.313  32.193  35.401  1.00  0.00     0.057 A 
ATOM     66  C   UNL A   1      39.728  33.512  35.613  1.00  0.00     0.134 A 
ATOM     67  C   UNL A   1      38.433  31.638  36.340  1.00  0.00     0.134 A 
ATOM     68  F   UNL A   1      40.582  34.094  34.759  1.00  0.00    -0.206 F 
ATOM     69  C   UNL A   1      39.295  34.248  36.718  1.00  0.00     0.040 A 
ATOM     70  C   UNL A   1      37.970  32.371  37.434  1.00  0.00     0.040 A 
ATOM     71  F   UNL A   1      37.989  30.381  36.193  1.00  0.00    -0.206 F 
ATOM     72  C   UNL A   1      38.407  33.679  37.629  1.00  0.00     0.006 A 
ENDBRANCH  44  65
BRANCH  56  73
ATOM     73  C   UNL A   1      44.596  27.787  34.196  1.00  0.00     0.057 A 
ATOM     74  C   UNL A   1      45.793  28.509  34.259  1.00  0.00     0.134 A 
ATOM     75  C   UNL A   1      44.476  26.656  35.016  1.00  0.00     0.134 A 
ATOM     76  F   UNL A   1      45.974  29.593  33.489  1.00  0.00    -0.206 F 
ATOM     77  C   UNL A   1      46.833  28.117  35.102  1.00  0.00     0.040 A 
ATOM     78  C   UNL A   1      45.497  26.272  35.883  1.00  0.00     0.040 A 
ATOM     79  F   UNL A   1      43.349  25.927  35.008  1.00  0.00    -0.206 F 
ATOM     80  C   UNL A   1      46.682  27.003  35.926  1.00  0.00     0.006 A 
ENDBRANCH  56  73
ENDBRANCH  30  31
ENDBRANCH  23  25
ENDBRANCH  22  23
ENDBRANCH  21  22
ENDBRANCH   1  21
TORSDOF 13
ENDMDL
MODEL 2
REMARK VINA RESULT:     -11.2      5.169      9.545
REMARK SMILES Cc1cc(C[N@H+]2CC[C@@H](C(=O)OCCOC(=O)c3ccc(-c4c5nc(c(-c6c(F)cccc6F)c6ccc([nH]6)c(-c6c(F)cccc6F)c6nc(c(-c7c(F)cccc7F)c7ccc4[nH]7)C=C6)C=C5)cc3)[C@@H]2C)ccc1Br
REMARK SMILES IDX 13 1 12 2 10 3 11 4 9 5 6 6 7 7 72 8 8 10 73 11 5 12 4 13
REMARK SMILES IDX 1 14 2 15 3 16 76 17 75 18 77 19 74 20 14 21 15 22 16 23
REMARK SMILES IDX 17 24 18 25 19 26 71 27 20 28 70 29 21 30 22 31 23 32 64 33
REMARK SMILES IDX 24 34 69 35 63 36 65 37 25 38 68 39 62 40 61 41 26 43 52 44
REMARK SMILES IDX 35 45 51 46 36 47 39 48 50 49 66 50 37 51 38 52 49 54 67 55
REMARK SMILES IDX 40 56 27 57 28 58 33 59 29 60 30 61 32 62 34 63 31 64 53 65
REMARK SMILES IDX 54 66 59 67 55 68 56 69 58 70 60 71 57 72 41 73 42 74 47 75
REMARK SMILES IDX 43 76 44 77 46 78 48 79 45 80
REMARK H PARENT 6 9 65 42 39 53
REMARK Flexibility Score: inf
ROOT
ATOM      1  C   UNL A   1      38.665  21.300  25.751  1.00  0.00     0.274 C 
ENDROOT
BRANCH   1   2
ATOM      2  O   UNL A   1      37.739  21.705  24.719  1.00  0.00    -0.462 OA
BRANCH   2   3
ATOM      3  C   UNL A   1      36.427  21.443  24.912  1.00  0.00     0.315 C 
ATOM      4  O   UNL A   1      35.948  20.315  24.981  1.00  0.00    -0.252 OA
BRANCH   3   5
ATOM      5  C   UNL A   1      35.557  22.683  25.005  1.00  0.00     0.162 C 
ATOM      6  N   UNL A   1      33.198  23.183  24.904  1.00  0.00    -0.328 N 
ATOM      7  C   UNL A   1      33.719  23.607  26.200  1.00  0.00     0.263 C 
ATOM      8  C   UNL A   1      34.343  22.777  24.064  1.00  0.00     0.195 C 
ATOM      9  H   UNL A   1      32.733  23.979  24.466  1.00  0.00     0.348 HD
ATOM     10  C   UNL A   1      34.996  22.824  26.409  1.00  0.00     0.083 C 
ATOM     11  C   UNL A   1      34.522  23.867  22.998  1.00  0.00     0.076 C 
BRANCH   6  12
ATOM     12  C   UNL A   1      32.080  22.232  24.947  1.00  0.00     0.299 C 
BRANCH  12  13
ATOM     13  C   UNL A   1      32.408  20.758  24.823  1.00  0.00     0.007 A 
ATOM     14  C   UNL A   1      32.528  18.080  22.114  1.00  0.00     0.045 C 
ATOM     15  C   UNL A   1      32.607  18.724  23.469  1.00  0.00    -0.036 A 
ATOM     16  C   UNL A   1      32.370  20.106  23.581  1.00  0.00     0.014 A 
ATOM     17  C   UNL A   1      32.864  17.992  24.637  1.00  0.00     0.020 A 
ATOM     18  C   UNL A   1      32.963  18.638  25.869  1.00  0.00     0.016 A 
ATOM     19  Br  UNL A   1      33.049  16.102  24.626  1.00  0.00    -0.051 Br
ATOM     20  C   UNL A   1      32.747  20.012  25.959  1.00  0.00     0.011 A 
ENDBRANCH  12  13
ENDBRANCH   6  12
ENDBRANCH   3   5
ENDBRANCH   2   3
ENDBRANCH   1   2
BRANCH   1  21
ATOM     21  C   UNL A   1      39.297  19.956  25.388  1.00  0.00     0.275 C 
BRANCH  21  22
ATOM     22  O   UNL A   1      40.225  19.562  26.411  1.00  0.00    -0.458 OA
BRANCH  22  23
ATOM     23  C   UNL A   1      41.529  19.615  26.060  1.00  0.00     0.338 C 
ATOM     24  O   UNL A   1      42.156  18.825  25.378  1.00  0.00    -0.246 OA
BRANCH  23  25
ATOM     25  C   UNL A   1      42.048  20.915  26.495  1.00  0.00     0.060 A 
ATOM     26  C   UNL A   1      42.369  21.871  25.525  1.00  0.00     0.016 A 
ATOM     27  C   UNL A   1      42.203  21.189  27.850  1.00  0.00     0.016 A 
ATOM     28  C   UNL A   1      42.845  23.117  25.899  1.00  0.00     0.010 A 
ATOM     29  C   UNL A   1      42.674  22.442  28.228  1.00  0.00     0.010 A 
ATOM     30  C   UNL A   1      42.999  23.405  27.254  1.00  0.00    -0.014 A 
BRANCH  30  31
ATOM     31  C   UNL A   1      43.569  24.692  27.688  1.00  0.00     0.031 A 
ATOM     32  C   UNL A   1      42.633  25.773  28.121  1.00  0.00     0.074 A 
ATOM     33  C   UNL A   1      44.894  24.895  27.614  1.00  0.00     0.049 A 
ATOM     34  N   UNL A   1      42.860  27.047  28.288  1.00  0.00    -0.248 NA
ATOM     35  C   UNL A   1      41.242  25.361  28.376  1.00  0.00     0.031 C 
ATOM     36  C   UNL A   1      45.888  23.880  27.261  1.00  0.00     0.029 A 
ATOM     37  N   UNL A   1      45.627  26.039  27.794  1.00  0.00    -0.354 N 
ATOM     38  C   UNL A   1      41.632  27.600  28.624  1.00  0.00     0.074 A 
ATOM     39  C   UNL A   1      40.663  26.525  28.627  1.00  0.00     0.031 C 
ATOM     40  C   UNL A   1      47.100  24.457  27.215  1.00  0.00     0.029 A 
ATOM     41  C   UNL A   1      46.953  25.886  27.474  1.00  0.00     0.049 A 
ATOM     42  H   UNL A   1      45.241  26.883  28.121  1.00  0.00     0.167 HD
ATOM     43  C   UNL A   1      41.350  28.895  28.894  1.00  0.00     0.037 A 
ATOM     44  C   UNL A   1      47.922  26.812  27.347  1.00  0.00     0.037 A 
ATOM     45  C   UNL A   1      42.342  29.937  28.885  1.00  0.00     0.049 A 
ATOM     46  C   UNL A   1      47.574  28.255  27.591  1.00  0.00     0.074 A 
ATOM     47  C   UNL A   1      42.184  31.282  29.161  1.00  0.00     0.029 A 
ATOM     48  N   UNL A   1      43.682  29.744  28.572  1.00  0.00    -0.354 N 
ATOM     49  N   UNL A   1      46.414  28.783  27.905  1.00  0.00    -0.248 NA
ATOM     50  C   UNL A   1      48.663  29.232  27.457  1.00  0.00     0.031 C 
ATOM     51  C   UNL A   1      43.416  31.912  28.961  1.00  0.00     0.029 A 
ATOM     52  C   UNL A   1      44.357  30.949  28.626  1.00  0.00     0.049 A 
ATOM     53  H   UNL A   1      44.090  28.877  28.346  1.00  0.00     0.167 HD
ATOM     54  C   UNL A   1      46.640  30.146  28.046  1.00  0.00     0.074 A 
ATOM     55  C   UNL A   1      48.049  30.363  27.777  1.00  0.00     0.031 C 
ATOM     56  C   UNL A   1      45.767  31.129  28.374  1.00  0.00     0.037 A 
BRANCH  43  57
ATOM     57  C   UNL A   1      39.919  29.250  29.164  1.00  0.00     0.057 A 
ATOM     58  C   UNL A   1      38.995  29.472  28.134  1.00  0.00     0.134 A 
ATOM     59  C   UNL A   1      39.456  29.374  30.480  1.00  0.00     0.134 A 
ATOM     60  F   UNL A   1      39.375  29.389  26.849  1.00  0.00    -0.206 F 
ATOM     61  C   UNL A   1      37.673  29.836  28.402  1.00  0.00     0.040 A 
ATOM     62  C   UNL A   1      38.130  29.705  30.762  1.00  0.00     0.040 A 
ATOM     63  F   UNL A   1      40.285  29.175  31.516  1.00  0.00    -0.206 F 
ATOM     64  C   UNL A   1      37.236  29.946  29.721  1.00  0.00     0.006 A 
ENDBRANCH  43  57
BRANCH  44  65
ATOM     65  C   UNL A   1      49.289  26.400  26.948  1.00  0.00     0.057 A 
ATOM     66  C   UNL A   1      50.228  25.994  27.903  1.00  0.00     0.134 A 
ATOM     67  C   UNL A   1      49.688  26.379  25.605  1.00  0.00     0.134 A 
ATOM     68  F   UNL A   1      49.913  26.008  29.206  1.00  0.00    -0.206 F 
ATOM     69  C   UNL A   1      51.515  25.593  27.539  1.00  0.00     0.040 A 
ATOM     70  C   UNL A   1      50.963  25.954  25.225  1.00  0.00     0.040 A 
ATOM     71  F   UNL A   1      48.834  26.748  24.639  1.00  0.00    -0.206 F 
ATOM     72  C   UNL A   1      51.883  25.565  26.196  1.00  0.00     0.006 A 
ENDBRANCH  44  65
BRANCH  56  73
ATOM     73  C   UNL A   1      46.313  32.517  28.530  1.00  0.00     0.057 A 
ATOM     74  C   UNL A   1      46.308  33.442  27.480  1.00  0.00     0.134 A 
ATOM     75  C   UNL A   1      46.772  32.955  29.780  1.00  0.00     0.134 A 
ATOM     76  F   UNL A   1      45.893  33.080  26.256  1.00  0.00    -0.206 F 
ATOM     77  C   UNL A   1      46.748  34.753  27.666  1.00  0.00     0.040 A 
ATOM     78  C   UNL A   1      47.187  34.270  29.984  1.00  0.00     0.040 A 
ATOM     79  F   UNL A   1      46.793  32.117  30.828  1.00  0.00    -0.206 F 
ATOM     80  C   UNL A   1      47.177  35.173  28.924  1.00  0.00     0.006 A 
ENDBRANCH  56  73
ENDBRANCH  30  31
ENDBRANCH  23  25
ENDBRANCH  22  23
ENDBRANCH  21  22
ENDBRANCH   1  21
TORSDOF 13
ENDMDL
MODEL 3
REMARK VINA RESULT:     -11.2      4.231      8.741
REMARK SMILES Cc1cc(C[N@H+]2CC[C@@H](C(=O)OCCOC(=O)c3ccc(-c4c5nc(c(-c6c(F)cccc6F)c6ccc([nH]6)c(-c6c(F)cccc6F)c6nc(c(-c7c(F)cccc7F)c7ccc4[nH]7)C=C6)C=C5)cc3)[C@@H]2C)ccc1Br
REMARK SMILES IDX 13 1 12 2 10 3 11 4 9 5 6 6 7 7 72 8 8 10 73 11 5 12 4 13
REMARK SMILES IDX 1 14 2 15 3 16 76 17 75 18 77 19 74 20 14 21 15 22 16 23
REMARK SMILES IDX 17 24 18 25 19 26 71 27 20 28 70 29 21 30 22 31 23 32 64 33
REMARK SMILES IDX 24 34 69 35 63 36 65 37 25 38 68 39 62 40 61 41 26 43 52 44
REMARK SMILES IDX 35 45 51 46 36 47 39 48 50 49 66 50 37 51 38 52 49 54 67 55
REMARK SMILES IDX 40 56 27 57 28 58 33 59 29 60 30 61 32 62 34 63 31 64 53 65
REMARK SMILES IDX 54 66 59 67 55 68 56 69 58 70 60 71 57 72 41 73 42 74 47 75
REMARK SMILES IDX 43 76 44 77 46 78 48 79 45 80
REMARK H PARENT 6 9 65 42 39 53
REMARK Flexibility Score: inf
ROOT
ATOM      1  C   UNL A   1      34.456  22.035  25.214  1.00  0.00     0.274 C 
ENDROOT
BRANCH   1   2
ATOM      2  O   UNL A   1      33.943  22.217  23.876  1.00  0.00    -0.462 OA
BRANCH   2   3
ATOM      3  C   UNL A   1      34.344  23.312  23.191  1.00  0.00     0.315 C 
ATOM      4  O   UNL A   1      35.477  23.477  22.751  1.00  0.00    -0.252 OA
BRANCH   3   5
ATOM      5  C   UNL A   1      33.267  24.369  23.033  1.00  0.00     0.162 C 
ATOM      6  N   UNL A   1      32.010  25.825  24.492  1.00  0.00    -0.328 N 
ATOM      7  C   UNL A   1      32.768  26.638  23.547  1.00  0.00     0.263 C 
ATOM      8  C   UNL A   1      32.145  24.411  24.087  1.00  0.00     0.195 C 
ATOM      9  H   UNL A   1      31.027  26.092  24.433  1.00  0.00     0.348 HD
ATOM     10  C   UNL A   1      33.888  25.754  23.045  1.00  0.00     0.083 C 
ATOM     11  C   UNL A   1      30.790  23.982  23.505  1.00  0.00     0.076 C 
BRANCH   6  12
ATOM     12  C   UNL A   1      32.260  26.099  25.913  1.00  0.00     0.299 C 
BRANCH  12  13
ATOM     13  C   UNL A   1      32.688  27.502  26.291  1.00  0.00     0.007 A 
ATOM     14  C   UNL A   1      35.867  29.335  27.319  1.00  0.00     0.045 C 
ATOM     15  C   UNL A   1      34.421  29.085  27.000  1.00  0.00    -0.036 A 
ATOM     16  C   UNL A   1      34.028  27.800  26.581  1.00  0.00     0.014 A 
ATOM     17  C   UNL A   1      33.437  30.073  27.145  1.00  0.00     0.020 A 
ATOM     18  C   UNL A   1      32.111  29.806  26.802  1.00  0.00     0.016 A 
ATOM     19  Br  UNL A   1      33.826  31.795  27.844  1.00  0.00    -0.051 Br
ATOM     20  C   UNL A   1      31.742  28.533  26.369  1.00  0.00     0.011 A 
ENDBRANCH  12  13
ENDBRANCH   6  12
ENDBRANCH   3   5
ENDBRANCH   2   3
ENDBRANCH   1   2
BRANCH   1  21
ATOM     21  C   UNL A   1      35.781  21.273  25.166  1.00  0.00     0.275 C 
BRANCH  21  22
ATOM     22  O   UNL A   1      36.724  21.880  26.064  1.00  0.00    -0.458 OA
BRANCH  22  23
ATOM     23  C   UNL A   1      38.013  21.524  25.873  1.00  0.00     0.338 C 
ATOM     24  O   UNL A   1      38.445  20.543  25.293  1.00  0.00    -0.246 OA
BRANCH  23  25
ATOM     25  C   UNL A   1      38.848  22.637  26.334  1.00  0.00     0.060 A 
ATOM     26  C   UNL A   1      39.982  22.354  27.103  1.00  0.00     0.016 A 
ATOM     27  C   UNL A   1      38.518  23.946  25.998  1.00  0.00     0.016 A 
ATOM     28  C   UNL A   1      40.804  23.379  27.542  1.00  0.00     0.010 A 
ATOM     29  C   UNL A   1      39.346  24.976  26.431  1.00  0.00     0.010 A 
ATOM     30  C   UNL A   1      40.488  24.694  27.206  1.00  0.00    -0.014 A 
BRANCH  30  31
ATOM     31  C   UNL A   1      41.298  25.815  27.713  1.00  0.00     0.031 A 
ATOM     32  C   UNL A   1      40.620  26.874  28.519  1.00  0.00     0.074 A 
ATOM     33  C   UNL A   1      42.597  25.903  27.382  1.00  0.00     0.049 A 
ATOM     34  N   UNL A   1      41.041  28.065  28.843  1.00  0.00    -0.248 NA
ATOM     35  C   UNL A   1      39.266  26.552  29.004  1.00  0.00     0.031 C 
ATOM     36  C   UNL A   1      43.356  24.888  26.651  1.00  0.00     0.029 A 
ATOM     37  N   UNL A   1      43.494  26.918  27.585  1.00  0.00    -0.354 N 
ATOM     38  C   UNL A   1      39.991  28.654  29.532  1.00  0.00     0.074 A 
ATOM     39  C   UNL A   1      38.909  27.694  29.569  1.00  0.00     0.031 C 
ATOM     40  C   UNL A   1      44.599  25.348  26.435  1.00  0.00     0.029 A 
ATOM     41  C   UNL A   1      44.697  26.708  26.957  1.00  0.00     0.049 A 
ATOM     42  H   UNL A   1      43.297  27.716  28.127  1.00  0.00     0.167 HD
ATOM     43  C   UNL A   1      39.942  29.893  30.072  1.00  0.00     0.037 A 
ATOM     44  C   UNL A   1      45.734  27.547  26.776  1.00  0.00     0.037 A 
ATOM     45  C   UNL A   1      41.040  30.821  30.018  1.00  0.00     0.049 A 
ATOM     46  C   UNL A   1      45.636  28.942  27.330  1.00  0.00     0.074 A 
ATOM     47  C   UNL A   1      41.120  32.096  30.545  1.00  0.00     0.029 A 
ATOM     48  N   UNL A   1      42.253  30.568  29.387  1.00  0.00    -0.354 N 
ATOM     49  N   UNL A   1      44.644  29.505  27.979  1.00  0.00    -0.248 NA
ATOM     50  C   UNL A   1      46.795  29.820  27.124  1.00  0.00     0.031 C 
ATOM     51  C   UNL A   1      42.359  32.636  30.186  1.00  0.00     0.029 A 
ATOM     52  C   UNL A   1      43.078  31.673  29.492  1.00  0.00     0.049 A 
ATOM     53  H   UNL A   1      42.488  29.727  28.934  1.00  0.00     0.167 HD
ATOM     54  C   UNL A   1      45.071  30.788  28.293  1.00  0.00     0.074 A 
ATOM     55  C   UNL A   1      46.413  30.920  27.758  1.00  0.00     0.031 C 
ATOM     56  C   UNL A   1      44.419  31.766  28.968  1.00  0.00     0.037 A 
BRANCH  43  57
ATOM     57  C   UNL A   1      38.654  30.321  30.708  1.00  0.00     0.057 A 
ATOM     58  C   UNL A   1      37.698  31.086  30.026  1.00  0.00     0.134 A 
ATOM     59  C   UNL A   1      38.365  29.963  32.031  1.00  0.00     0.134 A 
ATOM     60  F   UNL A   1      37.919  31.480  28.762  1.00  0.00    -0.206 F 
ATOM     61  C   UNL A   1      36.518  31.505  30.645  1.00  0.00     0.040 A 
ATOM     62  C   UNL A   1      37.176  30.348  32.652  1.00  0.00     0.040 A 
ATOM     63  F   UNL A   1      39.235  29.232  32.746  1.00  0.00    -0.206 F 
ATOM     64  C   UNL A   1      36.252  31.130  31.961  1.00  0.00     0.006 A 
ENDBRANCH  43  57
BRANCH  44  65
ATOM     65  C   UNL A   1      46.927  27.094  26.020  1.00  0.00     0.057 A 
ATOM     66  C   UNL A   1      47.995  26.465  26.667  1.00  0.00     0.134 A 
ATOM     67  C   UNL A   1      47.022  27.257  24.631  1.00  0.00     0.134 A 
ATOM     68  F   UNL A   1      47.972  26.294  27.996  1.00  0.00    -0.206 F 
ATOM     69  C   UNL A   1      49.119  26.024  25.965  1.00  0.00     0.040 A 
ATOM     70  C   UNL A   1      48.127  26.796  23.913  1.00  0.00     0.040 A 
ATOM     71  F   UNL A   1      46.029  27.845  23.948  1.00  0.00    -0.206 F 
ATOM     72  C   UNL A   1      49.183  26.183  24.582  1.00  0.00     0.006 A 
ENDBRANCH  44  65
BRANCH  56  73
ATOM     73  C   UNL A   1      45.164  33.041  29.230  1.00  0.00     0.057 A 
ATOM     74  C   UNL A   1      45.998  33.202  30.341  1.00  0.00     0.134 A 
ATOM     75  C   UNL A   1      45.105  34.091  28.303  1.00  0.00     0.134 A 
ATOM     76  F   UNL A   1      46.086  32.239  31.272  1.00  0.00    -0.206 F 
ATOM     77  C   UNL A   1      46.743  34.367  30.527  1.00  0.00     0.040 A 
ATOM     78  C   UNL A   1      45.868  35.247  28.462  1.00  0.00     0.040 A 
ATOM     79  F   UNL A   1      44.331  33.993  27.211  1.00  0.00    -0.206 F 
ATOM     80  C   UNL A   1      46.689  35.388  29.579  1.00  0.00     0.006 A 
ENDBRANCH  56  73
ENDBRANCH  30  31
ENDBRANCH  23  25
ENDBRANCH  22  23
ENDBRANCH  21  22
ENDBRANCH   1  21
TORSDOF 13
ENDMDL
