MODEL 1
REMARK VINA RESULT:     -11.4      0.000      0.000
REMARK SMILES Cc1cscc1-c1nc(C)c(C(=O)OCCOC(=O)c2ccc(-c3c4nc(c(-c5c(F)cccc5F)c5ccc([nH]5)c(-c5c(F)cccc5F)c5nc(c(-c6c(F)cccc6F)c6ccc3[nH]6)C=C5)C=C4)cc2)c(C)n1
REMARK SMILES IDX 16 1 15 2 14 3 12 4 13 5 11 6 7 7 8 8 76 9 9 10 74 11 10 12
REMARK SMILES IDX 75 13 6 14 1 15 2 16 3 17 4 18 5 19 17 20 18 21 19 22 20 23
REMARK SMILES IDX 21 24 73 25 22 26 72 27 23 28 24 29 25 30 66 31 26 32 71 33
REMARK SMILES IDX 65 34 67 35 27 36 70 37 64 38 63 39 28 41 54 42 37 43 53 44
REMARK SMILES IDX 38 45 41 46 52 47 68 48 39 49 40 50 51 52 69 53 42 54 29 55
REMARK SMILES IDX 30 56 35 57 31 58 32 59 34 60 36 61 33 62 55 63 56 64 61 65
REMARK SMILES IDX 57 66 58 67 60 68 62 69 59 70 43 71 44 72 49 73 45 74 46 75
REMARK SMILES IDX 48 76 50 77 47 78
REMARK H PARENT 67 40 41 51
REMARK Flexibility Score: inf
ROOT
ATOM      1  C   UNL A   1      43.681  21.756  25.279  1.00  0.00     0.275 C 
ENDROOT
BRANCH   1   2
ATOM      2  C   UNL A   1      42.525  21.049  25.984  1.00  0.00     0.275 C 
BRANCH   2   3
ATOM      3  O   UNL A   1      41.263  21.670  25.649  1.00  0.00    -0.458 OA
BRANCH   3   4
ATOM      4  C   UNL A   1      40.270  21.573  26.568  1.00  0.00     0.341 C 
ATOM      5  O   UNL A   1      40.405  21.235  27.729  1.00  0.00    -0.246 OA
BRANCH   4   6
ATOM      6  C   UNL A   1      38.959  21.941  25.986  1.00  0.00     0.102 A 
ATOM      7  C   UNL A   1      36.480  22.617  25.119  1.00  0.00     0.160 A 
ATOM      8  N   UNL A   1      36.857  21.340  24.955  1.00  0.00    -0.232 NA
ATOM      9  N   UNL A   1      37.224  23.570  25.678  1.00  0.00    -0.232 NA
ATOM     10  C   UNL A   1      38.113  21.017  25.373  1.00  0.00     0.056 A 
ATOM     11  C   UNL A   1      38.437  23.221  26.139  1.00  0.00     0.056 A 
ATOM     12  C   UNL A   1      38.500  19.581  25.162  1.00  0.00     0.068 C 
ATOM     13  C   UNL A   1      39.141  24.378  26.748  1.00  0.00     0.068 C 
BRANCH   7  14
ATOM     14  C   UNL A   1      35.095  22.999  24.936  1.00  0.00     0.033 A 
ATOM     15  C   UNL A   1      34.248  22.348  27.295  1.00  0.00     0.046 C 
ATOM     16  C   UNL A   1      34.063  22.948  25.940  1.00  0.00    -0.029 A 
ATOM     17  C   UNL A   1      32.920  23.587  25.504  1.00  0.00     0.069 A 
ATOM     18  S   UNL A   1      33.088  24.264  23.942  1.00  0.00    -0.151 S 
ATOM     19  C   UNL A   1      34.709  23.735  23.833  1.00  0.00     0.077 A 
ENDBRANCH   7  14
ENDBRANCH   4   6
ENDBRANCH   3   4
ENDBRANCH   2   3
ENDBRANCH   1   2
BRANCH   1  20
ATOM     20  O   UNL A   1      43.208  22.978  24.683  1.00  0.00    -0.458 OA
BRANCH  20  21
ATOM     21  C   UNL A   1      43.868  24.095  25.056  1.00  0.00     0.338 C 
ATOM     22  O   UNL A   1      44.933  24.511  24.627  1.00  0.00    -0.246 OA
BRANCH  21  23
ATOM     23  C   UNL A   1      43.046  24.867  25.998  1.00  0.00     0.060 A 
ATOM     24  C   UNL A   1      42.811  26.198  25.698  1.00  0.00     0.016 A 
ATOM     25  C   UNL A   1      42.730  24.375  27.262  1.00  0.00     0.016 A 
ATOM     26  C   UNL A   1      42.456  27.078  26.719  1.00  0.00     0.010 A 
ATOM     27  C   UNL A   1      42.207  25.243  28.236  1.00  0.00     0.010 A 
ATOM     28  C   UNL A   1      42.129  26.630  28.007  1.00  0.00    -0.014 A 
BRANCH  28  29
ATOM     29  C   UNL A   1      41.781  27.610  29.095  1.00  0.00     0.031 A 
ATOM     30  C   UNL A   1      42.643  27.729  30.337  1.00  0.00     0.074 A 
ATOM     31  C   UNL A   1      40.726  28.449  28.977  1.00  0.00     0.049 A 
ATOM     32  N   UNL A   1      42.373  28.308  31.483  1.00  0.00    -0.248 NA
ATOM     33  C   UNL A   1      43.973  27.102  30.293  1.00  0.00     0.031 C 
ATOM     34  C   UNL A   1      39.828  28.543  27.823  1.00  0.00     0.029 A 
ATOM     35  N   UNL A   1      40.235  29.405  29.839  1.00  0.00    -0.354 N 
ATOM     36  C   UNL A   1      43.456  28.040  32.316  1.00  0.00     0.074 A 
ATOM     37  C   UNL A   1      44.391  27.253  31.543  1.00  0.00     0.031 C 
ATOM     38  C   UNL A   1      38.964  29.547  28.007  1.00  0.00     0.029 A 
ATOM     39  C   UNL A   1      39.120  30.056  29.361  1.00  0.00     0.049 A 
ATOM     40  H   UNL A   1      40.641  29.603  30.714  1.00  0.00     0.167 HD
ATOM     41  C   UNL A   1      43.648  28.413  33.606  1.00  0.00     0.037 A 
ATOM     42  C   UNL A   1      38.256  30.901  29.954  1.00  0.00     0.037 A 
ATOM     43  C   UNL A   1      42.756  29.271  34.347  1.00  0.00     0.049 A 
ATOM     44  C   UNL A   1      38.444  31.240  31.402  1.00  0.00     0.074 A 
ATOM     45  C   UNL A   1      42.866  29.706  35.657  1.00  0.00     0.029 A 
ATOM     46  N   UNL A   1      41.605  29.847  33.833  1.00  0.00    -0.354 N 
ATOM     47  N   UNL A   1      39.406  30.881  32.216  1.00  0.00    -0.248 NA
ATOM     48  C   UNL A   1      37.405  32.071  32.025  1.00  0.00     0.031 C 
ATOM     49  C   UNL A   1      41.756  30.504  35.952  1.00  0.00     0.029 A 
ATOM     50  C   UNL A   1      40.985  30.617  34.806  1.00  0.00     0.049 A 
ATOM     51  H   UNL A   1      41.274  29.728  32.913  1.00  0.00     0.167 HD
ATOM     52  C   UNL A   1      39.099  31.458  33.441  1.00  0.00     0.074 A 
ATOM     53  C   UNL A   1      37.874  32.206  33.257  1.00  0.00     0.031 C 
ATOM     54  C   UNL A   1      39.771  31.368  34.614  1.00  0.00     0.037 A 
BRANCH  41  55
ATOM     55  C   UNL A   1      44.846  27.858  34.332  1.00  0.00     0.057 A 
ATOM     56  C   UNL A   1      46.064  28.541  34.418  1.00  0.00     0.134 A 
ATOM     57  C   UNL A   1      44.751  26.629  35.004  1.00  0.00     0.134 A 
ATOM     58  F   UNL A   1      46.230  29.716  33.794  1.00  0.00    -0.206 F 
ATOM     59  C   UNL A   1      47.150  28.014  35.123  1.00  0.00     0.040 A 
ATOM     60  C   UNL A   1      45.818  26.107  35.737  1.00  0.00     0.040 A 
ATOM     61  F   UNL A   1      43.609  25.924  34.975  1.00  0.00    -0.206 F 
ATOM     62  C   UNL A   1      47.026  26.798  35.793  1.00  0.00     0.006 A 
ENDBRANCH  41  55
BRANCH  42  63
ATOM     63  C   UNL A   1      37.071  31.403  29.205  1.00  0.00     0.057 A 
ATOM     64  C   UNL A   1      35.949  30.594  28.990  1.00  0.00     0.134 A 
ATOM     65  C   UNL A   1      37.034  32.703  28.681  1.00  0.00     0.134 A 
ATOM     66  F   UNL A   1      35.933  29.329  29.437  1.00  0.00    -0.206 F 
ATOM     67  C   UNL A   1      34.842  31.055  28.274  1.00  0.00     0.040 A 
ATOM     68  C   UNL A   1      35.918  33.190  28.001  1.00  0.00     0.040 A 
ATOM     69  F   UNL A   1      38.076  33.532  28.849  1.00  0.00    -0.206 F 
ATOM     70  C   UNL A   1      34.820  32.361  27.788  1.00  0.00     0.006 A 
ENDBRANCH  42  63
BRANCH  54  71
ATOM     71  C   UNL A   1      39.223  32.144  35.774  1.00  0.00     0.057 A 
ATOM     72  C   UNL A   1      39.594  33.471  36.024  1.00  0.00     0.134 A 
ATOM     73  C   UNL A   1      38.297  31.556  36.646  1.00  0.00     0.134 A 
ATOM     74  F   UNL A   1      40.491  34.086  35.238  1.00  0.00    -0.206 F 
ATOM     75  C   UNL A   1      39.086  34.177  37.116  1.00  0.00     0.040 A 
ATOM     76  C   UNL A   1      37.759  32.261  37.722  1.00  0.00     0.040 A 
ATOM     77  F   UNL A   1      37.894  30.290  36.461  1.00  0.00    -0.206 F 
ATOM     78  C   UNL A   1      38.160  33.573  37.964  1.00  0.00     0.006 A 
ENDBRANCH  54  71
ENDBRANCH  28  29
ENDBRANCH  21  23
ENDBRANCH  20  21
ENDBRANCH   1  20
TORSDOF 12
ENDMDL
MODEL 2
REMARK VINA RESULT:     -11.3      5.173     10.053
REMARK SMILES Cc1cscc1-c1nc(C)c(C(=O)OCCOC(=O)c2ccc(-c3c4nc(c(-c5c(F)cccc5F)c5ccc([nH]5)c(-c5c(F)cccc5F)c5nc(c(-c6c(F)cccc6F)c6ccc3[nH]6)C=C5)C=C4)cc2)c(C)n1
REMARK SMILES IDX 16 1 15 2 14 3 12 4 13 5 11 6 7 7 8 8 76 9 9 10 74 11 10 12
REMARK SMILES IDX 75 13 6 14 1 15 2 16 3 17 4 18 5 19 17 20 18 21 19 22 20 23
REMARK SMILES IDX 21 24 73 25 22 26 72 27 23 28 24 29 25 30 66 31 26 32 71 33
REMARK SMILES IDX 65 34 67 35 27 36 70 37 64 38 63 39 28 41 54 42 37 43 53 44
REMARK SMILES IDX 38 45 41 46 52 47 68 48 39 49 40 50 51 52 69 53 42 54 29 55
REMARK SMILES IDX 30 56 35 57 31 58 32 59 34 60 36 61 33 62 55 63 56 64 61 65
REMARK SMILES IDX 57 66 58 67 60 68 62 69 59 70 43 71 44 72 49 73 45 74 46 75
REMARK SMILES IDX 48 76 50 77 47 78
REMARK H PARENT 67 40 41 51
REMARK Flexibility Score: inf
ROOT
ATOM      1  C   UNL A   1      34.389  33.825  31.387  1.00  0.00     0.275 C 
ENDROOT
BRANCH   1   2
ATOM      2  C   UNL A   1      34.056  33.840  29.896  1.00  0.00     0.275 C 
BRANCH   2   3
ATOM      3  O   UNL A   1      33.950  32.493  29.380  1.00  0.00    -0.458 OA
BRANCH   3   4
ATOM      4  C   UNL A   1      34.466  32.268  28.146  1.00  0.00     0.341 C 
ATOM      5  O   UNL A   1      35.269  32.977  27.570  1.00  0.00    -0.246 OA
BRANCH   4   6
ATOM      6  C   UNL A   1      33.933  31.018  27.558  1.00  0.00     0.102 A 
ATOM      7  C   UNL A   1      33.089  28.759  26.317  1.00  0.00     0.160 A 
ATOM      8  N   UNL A   1      32.280  29.827  26.257  1.00  0.00    -0.232 NA
ATOM      9  N   UNL A   1      34.271  28.726  26.930  1.00  0.00    -0.232 NA
ATOM     10  C   UNL A   1      32.704  30.950  26.904  1.00  0.00     0.056 A 
ATOM     11  C   UNL A   1      34.701  29.859  27.512  1.00  0.00     0.056 A 
ATOM     12  C   UNL A   1      31.764  32.119  26.822  1.00  0.00     0.068 C 
ATOM     13  C   UNL A   1      36.035  29.676  28.138  1.00  0.00     0.068 C 
BRANCH   7  14
ATOM     14  C   UNL A   1      32.848  27.612  25.467  1.00  0.00     0.033 A 
ATOM     15  C   UNL A   1      33.547  28.698  23.223  1.00  0.00     0.046 C 
ATOM     16  C   UNL A   1      33.113  27.536  24.053  1.00  0.00    -0.029 A 
ATOM     17  C   UNL A   1      32.980  26.239  23.596  1.00  0.00     0.069 A 
ATOM     18  S   UNL A   1      32.582  25.132  24.837  1.00  0.00    -0.151 S 
ATOM     19  C   UNL A   1      32.607  26.368  26.017  1.00  0.00     0.077 A 
ENDBRANCH   7  14
ENDBRANCH   4   6
ENDBRANCH   3   4
ENDBRANCH   2   3
ENDBRANCH   1   2
BRANCH   1  20
ATOM     20  O   UNL A   1      34.537  32.464  31.834  1.00  0.00    -0.458 OA
BRANCH  20  21
ATOM     21  C   UNL A   1      35.686  32.194  32.488  1.00  0.00     0.338 C 
ATOM     22  O   UNL A   1      35.927  32.357  33.674  1.00  0.00    -0.246 OA
BRANCH  21  23
ATOM     23  C   UNL A   1      36.627  31.519  31.582  1.00  0.00     0.060 A 
ATOM     24  C   UNL A   1      37.066  30.256  31.943  1.00  0.00     0.016 A 
ATOM     25  C   UNL A   1      37.257  32.202  30.546  1.00  0.00     0.016 A 
ATOM     26  C   UNL A   1      38.257  29.767  31.409  1.00  0.00     0.010 A 
ATOM     27  C   UNL A   1      38.358  31.618  29.895  1.00  0.00     0.010 A 
ATOM     28  C   UNL A   1      38.927  30.419  30.365  1.00  0.00    -0.014 A 
BRANCH  28  29
ATOM     29  C   UNL A   1      40.229  29.880  29.834  1.00  0.00     0.031 A 
ATOM     30  C   UNL A   1      41.473  30.747  29.804  1.00  0.00     0.074 A 
ATOM     31  C   UNL A   1      40.343  28.597  29.419  1.00  0.00     0.049 A 
ATOM     32  N   UNL A   1      42.598  30.562  29.155  1.00  0.00    -0.248 NA
ATOM     33  C   UNL A   1      41.444  31.990  30.590  1.00  0.00     0.031 C 
ATOM     34  C   UNL A   1      39.283  27.587  29.448  1.00  0.00     0.029 A 
ATOM     35  N   UNL A   1      41.421  27.911  28.903  1.00  0.00    -0.354 N 
ATOM     36  C   UNL A   1      43.368  31.699  29.385  1.00  0.00     0.074 A 
ATOM     37  C   UNL A   1      42.585  32.566  30.238  1.00  0.00     0.031 C 
ATOM     38  C   UNL A   1      39.777  26.406  29.060  1.00  0.00     0.029 A 
ATOM     39  C   UNL A   1      41.136  26.603  28.583  1.00  0.00     0.049 A 
ATOM     40  H   UNL A   1      42.309  28.317  28.774  1.00  0.00     0.167 HD
ATOM     41  C   UNL A   1      44.609  31.993  28.922  1.00  0.00     0.037 A 
ATOM     42  C   UNL A   1      41.840  25.676  27.904  1.00  0.00     0.037 A 
ATOM     43  C   UNL A   1      45.422  31.091  28.143  1.00  0.00     0.049 A 
ATOM     44  C   UNL A   1      43.177  26.046  27.337  1.00  0.00     0.074 A 
ATOM     45  C   UNL A   1      46.691  31.297  27.630  1.00  0.00     0.029 A 
ATOM     46  N   UNL A   1      45.056  29.801  27.790  1.00  0.00    -0.354 N 
ATOM     47  N   UNL A   1      43.843  27.168  27.456  1.00  0.00    -0.248 NA
ATOM     48  C   UNL A   1      43.844  25.033  26.507  1.00  0.00     0.031 C 
ATOM     49  C   UNL A   1      47.073  30.152  26.924  1.00  0.00     0.029 A 
ATOM     50  C   UNL A   1      46.066  29.208  27.049  1.00  0.00     0.049 A 
ATOM     51  H   UNL A   1      44.203  29.369  28.029  1.00  0.00     0.167 HD
ATOM     52  C   UNL A   1      45.015  26.990  26.734  1.00  0.00     0.074 A 
ATOM     53  C   UNL A   1      44.978  25.645  26.198  1.00  0.00     0.031 C 
ATOM     54  C   UNL A   1      46.028  27.866  26.528  1.00  0.00     0.037 A 
BRANCH  41  55
ATOM     55  C   UNL A   1      45.158  33.369  29.196  1.00  0.00     0.057 A 
ATOM     56  C   UNL A   1      44.915  34.463  28.358  1.00  0.00     0.134 A 
ATOM     57  C   UNL A   1      45.905  33.606  30.360  1.00  0.00     0.134 A 
ATOM     58  F   UNL A   1      44.215  34.309  27.225  1.00  0.00    -0.206 F 
ATOM     59  C   UNL A   1      45.413  35.735  28.653  1.00  0.00     0.040 A 
ATOM     60  C   UNL A   1      46.382  34.878  30.681  1.00  0.00     0.040 A 
ATOM     61  F   UNL A   1      46.167  32.607  31.216  1.00  0.00    -0.206 F 
ATOM     62  C   UNL A   1      46.142  35.947  29.822  1.00  0.00     0.006 A 
ENDBRANCH  41  55
BRANCH  42  63
ATOM     63  C   UNL A   1      41.244  24.339  27.635  1.00  0.00     0.057 A 
ATOM     64  C   UNL A   1      40.257  24.164  26.659  1.00  0.00     0.134 A 
ATOM     65  C   UNL A   1      41.646  23.201  28.351  1.00  0.00     0.134 A 
ATOM     66  F   UNL A   1      39.805  25.217  25.960  1.00  0.00    -0.206 F 
ATOM     67  C   UNL A   1      39.684  22.914  26.413  1.00  0.00     0.040 A 
ATOM     68  C   UNL A   1      41.112  21.940  28.087  1.00  0.00     0.040 A 
ATOM     69  F   UNL A   1      42.587  23.296  29.302  1.00  0.00    -0.206 F 
ATOM     70  C   UNL A   1      40.120  21.796  27.120  1.00  0.00     0.006 A 
ENDBRANCH  42  63
BRANCH  54  71
ATOM     71  C   UNL A   1      47.203  27.376  25.735  1.00  0.00     0.057 A 
ATOM     72  C   UNL A   1      47.303  27.579  24.353  1.00  0.00     0.134 A 
ATOM     73  C   UNL A   1      48.256  26.705  26.369  1.00  0.00     0.134 A 
ATOM     74  F   UNL A   1      46.320  28.199  23.683  1.00  0.00    -0.206 F 
ATOM     75  C   UNL A   1      48.397  27.106  23.625  1.00  0.00     0.040 A 
ATOM     76  C   UNL A   1      49.368  26.254  25.657  1.00  0.00     0.040 A 
ATOM     77  F   UNL A   1      48.225  26.483  27.691  1.00  0.00    -0.206 F 
ATOM     78  C   UNL A   1      49.435  26.447  24.279  1.00  0.00     0.006 A 
ENDBRANCH  54  71
ENDBRANCH  28  29
ENDBRANCH  21  23
ENDBRANCH  20  21
ENDBRANCH   1  20
TORSDOF 12
ENDMDL
MODEL 3
REMARK VINA RESULT:     -11.2      4.181      8.181
REMARK SMILES Cc1cscc1-c1nc(C)c(C(=O)OCCOC(=O)c2ccc(-c3c4nc(c(-c5c(F)cccc5F)c5ccc([nH]5)c(-c5c(F)cccc5F)c5nc(c(-c6c(F)cccc6F)c6ccc3[nH]6)C=C5)C=C4)cc2)c(C)n1
REMARK SMILES IDX 16 1 15 2 14 3 12 4 13 5 11 6 7 7 8 8 76 9 9 10 74 11 10 12
REMARK SMILES IDX 75 13 6 14 1 15 2 16 3 17 4 18 5 19 17 20 18 21 19 22 20 23
REMARK SMILES IDX 21 24 73 25 22 26 72 27 23 28 24 29 25 30 66 31 26 32 71 33
REMARK SMILES IDX 65 34 67 35 27 36 70 37 64 38 63 39 28 41 54 42 37 43 53 44
REMARK SMILES IDX 38 45 41 46 52 47 68 48 39 49 40 50 51 52 69 53 42 54 29 55
REMARK SMILES IDX 30 56 35 57 31 58 32 59 34 60 36 61 33 62 55 63 56 64 61 65
REMARK SMILES IDX 57 66 58 67 60 68 62 69 59 70 43 71 44 72 49 73 45 74 46 75
REMARK SMILES IDX 48 76 50 77 47 78
REMARK H PARENT 67 40 41 51
REMARK Flexibility Score: inf
ROOT
ATOM      1  C   UNL A   1      36.040  20.818  24.966  1.00  0.00     0.275 C 
ENDROOT
BRANCH   1   2
ATOM      2  C   UNL A   1      35.245  21.291  26.181  1.00  0.00     0.275 C 
BRANCH   2   3
ATOM      3  O   UNL A   1      33.958  21.816  25.780  1.00  0.00    -0.458 OA
BRANCH   3   4
ATOM      4  C   UNL A   1      33.365  22.695  26.626  1.00  0.00     0.341 C 
ATOM      5  O   UNL A   1      33.390  22.642  27.841  1.00  0.00    -0.246 OA
BRANCH   4   6
ATOM      6  C   UNL A   1      32.665  23.768  25.884  1.00  0.00     0.102 A 
ATOM      7  C   UNL A   1      31.448  25.871  24.677  1.00  0.00     0.160 A 
ATOM      8  N   UNL A   1      30.665  25.016  25.352  1.00  0.00    -0.232 NA
ATOM      9  N   UNL A   1      32.771  25.769  24.561  1.00  0.00    -0.232 NA
ATOM     10  C   UNL A   1      31.284  23.952  25.935  1.00  0.00     0.056 A 
ATOM     11  C   UNL A   1      33.373  24.746  25.192  1.00  0.00     0.056 A 
ATOM     12  C   UNL A   1      30.370  23.014  26.672  1.00  0.00     0.068 C 
ATOM     13  C   UNL A   1      34.844  24.770  24.988  1.00  0.00     0.068 C 
BRANCH   7  14
ATOM     14  C   UNL A   1      30.927  27.148  24.237  1.00  0.00     0.033 A 
ATOM     15  C   UNL A   1      31.785  28.569  26.225  1.00  0.00     0.046 C 
ATOM     16  C   UNL A   1      31.124  28.414  24.895  1.00  0.00    -0.029 A 
ATOM     17  C   UNL A   1      30.686  29.456  24.101  1.00  0.00     0.069 A 
ATOM     18  S   UNL A   1      30.086  28.933  22.587  1.00  0.00    -0.151 S 
ATOM     19  C   UNL A   1      30.427  27.300  22.958  1.00  0.00     0.077 A 
ENDBRANCH   7  14
ENDBRANCH   4   6
ENDBRANCH   3   4
ENDBRANCH   2   3
ENDBRANCH   1   2
BRANCH   1  20
ATOM     20  O   UNL A   1      37.217  21.632  24.814  1.00  0.00    -0.458 OA
BRANCH  20  21
ATOM     21  C   UNL A   1      38.316  21.184  25.458  1.00  0.00     0.338 C 
ATOM     22  O   UNL A   1      38.880  20.110  25.315  1.00  0.00    -0.246 OA
BRANCH  21  23
ATOM     23  C   UNL A   1      38.865  22.251  26.306  1.00  0.00     0.060 A 
ATOM     24  C   UNL A   1      38.349  23.526  26.144  1.00  0.00     0.016 A 
ATOM     25  C   UNL A   1      40.024  22.063  27.054  1.00  0.00     0.016 A 
ATOM     26  C   UNL A   1      39.100  24.626  26.553  1.00  0.00     0.010 A 
ATOM     27  C   UNL A   1      40.681  23.173  27.611  1.00  0.00     0.010 A 
ATOM     28  C   UNL A   1      40.273  24.486  27.308  1.00  0.00    -0.014 A 
BRANCH  28  29
ATOM     29  C   UNL A   1      41.078  25.695  27.706  1.00  0.00     0.031 A 
ATOM     30  C   UNL A   1      40.482  26.763  28.603  1.00  0.00     0.074 A 
ATOM     31  C   UNL A   1      42.368  25.840  27.324  1.00  0.00     0.049 A 
ATOM     32  N   UNL A   1      40.907  27.981  28.839  1.00  0.00    -0.248 NA
ATOM     33  C   UNL A   1      39.239  26.425  29.314  1.00  0.00     0.031 C 
ATOM     34  C   UNL A   1      43.141  24.882  26.529  1.00  0.00     0.029 A 
ATOM     35  N   UNL A   1      43.271  26.851  27.567  1.00  0.00    -0.354 N 
ATOM     36  C   UNL A   1      39.945  28.577  29.648  1.00  0.00     0.074 A 
ATOM     37  C   UNL A   1      38.916  27.585  29.870  1.00  0.00     0.031 C 
ATOM     38  C   UNL A   1      44.407  25.302  26.428  1.00  0.00     0.029 A 
ATOM     39  C   UNL A   1      44.502  26.639  26.990  1.00  0.00     0.049 A 
ATOM     40  H   UNL A   1      43.056  27.650  28.103  1.00  0.00     0.167 HD
ATOM     41  C   UNL A   1      39.920  29.835  30.154  1.00  0.00     0.037 A 
ATOM     42  C   UNL A   1      45.569  27.447  26.839  1.00  0.00     0.037 A 
ATOM     43  C   UNL A   1      40.987  30.794  30.004  1.00  0.00     0.049 A 
ATOM     44  C   UNL A   1      45.492  28.859  27.339  1.00  0.00     0.074 A 
ATOM     45  C   UNL A   1      41.056  32.092  30.481  1.00  0.00     0.029 A 
ATOM     46  N   UNL A   1      42.185  30.548  29.350  1.00  0.00    -0.354 N 
ATOM     47  N   UNL A   1      44.526  29.450  27.997  1.00  0.00    -0.248 NA
ATOM     48  C   UNL A   1      46.640  29.727  27.042  1.00  0.00     0.031 C 
ATOM     49  C   UNL A   1      42.273  32.648  30.074  1.00  0.00     0.029 A 
ATOM     50  C   UNL A   1      42.989  31.677  29.394  1.00  0.00     0.049 A 
ATOM     51  H   UNL A   1      42.429  29.698  28.917  1.00  0.00     0.167 HD
ATOM     52  C   UNL A   1      44.956  30.753  28.209  1.00  0.00     0.074 A 
ATOM     53  C   UNL A   1      46.279  30.858  27.629  1.00  0.00     0.031 C 
ATOM     54  C   UNL A   1      44.308  31.772  28.824  1.00  0.00     0.037 A 
BRANCH  41  55
ATOM     55  C   UNL A   1      38.678  30.282  30.880  1.00  0.00     0.057 A 
ATOM     56  C   UNL A   1      38.503  30.113  32.258  1.00  0.00     0.134 A 
ATOM     57  C   UNL A   1      37.657  30.944  30.180  1.00  0.00     0.134 A 
ATOM     58  F   UNL A   1      39.433  29.483  32.989  1.00  0.00    -0.206 F 
ATOM     59  C   UNL A   1      37.351  30.565  32.910  1.00  0.00     0.040 A 
ATOM     60  C   UNL A   1      36.516  31.426  30.825  1.00  0.00     0.040 A 
ATOM     61  F   UNL A   1      37.762  31.152  28.859  1.00  0.00    -0.206 F 
ATOM     62  C   UNL A   1      36.358  31.231  32.195  1.00  0.00     0.006 A 
ENDBRANCH  41  55
BRANCH  42  63
ATOM     63  C   UNL A   1      46.765  26.971  26.091  1.00  0.00     0.057 A 
ATOM     64  C   UNL A   1      46.919  27.230  24.724  1.00  0.00     0.134 A 
ATOM     65  C   UNL A   1      47.781  26.240  26.724  1.00  0.00     0.134 A 
ATOM     66  F   UNL A   1      45.969  27.897  24.051  1.00  0.00    -0.206 F 
ATOM     67  C   UNL A   1      48.032  26.773  24.015  1.00  0.00     0.040 A 
ATOM     68  C   UNL A   1      48.916  25.813  26.036  1.00  0.00     0.040 A 
ATOM     69  F   UNL A   1      47.697  25.955  28.032  1.00  0.00    -0.206 F 
ATOM     70  C   UNL A   1      49.040  26.072  24.674  1.00  0.00     0.006 A 
ENDBRANCH  42  63
BRANCH  54  71
ATOM     71  C   UNL A   1      45.046  33.072  28.949  1.00  0.00     0.057 A 
ATOM     72  C   UNL A   1      45.910  33.337  30.020  1.00  0.00     0.134 A 
ATOM     73  C   UNL A   1      44.900  34.066  27.974  1.00  0.00     0.134 A 
ATOM     74  F   UNL A   1      46.080  32.433  30.997  1.00  0.00    -0.206 F 
ATOM     75  C   UNL A   1      46.580  34.556  30.130  1.00  0.00     0.040 A 
ATOM     76  C   UNL A   1      45.588  35.277  28.057  1.00  0.00     0.040 A 
ATOM     77  F   UNL A   1      44.093  33.874  26.919  1.00  0.00    -0.206 F 
ATOM     78  C   UNL A   1      46.424  35.527  29.143  1.00  0.00     0.006 A 
ENDBRANCH  54  71
ENDBRANCH  28  29
ENDBRANCH  21  23
ENDBRANCH  20  21
ENDBRANCH   1  20
TORSDOF 12
ENDMDL
