MODEL 1
REMARK VINA RESULT:     -12.0      0.000      0.000
REMARK SMILES Cc1ccc(-c2cc(C(=O)OCCOC(=O)c3ccc(-c4c5nc(c(-c6c(F)cccc6F)c6ccc([nH]6)c(-c6c(F)cccc6F)c6nc(c(-c7c(F)cccc7F)c7ccc4[nH]7)C=C6)C=C5)cc3)c3cc(C)ccc3n2)c(C)c1
REMARK SMILES IDX 13 1 12 2 11 3 9 4 10 5 8 6 6 7 7 8 78 9 77 10 71 11 76 12
REMARK SMILES IDX 72 13 75 14 73 15 74 16 5 17 1 18 2 19 3 20 81 21 4 22 79 23
REMARK SMILES IDX 80 24 14 25 15 26 16 27 17 28 18 29 70 30 19 31 69 32 20 33
REMARK SMILES IDX 21 34 22 35 63 36 23 37 68 38 62 39 64 40 24 41 67 42 61 43
REMARK SMILES IDX 60 44 25 46 51 47 34 48 50 49 35 50 38 51 49 52 65 53 36 54
REMARK SMILES IDX 37 55 48 57 66 58 39 59 26 60 27 61 32 62 28 63 29 64 31 65
REMARK SMILES IDX 33 66 30 67 52 68 53 69 58 70 54 71 55 72 57 73 59 74 56 75
REMARK SMILES IDX 40 76 41 77 46 78 42 79 43 80 45 81 47 82 44 83
REMARK H PARENT 64 45 38 56
REMARK Flexibility Score: inf
ROOT
ATOM      1  C   UNL A   1      32.905  36.235  29.803  1.00  0.00     0.275 C 
ENDROOT
BRANCH   1   2
ATOM      2  C   UNL A   1      33.842  35.463  28.876  1.00  0.00     0.275 C 
BRANCH   2   3
ATOM      3  O   UNL A   1      33.658  34.041  29.035  1.00  0.00    -0.458 OA
BRANCH   3   4
ATOM      4  C   UNL A   1      33.031  33.390  28.022  1.00  0.00     0.339 C 
ATOM      5  O   UNL A   1      32.124  33.816  27.338  1.00  0.00    -0.246 OA
BRANCH   4   6
ATOM      6  C   UNL A   1      33.697  32.093  27.743  1.00  0.00     0.071 A 
ATOM      7  C   UNL A   1      33.413  29.839  26.988  1.00  0.00     0.072 A 
ATOM      8  C   UNL A   1      32.862  31.059  27.325  1.00  0.00     0.045 A 
ATOM      9  N   UNL A   1      34.730  29.588  27.133  1.00  0.00    -0.248 NA
ATOM     10  C   UNL A   1      35.529  30.558  27.618  1.00  0.00     0.072 A 
ATOM     11  C   UNL A   1      35.072  31.855  27.935  1.00  0.00     0.015 A 
ATOM     12  C   UNL A   1      36.865  30.256  27.838  1.00  0.00     0.029 A 
ATOM     13  C   UNL A   1      35.990  32.800  28.459  1.00  0.00     0.014 A 
ATOM     14  C   UNL A   1      37.764  31.191  28.362  1.00  0.00     0.005 A 
ATOM     15  C   UNL A   1      37.331  32.475  28.679  1.00  0.00    -0.050 A 
ATOM     16  C   UNL A   1      38.269  33.510  29.222  1.00  0.00     0.044 C 
BRANCH   7  17
ATOM     17  C   UNL A   1      32.560  28.757  26.478  1.00  0.00     0.003 A 
ATOM     18  C   UNL A   1      30.241  25.343  25.142  1.00  0.00     0.044 C 
ATOM     19  C   UNL A   1      31.033  26.526  25.619  1.00  0.00    -0.051 A 
ATOM     20  C   UNL A   1      31.082  26.864  26.971  1.00  0.00     0.004 A 
ATOM     21  C   UNL A   1      31.735  27.313  24.698  1.00  0.00     0.007 A 
ATOM     22  C   UNL A   1      31.831  27.967  27.392  1.00  0.00     0.011 A 
ATOM     23  C   UNL A   1      32.507  28.416  25.111  1.00  0.00    -0.041 A 
ATOM     24  C   UNL A   1      33.231  29.204  24.051  1.00  0.00     0.045 C 
ENDBRANCH   7  17
ENDBRANCH   4   6
ENDBRANCH   3   4
ENDBRANCH   2   3
ENDBRANCH   1   2
BRANCH   1  25
ATOM     25  O   UNL A   1      32.507  35.389  30.896  1.00  0.00    -0.458 OA
BRANCH  25  26
ATOM     26  C   UNL A   1      32.701  35.909  32.128  1.00  0.00     0.338 C 
ATOM     27  O   UNL A   1      32.074  36.800  32.676  1.00  0.00    -0.246 OA
BRANCH  26  28
ATOM     28  C   UNL A   1      33.761  35.155  32.808  1.00  0.00     0.060 A 
ATOM     29  C   UNL A   1      35.025  35.729  32.873  1.00  0.00     0.016 A 
ATOM     30  C   UNL A   1      33.562  33.844  33.226  1.00  0.00     0.016 A 
ATOM     31  C   UNL A   1      36.128  34.963  33.238  1.00  0.00     0.010 A 
ATOM     32  C   UNL A   1      34.654  33.110  33.708  1.00  0.00     0.010 A 
ATOM     33  C   UNL A   1      35.959  33.644  33.678  1.00  0.00    -0.014 A 
BRANCH  33  34
ATOM     34  C   UNL A   1      37.137  32.813  34.061  1.00  0.00     0.031 A 
ATOM     35  C   UNL A   1      37.849  33.071  35.365  1.00  0.00     0.074 A 
ATOM     36  C   UNL A   1      37.575  31.819  33.259  1.00  0.00     0.049 A 
ATOM     37  N   UNL A   1      39.010  32.627  35.780  1.00  0.00    -0.248 NA
ATOM     38  C   UNL A   1      37.173  33.958  36.325  1.00  0.00     0.031 C 
ATOM     39  C   UNL A   1      36.957  31.406  31.998  1.00  0.00     0.029 A 
ATOM     40  N   UNL A   1      38.647  30.970  33.391  1.00  0.00    -0.354 N 
ATOM     41  C   UNL A   1      39.227  33.225  37.017  1.00  0.00     0.074 A 
ATOM     42  C   UNL A   1      38.081  34.067  37.284  1.00  0.00     0.031 C 
ATOM     43  C   UNL A   1      37.634  30.364  31.492  1.00  0.00     0.029 A 
ATOM     44  C   UNL A   1      38.792  30.099  32.336  1.00  0.00     0.049 A 
ATOM     45  H   UNL A   1      39.254  30.982  34.165  1.00  0.00     0.167 HD
ATOM     46  C   UNL A   1      40.283  33.080  37.853  1.00  0.00     0.037 A 
ATOM     47  C   UNL A   1      39.772  29.222  32.047  1.00  0.00     0.037 A 
ATOM     48  C   UNL A   1      41.396  32.199  37.611  1.00  0.00     0.049 A 
ATOM     49  C   UNL A   1      40.957  29.119  32.965  1.00  0.00     0.074 A 
ATOM     50  C   UNL A   1      42.521  31.992  38.391  1.00  0.00     0.029 A 
ATOM     51  N   UNL A   1      41.509  31.355  36.517  1.00  0.00    -0.354 N 
ATOM     52  N   UNL A   1      41.188  29.746  34.092  1.00  0.00    -0.248 NA
ATOM     53  C   UNL A   1      42.030  28.199  32.559  1.00  0.00     0.031 C 
ATOM     54  C   UNL A   1      43.327  31.042  37.757  1.00  0.00     0.029 A 
ATOM     55  C   UNL A   1      42.685  30.626  36.603  1.00  0.00     0.049 A 
ATOM     56  H   UNL A   1      40.852  31.284  35.787  1.00  0.00     0.167 HD
ATOM     57  C   UNL A   1      42.418  29.283  34.538  1.00  0.00     0.074 A 
ATOM     58  C   UNL A   1      42.875  28.306  33.573  1.00  0.00     0.031 C 
ATOM     59  C   UNL A   1      43.112  29.640  35.646  1.00  0.00     0.037 A 
BRANCH  46  60
ATOM     60  C   UNL A   1      40.302  33.905  39.108  1.00  0.00     0.057 A 
ATOM     61  C   UNL A   1      40.924  35.158  39.162  1.00  0.00     0.134 A 
ATOM     62  C   UNL A   1      39.634  33.465  40.259  1.00  0.00     0.134 A 
ATOM     63  F   UNL A   1      41.591  35.632  38.099  1.00  0.00    -0.206 F 
ATOM     64  C   UNL A   1      40.893  35.937  40.321  1.00  0.00     0.040 A 
ATOM     65  C   UNL A   1      39.576  34.245  41.414  1.00  0.00     0.040 A 
ATOM     66  F   UNL A   1      39.012  32.276  40.272  1.00  0.00    -0.206 F 
ATOM     67  C   UNL A   1      40.210  35.485  41.448  1.00  0.00     0.006 A 
ENDBRANCH  46  60
BRANCH  47  68
ATOM     68  C   UNL A   1      39.713  28.409  30.803  1.00  0.00     0.057 A 
ATOM     69  C   UNL A   1      40.359  28.827  29.634  1.00  0.00     0.134 A 
ATOM     70  C   UNL A   1      38.981  27.217  30.742  1.00  0.00     0.134 A 
ATOM     71  F   UNL A   1      41.054  29.975  29.619  1.00  0.00    -0.206 F 
ATOM     72  C   UNL A   1      40.261  28.103  28.444  1.00  0.00     0.040 A 
ATOM     73  C   UNL A   1      38.902  26.465  29.568  1.00  0.00     0.040 A 
ATOM     74  F   UNL A   1      38.338  26.760  31.826  1.00  0.00    -0.206 F 
ATOM     75  C   UNL A   1      39.535  26.914  28.412  1.00  0.00     0.006 A 
ENDBRANCH  47  68
BRANCH  59  76
ATOM     76  C   UNL A   1      44.408  28.930  35.897  1.00  0.00     0.057 A 
ATOM     77  C   UNL A   1      44.468  27.734  36.622  1.00  0.00     0.134 A 
ATOM     78  C   UNL A   1      45.607  29.441  35.386  1.00  0.00     0.134 A 
ATOM     79  F   UNL A   1      43.356  27.202  37.151  1.00  0.00    -0.206 F 
ATOM     80  C   UNL A   1      45.681  27.084  36.853  1.00  0.00     0.040 A 
ATOM     81  C   UNL A   1      46.823  28.787  35.589  1.00  0.00     0.040 A 
ATOM     82  F   UNL A   1      45.617  30.580  34.677  1.00  0.00    -0.206 F 
ATOM     83  C   UNL A   1      46.863  27.608  36.330  1.00  0.00     0.006 A 
ENDBRANCH  59  76
ENDBRANCH  33  34
ENDBRANCH  26  28
ENDBRANCH  25  26
ENDBRANCH   1  25
TORSDOF 12
ENDMDL
MODEL 2
REMARK VINA RESULT:     -11.9      5.498      9.630
REMARK SMILES Cc1ccc(-c2cc(C(=O)OCCOC(=O)c3ccc(-c4c5nc(c(-c6c(F)cccc6F)c6ccc([nH]6)c(-c6c(F)cccc6F)c6nc(c(-c7c(F)cccc7F)c7ccc4[nH]7)C=C6)C=C5)cc3)c3cc(C)ccc3n2)c(C)c1
REMARK SMILES IDX 13 1 12 2 11 3 9 4 10 5 8 6 6 7 7 8 78 9 77 10 71 11 76 12
REMARK SMILES IDX 72 13 75 14 73 15 74 16 5 17 1 18 2 19 3 20 81 21 4 22 79 23
REMARK SMILES IDX 80 24 14 25 15 26 16 27 17 28 18 29 70 30 19 31 69 32 20 33
REMARK SMILES IDX 21 34 22 35 63 36 23 37 68 38 62 39 64 40 24 41 67 42 61 43
REMARK SMILES IDX 60 44 25 46 51 47 34 48 50 49 35 50 38 51 49 52 65 53 36 54
REMARK SMILES IDX 37 55 48 57 66 58 39 59 26 60 27 61 32 62 28 63 29 64 31 65
REMARK SMILES IDX 33 66 30 67 52 68 53 69 58 70 54 71 55 72 57 73 59 74 56 75
REMARK SMILES IDX 40 76 41 77 46 78 42 79 43 80 45 81 47 82 44 83
REMARK H PARENT 64 45 38 56
REMARK Flexibility Score: inf
ROOT
ATOM      1  C   UNL A   1      35.804  21.191  25.397  1.00  0.00     0.275 C 
ENDROOT
BRANCH   1   2
ATOM      2  C   UNL A   1      35.007  21.958  26.449  1.00  0.00     0.275 C 
BRANCH   2   3
ATOM      3  O   UNL A   1      34.937  23.359  26.114  1.00  0.00    -0.458 OA
BRANCH   3   4
ATOM      4  C   UNL A   1      33.727  23.959  26.247  1.00  0.00     0.339 C 
ATOM      5  O   UNL A   1      32.828  23.621  26.989  1.00  0.00    -0.246 OA
BRANCH   4   6
ATOM      6  C   UNL A   1      33.674  25.210  25.450  1.00  0.00     0.071 A 
ATOM      7  C   UNL A   1      33.761  27.602  25.504  1.00  0.00     0.072 A 
ATOM      8  C   UNL A   1      33.744  26.397  26.177  1.00  0.00     0.045 A 
ATOM      9  N   UNL A   1      33.625  27.672  24.165  1.00  0.00    -0.248 NA
ATOM     10  C   UNL A   1      33.470  26.531  23.465  1.00  0.00     0.072 A 
ATOM     11  C   UNL A   1      33.499  25.249  24.053  1.00  0.00     0.015 A 
ATOM     12  C   UNL A   1      33.248  26.627  22.099  1.00  0.00     0.029 A 
ATOM     13  C   UNL A   1      33.306  24.110  23.231  1.00  0.00     0.014 A 
ATOM     14  C   UNL A   1      33.052  25.499  21.295  1.00  0.00     0.005 A 
ATOM     15  C   UNL A   1      33.078  24.227  21.858  1.00  0.00    -0.050 A 
ATOM     16  C   UNL A   1      32.893  22.994  21.025  1.00  0.00     0.044 C 
BRANCH   7  17
ATOM     17  C   UNL A   1      33.906  28.862  26.247  1.00  0.00     0.003 A 
ATOM     18  C   UNL A   1      34.342  32.393  28.727  1.00  0.00     0.044 C 
ATOM     19  C   UNL A   1      34.209  31.170  27.867  1.00  0.00    -0.051 A 
ATOM     20  C   UNL A   1      35.228  30.221  27.800  1.00  0.00     0.004 A 
ATOM     21  C   UNL A   1      33.047  30.970  27.112  1.00  0.00     0.007 A 
ATOM     22  C   UNL A   1      35.079  29.086  26.997  1.00  0.00     0.011 A 
ATOM     23  C   UNL A   1      32.877  29.823  26.313  1.00  0.00    -0.041 A 
ATOM     24  C   UNL A   1      31.593  29.691  25.537  1.00  0.00     0.045 C 
ENDBRANCH   7  17
ENDBRANCH   4   6
ENDBRANCH   3   4
ENDBRANCH   2   3
ENDBRANCH   1   2
BRANCH   1  25
ATOM     25  O   UNL A   1      36.989  21.931  25.057  1.00  0.00    -0.458 OA
BRANCH  25  26
ATOM     26  C   UNL A   1      38.139  21.452  25.578  1.00  0.00     0.338 C 
ATOM     27  O   UNL A   1      38.626  20.343  25.435  1.00  0.00    -0.246 OA
BRANCH  26  28
ATOM     28  C   UNL A   1      38.826  22.529  26.301  1.00  0.00     0.060 A 
ATOM     29  C   UNL A   1      38.369  23.828  26.116  1.00  0.00     0.016 A 
ATOM     30  C   UNL A   1      39.996  22.291  27.014  1.00  0.00     0.016 A 
ATOM     31  C   UNL A   1      39.137  24.910  26.533  1.00  0.00     0.010 A 
ATOM     32  C   UNL A   1      40.707  23.378  27.538  1.00  0.00     0.010 A 
ATOM     33  C   UNL A   1      40.313  24.704  27.265  1.00  0.00    -0.014 A 
BRANCH  33  34
ATOM     34  C   UNL A   1      41.148  25.859  27.705  1.00  0.00     0.031 A 
ATOM     35  C   UNL A   1      40.557  26.917  28.604  1.00  0.00     0.074 A 
ATOM     36  C   UNL A   1      42.436  25.970  27.320  1.00  0.00     0.049 A 
ATOM     37  N   UNL A   1      41.026  28.100  28.915  1.00  0.00    -0.248 NA
ATOM     38  C   UNL A   1      39.258  26.610  29.224  1.00  0.00     0.031 C 
ATOM     39  C   UNL A   1      43.169  25.000  26.504  1.00  0.00     0.029 A 
ATOM     40  N   UNL A   1      43.363  26.955  27.567  1.00  0.00    -0.354 N 
ATOM     41  C   UNL A   1      40.058  28.696  29.715  1.00  0.00     0.074 A 
ATOM     42  C   UNL A   1      38.971  27.749  29.838  1.00  0.00     0.031 C 
ATOM     43  C   UNL A   1      44.436  25.416  26.351  1.00  0.00     0.029 A 
ATOM     44  C   UNL A   1      44.580  26.728  26.967  1.00  0.00     0.049 A 
ATOM     45  H   UNL A   1      43.175  27.747  28.121  1.00  0.00     0.167 HD
ATOM     46  C   UNL A   1      40.076  29.921  30.295  1.00  0.00     0.037 A 
ATOM     47  C   UNL A   1      45.674  27.508  26.874  1.00  0.00     0.037 A 
ATOM     48  C   UNL A   1      41.181  30.840  30.217  1.00  0.00     0.049 A 
ATOM     49  C   UNL A   1      45.648  28.882  27.483  1.00  0.00     0.074 A 
ATOM     50  C   UNL A   1      41.290  32.109  30.759  1.00  0.00     0.029 A 
ATOM     51  N   UNL A   1      42.383  30.575  29.578  1.00  0.00    -0.354 N 
ATOM     52  N   UNL A   1      44.697  29.466  28.170  1.00  0.00    -0.248 NA
ATOM     53  C   UNL A   1      46.843  29.716  27.283  1.00  0.00     0.031 C 
ATOM     54  C   UNL A   1      42.547  32.623  30.427  1.00  0.00     0.029 A 
ATOM     55  C   UNL A   1      43.237  31.658  29.713  1.00  0.00     0.049 A 
ATOM     56  H   UNL A   1      42.597  29.743  29.098  1.00  0.00     0.167 HD
ATOM     57  C   UNL A   1      45.186  30.721  28.502  1.00  0.00     0.074 A 
ATOM     58  C   UNL A   1      46.525  30.808  27.960  1.00  0.00     0.031 C 
ATOM     59  C   UNL A   1      44.576  31.718  29.189  1.00  0.00     0.037 A 
BRANCH  46  60
ATOM     60  C   UNL A   1      38.856  30.353  31.057  1.00  0.00     0.057 A 
ATOM     61  C   UNL A   1      37.822  31.077  30.453  1.00  0.00     0.134 A 
ATOM     62  C   UNL A   1      38.689  29.986  32.399  1.00  0.00     0.134 A 
ATOM     63  F   UNL A   1      37.926  31.471  29.174  1.00  0.00    -0.206 F 
ATOM     64  C   UNL A   1      36.671  31.432  31.159  1.00  0.00     0.040 A 
ATOM     65  C   UNL A   1      37.532  30.313  33.109  1.00  0.00     0.040 A 
ATOM     66  F   UNL A   1      39.639  29.285  33.038  1.00  0.00    -0.206 F 
ATOM     67  C   UNL A   1      36.520  31.042  32.488  1.00  0.00     0.006 A 
ENDBRANCH  46  60
BRANCH  47  68
ATOM     68  C   UNL A   1      46.870  27.041  26.124  1.00  0.00     0.057 A 
ATOM     69  C   UNL A   1      47.012  27.296  24.755  1.00  0.00     0.134 A 
ATOM     70  C   UNL A   1      47.881  26.299  26.748  1.00  0.00     0.134 A 
ATOM     71  F   UNL A   1      46.065  27.978  24.093  1.00  0.00    -0.206 F 
ATOM     72  C   UNL A   1      48.101  26.811  24.029  1.00  0.00     0.040 A 
ATOM     73  C   UNL A   1      48.992  25.837  26.042  1.00  0.00     0.040 A 
ATOM     74  F   UNL A   1      47.807  26.020  28.058  1.00  0.00    -0.206 F 
ATOM     75  C   UNL A   1      49.099  26.083  24.676  1.00  0.00     0.006 A 
ENDBRANCH  47  68
BRANCH  59  76
ATOM     76  C   UNL A   1      45.375  32.961  29.438  1.00  0.00     0.057 A 
ATOM     77  C   UNL A   1      46.199  33.100  30.561  1.00  0.00     0.134 A 
ATOM     78  C   UNL A   1      45.334  34.025  28.527  1.00  0.00     0.134 A 
ATOM     79  F   UNL A   1      46.269  32.123  31.478  1.00  0.00    -0.206 F 
ATOM     80  C   UNL A   1      46.935  34.265  30.785  1.00  0.00     0.040 A 
ATOM     81  C   UNL A   1      46.084  35.185  28.727  1.00  0.00     0.040 A 
ATOM     82  F   UNL A   1      44.569  33.952  27.428  1.00  0.00    -0.206 F 
ATOM     83  C   UNL A   1      46.883  35.309  29.862  1.00  0.00     0.006 A 
ENDBRANCH  59  76
ENDBRANCH  33  34
ENDBRANCH  26  28
ENDBRANCH  25  26
ENDBRANCH   1  25
TORSDOF 12
ENDMDL
MODEL 3
REMARK VINA RESULT:     -11.8      5.861      8.507
REMARK SMILES Cc1ccc(-c2cc(C(=O)OCCOC(=O)c3ccc(-c4c5nc(c(-c6c(F)cccc6F)c6ccc([nH]6)c(-c6c(F)cccc6F)c6nc(c(-c7c(F)cccc7F)c7ccc4[nH]7)C=C6)C=C5)cc3)c3cc(C)ccc3n2)c(C)c1
REMARK SMILES IDX 13 1 12 2 11 3 9 4 10 5 8 6 6 7 7 8 78 9 77 10 71 11 76 12
REMARK SMILES IDX 72 13 75 14 73 15 74 16 5 17 1 18 2 19 3 20 81 21 4 22 79 23
REMARK SMILES IDX 80 24 14 25 15 26 16 27 17 28 18 29 70 30 19 31 69 32 20 33
REMARK SMILES IDX 21 34 22 35 63 36 23 37 68 38 62 39 64 40 24 41 67 42 61 43
REMARK SMILES IDX 60 44 25 46 51 47 34 48 50 49 35 50 38 51 49 52 65 53 36 54
REMARK SMILES IDX 37 55 48 57 66 58 39 59 26 60 27 61 32 62 28 63 29 64 31 65
REMARK SMILES IDX 33 66 30 67 52 68 53 69 58 70 54 71 55 72 57 73 59 74 56 75
REMARK SMILES IDX 40 76 41 77 46 78 42 79 43 80 45 81 47 82 44 83
REMARK H PARENT 64 45 38 56
REMARK Flexibility Score: inf
ROOT
ATOM      1  C   UNL A   1      33.673  30.970  27.624  1.00  0.00     0.275 C 
ENDROOT
BRANCH   1   2
ATOM      2  C   UNL A   1      33.693  29.744  26.715  1.00  0.00     0.275 C 
BRANCH   2   3
ATOM      3  O   UNL A   1      33.521  28.536  27.485  1.00  0.00    -0.458 OA
BRANCH   3   4
ATOM      4  C   UNL A   1      32.371  27.843  27.285  1.00  0.00     0.339 C 
ATOM      5  O   UNL A   1      31.345  27.940  27.926  1.00  0.00    -0.246 OA
BRANCH   4   6
ATOM      6  C   UNL A   1      32.467  27.016  26.056  1.00  0.00     0.071 A 
ATOM      7  C   UNL A   1      33.441  25.079  25.040  1.00  0.00     0.072 A 
ATOM      8  C   UNL A   1      33.340  25.932  26.122  1.00  0.00     0.045 A 
ATOM      9  N   UNL A   1      32.782  25.311  23.887  1.00  0.00    -0.248 NA
ATOM     10  C   UNL A   1      32.003  26.405  23.790  1.00  0.00     0.072 A 
ATOM     11  C   UNL A   1      31.789  27.304  24.856  1.00  0.00     0.015 A 
ATOM     12  C   UNL A   1      31.399  26.672  22.569  1.00  0.00     0.029 A 
ATOM     13  C   UNL A   1      30.965  28.438  24.646  1.00  0.00     0.014 A 
ATOM     14  C   UNL A   1      30.593  27.797  22.367  1.00  0.00     0.005 A 
ATOM     15  C   UNL A   1      30.370  28.693  23.407  1.00  0.00    -0.050 A 
ATOM     16  C   UNL A   1      29.496  29.898  23.234  1.00  0.00     0.044 C 
BRANCH   7  17
ATOM     17  C   UNL A   1      34.302  23.891  25.113  1.00  0.00     0.003 A 
ATOM     18  C   UNL A   1      36.919  20.434  24.997  1.00  0.00     0.044 C 
ATOM     19  C   UNL A   1      36.027  21.641  25.042  1.00  0.00    -0.051 A 
ATOM     20  C   UNL A   1      36.540  22.924  24.861  1.00  0.00     0.004 A 
ATOM     21  C   UNL A   1      34.655  21.486  25.274  1.00  0.00     0.007 A 
ATOM     22  C   UNL A   1      35.689  24.033  24.901  1.00  0.00     0.011 A 
ATOM     23  C   UNL A   1      33.784  22.592  25.299  1.00  0.00    -0.041 A 
ATOM     24  C   UNL A   1      32.323  22.331  25.552  1.00  0.00     0.045 C 
ENDBRANCH   7  17
ENDBRANCH   4   6
ENDBRANCH   3   4
ENDBRANCH   2   3
ENDBRANCH   1   2
BRANCH   1  25
ATOM     25  O   UNL A   1      35.015  31.457  27.803  1.00  0.00    -0.458 OA
BRANCH  25  26
ATOM     26  C   UNL A   1      35.543  31.256  29.030  1.00  0.00     0.338 C 
ATOM     27  O   UNL A   1      35.080  31.580  30.111  1.00  0.00    -0.246 OA
BRANCH  26  28
ATOM     28  C   UNL A   1      36.769  30.460  28.902  1.00  0.00     0.060 A 
ATOM     29  C   UNL A   1      37.445  30.118  30.067  1.00  0.00     0.016 A 
ATOM     30  C   UNL A   1      37.335  30.197  27.659  1.00  0.00     0.016 A 
ATOM     31  C   UNL A   1      38.743  29.623  30.009  1.00  0.00     0.010 A 
ATOM     32  C   UNL A   1      38.595  29.588  27.600  1.00  0.00     0.010 A 
ATOM     33  C   UNL A   1      39.336  29.334  28.773  1.00  0.00    -0.014 A 
BRANCH  33  34
ATOM     34  C   UNL A   1      40.732  28.814  28.701  1.00  0.00     0.031 A 
ATOM     35  C   UNL A   1      41.895  29.743  28.946  1.00  0.00     0.074 A 
ATOM     36  C   UNL A   1      40.975  27.515  28.431  1.00  0.00     0.049 A 
ATOM     37  N   UNL A   1      43.171  29.556  28.713  1.00  0.00    -0.248 NA
ATOM     38  C   UNL A   1      41.581  31.064  29.513  1.00  0.00     0.031 C 
ATOM     39  C   UNL A   1      39.959  26.480  28.233  1.00  0.00     0.029 A 
ATOM     40  N   UNL A   1      42.163  26.839  28.278  1.00  0.00    -0.354 N 
ATOM     41  C   UNL A   1      43.799  30.750  29.050  1.00  0.00     0.074 A 
ATOM     42  C   UNL A   1      42.766  31.658  29.497  1.00  0.00     0.031 C 
ATOM     43  C   UNL A   1      40.561  25.300  28.022  1.00  0.00     0.029 A 
ATOM     44  C   UNL A   1      42.003  25.508  27.968  1.00  0.00     0.049 A 
ATOM     45  H   UNL A   1      43.044  27.266  28.380  1.00  0.00     0.167 HD
ATOM     46  C   UNL A   1      45.118  31.058  28.993  1.00  0.00     0.037 A 
ATOM     47  C   UNL A   1      42.905  24.570  27.625  1.00  0.00     0.037 A 
ATOM     48  C   UNL A   1      46.151  30.135  28.601  1.00  0.00     0.049 A 
ATOM     49  C   UNL A   1      44.355  24.952  27.521  1.00  0.00     0.074 A 
ATOM     50  C   UNL A   1      47.514  30.356  28.498  1.00  0.00     0.029 A 
ATOM     51  N   UNL A   1      45.937  28.805  28.273  1.00  0.00    -0.354 N 
ATOM     52  N   UNL A   1      44.928  26.105  27.765  1.00  0.00    -0.248 NA
ATOM     53  C   UNL A   1      45.284  23.904  27.069  1.00  0.00     0.031 C 
ATOM     54  C   UNL A   1      48.122  29.167  28.084  1.00  0.00     0.029 A 
ATOM     55  C   UNL A   1      47.143  28.195  27.969  1.00  0.00     0.049 A 
ATOM     56  H   UNL A   1      45.059  28.361  28.257  1.00  0.00     0.167 HD
ATOM     57  C   UNL A   1      46.280  25.916  27.520  1.00  0.00     0.074 A 
ATOM     58  C   UNL A   1      46.448  24.533  27.128  1.00  0.00     0.031 C 
ATOM     59  C   UNL A   1      47.294  26.811  27.604  1.00  0.00     0.037 A 
BRANCH  46  60
ATOM     60  C   UNL A   1      45.526  32.459  29.350  1.00  0.00     0.057 A 
ATOM     61  C   UNL A   1      45.526  33.493  28.406  1.00  0.00     0.134 A 
ATOM     62  C   UNL A   1      45.865  32.787  30.669  1.00  0.00     0.134 A 
ATOM     63  F   UNL A   1      45.223  33.243  27.123  1.00  0.00    -0.206 F 
ATOM     64  C   UNL A   1      45.860  34.802  28.760  1.00  0.00     0.040 A 
ATOM     65  C   UNL A   1      46.178  34.096  31.040  1.00  0.00     0.040 A 
ATOM     66  F   UNL A   1      45.879  31.844  31.623  1.00  0.00    -0.206 F 
ATOM     67  C   UNL A   1      46.179  35.108  30.082  1.00  0.00     0.006 A 
ENDBRANCH  46  60
BRANCH  47  68
ATOM     68  C   UNL A   1      42.467  23.188  27.295  1.00  0.00     0.057 A 
ATOM     69  C   UNL A   1      42.174  22.261  28.302  1.00  0.00     0.134 A 
ATOM     70  C   UNL A   1      42.365  22.750  25.969  1.00  0.00     0.134 A 
ATOM     71  F   UNL A   1      42.280  22.610  29.593  1.00  0.00    -0.206 F 
ATOM     72  C   UNL A   1      41.820  20.944  28.004  1.00  0.00     0.040 A 
ATOM     73  C   UNL A   1      41.979  21.446  25.655  1.00  0.00     0.040 A 
ATOM     74  F   UNL A   1      42.631  23.588  24.956  1.00  0.00    -0.206 F 
ATOM     75  C   UNL A   1      41.716  20.535  26.676  1.00  0.00     0.006 A 
ENDBRANCH  47  68
BRANCH  59  76
ATOM     76  C   UNL A   1      48.676  26.304  27.320  1.00  0.00     0.057 A 
ATOM     77  C   UNL A   1      49.452  25.678  28.303  1.00  0.00     0.134 A 
ATOM     78  C   UNL A   1      49.226  26.427  26.038  1.00  0.00     0.134 A 
ATOM     79  F   UNL A   1      48.987  25.545  29.554  1.00  0.00    -0.206 F 
ATOM     80  C   UNL A   1      50.739  25.214  28.027  1.00  0.00     0.040 A 
ATOM     81  C   UNL A   1      50.503  25.945  25.744  1.00  0.00     0.040 A 
ATOM     82  F   UNL A   1      48.532  27.011  25.050  1.00  0.00    -0.206 F 
ATOM     83  C   UNL A   1      51.265  25.342  26.742  1.00  0.00     0.006 A 
ENDBRANCH  59  76
ENDBRANCH  33  34
ENDBRANCH  26  28
ENDBRANCH  25  26
ENDBRANCH   1  25
TORSDOF 12
ENDMDL
