MODEL 1
REMARK VINA RESULT:      -9.1      0.000      0.000
REMARK SMILES CC/C=C/C/C=C/C/C=C/C/C=C/CCSCCCC(=O)OCCOC(=O)c1ccc(-c2c3nc(c(-c4c(F)cccc4F)c4ccc([nH]4)c(-c4c(F)cccc4F)c4nc(c(-c5c(F)cccc5F)c5ccc2[nH]5)C=C4)C=C3)cc1
REMARK SMILES IDX 17 1 16 2 15 3 14 4 13 5 12 6 11 7 10 8 9 9 8 10 7 11 6 12
REMARK SMILES IDX 5 13 4 14 3 15 2 16 1 17 18 18 19 19 20 20 21 21 22 22 23 23
REMARK SMILES IDX 24 24 25 25 26 26 27 27 28 28 29 29 81 30 30 31 80 32 31 33
REMARK SMILES IDX 32 34 33 35 74 36 34 37 79 38 73 39 75 40 35 41 78 42 72 43
REMARK SMILES IDX 71 44 36 46 62 47 45 48 61 49 46 50 49 51 60 52 76 53 47 54
REMARK SMILES IDX 48 55 59 57 77 58 50 59 37 60 38 61 43 62 39 63 40 64 42 65
REMARK SMILES IDX 44 66 41 67 63 68 64 69 69 70 65 71 66 72 68 73 70 74 67 75
REMARK SMILES IDX 51 76 52 77 57 78 53 79 54 80 56 81 58 82 55 83
REMARK H PARENT 75 45 49 56
REMARK Flexibility Score: inf
ROOT
ATOM      1  C   UNL A   1      33.957  27.208  24.083  1.00  0.00     0.070 C 
ENDROOT
BRANCH   1   2
ATOM      2  S   UNL A   1      33.043  27.128  22.501  1.00  0.00    -0.162 SA
BRANCH   2   3
ATOM      3  C   UNL A   1      31.872  28.537  22.498  1.00  0.00     0.073 C 
BRANCH   3   4
ATOM      4  C   UNL A   1      30.417  28.272  22.929  1.00  0.00     0.038 C 
BRANCH   4   5
ATOM      5  C   UNL A   1      30.232  27.664  24.298  1.00  0.00    -0.030 C 
ATOM      6  C   UNL A   1      30.062  26.346  24.531  1.00  0.00    -0.027 C 
BRANCH   6   7
ATOM      7  C   UNL A   1      29.883  25.679  25.881  1.00  0.00     0.054 C 
BRANCH   7   8
ATOM      8  C   UNL A   1      31.031  24.767  26.232  1.00  0.00    -0.027 C 
ATOM      9  C   UNL A   1      30.934  23.437  26.410  1.00  0.00    -0.027 C 
BRANCH   9  10
ATOM     10  C   UNL A   1      32.119  22.554  26.681  1.00  0.00     0.054 C 
BRANCH  10  11
ATOM     11  C   UNL A   1      32.616  21.866  25.447  1.00  0.00    -0.027 C 
ATOM     12  C   UNL A   1      32.173  20.675  25.015  1.00  0.00    -0.027 C 
BRANCH  12  13
ATOM     13  C   UNL A   1      32.748  19.965  23.824  1.00  0.00     0.054 C 
BRANCH  13  14
ATOM     14  C   UNL A   1      33.406  18.699  24.285  1.00  0.00    -0.027 C 
ATOM     15  C   UNL A   1      32.828  17.489  24.279  1.00  0.00    -0.031 C 
BRANCH  15  16
ATOM     16  C   UNL A   1      33.479  16.270  24.863  1.00  0.00     0.023 C 
ATOM     17  C   UNL A   1      32.471  15.458  25.664  1.00  0.00     0.008 C 
ENDBRANCH  15  16
ENDBRANCH  13  14
ENDBRANCH  12  13
ENDBRANCH  10  11
ENDBRANCH   9  10
ENDBRANCH   7   8
ENDBRANCH   6   7
ENDBRANCH   4   5
ENDBRANCH   3   4
ENDBRANCH   2   3
ENDBRANCH   1   2
BRANCH   1  18
ATOM     18  C   UNL A   1      33.645  28.299  25.114  1.00  0.00     0.023 C 
BRANCH  18  19
ATOM     19  C   UNL A   1      33.259  27.863  26.515  1.00  0.00     0.123 C 
BRANCH  19  20
ATOM     20  C   UNL A   1      32.160  28.668  27.158  1.00  0.00     0.305 C 
ATOM     21  O   UNL A   1      31.412  28.178  27.991  1.00  0.00    -0.252 OA
BRANCH  20  22
ATOM     22  O   UNL A   1      32.061  29.926  26.660  1.00  0.00    -0.462 OA
BRANCH  22  23
ATOM     23  C   UNL A   1      32.849  30.947  27.294  1.00  0.00     0.274 C 
BRANCH  23  24
ATOM     24  C   UNL A   1      32.183  32.318  27.313  1.00  0.00     0.275 C 
BRANCH  24  25
ATOM     25  O   UNL A   1      33.134  33.383  27.206  1.00  0.00    -0.458 OA
BRANCH  25  26
ATOM     26  C   UNL A   1      33.264  34.131  28.326  1.00  0.00     0.338 C 
ATOM     27  O   UNL A   1      32.531  35.015  28.729  1.00  0.00    -0.246 OA
BRANCH  26  28
ATOM     28  C   UNL A   1      34.417  33.642  29.086  1.00  0.00     0.060 A 
ATOM     29  C   UNL A   1      35.702  33.846  28.574  1.00  0.00     0.016 A 
ATOM     30  C   UNL A   1      34.211  32.918  30.256  1.00  0.00     0.016 A 
ATOM     31  C   UNL A   1      36.802  33.302  29.219  1.00  0.00     0.010 A 
ATOM     32  C   UNL A   1      35.315  32.379  30.911  1.00  0.00     0.010 A 
ATOM     33  C   UNL A   1      36.608  32.544  30.374  1.00  0.00    -0.014 A 
BRANCH  33  34
ATOM     34  C   UNL A   1      37.723  31.740  30.905  1.00  0.00     0.031 A 
ATOM     35  C   UNL A   1      38.190  32.048  32.295  1.00  0.00     0.074 A 
ATOM     36  C   UNL A   1      38.278  30.755  30.182  1.00  0.00     0.049 A 
ATOM     37  N   UNL A   1      39.241  31.612  32.934  1.00  0.00    -0.248 NA
ATOM     38  C   UNL A   1      37.366  33.000  33.062  1.00  0.00     0.031 C 
ATOM     39  C   UNL A   1      37.844  30.324  28.853  1.00  0.00     0.029 A 
ATOM     40  N   UNL A   1      39.342  29.941  30.469  1.00  0.00    -0.354 N 
ATOM     41  C   UNL A   1      39.222  32.263  34.160  1.00  0.00     0.074 A 
ATOM     42  C   UNL A   1      38.086  33.155  34.160  1.00  0.00     0.031 C 
ATOM     43  C   UNL A   1      38.652  29.337  28.429  1.00  0.00     0.029 A 
ATOM     44  C   UNL A   1      39.677  29.098  29.439  1.00  0.00     0.049 A 
ATOM     45  H   UNL A   1      39.820  29.960  31.330  1.00  0.00     0.167 HD
ATOM     46  C   UNL A   1      40.074  32.114  35.199  1.00  0.00     0.037 A 
ATOM     47  C   UNL A   1      40.718  28.253  29.326  1.00  0.00     0.037 A 
ATOM     48  C   UNL A   1      41.181  31.200  35.190  1.00  0.00     0.049 A 
ATOM     49  C   UNL A   1      41.691  28.150  30.472  1.00  0.00     0.074 A 
ATOM     50  C   UNL A   1      42.112  30.960  36.182  1.00  0.00     0.029 A 
ATOM     51  N   UNL A   1      41.495  30.364  34.127  1.00  0.00    -0.354 N 
ATOM     52  N   UNL A   1      41.683  28.777  31.625  1.00  0.00    -0.248 NA
ATOM     53  C   UNL A   1      42.815  27.221  30.303  1.00  0.00     0.031 C 
ATOM     54  C   UNL A   1      43.017  30.007  35.702  1.00  0.00     0.029 A 
ATOM     55  C   UNL A   1      42.616  29.616  34.433  1.00  0.00     0.049 A 
ATOM     56  H   UNL A   1      40.994  30.312  33.281  1.00  0.00     0.167 HD
ATOM     57  C   UNL A   1      42.778  28.295  32.330  1.00  0.00     0.074 A 
ATOM     58  C   UNL A   1      43.420  27.313  31.479  1.00  0.00     0.031 C 
ATOM     59  C   UNL A   1      43.217  28.630  33.569  1.00  0.00     0.037 A 
BRANCH  46  60
ATOM     60  C   UNL A   1      39.842  32.984  36.399  1.00  0.00     0.057 A 
ATOM     61  C   UNL A   1      40.558  34.171  36.608  1.00  0.00     0.134 A 
ATOM     62  C   UNL A   1      38.911  32.611  37.376  1.00  0.00     0.134 A 
ATOM     63  F   UNL A   1      41.485  34.571  35.723  1.00  0.00    -0.206 F 
ATOM     64  C   UNL A   1      40.384  34.935  37.762  1.00  0.00     0.040 A 
ATOM     65  C   UNL A   1      38.705  33.385  38.520  1.00  0.00     0.040 A 
ATOM     66  F   UNL A   1      38.195  31.485  37.242  1.00  0.00    -0.206 F 
ATOM     67  C   UNL A   1      39.450  34.545  38.719  1.00  0.00     0.006 A 
ENDBRANCH  46  60
BRANCH  47  68
ATOM     68  C   UNL A   1      40.909  27.455  28.088  1.00  0.00     0.057 A 
ATOM     69  C   UNL A   1      41.649  27.954  27.010  1.00  0.00     0.134 A 
ATOM     70  C   UNL A   1      40.331  26.187  27.938  1.00  0.00     0.134 A 
ATOM     71  F   UNL A   1      42.213  29.169  27.086  1.00  0.00    -0.206 F 
ATOM     72  C   UNL A   1      41.782  27.240  25.819  1.00  0.00     0.040 A 
ATOM     73  C   UNL A   1      40.480  25.449  26.763  1.00  0.00     0.040 A 
ATOM     74  F   UNL A   1      39.616  25.644  28.936  1.00  0.00    -0.206 F 
ATOM     75  C   UNL A   1      41.198  25.981  25.694  1.00  0.00     0.006 A 
ENDBRANCH  47  68
BRANCH  59  76
ATOM     76  C   UNL A   1      44.414  27.894  34.096  1.00  0.00     0.057 A 
ATOM     77  C   UNL A   1      45.708  28.417  33.999  1.00  0.00     0.134 A 
ATOM     78  C   UNL A   1      44.254  26.672  34.763  1.00  0.00     0.134 A 
ATOM     79  F   UNL A   1      45.928  29.577  33.362  1.00  0.00    -0.206 F 
ATOM     80  C   UNL A   1      46.807  27.740  34.532  1.00  0.00     0.040 A 
ATOM     81  C   UNL A   1      45.340  26.002  35.326  1.00  0.00     0.040 A 
ATOM     82  F   UNL A   1      43.038  26.123  34.900  1.00  0.00    -0.206 F 
ATOM     83  C   UNL A   1      46.622  26.535  35.206  1.00  0.00     0.006 A 
ENDBRANCH  59  76
ENDBRANCH  33  34
ENDBRANCH  26  28
ENDBRANCH  25  26
ENDBRANCH  24  25
ENDBRANCH  23  24
ENDBRANCH  22  23
ENDBRANCH  20  22
ENDBRANCH  19  20
ENDBRANCH  18  19
ENDBRANCH   1  18
TORSDOF 24
ENDMDL
MODEL 2
REMARK VINA RESULT:      -9.0      4.444      6.421
REMARK SMILES CC/C=C/C/C=C/C/C=C/C/C=C/CCSCCCC(=O)OCCOC(=O)c1ccc(-c2c3nc(c(-c4c(F)cccc4F)c4ccc([nH]4)c(-c4c(F)cccc4F)c4nc(c(-c5c(F)cccc5F)c5ccc2[nH]5)C=C4)C=C3)cc1
REMARK SMILES IDX 17 1 16 2 15 3 14 4 13 5 12 6 11 7 10 8 9 9 8 10 7 11 6 12
REMARK SMILES IDX 5 13 4 14 3 15 2 16 1 17 18 18 19 19 20 20 21 21 22 22 23 23
REMARK SMILES IDX 24 24 25 25 26 26 27 27 28 28 29 29 81 30 30 31 80 32 31 33
REMARK SMILES IDX 32 34 33 35 74 36 34 37 79 38 73 39 75 40 35 41 78 42 72 43
REMARK SMILES IDX 71 44 36 46 62 47 45 48 61 49 46 50 49 51 60 52 76 53 47 54
REMARK SMILES IDX 48 55 59 57 77 58 50 59 37 60 38 61 43 62 39 63 40 64 42 65
REMARK SMILES IDX 44 66 41 67 63 68 64 69 69 70 65 71 66 72 68 73 70 74 67 75
REMARK SMILES IDX 51 76 52 77 57 78 53 79 54 80 56 81 58 82 55 83
REMARK H PARENT 75 45 49 56
REMARK Flexibility Score: inf
ROOT
ATOM      1  C   UNL A   1      33.497  25.823  25.924  1.00  0.00     0.070 C 
ENDROOT
BRANCH   1   2
ATOM      2  S   UNL A   1      31.976  24.849  26.207  1.00  0.00    -0.162 SA
BRANCH   2   3
ATOM      3  C   UNL A   1      30.572  26.021  26.087  1.00  0.00     0.073 C 
BRANCH   3   4
ATOM      4  C   UNL A   1      29.673  25.951  24.837  1.00  0.00     0.038 C 
BRANCH   4   5
ATOM      5  C   UNL A   1      30.361  25.573  23.547  1.00  0.00    -0.030 C 
ATOM      6  C   UNL A   1      31.186  26.385  22.855  1.00  0.00    -0.027 C 
BRANCH   6   7
ATOM      7  C   UNL A   1      31.911  26.057  21.564  1.00  0.00     0.054 C 
BRANCH   7   8
ATOM      8  C   UNL A   1      32.850  24.887  21.711  1.00  0.00    -0.027 C 
ATOM      9  C   UNL A   1      33.592  24.625  22.803  1.00  0.00    -0.027 C 
BRANCH   9  10
ATOM     10  C   UNL A   1      34.456  23.403  22.937  1.00  0.00     0.054 C 
BRANCH  10  11
ATOM     11  C   UNL A   1      33.919  22.428  23.939  1.00  0.00    -0.027 C 
ATOM     12  C   UNL A   1      32.703  21.862  23.866  1.00  0.00    -0.027 C 
BRANCH  12  13
ATOM     13  C   UNL A   1      32.154  20.954  24.929  1.00  0.00     0.054 C 
BRANCH  13  14
ATOM     14  C   UNL A   1      32.574  19.546  24.627  1.00  0.00    -0.027 C 
ATOM     15  C   UNL A   1      32.595  18.998  23.404  1.00  0.00    -0.031 C 
BRANCH  15  16
ATOM     16  C   UNL A   1      32.905  17.550  23.162  1.00  0.00     0.023 C 
ATOM     17  C   UNL A   1      33.085  16.815  24.481  1.00  0.00     0.008 C 
ENDBRANCH  15  16
ENDBRANCH  13  14
ENDBRANCH  12  13
ENDBRANCH  10  11
ENDBRANCH   9  10
ENDBRANCH   7   8
ENDBRANCH   6   7
ENDBRANCH   4   5
ENDBRANCH   3   4
ENDBRANCH   2   3
ENDBRANCH   1   2
BRANCH   1  18
ATOM     18  C   UNL A   1      33.426  27.333  25.669  1.00  0.00     0.023 C 
BRANCH  18  19
ATOM     19  C   UNL A   1      33.865  28.263  26.785  1.00  0.00     0.123 C 
BRANCH  19  20
ATOM     20  C   UNL A   1      33.204  29.616  26.790  1.00  0.00     0.305 C 
ATOM     21  O   UNL A   1      32.000  29.741  26.619  1.00  0.00    -0.252 OA
BRANCH  20  22
ATOM     22  O   UNL A   1      34.086  30.639  26.924  1.00  0.00    -0.462 OA
BRANCH  22  23
ATOM     23  C   UNL A   1      33.640  31.801  27.641  1.00  0.00     0.274 C 
BRANCH  23  24
ATOM     24  C   UNL A   1      34.458  32.106  28.891  1.00  0.00     0.275 C 
BRANCH  24  25
ATOM     25  O   UNL A   1      35.282  31.001  29.282  1.00  0.00    -0.458 OA
BRANCH  25  26
ATOM     26  C   UNL A   1      36.295  31.328  30.117  1.00  0.00     0.338 C 
ATOM     27  O   UNL A   1      36.275  32.106  31.054  1.00  0.00    -0.246 OA
BRANCH  26  28
ATOM     28  C   UNL A   1      37.459  30.503  29.790  1.00  0.00     0.060 A 
ATOM     29  C   UNL A   1      38.198  29.931  30.831  1.00  0.00     0.016 A 
ATOM     30  C   UNL A   1      37.856  30.369  28.464  1.00  0.00     0.016 A 
ATOM     31  C   UNL A   1      39.364  29.234  30.555  1.00  0.00     0.010 A 
ATOM     32  C   UNL A   1      39.021  29.661  28.183  1.00  0.00     0.010 A 
ATOM     33  C   UNL A   1      39.793  29.121  29.231  1.00  0.00    -0.014 A 
BRANCH  33  34
ATOM     34  C   UNL A   1      41.154  28.631  28.953  1.00  0.00     0.031 A 
ATOM     35  C   UNL A   1      42.275  29.620  29.054  1.00  0.00     0.074 A 
ATOM     36  C   UNL A   1      41.382  27.343  28.650  1.00  0.00     0.049 A 
ATOM     37  N   UNL A   1      43.527  29.496  28.708  1.00  0.00    -0.248 NA
ATOM     38  C   UNL A   1      41.926  30.944  29.602  1.00  0.00     0.031 C 
ATOM     39  C   UNL A   1      40.372  26.286  28.605  1.00  0.00     0.029 A 
ATOM     40  N   UNL A   1      42.548  26.709  28.311  1.00  0.00    -0.354 N 
ATOM     41  C   UNL A   1      44.103  30.733  28.962  1.00  0.00     0.074 A 
ATOM     42  C   UNL A   1      43.059  31.606  29.447  1.00  0.00     0.031 C 
ATOM     43  C   UNL A   1      40.961  25.136  28.236  1.00  0.00     0.029 A 
ATOM     44  C   UNL A   1      42.375  25.388  27.982  1.00  0.00     0.049 A 
ATOM     45  H   UNL A   1      43.425  27.158  28.303  1.00  0.00     0.167 HD
ATOM     46  C   UNL A   1      45.396  31.099  28.816  1.00  0.00     0.037 A 
ATOM     47  C   UNL A   1      43.265  24.500  27.501  1.00  0.00     0.037 A 
ATOM     48  C   UNL A   1      46.424  30.207  28.360  1.00  0.00     0.049 A 
ATOM     49  C   UNL A   1      44.687  24.948  27.286  1.00  0.00     0.074 A 
ATOM     50  C   UNL A   1      47.769  30.461  28.173  1.00  0.00     0.029 A 
ATOM     51  N   UNL A   1      46.212  28.875  28.030  1.00  0.00    -0.354 N 
ATOM     52  N   UNL A   1      45.229  26.122  27.510  1.00  0.00    -0.248 NA
ATOM     53  C   UNL A   1      45.621  23.948  26.754  1.00  0.00     0.031 C 
ATOM     54  C   UNL A   1      48.365  29.293  27.686  1.00  0.00     0.029 A 
ATOM     55  C   UNL A   1      47.401  28.297  27.624  1.00  0.00     0.049 A 
ATOM     56  H   UNL A   1      45.345  28.412  28.076  1.00  0.00     0.167 HD
ATOM     57  C   UNL A   1      46.572  25.993  27.180  1.00  0.00     0.074 A 
ATOM     58  C   UNL A   1      46.763  24.622  26.751  1.00  0.00     0.031 C 
ATOM     59  C   UNL A   1      47.560  26.921  27.224  1.00  0.00     0.037 A 
BRANCH  46  60
ATOM     60  C   UNL A   1      45.738  32.526  29.126  1.00  0.00     0.057 A 
ATOM     61  C   UNL A   1      46.245  32.917  30.372  1.00  0.00     0.134 A 
ATOM     62  C   UNL A   1      45.526  33.529  28.171  1.00  0.00     0.134 A 
ATOM     63  F   UNL A   1      46.445  32.008  31.340  1.00  0.00    -0.206 F 
ATOM     64  C   UNL A   1      46.492  34.257  30.672  1.00  0.00     0.040 A 
ATOM     65  C   UNL A   1      45.801  34.870  28.449  1.00  0.00     0.040 A 
ATOM     66  F   UNL A   1      45.039  33.226  26.959  1.00  0.00    -0.206 F 
ATOM     67  C   UNL A   1      46.276  35.237  29.706  1.00  0.00     0.006 A 
ENDBRANCH  46  60
BRANCH  47  68
ATOM     68  C   UNL A   1      42.842  23.114  27.174  1.00  0.00     0.057 A 
ATOM     69  C   UNL A   1      42.616  22.718  25.851  1.00  0.00     0.134 A 
ATOM     70  C   UNL A   1      42.625  22.159  28.177  1.00  0.00     0.134 A 
ATOM     71  F   UNL A   1      42.791  23.591  24.847  1.00  0.00    -0.206 F 
ATOM     72  C   UNL A   1      42.160  21.438  25.537  1.00  0.00     0.040 A 
ATOM     73  C   UNL A   1      42.196  20.866  27.874  1.00  0.00     0.040 A 
ATOM     74  F   UNL A   1      42.831  22.469  29.465  1.00  0.00    -0.206 F 
ATOM     75  C   UNL A   1      41.950  20.506  26.551  1.00  0.00     0.006 A 
ENDBRANCH  47  68
BRANCH  59  76
ATOM     76  C   UNL A   1      48.942  26.471  26.851  1.00  0.00     0.057 A 
ATOM     77  C   UNL A   1      49.769  25.790  27.752  1.00  0.00     0.134 A 
ATOM     78  C   UNL A   1      49.424  26.671  25.551  1.00  0.00     0.134 A 
ATOM     79  F   UNL A   1      49.370  25.578  29.016  1.00  0.00    -0.206 F 
ATOM     80  C   UNL A   1      51.036  25.340  27.378  1.00  0.00     0.040 A 
ATOM     81  C   UNL A   1      50.675  26.199  25.156  1.00  0.00     0.040 A 
ATOM     82  F   UNL A   1      48.676  27.306  24.636  1.00  0.00    -0.206 F 
ATOM     83  C   UNL A   1      51.487  25.535  26.074  1.00  0.00     0.006 A 
ENDBRANCH  59  76
ENDBRANCH  33  34
ENDBRANCH  26  28
ENDBRANCH  25  26
ENDBRANCH  24  25
ENDBRANCH  23  24
ENDBRANCH  22  23
ENDBRANCH  20  22
ENDBRANCH  19  20
ENDBRANCH  18  19
ENDBRANCH   1  18
TORSDOF 24
ENDMDL
MODEL 3
REMARK VINA RESULT:      -8.7      4.969     10.493
REMARK SMILES CC/C=C/C/C=C/C/C=C/C/C=C/CCSCCCC(=O)OCCOC(=O)c1ccc(-c2c3nc(c(-c4c(F)cccc4F)c4ccc([nH]4)c(-c4c(F)cccc4F)c4nc(c(-c5c(F)cccc5F)c5ccc2[nH]5)C=C4)C=C3)cc1
REMARK SMILES IDX 17 1 16 2 15 3 14 4 13 5 12 6 11 7 10 8 9 9 8 10 7 11 6 12
REMARK SMILES IDX 5 13 4 14 3 15 2 16 1 17 18 18 19 19 20 20 21 21 22 22 23 23
REMARK SMILES IDX 24 24 25 25 26 26 27 27 28 28 29 29 81 30 30 31 80 32 31 33
REMARK SMILES IDX 32 34 33 35 74 36 34 37 79 38 73 39 75 40 35 41 78 42 72 43
REMARK SMILES IDX 71 44 36 46 62 47 45 48 61 49 46 50 49 51 60 52 76 53 47 54
REMARK SMILES IDX 48 55 59 57 77 58 50 59 37 60 38 61 43 62 39 63 40 64 42 65
REMARK SMILES IDX 44 66 41 67 63 68 64 69 69 70 65 71 66 72 68 73 70 74 67 75
REMARK SMILES IDX 51 76 52 77 57 78 53 79 54 80 56 81 58 82 55 83
REMARK H PARENT 75 45 49 56
REMARK Flexibility Score: inf
ROOT
ATOM      1  C   UNL A   1      35.030  23.506  23.815  1.00  0.00     0.070 C 
ENDROOT
BRANCH   1   2
ATOM      2  S   UNL A   1      33.607  22.442  23.384  1.00  0.00    -0.162 SA
BRANCH   2   3
ATOM      3  C   UNL A   1      32.660  22.177  24.930  1.00  0.00     0.073 C 
BRANCH   3   4
ATOM      4  C   UNL A   1      31.856  23.361  25.501  1.00  0.00     0.038 C 
BRANCH   4   5
ATOM      5  C   UNL A   1      31.127  24.214  24.492  1.00  0.00    -0.030 C 
ATOM      6  C   UNL A   1      31.443  25.493  24.203  1.00  0.00    -0.027 C 
BRANCH   6   7
ATOM      7  C   UNL A   1      30.754  26.393  23.194  1.00  0.00     0.054 C 
BRANCH   7   8
ATOM      8  C   UNL A   1      30.816  27.848  23.583  1.00  0.00    -0.027 C 
ATOM      9  C   UNL A   1      31.283  28.314  24.756  1.00  0.00    -0.027 C 
BRANCH   9  10
ATOM     10  C   UNL A   1      31.401  29.779  25.071  1.00  0.00     0.054 C 
BRANCH  10  11
ATOM     11  C   UNL A   1      32.398  30.055  26.153  1.00  0.00    -0.027 C 
ATOM     12  C   UNL A   1      33.413  29.235  26.473  1.00  0.00    -0.027 C 
BRANCH  12  13
ATOM     13  C   UNL A   1      34.348  29.492  27.619  1.00  0.00     0.054 C 
BRANCH  13  14
ATOM     14  C   UNL A   1      34.855  30.900  27.523  1.00  0.00    -0.027 C 
ATOM     15  C   UNL A   1      34.394  31.932  28.245  1.00  0.00    -0.031 C 
BRANCH  15  16
ATOM     16  C   UNL A   1      34.845  33.347  28.030  1.00  0.00     0.023 C 
ATOM     17  C   UNL A   1      33.742  34.323  28.410  1.00  0.00     0.008 C 
ENDBRANCH  15  16
ENDBRANCH  13  14
ENDBRANCH  12  13
ENDBRANCH  10  11
ENDBRANCH   9  10
ENDBRANCH   7   8
ENDBRANCH   6   7
ENDBRANCH   4   5
ENDBRANCH   3   4
ENDBRANCH   2   3
ENDBRANCH   1   2
BRANCH   1  18
ATOM     18  C   UNL A   1      35.575  23.543  25.248  1.00  0.00     0.023 C 
BRANCH  18  19
ATOM     19  C   UNL A   1      36.259  22.297  25.779  1.00  0.00     0.123 C 
BRANCH  19  20
ATOM     20  C   UNL A   1      37.765  22.340  25.773  1.00  0.00     0.305 C 
ATOM     21  O   UNL A   1      38.384  23.146  26.453  1.00  0.00    -0.252 OA
BRANCH  20  22
ATOM     22  O   UNL A   1      38.319  21.464  24.897  1.00  0.00    -0.462 OA
BRANCH  22  23
ATOM     23  C   UNL A   1      37.915  20.089  25.001  1.00  0.00     0.274 C 
BRANCH  23  24
ATOM     24  C   UNL A   1      38.905  19.211  25.760  1.00  0.00     0.275 C 
BRANCH  24  25
ATOM     25  O   UNL A   1      40.260  19.629  25.564  1.00  0.00    -0.458 OA
BRANCH  25  26
ATOM     26  C   UNL A   1      40.989  19.711  26.701  1.00  0.00     0.338 C 
ATOM     27  O   UNL A   1      41.229  18.829  27.505  1.00  0.00    -0.246 OA
BRANCH  26  28
ATOM     28  C   UNL A   1      41.567  21.053  26.794  1.00  0.00     0.060 A 
ATOM     29  C   UNL A   1      42.036  21.506  28.031  1.00  0.00     0.016 A 
ATOM     30  C   UNL A   1      41.567  21.880  25.675  1.00  0.00     0.016 A 
ATOM     31  C   UNL A   1      42.490  22.808  28.170  1.00  0.00     0.010 A 
ATOM     32  C   UNL A   1      42.032  23.186  25.809  1.00  0.00     0.010 A 
ATOM     33  C   UNL A   1      42.463  23.659  27.064  1.00  0.00    -0.014 A 
BRANCH  33  34
ATOM     34  C   UNL A   1      42.678  25.104  27.261  1.00  0.00     0.031 A 
ATOM     35  C   UNL A   1      43.947  25.689  26.721  1.00  0.00     0.074 A 
ATOM     36  C   UNL A   1      41.761  25.867  27.876  1.00  0.00     0.049 A 
ATOM     37  N   UNL A   1      44.454  26.878  26.896  1.00  0.00    -0.248 NA
ATOM     38  C   UNL A   1      44.769  24.797  25.883  1.00  0.00     0.031 C 
ATOM     39  C   UNL A   1      40.461  25.410  28.366  1.00  0.00     0.029 A 
ATOM     40  N   UNL A   1      41.794  27.198  28.200  1.00  0.00    -0.354 N 
ATOM     41  C   UNL A   1      45.668  26.863  26.223  1.00  0.00     0.074 A 
ATOM     42  C   UNL A   1      45.843  25.538  25.675  1.00  0.00     0.031 C 
ATOM     43  C   UNL A   1      39.827  26.442  28.950  1.00  0.00     0.029 A 
ATOM     44  C   UNL A   1      40.695  27.614  28.908  1.00  0.00     0.049 A 
ATOM     45  H   UNL A   1      42.535  27.797  27.951  1.00  0.00     0.167 HD
ATOM     46  C   UNL A   1      46.550  27.876  26.065  1.00  0.00     0.037 A 
ATOM     47  C   UNL A   1      40.443  28.806  29.480  1.00  0.00     0.037 A 
ATOM     48  C   UNL A   1      46.342  29.195  26.593  1.00  0.00     0.049 A 
ATOM     49  C   UNL A   1      41.469  29.902  29.346  1.00  0.00     0.074 A 
ATOM     50  C   UNL A   1      47.162  30.303  26.498  1.00  0.00     0.029 A 
ATOM     51  N   UNL A   1      45.218  29.581  27.311  1.00  0.00    -0.354 N 
ATOM     52  N   UNL A   1      42.624  29.883  28.723  1.00  0.00    -0.248 NA
ATOM     53  C   UNL A   1      41.156  31.183  29.990  1.00  0.00     0.031 C 
ATOM     54  C   UNL A   1      46.553  31.350  27.197  1.00  0.00     0.029 A 
ATOM     55  C   UNL A   1      45.330  30.909  27.679  1.00  0.00     0.049 A 
ATOM     56  H   UNL A   1      44.457  28.996  27.527  1.00  0.00     0.167 HD
ATOM     57  C   UNL A   1      43.159  31.156  28.871  1.00  0.00     0.074 A 
ATOM     58  C   UNL A   1      42.195  31.925  29.633  1.00  0.00     0.031 C 
ATOM     59  C   UNL A   1      44.340  31.650  28.421  1.00  0.00     0.037 A 
BRANCH  46  60
ATOM     60  C   UNL A   1      47.814  27.567  25.320  1.00  0.00     0.057 A 
ATOM     61  C   UNL A   1      48.991  27.184  25.977  1.00  0.00     0.134 A 
ATOM     62  C   UNL A   1      47.862  27.687  23.925  1.00  0.00     0.134 A 
ATOM     63  F   UNL A   1      49.019  27.079  27.314  1.00  0.00    -0.206 F 
ATOM     64  C   UNL A   1      50.180  26.969  25.278  1.00  0.00     0.040 A 
ATOM     65  C   UNL A   1      49.037  27.442  23.212  1.00  0.00     0.040 A 
ATOM     66  F   UNL A   1      46.773  28.053  23.234  1.00  0.00    -0.206 F 
ATOM     67  C   UNL A   1      50.203  27.091  23.891  1.00  0.00     0.006 A 
ENDBRANCH  46  60
BRANCH  47  68
ATOM     68  C   UNL A   1      39.187  29.025  30.242  1.00  0.00     0.057 A 
ATOM     69  C   UNL A   1      39.095  28.695  31.599  1.00  0.00     0.134 A 
ATOM     70  C   UNL A   1      38.038  29.542  29.627  1.00  0.00     0.134 A 
ATOM     71  F   UNL A   1      40.155  28.181  32.241  1.00  0.00    -0.206 F 
ATOM     72  C   UNL A   1      37.902  28.838  32.308  1.00  0.00     0.040 A 
ATOM     73  C   UNL A   1      36.847  29.717  30.332  1.00  0.00     0.040 A 
ATOM     74  F   UNL A   1      38.059  29.887  28.331  1.00  0.00    -0.206 F 
ATOM     75  C   UNL A   1      36.773  29.353  31.675  1.00  0.00     0.006 A 
ENDBRANCH  47  68
BRANCH  59  76
ATOM     76  C   UNL A   1      44.628  33.097  28.694  1.00  0.00     0.057 A 
ATOM     77  C   UNL A   1      44.300  34.103  27.779  1.00  0.00     0.134 A 
ATOM     78  C   UNL A   1      45.187  33.487  29.917  1.00  0.00     0.134 A 
ATOM     79  F   UNL A   1      43.772  33.793  26.585  1.00  0.00    -0.206 F 
ATOM     80  C   UNL A   1      44.535  35.449  28.064  1.00  0.00     0.040 A 
ATOM     81  C   UNL A   1      45.399  34.830  30.226  1.00  0.00     0.040 A 
ATOM     82  F   UNL A   1      45.514  32.571  30.842  1.00  0.00    -0.206 F 
ATOM     83  C   UNL A   1      45.076  35.816  29.295  1.00  0.00     0.006 A 
ENDBRANCH  59  76
ENDBRANCH  33  34
ENDBRANCH  26  28
ENDBRANCH  25  26
ENDBRANCH  24  25
ENDBRANCH  23  24
ENDBRANCH  22  23
ENDBRANCH  20  22
ENDBRANCH  19  20
ENDBRANCH  18  19
ENDBRANCH   1  18
TORSDOF 24
ENDMDL
