MODEL 1
REMARK VINA RESULT:     -11.5      0.000      0.000
REMARK SMILES CCOc1cc(C(=O)OCCOC(=O)c2ccc(-c3c4nc(c(-c5c(F)cccc5F)c5ccc([nH]5)c(-c5c(F)cccc5F)c5nc(c(-c6c(F)cccc6F)c6ccc3[nH]6)C=C5)C=C4)cc2)c(NC(=O)c2ccccc2OC)cc1OC
REMARK SMILES IDX 10 1 9 2 7 3 8 4 6 5 4 6 5 7 82 8 81 9 69 10 3 11 2 12 1 13
REMARK SMILES IDX 83 14 84 15 70 16 71 17 72 19 73 20 74 21 78 22 75 23 77 24
REMARK SMILES IDX 76 25 79 26 80 27 11 28 12 29 13 30 14 31 15 32 16 33 68 34
REMARK SMILES IDX 17 35 67 36 18 37 19 38 20 39 61 40 21 41 66 42 60 43 62 44
REMARK SMILES IDX 22 45 65 46 59 47 58 48 23 50 49 51 32 52 48 53 33 54 36 55
REMARK SMILES IDX 47 56 63 57 34 58 35 59 46 61 64 62 37 63 24 64 25 65 30 66
REMARK SMILES IDX 26 67 27 68 29 69 31 70 28 71 50 72 51 73 56 74 52 75 53 76
REMARK SMILES IDX 55 77 57 78 54 79 38 80 39 81 44 82 40 83 41 84 43 85 45 86
REMARK SMILES IDX 42 87
REMARK H PARENT 70 18 62 49 36 60
REMARK Flexibility Score: inf
ROOT
ATOM      1  C   UNL A   1      33.612  30.125  27.259  1.00  0.00     0.275 C 
ENDROOT
BRANCH   1   2
ATOM      2  O   UNL A   1      32.290  29.993  26.704  1.00  0.00    -0.458 OA
BRANCH   2   3
ATOM      3  C   UNL A   1      31.796  28.732  26.789  1.00  0.00     0.340 C 
ATOM      4  O   UNL A   1      31.829  28.031  27.765  1.00  0.00    -0.246 OA
BRANCH   3   5
ATOM      5  C   UNL A   1      31.287  28.259  25.495  1.00  0.00     0.087 A 
ATOM      6  C   UNL A   1      30.767  28.707  23.166  1.00  0.00     0.162 A 
ATOM      7  C   UNL A   1      31.009  29.171  24.462  1.00  0.00     0.068 A 
ATOM      8  C   UNL A   1      30.973  27.356  22.881  1.00  0.00     0.162 A 
ATOM      9  C   UNL A   1      31.139  26.455  23.949  1.00  0.00     0.077 A 
ATOM     10  C   UNL A   1      31.169  26.891  25.280  1.00  0.00     0.060 A 
BRANCH   6  11
ATOM     11  O   UNL A   1      30.457  29.615  22.189  1.00  0.00    -0.490 OA
BRANCH  11  12
ATOM     12  C   UNL A   1      29.316  30.427  22.518  1.00  0.00     0.226 C 
ATOM     13  C   UNL A   1      28.046  29.616  22.286  1.00  0.00     0.049 C 
ENDBRANCH  11  12
ENDBRANCH   6  11
BRANCH   8  14
ATOM     14  O   UNL A   1      31.008  26.753  21.653  1.00  0.00    -0.493 OA
ATOM     15  C   UNL A   1      32.093  25.879  21.363  1.00  0.00     0.278 C 
ENDBRANCH   8  14
BRANCH  10  16
ATOM     16  N   UNL A   1      31.068  25.905  26.285  1.00  0.00    -0.321 N 
ATOM     17  C   UNL A   1      31.692  24.682  26.485  1.00  0.00     0.259 C 
ATOM     18  H   UNL A   1      30.420  26.132  26.992  1.00  0.00     0.170 HD
ATOM     19  O   UNL A   1      31.267  23.971  27.400  1.00  0.00    -0.269 OA
BRANCH  17  20
ATOM     20  C   UNL A   1      32.867  24.170  25.721  1.00  0.00     0.082 A 
ATOM     21  C   UNL A   1      34.041  24.951  25.837  1.00  0.00     0.018 A 
ATOM     22  C   UNL A   1      32.921  22.988  24.965  1.00  0.00     0.131 A 
ATOM     23  C   UNL A   1      35.270  24.495  25.346  1.00  0.00     0.001 A 
ATOM     24  C   UNL A   1      34.163  22.542  24.469  1.00  0.00     0.047 A 
ATOM     25  C   UNL A   1      35.334  23.278  24.678  1.00  0.00     0.004 A 
BRANCH  22  26
ATOM     26  O   UNL A   1      31.892  22.122  24.717  1.00  0.00    -0.496 OA
ATOM     27  C   UNL A   1      32.248  20.745  24.677  1.00  0.00     0.278 C 
ENDBRANCH  22  26
ENDBRANCH  17  20
ENDBRANCH  10  16
ENDBRANCH   3   5
ENDBRANCH   2   3
ENDBRANCH   1   2
BRANCH   1  28
ATOM     28  C   UNL A   1      34.052  31.529  27.710  1.00  0.00     0.275 C 
BRANCH  28  29
ATOM     29  O   UNL A   1      35.466  31.691  27.910  1.00  0.00    -0.458 OA
BRANCH  29  30
ATOM     30  C   UNL A   1      35.906  31.214  29.097  1.00  0.00     0.338 C 
ATOM     31  O   UNL A   1      35.500  31.532  30.206  1.00  0.00    -0.246 OA
BRANCH  30  32
ATOM     32  C   UNL A   1      36.969  30.204  28.949  1.00  0.00     0.060 A 
ATOM     33  C   UNL A   1      37.558  29.632  30.077  1.00  0.00     0.016 A 
ATOM     34  C   UNL A   1      37.593  30.075  27.712  1.00  0.00     0.016 A 
ATOM     35  C   UNL A   1      38.820  29.068  30.018  1.00  0.00     0.010 A 
ATOM     36  C   UNL A   1      38.818  29.409  27.630  1.00  0.00     0.010 A 
ATOM     37  C   UNL A   1      39.466  28.953  28.792  1.00  0.00    -0.014 A 
BRANCH  37  38
ATOM     38  C   UNL A   1      40.860  28.462  28.741  1.00  0.00     0.031 A 
ATOM     39  C   UNL A   1      41.980  29.422  29.012  1.00  0.00     0.074 A 
ATOM     40  C   UNL A   1      41.123  27.169  28.481  1.00  0.00     0.049 A 
ATOM     41  N   UNL A   1      43.256  29.301  28.760  1.00  0.00    -0.248 NA
ATOM     42  C   UNL A   1      41.605  30.702  29.635  1.00  0.00     0.031 C 
ATOM     43  C   UNL A   1      40.129  26.105  28.327  1.00  0.00     0.029 A 
ATOM     44  N   UNL A   1      42.322  26.533  28.292  1.00  0.00    -0.354 N 
ATOM     45  C   UNL A   1      43.825  30.515  29.121  1.00  0.00     0.074 A 
ATOM     46  C   UNL A   1      42.755  31.359  29.607  1.00  0.00     0.031 C 
ATOM     47  C   UNL A   1      40.758  24.947  28.080  1.00  0.00     0.029 A 
ATOM     48  C   UNL A   1      42.185  25.210  27.951  1.00  0.00     0.049 A 
ATOM     49  H   UNL A   1      43.194  26.978  28.390  1.00  0.00     0.167 HD
ATOM     50  C   UNL A   1      45.125  30.887  29.041  1.00  0.00     0.037 A 
ATOM     51  C   UNL A   1      43.100  24.326  27.517  1.00  0.00     0.037 A 
ATOM     52  C   UNL A   1      46.175  30.013  28.588  1.00  0.00     0.049 A 
ATOM     53  C   UNL A   1      44.516  24.788  27.329  1.00  0.00     0.074 A 
ATOM     54  C   UNL A   1      47.527  30.276  28.463  1.00  0.00     0.029 A 
ATOM     55  N   UNL A   1      45.986  28.696  28.191  1.00  0.00    -0.354 N 
ATOM     56  N   UNL A   1      45.047  25.958  27.591  1.00  0.00    -0.248 NA
ATOM     57  C   UNL A   1      45.454  23.812  26.762  1.00  0.00     0.031 C 
ATOM     58  C   UNL A   1      48.147  29.134  27.942  1.00  0.00     0.029 A 
ATOM     59  C   UNL A   1      47.191  28.140  27.799  1.00  0.00     0.049 A 
ATOM     60  H   UNL A   1      45.120  28.225  28.189  1.00  0.00     0.167 HD
ATOM     61  C   UNL A   1      46.388  25.851  27.251  1.00  0.00     0.074 A 
ATOM     62  C   UNL A   1      46.588  24.498  26.772  1.00  0.00     0.031 C 
ATOM     63  C   UNL A   1      47.369  26.785  27.333  1.00  0.00     0.037 A 
BRANCH  50  64
ATOM     64  C   UNL A   1      45.452  32.313  29.384  1.00  0.00     0.057 A 
ATOM     65  C   UNL A   1      45.395  33.348  28.442  1.00  0.00     0.134 A 
ATOM     66  C   UNL A   1      45.861  32.648  30.682  1.00  0.00     0.134 A 
ATOM     67  F   UNL A   1      45.029  33.096  27.175  1.00  0.00    -0.206 F 
ATOM     68  C   UNL A   1      45.777  34.653  28.765  1.00  0.00     0.040 A 
ATOM     69  C   UNL A   1      46.211  33.955  31.027  1.00  0.00     0.040 A 
ATOM     70  F   UNL A   1      45.934  31.709  31.638  1.00  0.00    -0.206 F 
ATOM     71  C   UNL A   1      46.183  34.959  30.062  1.00  0.00     0.006 A 
ENDBRANCH  50  64
BRANCH  51  72
ATOM     72  C   UNL A   1      42.694  22.936  27.196  1.00  0.00     0.057 A 
ATOM     73  C   UNL A   1      42.531  21.990  28.213  1.00  0.00     0.134 A 
ATOM     74  C   UNL A   1      42.440  22.522  25.882  1.00  0.00     0.134 A 
ATOM     75  F   UNL A   1      42.778  22.323  29.489  1.00  0.00    -0.206 F 
ATOM     76  C   UNL A   1      42.139  20.680  27.936  1.00  0.00     0.040 A 
ATOM     77  C   UNL A   1      42.019  21.223  25.593  1.00  0.00     0.040 A 
ATOM     78  F   UNL A   1      42.571  23.384  24.862  1.00  0.00    -0.206 F 
ATOM     79  C   UNL A   1      41.874  20.297  26.623  1.00  0.00     0.006 A 
ENDBRANCH  51  72
BRANCH  63  80
ATOM     80  C   UNL A   1      48.753  26.355  26.948  1.00  0.00     0.057 A 
ATOM     81  C   UNL A   1      49.268  26.563  25.663  1.00  0.00     0.134 A 
ATOM     82  C   UNL A   1      49.592  25.745  27.890  1.00  0.00     0.134 A 
ATOM     83  F   UNL A   1      48.510  27.125  24.709  1.00  0.00    -0.206 F 
ATOM     84  C   UNL A   1      50.561  26.160  25.322  1.00  0.00     0.040 A 
ATOM     85  C   UNL A   1      50.895  25.366  27.571  1.00  0.00     0.040 A 
ATOM     86  F   UNL A   1      49.161  25.521  29.141  1.00  0.00    -0.206 F 
ATOM     87  C   UNL A   1      51.380  25.567  26.281  1.00  0.00     0.006 A 
ENDBRANCH  63  80
ENDBRANCH  37  38
ENDBRANCH  30  32
ENDBRANCH  29  30
ENDBRANCH  28  29
ENDBRANCH   1  28
TORSDOF 17
ENDMDL
MODEL 2
REMARK VINA RESULT:     -11.3      4.792      9.739
REMARK SMILES CCOc1cc(C(=O)OCCOC(=O)c2ccc(-c3c4nc(c(-c5c(F)cccc5F)c5ccc([nH]5)c(-c5c(F)cccc5F)c5nc(c(-c6c(F)cccc6F)c6ccc3[nH]6)C=C5)C=C4)cc2)c(NC(=O)c2ccccc2OC)cc1OC
REMARK SMILES IDX 10 1 9 2 7 3 8 4 6 5 4 6 5 7 82 8 81 9 69 10 3 11 2 12 1 13
REMARK SMILES IDX 83 14 84 15 70 16 71 17 72 19 73 20 74 21 78 22 75 23 77 24
REMARK SMILES IDX 76 25 79 26 80 27 11 28 12 29 13 30 14 31 15 32 16 33 68 34
REMARK SMILES IDX 17 35 67 36 18 37 19 38 20 39 61 40 21 41 66 42 60 43 62 44
REMARK SMILES IDX 22 45 65 46 59 47 58 48 23 50 49 51 32 52 48 53 33 54 36 55
REMARK SMILES IDX 47 56 63 57 34 58 35 59 46 61 64 62 37 63 24 64 25 65 30 66
REMARK SMILES IDX 26 67 27 68 29 69 31 70 28 71 50 72 51 73 56 74 52 75 53 76
REMARK SMILES IDX 55 77 57 78 54 79 38 80 39 81 44 82 40 83 41 84 43 85 45 86
REMARK SMILES IDX 42 87
REMARK H PARENT 70 18 62 49 36 60
REMARK Flexibility Score: inf
ROOT
ATOM      1  C   UNL A   1      38.133  22.566  25.536  1.00  0.00     0.275 C 
ENDROOT
BRANCH   1   2
ATOM      2  O   UNL A   1      37.035  21.702  25.184  1.00  0.00    -0.458 OA
BRANCH   2   3
ATOM      3  C   UNL A   1      36.293  22.173  24.150  1.00  0.00     0.340 C 
ATOM      4  O   UNL A   1      36.697  22.869  23.257  1.00  0.00    -0.246 OA
BRANCH   3   5
ATOM      5  C   UNL A   1      34.876  21.813  24.290  1.00  0.00     0.087 A 
ATOM      6  C   UNL A   1      33.172  20.375  25.252  1.00  0.00     0.162 A 
ATOM      7  C   UNL A   1      34.505  20.601  24.896  1.00  0.00     0.068 A 
ATOM      8  C   UNL A   1      32.258  21.426  25.154  1.00  0.00     0.162 A 
ATOM      9  C   UNL A   1      32.629  22.583  24.443  1.00  0.00     0.077 A 
ATOM     10  C   UNL A   1      33.909  22.729  23.894  1.00  0.00     0.060 A 
BRANCH   6  11
ATOM     11  O   UNL A   1      32.832  19.169  25.802  1.00  0.00    -0.490 OA
BRANCH  11  12
ATOM     12  C   UNL A   1      33.240  18.048  24.997  1.00  0.00     0.226 C 
ATOM     13  C   UNL A   1      32.484  18.086  23.674  1.00  0.00     0.049 C 
ENDBRANCH  11  12
ENDBRANCH   6  11
BRANCH   8  14
ATOM     14  O   UNL A   1      30.984  21.480  25.650  1.00  0.00    -0.493 OA
ATOM     15  C   UNL A   1      30.512  22.721  26.160  1.00  0.00     0.278 C 
ENDBRANCH   8  14
BRANCH  10  16
ATOM     16  N   UNL A   1      34.103  23.788  22.979  1.00  0.00    -0.321 N 
ATOM     17  C   UNL A   1      33.714  25.119  22.969  1.00  0.00     0.259 C 
ATOM     18  H   UNL A   1      34.621  23.527  22.184  1.00  0.00     0.170 HD
ATOM     19  O   UNL A   1      33.913  25.760  21.933  1.00  0.00    -0.269 OA
BRANCH  17  20
ATOM     20  C   UNL A   1      33.119  25.861  24.119  1.00  0.00     0.082 A 
ATOM     21  C   UNL A   1      34.039  26.244  25.122  1.00  0.00     0.018 A 
ATOM     22  C   UNL A   1      31.776  26.247  24.259  1.00  0.00     0.131 A 
ATOM     23  C   UNL A   1      33.669  27.113  26.156  1.00  0.00     0.001 A 
ATOM     24  C   UNL A   1      31.414  27.115  25.308  1.00  0.00     0.047 A 
ATOM     25  C   UNL A   1      32.358  27.565  26.236  1.00  0.00     0.004 A 
BRANCH  22  26
ATOM     26  O   UNL A   1      30.742  25.950  23.414  1.00  0.00    -0.496 OA
ATOM     27  C   UNL A   1      29.446  26.291  23.891  1.00  0.00     0.278 C 
ENDBRANCH  22  26
ENDBRANCH  17  20
ENDBRANCH  10  16
ENDBRANCH   3   5
ENDBRANCH   2   3
ENDBRANCH   1   2
BRANCH   1  28
ATOM     28  C   UNL A   1      39.379  21.907  26.155  1.00  0.00     0.275 C 
BRANCH  28  29
ATOM     29  O   UNL A   1      40.001  22.655  27.214  1.00  0.00    -0.458 OA
BRANCH  29  30
ATOM     30  C   UNL A   1      40.812  23.645  26.777  1.00  0.00     0.338 C 
ATOM     31  O   UNL A   1      41.770  23.525  26.026  1.00  0.00    -0.246 OA
BRANCH  30  32
ATOM     32  C   UNL A   1      40.426  24.971  27.293  1.00  0.00     0.060 A 
ATOM     33  C   UNL A   1      41.185  26.097  26.975  1.00  0.00     0.016 A 
ATOM     34  C   UNL A   1      39.512  25.034  28.339  1.00  0.00     0.016 A 
ATOM     35  C   UNL A   1      41.156  27.228  27.773  1.00  0.00     0.010 A 
ATOM     36  C   UNL A   1      39.401  26.213  29.080  1.00  0.00     0.010 A 
ATOM     37  C   UNL A   1      40.265  27.296  28.838  1.00  0.00    -0.014 A 
BRANCH  37  38
ATOM     38  C   UNL A   1      40.314  28.450  29.762  1.00  0.00     0.031 A 
ATOM     39  C   UNL A   1      41.387  28.497  30.810  1.00  0.00     0.074 A 
ATOM     40  C   UNL A   1      39.429  29.456  29.653  1.00  0.00     0.049 A 
ATOM     41  N   UNL A   1      41.468  29.239  31.882  1.00  0.00    -0.248 NA
ATOM     42  C   UNL A   1      42.512  27.563  30.633  1.00  0.00     0.031 C 
ATOM     43  C   UNL A   1      38.419  29.599  28.602  1.00  0.00     0.029 A 
ATOM     44  N   UNL A   1      39.235  30.552  30.452  1.00  0.00    -0.354 N 
ATOM     45  C   UNL A   1      42.610  28.811  32.547  1.00  0.00     0.074 A 
ATOM     46  C   UNL A   1      43.186  27.743  31.760  1.00  0.00     0.031 C 
ATOM     47  C   UNL A   1      37.721  30.725  28.813  1.00  0.00     0.029 A 
ATOM     48  C   UNL A   1      38.163  31.318  30.069  1.00  0.00     0.049 A 
ATOM     49  H   UNL A   1      39.807  30.769  31.223  1.00  0.00     0.167 HD
ATOM     50  C   UNL A   1      43.117  29.268  33.717  1.00  0.00     0.037 A 
ATOM     51  C   UNL A   1      37.560  32.344  30.696  1.00  0.00     0.037 A 
ATOM     52  C   UNL A   1      42.543  30.358  34.461  1.00  0.00     0.049 A 
ATOM     53  C   UNL A   1      38.070  32.765  32.043  1.00  0.00     0.074 A 
ATOM     54  C   UNL A   1      42.966  30.909  35.656  1.00  0.00     0.029 A 
ATOM     55  N   UNL A   1      41.416  31.070  34.069  1.00  0.00    -0.354 N 
ATOM     56  N   UNL A   1      39.100  32.311  32.718  1.00  0.00    -0.248 NA
ATOM     57  C   UNL A   1      37.318  33.823  32.727  1.00  0.00     0.031 C 
ATOM     58  C   UNL A   1      42.066  31.920  36.014  1.00  0.00     0.029 A 
ATOM     59  C   UNL A   1      41.116  32.039  35.011  1.00  0.00     0.049 A 
ATOM     60  H   UNL A   1      40.905  30.909  33.243  1.00  0.00     0.167 HD
ATOM     61  C   UNL A   1      39.139  33.051  33.891  1.00  0.00     0.074 A 
ATOM     62  C   UNL A   1      38.034  33.986  33.831  1.00  0.00     0.031 C 
ATOM     63  C   UNL A   1      40.014  32.968  34.925  1.00  0.00     0.037 A 
BRANCH  50  64
ATOM     64  C   UNL A   1      44.303  28.538  34.281  1.00  0.00     0.057 A 
ATOM     65  C   UNL A   1      45.623  28.922  34.011  1.00  0.00     0.134 A 
ATOM     66  C   UNL A   1      44.117  27.409  35.090  1.00  0.00     0.134 A 
ATOM     67  F   UNL A   1      45.877  29.983  33.229  1.00  0.00    -0.206 F 
ATOM     68  C   UNL A   1      46.711  28.184  34.485  1.00  0.00     0.040 A 
ATOM     69  C   UNL A   1      45.195  26.685  35.599  1.00  0.00     0.040 A 
ATOM     70  F   UNL A   1      42.880  26.987  35.396  1.00  0.00    -0.206 F 
ATOM     71  C   UNL A   1      46.498  27.064  35.284  1.00  0.00     0.006 A 
ENDBRANCH  50  64
BRANCH  51  72
ATOM     72  C   UNL A   1      36.391  33.009  30.072  1.00  0.00     0.057 A 
ATOM     73  C   UNL A   1      36.566  33.929  29.033  1.00  0.00     0.134 A 
ATOM     74  C   UNL A   1      35.078  32.735  30.476  1.00  0.00     0.134 A 
ATOM     75  F   UNL A   1      37.800  34.246  28.614  1.00  0.00    -0.206 F 
ATOM     76  C   UNL A   1      35.481  34.559  28.424  1.00  0.00     0.040 A 
ATOM     77  C   UNL A   1      33.981  33.335  29.857  1.00  0.00     0.040 A 
ATOM     78  F   UNL A   1      34.841  31.857  31.464  1.00  0.00    -0.206 F 
ATOM     79  C   UNL A   1      34.183  34.255  28.831  1.00  0.00     0.006 A 
ENDBRANCH  51  72
BRANCH  63  80
ATOM     80  C   UNL A   1      39.841  33.952  36.043  1.00  0.00     0.057 A 
ATOM     81  C   UNL A   1      40.346  35.256  35.973  1.00  0.00     0.134 A 
ATOM     82  C   UNL A   1      39.133  33.594  37.198  1.00  0.00     0.134 A 
ATOM     83  F   UNL A   1      41.051  35.657  34.904  1.00  0.00    -0.206 F 
ATOM     84  C   UNL A   1      40.173  36.161  37.022  1.00  0.00     0.040 A 
ATOM     85  C   UNL A   1      38.926  34.499  38.239  1.00  0.00     0.040 A 
ATOM     86  F   UNL A   1      38.618  32.361  37.326  1.00  0.00    -0.206 F 
ATOM     87  C   UNL A   1      39.454  35.785  38.155  1.00  0.00     0.006 A 
ENDBRANCH  63  80
ENDBRANCH  37  38
ENDBRANCH  30  32
ENDBRANCH  29  30
ENDBRANCH  28  29
ENDBRANCH   1  28
TORSDOF 17
ENDMDL
MODEL 3
REMARK VINA RESULT:     -11.2      2.583      7.715
REMARK SMILES CCOc1cc(C(=O)OCCOC(=O)c2ccc(-c3c4nc(c(-c5c(F)cccc5F)c5ccc([nH]5)c(-c5c(F)cccc5F)c5nc(c(-c6c(F)cccc6F)c6ccc3[nH]6)C=C5)C=C4)cc2)c(NC(=O)c2ccccc2OC)cc1OC
REMARK SMILES IDX 10 1 9 2 7 3 8 4 6 5 4 6 5 7 82 8 81 9 69 10 3 11 2 12 1 13
REMARK SMILES IDX 83 14 84 15 70 16 71 17 72 19 73 20 74 21 78 22 75 23 77 24
REMARK SMILES IDX 76 25 79 26 80 27 11 28 12 29 13 30 14 31 15 32 16 33 68 34
REMARK SMILES IDX 17 35 67 36 18 37 19 38 20 39 61 40 21 41 66 42 60 43 62 44
REMARK SMILES IDX 22 45 65 46 59 47 58 48 23 50 49 51 32 52 48 53 33 54 36 55
REMARK SMILES IDX 47 56 63 57 34 58 35 59 46 61 64 62 37 63 24 64 25 65 30 66
REMARK SMILES IDX 26 67 27 68 29 69 31 70 28 71 50 72 51 73 56 74 52 75 53 76
REMARK SMILES IDX 55 77 57 78 54 79 38 80 39 81 44 82 40 83 41 84 43 85 45 86
REMARK SMILES IDX 42 87
REMARK H PARENT 70 18 62 49 36 60
REMARK Flexibility Score: inf
ROOT
ATOM      1  C   UNL A   1      37.920  21.482  25.187  1.00  0.00     0.275 C 
ENDROOT
BRANCH   1   2
ATOM      2  O   UNL A   1      36.901  22.497  25.105  1.00  0.00    -0.458 OA
BRANCH   2   3
ATOM      3  C   UNL A   1      36.234  22.494  23.922  1.00  0.00     0.340 C 
ATOM      4  O   UNL A   1      36.672  22.879  22.871  1.00  0.00    -0.246 OA
BRANCH   3   5
ATOM      5  C   UNL A   1      34.844  22.050  24.084  1.00  0.00     0.087 A 
ATOM      6  C   UNL A   1      33.242  20.525  25.086  1.00  0.00     0.162 A 
ATOM      7  C   UNL A   1      34.555  20.827  24.713  1.00  0.00     0.068 A 
ATOM      8  C   UNL A   1      32.264  21.515  24.981  1.00  0.00     0.162 A 
ATOM      9  C   UNL A   1      32.555  22.681  24.249  1.00  0.00     0.077 A 
ATOM     10  C   UNL A   1      33.819  22.898  23.683  1.00  0.00     0.060 A 
BRANCH   6  11
ATOM     11  O   UNL A   1      32.983  19.309  25.659  1.00  0.00    -0.490 OA
BRANCH  11  12
ATOM     12  C   UNL A   1      32.551  18.320  24.708  1.00  0.00     0.226 C 
ATOM     13  C   UNL A   1      33.643  17.268  24.553  1.00  0.00     0.049 C 
ENDBRANCH  11  12
ENDBRANCH   6  11
BRANCH   8  14
ATOM     14  O   UNL A   1      30.994  21.498  25.490  1.00  0.00    -0.493 OA
ATOM     15  C   UNL A   1      30.567  22.606  26.273  1.00  0.00     0.278 C 
ENDBRANCH   8  14
BRANCH  10  16
ATOM     16  N   UNL A   1      33.937  23.951  22.750  1.00  0.00    -0.321 N 
ATOM     17  C   UNL A   1      33.528  25.276  22.755  1.00  0.00     0.259 C 
ATOM     18  H   UNL A   1      34.408  23.691  21.925  1.00  0.00     0.170 HD
ATOM     19  O   UNL A   1      33.651  25.912  21.704  1.00  0.00    -0.269 OA
BRANCH  17  20
ATOM     20  C   UNL A   1      32.997  26.019  23.935  1.00  0.00     0.082 A 
ATOM     21  C   UNL A   1      33.954  26.323  24.930  1.00  0.00     0.018 A 
ATOM     22  C   UNL A   1      31.680  26.476  24.111  1.00  0.00     0.131 A 
ATOM     23  C   UNL A   1      33.652  27.183  25.993  1.00  0.00     0.001 A 
ATOM     24  C   UNL A   1      31.386  27.334  25.189  1.00  0.00     0.047 A 
ATOM     25  C   UNL A   1      32.370  27.706  26.110  1.00  0.00     0.004 A 
BRANCH  22  26
ATOM     26  O   UNL A   1      30.616  26.261  23.278  1.00  0.00    -0.496 OA
ATOM     27  C   UNL A   1      29.333  26.399  23.877  1.00  0.00     0.278 C 
ENDBRANCH  22  26
ENDBRANCH  17  20
ENDBRANCH  10  16
ENDBRANCH   3   5
ENDBRANCH   2   3
ENDBRANCH   1   2
BRANCH   1  28
ATOM     28  C   UNL A   1      39.117  21.756  26.113  1.00  0.00     0.275 C 
BRANCH  28  29
ATOM     29  O   UNL A   1      39.636  20.603  26.797  1.00  0.00    -0.458 OA
BRANCH  29  30
ATOM     30  C   UNL A   1      40.836  20.188  26.333  1.00  0.00     0.338 C 
ATOM     31  O   UNL A   1      41.066  19.146  25.736  1.00  0.00    -0.246 OA
BRANCH  30  32
ATOM     32  C   UNL A   1      41.918  21.153  26.599  1.00  0.00     0.060 A 
ATOM     33  C   UNL A   1      42.303  21.433  27.911  1.00  0.00     0.016 A 
ATOM     34  C   UNL A   1      42.314  22.004  25.573  1.00  0.00     0.016 A 
ATOM     35  C   UNL A   1      42.943  22.617  28.231  1.00  0.00     0.010 A 
ATOM     36  C   UNL A   1      43.056  23.147  25.880  1.00  0.00     0.010 A 
ATOM     37  C   UNL A   1      43.324  23.490  27.218  1.00  0.00    -0.014 A 
BRANCH  37  38
ATOM     38  C   UNL A   1      43.899  24.808  27.563  1.00  0.00     0.031 A 
ATOM     39  C   UNL A   1      42.985  25.901  28.031  1.00  0.00     0.074 A 
ATOM     40  C   UNL A   1      45.225  25.021  27.485  1.00  0.00     0.049 A 
ATOM     41  N   UNL A   1      43.205  27.185  28.122  1.00  0.00    -0.248 NA
ATOM     42  C   UNL A   1      41.629  25.489  28.432  1.00  0.00     0.031 C 
ATOM     43  C   UNL A   1      46.238  24.011  27.171  1.00  0.00     0.029 A 
ATOM     44  N   UNL A   1      45.946  26.173  27.659  1.00  0.00    -0.354 N 
ATOM     45  C   UNL A   1      41.996  27.745  28.516  1.00  0.00     0.074 A 
ATOM     46  C   UNL A   1      41.047  26.660  28.643  1.00  0.00     0.031 C 
ATOM     47  C   UNL A   1      47.451  24.585  27.187  1.00  0.00     0.029 A 
ATOM     48  C   UNL A   1      47.286  26.016  27.404  1.00  0.00     0.049 A 
ATOM     49  H   UNL A   1      45.546  27.026  27.939  1.00  0.00     0.167 HD
ATOM     50  C   UNL A   1      41.712  29.050  28.739  1.00  0.00     0.037 A 
ATOM     51  C   UNL A   1      48.261  26.935  27.291  1.00  0.00     0.037 A 
ATOM     52  C   UNL A   1      42.687  30.104  28.641  1.00  0.00     0.049 A 
ATOM     53  C   UNL A   1      47.905  28.386  27.432  1.00  0.00     0.074 A 
ATOM     54  C   UNL A   1      42.518  31.462  28.843  1.00  0.00     0.029 A 
ATOM     55  N   UNL A   1      44.024  29.912  28.318  1.00  0.00    -0.354 N 
ATOM     56  N   UNL A   1      46.747  28.930  27.724  1.00  0.00    -0.248 NA
ATOM     57  C   UNL A   1      48.986  29.352  27.204  1.00  0.00     0.031 C 
ATOM     58  C   UNL A   1      43.740  32.096  28.591  1.00  0.00     0.029 A 
ATOM     59  C   UNL A   1      44.686  31.127  28.291  1.00  0.00     0.049 A 
ATOM     60  H   UNL A   1      44.440  29.038  28.134  1.00  0.00     0.167 HD
ATOM     61  C   UNL A   1      46.967  30.299  27.747  1.00  0.00     0.074 A 
ATOM     62  C   UNL A   1      48.370  30.500  27.446  1.00  0.00     0.031 C 
ATOM     63  C   UNL A   1      46.089  31.302  27.998  1.00  0.00     0.037 A 
BRANCH  50  64
ATOM     64  C   UNL A   1      40.281  29.398  29.037  1.00  0.00     0.057 A 
ATOM     65  C   UNL A   1      39.809  29.602  30.340  1.00  0.00     0.134 A 
ATOM     66  C   UNL A   1      39.350  29.505  27.994  1.00  0.00     0.134 A 
ATOM     67  F   UNL A   1      40.641  29.499  31.388  1.00  0.00    -0.206 F 
ATOM     68  C   UNL A   1      38.459  29.851  30.598  1.00  0.00     0.040 A 
ATOM     69  C   UNL A   1      38.005  29.788  28.237  1.00  0.00     0.040 A 
ATOM     70  F   UNL A   1      39.731  29.328  26.719  1.00  0.00    -0.206 F 
ATOM     71  C   UNL A   1      37.554  29.948  29.545  1.00  0.00     0.006 A 
ENDBRANCH  50  64
BRANCH  51  72
ATOM     72  C   UNL A   1      49.650  26.508  26.991  1.00  0.00     0.057 A 
ATOM     73  C   UNL A   1      50.075  26.348  25.669  1.00  0.00     0.134 A 
ATOM     74  C   UNL A   1      50.587  26.269  28.004  1.00  0.00     0.134 A 
ATOM     75  F   UNL A   1      49.218  26.545  24.656  1.00  0.00    -0.206 F 
ATOM     76  C   UNL A   1      51.379  25.958  25.363  1.00  0.00     0.040 A 
ATOM     77  C   UNL A   1      51.903  25.906  27.713  1.00  0.00     0.040 A 
ATOM     78  F   UNL A   1      50.244  26.411  29.294  1.00  0.00    -0.206 F 
ATOM     79  C   UNL A   1      52.299  25.744  26.388  1.00  0.00     0.006 A 
ENDBRANCH  51  72
BRANCH  63  80
ATOM     80  C   UNL A   1      46.636  32.698  28.014  1.00  0.00     0.057 A 
ATOM     81  C   UNL A   1      47.271  33.237  29.139  1.00  0.00     0.134 A 
ATOM     82  C   UNL A   1      46.549  33.506  26.872  1.00  0.00     0.134 A 
ATOM     83  F   UNL A   1      47.371  32.524  30.271  1.00  0.00    -0.206 F 
ATOM     84  C   UNL A   1      47.779  34.538  29.136  1.00  0.00     0.040 A 
ATOM     85  C   UNL A   1      47.079  34.795  26.846  1.00  0.00     0.040 A 
ATOM     86  F   UNL A   1      45.957  33.047  25.758  1.00  0.00    -0.206 F 
ATOM     87  C   UNL A   1      47.691  35.317  27.983  1.00  0.00     0.006 A 
ENDBRANCH  63  80
ENDBRANCH  37  38
ENDBRANCH  30  32
ENDBRANCH  29  30
ENDBRANCH  28  29
ENDBRANCH   1  28
TORSDOF 17
ENDMDL
