MODEL 1
REMARK VINA RESULT:     -12.1      0.000      0.000
REMARK SMILES Cc1cc(C(=O)OCCOC(=O)c2ccc(-c3c4nc(c(-c5c(F)cccc5F)c5ccc([nH]5)c(-c5c(F)cccc5F)c5nc(c(-c6c(F)cccc6F)c6ccc3[nH]6)C=C5)C=C4)cc2)ccc1NC(=O)N1C[C@@H](C)[C@H](C)C1
REMARK SMILES IDX 9 1 8 2 7 3 5 4 6 5 4 6 1 7 2 8 3 9 69 10 68 11 67 12 70 13
REMARK SMILES IDX 71 14 72 16 73 17 74 18 79 19 75 20 77 21 76 22 78 23 10 24
REMARK SMILES IDX 11 25 12 26 13 27 14 28 66 29 15 30 65 31 16 32 17 33 18 34
REMARK SMILES IDX 59 35 19 36 64 37 58 38 60 39 20 40 63 41 57 42 56 43 21 45
REMARK SMILES IDX 47 46 30 47 46 48 31 49 34 50 45 51 61 52 32 53 33 54 44 56
REMARK SMILES IDX 62 57 35 58 22 59 23 60 28 61 24 62 25 63 27 64 29 65 26 66
REMARK SMILES IDX 48 67 49 68 54 69 50 70 51 71 53 72 55 73 52 74 36 75 37 76
REMARK SMILES IDX 42 77 38 78 39 79 41 80 43 81 40 82
REMARK H PARENT 70 15 60 44 34 55
REMARK Flexibility Score: inf
ROOT
ATOM      1  C   UNL A   1      33.251  31.814  27.567  1.00  0.00     0.275 C 
ENDROOT
BRANCH   1   2
ATOM      2  C   UNL A   1      32.418  30.829  26.738  1.00  0.00     0.275 C 
BRANCH   2   3
ATOM      3  O   UNL A   1      32.349  29.523  27.322  1.00  0.00    -0.458 OA
BRANCH   3   4
ATOM      4  C   UNL A   1      33.234  28.663  26.767  1.00  0.00     0.338 C 
ATOM      5  O   UNL A   1      34.388  28.465  27.120  1.00  0.00    -0.246 OA
BRANCH   4   6
ATOM      6  C   UNL A   1      32.746  28.100  25.508  1.00  0.00     0.060 A 
ATOM      7  C   UNL A   1      29.993  25.783  24.286  1.00  0.00     0.046 C 
ATOM      8  C   UNL A   1      31.324  26.482  24.353  1.00  0.00    -0.027 A 
ATOM      9  C   UNL A   1      31.529  27.418  25.386  1.00  0.00     0.021 A 
ATOM     10  C   UNL A   1      32.409  26.206  23.513  1.00  0.00     0.045 A 
ATOM     11  C   UNL A   1      33.509  27.077  23.510  1.00  0.00     0.027 A 
ATOM     12  C   UNL A   1      33.707  27.995  24.522  1.00  0.00     0.018 A 
BRANCH  10  13
ATOM     13  N   UNL A   1      32.452  25.040  22.721  1.00  0.00    -0.308 N 
ATOM     14  C   UNL A   1      33.432  24.077  22.733  1.00  0.00     0.321 C 
ATOM     15  H   UNL A   1      31.704  24.902  22.096  1.00  0.00     0.171 HD
ATOM     16  O   UNL A   1      33.681  23.442  21.710  1.00  0.00    -0.248 OA
ATOM     17  N   UNL A   1      34.103  23.870  23.914  1.00  0.00    -0.324 N 
ATOM     18  C   UNL A   1      35.532  23.659  23.957  1.00  0.00     0.125 C 
ATOM     19  C   UNL A   1      33.458  23.530  25.176  1.00  0.00     0.125 C 
ATOM     20  C   UNL A   1      35.816  22.970  25.287  1.00  0.00     0.010 C 
ATOM     21  C   UNL A   1      34.599  23.309  26.173  1.00  0.00     0.010 C 
ATOM     22  C   UNL A   1      37.130  23.436  25.904  1.00  0.00     0.010 C 
ATOM     23  C   UNL A   1      34.301  22.207  27.188  1.00  0.00     0.010 C 
ENDBRANCH  10  13
ENDBRANCH   4   6
ENDBRANCH   3   4
ENDBRANCH   2   3
ENDBRANCH   1   2
BRANCH   1  24
ATOM     24  O   UNL A   1      34.652  31.512  27.837  1.00  0.00    -0.458 OA
BRANCH  24  25
ATOM     25  C   UNL A   1      35.303  31.461  29.020  1.00  0.00     0.338 C 
ATOM     26  O   UNL A   1      34.884  32.026  30.029  1.00  0.00    -0.246 OA
BRANCH  25  27
ATOM     27  C   UNL A   1      36.532  30.669  29.084  1.00  0.00     0.060 A 
ATOM     28  C   UNL A   1      36.735  29.830  30.191  1.00  0.00     0.016 A 
ATOM     29  C   UNL A   1      37.423  30.693  28.020  1.00  0.00     0.016 A 
ATOM     30  C   UNL A   1      37.779  28.921  30.190  1.00  0.00     0.010 A 
ATOM     31  C   UNL A   1      38.368  29.705  27.941  1.00  0.00     0.010 A 
ATOM     32  C   UNL A   1      38.579  28.875  29.054  1.00  0.00    -0.014 A 
BRANCH  32  33
ATOM     33  C   UNL A   1      39.929  28.356  29.089  1.00  0.00     0.031 A 
ATOM     34  C   UNL A   1      40.222  26.975  28.699  1.00  0.00     0.074 A 
ATOM     35  C   UNL A   1      40.791  29.376  29.305  1.00  0.00     0.049 A 
ATOM     36  N   UNL A   1      41.314  26.367  28.988  1.00  0.00    -0.248 NA
ATOM     37  C   UNL A   1      39.276  26.112  27.995  1.00  0.00     0.031 C 
ATOM     38  C   UNL A   1      42.210  29.531  29.076  1.00  0.00     0.029 A 
ATOM     39  N   UNL A   1      40.428  30.576  29.950  1.00  0.00    -0.354 N 
ATOM     40  C   UNL A   1      41.374  25.232  28.201  1.00  0.00     0.074 A 
ATOM     41  C   UNL A   1      40.022  25.024  27.758  1.00  0.00     0.031 C 
ATOM     42  C   UNL A   1      42.650  30.559  29.834  1.00  0.00     0.029 A 
ATOM     43  C   UNL A   1      41.536  30.998  30.674  1.00  0.00     0.049 A 
ATOM     44  H   UNL A   1      39.556  31.028  29.897  1.00  0.00     0.167 HD
ATOM     45  C   UNL A   1      42.612  24.756  27.871  1.00  0.00     0.037 A 
ATOM     46  C   UNL A   1      41.458  30.876  32.033  1.00  0.00     0.037 A 
ATOM     47  C   UNL A   1      43.619  25.572  28.554  1.00  0.00     0.049 A 
ATOM     48  C   UNL A   1      42.403  29.789  32.483  1.00  0.00     0.074 A 
ATOM     49  C   UNL A   1      44.330  26.686  28.135  1.00  0.00     0.029 A 
ATOM     50  N   UNL A   1      43.671  25.567  29.944  1.00  0.00    -0.354 N 
ATOM     51  N   UNL A   1      42.655  28.696  31.807  1.00  0.00    -0.248 NA
ATOM     52  C   UNL A   1      43.248  29.946  33.659  1.00  0.00     0.031 C 
ATOM     53  C   UNL A   1      44.709  27.414  29.297  1.00  0.00     0.029 A 
ATOM     54  C   UNL A   1      44.229  26.743  30.412  1.00  0.00     0.049 A 
ATOM     55  H   UNL A   1      43.355  24.830  30.514  1.00  0.00     0.167 HD
ATOM     56  C   UNL A   1      43.738  28.072  32.370  1.00  0.00     0.074 A 
ATOM     57  C   UNL A   1      44.052  28.878  33.540  1.00  0.00     0.031 C 
ATOM     58  C   UNL A   1      44.362  26.978  31.841  1.00  0.00     0.037 A 
BRANCH  45  59
ATOM     59  C   UNL A   1      42.965  23.813  26.732  1.00  0.00     0.057 A 
ATOM     60  C   UNL A   1      42.934  22.415  26.942  1.00  0.00     0.134 A 
ATOM     61  C   UNL A   1      43.387  24.180  25.440  1.00  0.00     0.134 A 
ATOM     62  F   UNL A   1      42.497  21.886  28.092  1.00  0.00    -0.206 F 
ATOM     63  C   UNL A   1      43.349  21.476  25.983  1.00  0.00     0.040 A 
ATOM     64  C   UNL A   1      43.815  23.249  24.474  1.00  0.00     0.040 A 
ATOM     65  F   UNL A   1      43.382  25.445  25.019  1.00  0.00    -0.206 F 
ATOM     66  C   UNL A   1      43.806  21.892  24.746  1.00  0.00     0.006 A 
ENDBRANCH  45  59
BRANCH  46  67
ATOM     67  C   UNL A   1      40.099  31.179  32.608  1.00  0.00     0.057 A 
ATOM     68  C   UNL A   1      39.329  30.108  33.122  1.00  0.00     0.134 A 
ATOM     69  C   UNL A   1      39.632  32.462  32.909  1.00  0.00     0.134 A 
ATOM     70  F   UNL A   1      39.689  28.838  32.869  1.00  0.00    -0.206 F 
ATOM     71  C   UNL A   1      38.234  30.298  33.973  1.00  0.00     0.040 A 
ATOM     72  C   UNL A   1      38.514  32.667  33.742  1.00  0.00     0.040 A 
ATOM     73  F   UNL A   1      40.284  33.548  32.474  1.00  0.00    -0.206 F 
ATOM     74  C   UNL A   1      37.833  31.586  34.303  1.00  0.00     0.006 A 
ENDBRANCH  46  67
BRANCH  58  75
ATOM     75  C   UNL A   1      45.254  26.060  32.636  1.00  0.00     0.057 A 
ATOM     76  C   UNL A   1      46.652  26.069  32.532  1.00  0.00     0.134 A 
ATOM     77  C   UNL A   1      44.732  25.263  33.679  1.00  0.00     0.134 A 
ATOM     78  F   UNL A   1      47.292  26.886  31.684  1.00  0.00    -0.206 F 
ATOM     79  C   UNL A   1      47.467  25.279  33.344  1.00  0.00     0.040 A 
ATOM     80  C   UNL A   1      45.542  24.533  34.546  1.00  0.00     0.040 A 
ATOM     81  F   UNL A   1      43.416  25.187  33.928  1.00  0.00    -0.206 F 
ATOM     82  C   UNL A   1      46.915  24.518  34.366  1.00  0.00     0.006 A 
ENDBRANCH  58  75
ENDBRANCH  32  33
ENDBRANCH  25  27
ENDBRANCH  24  25
ENDBRANCH   1  24
TORSDOF 12
ENDMDL
MODEL 2
REMARK VINA RESULT:     -12.1      3.106      8.374
REMARK SMILES Cc1cc(C(=O)OCCOC(=O)c2ccc(-c3c4nc(c(-c5c(F)cccc5F)c5ccc([nH]5)c(-c5c(F)cccc5F)c5nc(c(-c6c(F)cccc6F)c6ccc3[nH]6)C=C5)C=C4)cc2)ccc1NC(=O)N1C[C@@H](C)[C@H](C)C1
REMARK SMILES IDX 9 1 8 2 7 3 5 4 6 5 4 6 1 7 2 8 3 9 69 10 68 11 67 12 70 13
REMARK SMILES IDX 71 14 72 16 73 17 74 18 79 19 75 20 77 21 76 22 78 23 10 24
REMARK SMILES IDX 11 25 12 26 13 27 14 28 66 29 15 30 65 31 16 32 17 33 18 34
REMARK SMILES IDX 59 35 19 36 64 37 58 38 60 39 20 40 63 41 57 42 56 43 21 45
REMARK SMILES IDX 47 46 30 47 46 48 31 49 34 50 45 51 61 52 32 53 33 54 44 56
REMARK SMILES IDX 62 57 35 58 22 59 23 60 28 61 24 62 25 63 27 64 29 65 26 66
REMARK SMILES IDX 48 67 49 68 54 69 50 70 51 71 53 72 55 73 52 74 36 75 37 76
REMARK SMILES IDX 42 77 38 78 39 79 41 80 43 81 40 82
REMARK H PARENT 70 15 60 44 34 55
REMARK Flexibility Score: inf
ROOT
ATOM      1  C   UNL A   1      39.060  21.246  25.754  1.00  0.00     0.275 C 
ENDROOT
BRANCH   1   2
ATOM      2  C   UNL A   1      37.758  21.325  24.949  1.00  0.00     0.275 C 
BRANCH   2   3
ATOM      3  O   UNL A   1      36.585  21.267  25.770  1.00  0.00    -0.458 OA
BRANCH   3   4
ATOM      4  C   UNL A   1      35.946  22.458  25.840  1.00  0.00     0.338 C 
ATOM      5  O   UNL A   1      36.436  23.540  26.126  1.00  0.00    -0.246 OA
BRANCH   4   6
ATOM      6  C   UNL A   1      34.493  22.314  25.742  1.00  0.00     0.060 A 
ATOM      7  C   UNL A   1      31.755  22.629  23.127  1.00  0.00     0.046 C 
ATOM      8  C   UNL A   1      32.438  22.665  24.467  1.00  0.00    -0.027 A 
ATOM      9  C   UNL A   1      33.797  22.298  24.527  1.00  0.00     0.021 A 
ATOM     10  C   UNL A   1      31.844  23.120  25.649  1.00  0.00     0.045 A 
ATOM     11  C   UNL A   1      32.489  22.884  26.873  1.00  0.00     0.027 A 
ATOM     12  C   UNL A   1      33.820  22.524  26.930  1.00  0.00     0.018 A 
BRANCH  10  13
ATOM     13  N   UNL A   1      30.647  23.865  25.635  1.00  0.00    -0.308 N 
ATOM     14  C   UNL A   1      30.498  25.185  25.989  1.00  0.00     0.321 C 
ATOM     15  H   UNL A   1      29.835  23.393  25.341  1.00  0.00     0.171 HD
ATOM     16  O   UNL A   1      29.433  25.578  26.460  1.00  0.00    -0.248 OA
ATOM     17  N   UNL A   1      31.576  26.017  25.798  1.00  0.00    -0.324 N 
ATOM     18  C   UNL A   1      31.957  27.013  26.773  1.00  0.00     0.125 C 
ATOM     19  C   UNL A   1      32.242  26.216  24.518  1.00  0.00     0.125 C 
ATOM     20  C   UNL A   1      32.801  28.036  26.022  1.00  0.00     0.010 C 
ATOM     21  C   UNL A   1      33.309  27.285  24.774  1.00  0.00     0.010 C 
ATOM     22  C   UNL A   1      33.942  28.575  26.877  1.00  0.00     0.010 C 
ATOM     23  C   UNL A   1      33.515  28.219  23.583  1.00  0.00     0.010 C 
ENDBRANCH  10  13
ENDBRANCH   4   6
ENDBRANCH   3   4
ENDBRANCH   2   3
ENDBRANCH   1   2
BRANCH   1  24
ATOM     24  O   UNL A   1      39.457  22.380  26.580  1.00  0.00    -0.458 OA
BRANCH  24  25
ATOM     25  C   UNL A   1      40.573  23.138  26.510  1.00  0.00     0.338 C 
ATOM     26  O   UNL A   1      41.604  22.749  25.962  1.00  0.00    -0.246 OA
BRANCH  25  27
ATOM     27  C   UNL A   1      40.518  24.482  27.088  1.00  0.00     0.060 A 
ATOM     28  C   UNL A   1      40.961  25.565  26.315  1.00  0.00     0.016 A 
ATOM     29  C   UNL A   1      39.950  24.670  28.341  1.00  0.00     0.016 A 
ATOM     30  C   UNL A   1      40.737  26.862  26.744  1.00  0.00     0.010 A 
ATOM     31  C   UNL A   1      39.593  25.939  28.709  1.00  0.00     0.010 A 
ATOM     32  C   UNL A   1      40.050  27.024  27.942  1.00  0.00    -0.014 A 
BRANCH  32  33
ATOM     33  C   UNL A   1      40.158  28.232  28.730  1.00  0.00     0.031 A 
ATOM     34  C   UNL A   1      39.126  29.270  28.675  1.00  0.00     0.074 A 
ATOM     35  C   UNL A   1      41.180  28.099  29.606  1.00  0.00     0.049 A 
ATOM     36  N   UNL A   1      39.296  30.470  29.096  1.00  0.00    -0.248 NA
ATOM     37  C   UNL A   1      37.809  29.074  28.074  1.00  0.00     0.031 C 
ATOM     38  C   UNL A   1      41.515  28.777  30.839  1.00  0.00     0.029 A 
ATOM     39  N   UNL A   1      42.274  27.235  29.399  1.00  0.00    -0.354 N 
ATOM     40  C   UNL A   1      38.047  31.056  29.186  1.00  0.00     0.074 A 
ATOM     41  C   UNL A   1      37.199  30.230  28.370  1.00  0.00     0.031 C 
ATOM     42  C   UNL A   1      42.824  28.564  31.096  1.00  0.00     0.029 A 
ATOM     43  C   UNL A   1      43.390  27.851  29.950  1.00  0.00     0.049 A 
ATOM     44  H   UNL A   1      42.251  26.360  28.948  1.00  0.00     0.167 HD
ATOM     45  C   UNL A   1      37.876  32.041  30.117  1.00  0.00     0.037 A 
ATOM     46  C   UNL A   1      44.308  28.349  29.069  1.00  0.00     0.037 A 
ATOM     47  C   UNL A   1      39.168  32.301  30.759  1.00  0.00     0.049 A 
ATOM     48  C   UNL A   1      44.269  29.857  29.118  1.00  0.00     0.074 A 
ATOM     49  C   UNL A   1      39.728  31.795  31.921  1.00  0.00     0.029 A 
ATOM     50  N   UNL A   1      40.218  32.804  29.997  1.00  0.00    -0.354 N 
ATOM     51  N   UNL A   1      43.184  30.567  29.301  1.00  0.00    -0.248 NA
ATOM     52  C   UNL A   1      45.488  30.656  29.121  1.00  0.00     0.031 C 
ATOM     53  C   UNL A   1      41.141  31.895  31.794  1.00  0.00     0.029 A 
ATOM     54  C   UNL A   1      41.433  32.459  30.561  1.00  0.00     0.049 A 
ATOM     55  H   UNL A   1      40.110  33.331  29.173  1.00  0.00     0.167 HD
ATOM     56  C   UNL A   1      43.546  31.864  29.551  1.00  0.00     0.074 A 
ATOM     57  C   UNL A   1      44.993  31.871  29.400  1.00  0.00     0.031 C 
ATOM     58  C   UNL A   1      42.679  32.852  29.923  1.00  0.00     0.037 A 
BRANCH  45  59
ATOM     59  C   UNL A   1      36.564  32.550  30.693  1.00  0.00     0.057 A 
ATOM     60  C   UNL A   1      35.883  33.614  30.058  1.00  0.00     0.134 A 
ATOM     61  C   UNL A   1      35.935  32.101  31.869  1.00  0.00     0.134 A 
ATOM     62  F   UNL A   1      36.305  34.123  28.892  1.00  0.00    -0.206 F 
ATOM     63  C   UNL A   1      34.728  34.218  30.578  1.00  0.00     0.040 A 
ATOM     64  C   UNL A   1      34.783  32.704  32.407  1.00  0.00     0.040 A 
ATOM     65  F   UNL A   1      36.369  31.040  32.551  1.00  0.00    -0.206 F 
ATOM     66  C   UNL A   1      34.179  33.773  31.767  1.00  0.00     0.006 A 
ENDBRANCH  45  59
BRANCH  46  67
ATOM     67  C   UNL A   1      44.523  27.495  27.847  1.00  0.00     0.057 A 
ATOM     68  C   UNL A   1      44.057  27.973  26.598  1.00  0.00     0.134 A 
ATOM     69  C   UNL A   1      45.368  26.383  27.794  1.00  0.00     0.134 A 
ATOM     70  F   UNL A   1      43.226  29.028  26.549  1.00  0.00    -0.206 F 
ATOM     71  C   UNL A   1      44.492  27.452  25.374  1.00  0.00     0.040 A 
ATOM     72  C   UNL A   1      45.791  25.830  26.567  1.00  0.00     0.040 A 
ATOM     73  F   UNL A   1      45.868  25.847  28.915  1.00  0.00    -0.206 F 
ATOM     74  C   UNL A   1      45.380  26.385  25.355  1.00  0.00     0.006 A 
ENDBRANCH  46  67
BRANCH  58  75
ATOM     75  C   UNL A   1      42.983  34.322  29.795  1.00  0.00     0.057 A 
ATOM     76  C   UNL A   1      43.247  35.149  30.895  1.00  0.00     0.134 A 
ATOM     77  C   UNL A   1      43.206  34.911  28.530  1.00  0.00     0.134 A 
ATOM     78  F   UNL A   1      43.216  34.686  32.152  1.00  0.00    -0.206 F 
ATOM     79  C   UNL A   1      43.620  36.487  30.752  1.00  0.00     0.040 A 
ATOM     80  C   UNL A   1      43.656  36.221  28.379  1.00  0.00     0.040 A 
ATOM     81  F   UNL A   1      43.036  34.230  27.387  1.00  0.00    -0.206 F 
ATOM     82  C   UNL A   1      43.840  37.024  29.491  1.00  0.00     0.006 A 
ENDBRANCH  58  75
ENDBRANCH  32  33
ENDBRANCH  25  27
ENDBRANCH  24  25
ENDBRANCH   1  24
TORSDOF 12
ENDMDL
MODEL 3
REMARK VINA RESULT:     -12.1      1.912      2.826
REMARK SMILES Cc1cc(C(=O)OCCOC(=O)c2ccc(-c3c4nc(c(-c5c(F)cccc5F)c5ccc([nH]5)c(-c5c(F)cccc5F)c5nc(c(-c6c(F)cccc6F)c6ccc3[nH]6)C=C5)C=C4)cc2)ccc1NC(=O)N1C[C@@H](C)[C@H](C)C1
REMARK SMILES IDX 9 1 8 2 7 3 5 4 6 5 4 6 1 7 2 8 3 9 69 10 68 11 67 12 70 13
REMARK SMILES IDX 71 14 72 16 73 17 74 18 79 19 75 20 77 21 76 22 78 23 10 24
REMARK SMILES IDX 11 25 12 26 13 27 14 28 66 29 15 30 65 31 16 32 17 33 18 34
REMARK SMILES IDX 59 35 19 36 64 37 58 38 60 39 20 40 63 41 57 42 56 43 21 45
REMARK SMILES IDX 47 46 30 47 46 48 31 49 34 50 45 51 61 52 32 53 33 54 44 56
REMARK SMILES IDX 62 57 35 58 22 59 23 60 28 61 24 62 25 63 27 64 29 65 26 66
REMARK SMILES IDX 48 67 49 68 54 69 50 70 51 71 53 72 55 73 52 74 36 75 37 76
REMARK SMILES IDX 42 77 38 78 39 79 41 80 43 81 40 82
REMARK H PARENT 70 15 60 44 34 55
REMARK Flexibility Score: inf
ROOT
ATOM      1  C   UNL A   1      32.903  33.298  27.625  1.00  0.00     0.275 C 
ENDROOT
BRANCH   1   2
ATOM      2  C   UNL A   1      33.164  31.792  27.507  1.00  0.00     0.275 C 
BRANCH   2   3
ATOM      3  O   UNL A   1      32.034  31.064  27.009  1.00  0.00    -0.458 OA
BRANCH   3   4
ATOM      4  C   UNL A   1      32.359  29.809  26.622  1.00  0.00     0.338 C 
ATOM      5  O   UNL A   1      32.885  28.942  27.305  1.00  0.00    -0.246 OA
BRANCH   4   6
ATOM      6  C   UNL A   1      32.214  29.619  25.179  1.00  0.00     0.060 A 
ATOM      7  C   UNL A   1      29.585  28.457  22.694  1.00  0.00     0.046 C 
ATOM      8  C   UNL A   1      30.936  28.702  23.308  1.00  0.00    -0.027 A 
ATOM      9  C   UNL A   1      30.989  29.363  24.551  1.00  0.00     0.021 A 
ATOM     10  C   UNL A   1      32.146  28.243  22.774  1.00  0.00     0.045 A 
ATOM     11  C   UNL A   1      33.353  28.732  23.298  1.00  0.00     0.027 A 
ATOM     12  C   UNL A   1      33.402  29.380  24.515  1.00  0.00     0.018 A 
BRANCH  10  13
ATOM     13  N   UNL A   1      32.182  27.254  21.770  1.00  0.00    -0.308 N 
ATOM     14  C   UNL A   1      32.784  26.022  21.854  1.00  0.00     0.321 C 
ATOM     15  H   UNL A   1      31.730  27.468  20.922  1.00  0.00     0.171 HD
ATOM     16  O   UNL A   1      33.233  25.487  20.841  1.00  0.00    -0.248 OA
ATOM     17  N   UNL A   1      32.860  25.437  23.095  1.00  0.00    -0.324 N 
ATOM     18  C   UNL A   1      34.046  24.746  23.546  1.00  0.00     0.125 C 
ATOM     19  C   UNL A   1      31.708  25.168  23.946  1.00  0.00     0.125 C 
ATOM     20  C   UNL A   1      33.594  23.825  24.673  1.00  0.00     0.010 C 
ATOM     21  C   UNL A   1      32.267  24.434  25.170  1.00  0.00     0.010 C 
ATOM     22  C   UNL A   1      34.635  23.723  25.782  1.00  0.00     0.010 C 
ATOM     23  C   UNL A   1      31.314  23.372  25.716  1.00  0.00     0.010 C 
ENDBRANCH  10  13
ENDBRANCH   4   6
ENDBRANCH   3   4
ENDBRANCH   2   3
ENDBRANCH   1   2
BRANCH   1  24
ATOM     24  O   UNL A   1      33.796  34.114  28.439  1.00  0.00    -0.458 OA
BRANCH  24  25
ATOM     25  C   UNL A   1      34.290  33.870  29.673  1.00  0.00     0.338 C 
ATOM     26  O   UNL A   1      33.755  34.297  30.695  1.00  0.00    -0.246 OA
BRANCH  25  27
ATOM     27  C   UNL A   1      35.490  33.038  29.771  1.00  0.00     0.060 A 
ATOM     28  C   UNL A   1      35.399  31.802  30.430  1.00  0.00     0.016 A 
ATOM     29  C   UNL A   1      36.659  33.438  29.138  1.00  0.00     0.016 A 
ATOM     30  C   UNL A   1      36.449  30.903  30.367  1.00  0.00     0.010 A 
ATOM     31  C   UNL A   1      37.644  32.507  28.945  1.00  0.00     0.010 A 
ATOM     32  C   UNL A   1      37.559  31.276  29.617  1.00  0.00    -0.014 A 
BRANCH  32  33
ATOM     33  C   UNL A   1      38.865  30.694  29.840  1.00  0.00     0.031 A 
ATOM     34  C   UNL A   1      39.211  29.376  29.302  1.00  0.00     0.074 A 
ATOM     35  C   UNL A   1      39.679  31.627  30.384  1.00  0.00     0.049 A 
ATOM     36  N   UNL A   1      40.210  28.680  29.703  1.00  0.00    -0.248 NA
ATOM     37  C   UNL A   1      38.418  28.678  28.292  1.00  0.00     0.031 C 
ATOM     38  C   UNL A   1      41.117  31.748  30.473  1.00  0.00     0.029 A 
ATOM     39  N   UNL A   1      39.210  32.730  31.126  1.00  0.00    -0.354 N 
ATOM     40  C   UNL A   1      40.414  27.678  28.774  1.00  0.00     0.074 A 
ATOM     41  C   UNL A   1      39.179  27.605  28.041  1.00  0.00     0.031 C 
ATOM     42  C   UNL A   1      41.407  32.625  31.458  1.00  0.00     0.029 A 
ATOM     43  C   UNL A   1      40.150  32.983  32.116  1.00  0.00     0.049 A 
ATOM     44  H   UNL A   1      38.374  33.226  30.972  1.00  0.00     0.167 HD
ATOM     45  C   UNL A   1      41.686  27.199  28.628  1.00  0.00     0.037 A 
ATOM     46  C   UNL A   1      39.792  32.658  33.394  1.00  0.00     0.037 A 
ATOM     47  C   UNL A   1      42.543  27.852  29.621  1.00  0.00     0.049 A 
ATOM     48  C   UNL A   1      40.607  31.471  33.846  1.00  0.00     0.074 A 
ATOM     49  C   UNL A   1      43.341  28.981  29.537  1.00  0.00     0.029 A 
ATOM     50  N   UNL A   1      42.307  27.632  30.975  1.00  0.00    -0.354 N 
ATOM     51  N   UNL A   1      40.977  30.484  33.069  1.00  0.00    -0.248 NA
ATOM     52  C   UNL A   1      41.193  31.406  35.178  1.00  0.00     0.031 C 
ATOM     53  C   UNL A   1      43.484  29.505  30.853  1.00  0.00     0.029 A 
ATOM     54  C   UNL A   1      42.774  28.695  31.727  1.00  0.00     0.049 A 
ATOM     55  H   UNL A   1      41.869  26.832  31.344  1.00  0.00     0.167 HD
ATOM     56  C   UNL A   1      41.910  29.731  33.731  1.00  0.00     0.074 A 
ATOM     57  C   UNL A   1      41.988  30.332  35.054  1.00  0.00     0.031 C 
ATOM     58  C   UNL A   1      42.613  28.702  33.171  1.00  0.00     0.037 A 
BRANCH  45  59
ATOM     59  C   UNL A   1      42.252  26.426  27.448  1.00  0.00     0.057 A 
ATOM     60  C   UNL A   1      42.808  25.142  27.651  1.00  0.00     0.134 A 
ATOM     61  C   UNL A   1      42.339  26.873  26.116  1.00  0.00     0.134 A 
ATOM     62  F   UNL A   1      42.756  24.533  28.843  1.00  0.00    -0.206 F 
ATOM     63  C   UNL A   1      43.449  24.405  26.643  1.00  0.00     0.040 A 
ATOM     64  C   UNL A   1      42.987  26.149  25.098  1.00  0.00     0.040 A 
ATOM     65  F   UNL A   1      41.778  28.013  25.707  1.00  0.00    -0.206 F 
ATOM     66  C   UNL A   1      43.555  24.913  25.361  1.00  0.00     0.006 A 
ENDBRANCH  45  59
BRANCH  46  67
ATOM     67  C   UNL A   1      38.348  32.934  33.725  1.00  0.00     0.057 A 
ATOM     68  C   UNL A   1      37.937  34.280  33.879  1.00  0.00     0.134 A 
ATOM     69  C   UNL A   1      37.320  31.991  33.644  1.00  0.00     0.134 A 
ATOM     70  F   UNL A   1      38.854  35.257  33.983  1.00  0.00    -0.206 F 
ATOM     71  C   UNL A   1      36.594  34.674  33.842  1.00  0.00     0.040 A 
ATOM     72  C   UNL A   1      35.963  32.371  33.634  1.00  0.00     0.040 A 
ATOM     73  F   UNL A   1      37.595  30.688  33.497  1.00  0.00    -0.206 F 
ATOM     74  C   UNL A   1      35.598  33.717  33.699  1.00  0.00     0.006 A 
ENDBRANCH  46  67
BRANCH  58  75
ATOM     75  C   UNL A   1      43.308  27.632  33.973  1.00  0.00     0.057 A 
ATOM     76  C   UNL A   1      44.689  27.626  34.210  1.00  0.00     0.134 A 
ATOM     77  C   UNL A   1      42.567  26.669  34.695  1.00  0.00     0.134 A 
ATOM     78  F   UNL A   1      45.497  28.568  33.706  1.00  0.00    -0.206 F 
ATOM     79  C   UNL A   1      45.302  26.679  35.033  1.00  0.00     0.040 A 
ATOM     80  C   UNL A   1      43.162  25.771  35.581  1.00  0.00     0.040 A 
ATOM     81  F   UNL A   1      41.233  26.580  34.603  1.00  0.00    -0.206 F 
ATOM     82  C   UNL A   1      44.538  25.757  35.734  1.00  0.00     0.006 A 
ENDBRANCH  58  75
ENDBRANCH  32  33
ENDBRANCH  25  27
ENDBRANCH  24  25
ENDBRANCH   1  24
TORSDOF 12
ENDMDL
