MODEL 1
REMARK VINA RESULT:     -11.6      0.000      0.000
REMARK SMILES O=C(OCCOC(=O)c1ccc(F)cc1NC(=O)[C@H]1CCS(=O)(=O)C1)c1ccc(-c2c3nc(c(-c4c(F)cccc4F)c4ccc([nH]4)c(-c4c(F)cccc4F)c4nc(c(-c5c(F)cccc5F)c5ccc2[nH]5)C=C4)C=C3)cc1
REMARK SMILES IDX 4 1 3 2 2 3 1 4 26 5 27 6 79 7 28 8 78 9 29 10 30 11 31 12
REMARK SMILES IDX 72 13 32 14 77 15 71 16 73 17 33 18 76 19 70 20 69 21 34 23
REMARK SMILES IDX 60 24 43 25 59 26 44 27 47 28 58 29 74 30 45 31 46 32 57 34
REMARK SMILES IDX 75 35 48 36 35 37 36 38 41 39 37 40 38 41 40 42 42 43 39 44
REMARK SMILES IDX 61 45 62 46 67 47 63 48 64 49 66 50 68 51 65 52 49 53 50 54
REMARK SMILES IDX 55 55 51 56 52 57 54 58 56 59 53 60 5 61 6 62 7 63 8 64 9 65
REMARK SMILES IDX 10 66 15 67 11 68 14 69 12 70 13 71 16 72 17 73 18 75 19 76
REMARK SMILES IDX 20 77 25 78 21 79 22 80 23 81 24 82
REMARK H PARENT 73 22 47 33 16 74
REMARK Flexibility Score: inf
ROOT
ATOM      1  C   UNL A   1      42.827  24.556  25.291  1.00  0.00     0.275 C 
ENDROOT
BRANCH   1   2
ATOM      2  O   UNL A   1      41.950  25.644  24.973  1.00  0.00    -0.458 OA
BRANCH   2   3
ATOM      3  C   UNL A   1      41.976  26.928  25.385  1.00  0.00     0.338 C 
ATOM      4  O   UNL A   1      42.453  27.769  24.627  1.00  0.00    -0.246 OA
BRANCH   3   5
ATOM      5  C   UNL A   1      41.552  27.392  26.748  1.00  0.00     0.060 A 
ATOM      6  C   UNL A   1      40.575  26.830  27.579  1.00  0.00     0.016 A 
ATOM      7  C   UNL A   1      42.241  28.511  27.236  1.00  0.00     0.016 A 
ATOM      8  C   UNL A   1      40.338  27.314  28.873  1.00  0.00     0.010 A 
ATOM      9  C   UNL A   1      42.024  28.983  28.526  1.00  0.00     0.010 A 
ATOM     10  C   UNL A   1      41.061  28.398  29.351  1.00  0.00    -0.014 A 
BRANCH  10  11
ATOM     11  C   UNL A   1      40.722  29.094  30.608  1.00  0.00     0.031 A 
ATOM     12  C   UNL A   1      39.641  30.132  30.551  1.00  0.00     0.074 A 
ATOM     13  C   UNL A   1      41.425  28.888  31.734  1.00  0.00     0.049 A 
ATOM     14  N   UNL A   1      39.272  30.994  31.456  1.00  0.00    -0.248 NA
ATOM     15  C   UNL A   1      38.889  30.222  29.285  1.00  0.00     0.031 C 
ATOM     16  C   UNL A   1      42.470  27.883  31.908  1.00  0.00     0.029 A 
ATOM     17  N   UNL A   1      41.397  29.551  32.934  1.00  0.00    -0.354 N 
ATOM     18  C   UNL A   1      38.251  31.726  30.866  1.00  0.00     0.074 A 
ATOM     19  C   UNL A   1      38.130  31.282  29.499  1.00  0.00     0.031 C 
ATOM     20  C   UNL A   1      43.040  28.045  33.114  1.00  0.00     0.029 A 
ATOM     21  C   UNL A   1      42.397  29.165  33.795  1.00  0.00     0.049 A 
ATOM     22  H   UNL A   1      40.727  30.237  33.158  1.00  0.00     0.167 HD
ATOM     23  C   UNL A   1      37.444  32.645  31.439  1.00  0.00     0.037 A 
ATOM     24  C   UNL A   1      42.761  29.672  34.987  1.00  0.00     0.037 A 
ATOM     25  C   UNL A   1      37.568  33.050  32.808  1.00  0.00     0.049 A 
ATOM     26  C   UNL A   1      41.923  30.766  35.587  1.00  0.00     0.074 A 
ATOM     27  C   UNL A   1      36.759  33.902  33.532  1.00  0.00     0.029 A 
ATOM     28  N   UNL A   1      38.589  32.636  33.655  1.00  0.00    -0.354 N 
ATOM     29  N   UNL A   1      40.885  31.378  35.067  1.00  0.00    -0.248 NA
ATOM     30  C   UNL A   1      42.263  31.210  36.946  1.00  0.00     0.031 C 
ATOM     31  C   UNL A   1      37.322  34.047  34.802  1.00  0.00     0.029 A 
ATOM     32  C   UNL A   1      38.447  33.238  34.889  1.00  0.00     0.049 A 
ATOM     33  H   UNL A   1      39.306  32.006  33.411  1.00  0.00     0.167 HD
ATOM     34  C   UNL A   1      40.412  32.235  36.050  1.00  0.00     0.074 A 
ATOM     35  C   UNL A   1      41.293  32.083  37.192  1.00  0.00     0.031 C 
ATOM     36  C   UNL A   1      39.329  33.050  36.017  1.00  0.00     0.037 A 
BRANCH  23  37
ATOM     37  C   UNL A   1      36.364  33.234  30.582  1.00  0.00     0.057 A 
ATOM     38  C   UNL A   1      36.671  34.165  29.584  1.00  0.00     0.134 A 
ATOM     39  C   UNL A   1      35.020  32.858  30.724  1.00  0.00     0.134 A 
ATOM     40  F   UNL A   1      37.934  34.574  29.396  1.00  0.00    -0.206 F 
ATOM     41  C   UNL A   1      35.683  34.690  28.749  1.00  0.00     0.040 A 
ATOM     42  C   UNL A   1      34.028  33.350  29.874  1.00  0.00     0.040 A 
ATOM     43  F   UNL A   1      34.659  31.955  31.650  1.00  0.00    -0.206 F 
ATOM     44  C   UNL A   1      34.359  34.273  28.884  1.00  0.00     0.006 A 
ENDBRANCH  23  37
BRANCH  24  45
ATOM     45  C   UNL A   1      43.938  29.104  35.689  1.00  0.00     0.057 A 
ATOM     46  C   UNL A   1      45.229  29.603  35.464  1.00  0.00     0.134 A 
ATOM     47  C   UNL A   1      43.816  27.995  36.532  1.00  0.00     0.134 A 
ATOM     48  F   UNL A   1      45.414  30.655  34.654  1.00  0.00    -0.206 F 
ATOM     49  C   UNL A   1      46.354  29.008  36.037  1.00  0.00     0.040 A 
ATOM     50  C   UNL A   1      44.933  27.397  37.121  1.00  0.00     0.040 A 
ATOM     51  F   UNL A   1      42.608  27.474  36.788  1.00  0.00    -0.206 F 
ATOM     52  C   UNL A   1      46.208  27.899  36.867  1.00  0.00     0.006 A 
ENDBRANCH  24  45
BRANCH  36  53
ATOM     53  C   UNL A   1      38.979  33.813  37.258  1.00  0.00     0.057 A 
ATOM     54  C   UNL A   1      39.486  35.106  37.449  1.00  0.00     0.134 A 
ATOM     55  C   UNL A   1      38.301  33.213  38.323  1.00  0.00     0.134 A 
ATOM     56  F   UNL A   1      40.157  35.727  36.467  1.00  0.00    -0.206 F 
ATOM     57  C   UNL A   1      39.372  35.757  38.677  1.00  0.00     0.040 A 
ATOM     58  C   UNL A   1      38.158  33.865  39.547  1.00  0.00     0.040 A 
ATOM     59  F   UNL A   1      37.785  31.981  38.194  1.00  0.00    -0.206 F 
ATOM     60  C   UNL A   1      38.712  35.131  39.732  1.00  0.00     0.006 A 
ENDBRANCH  36  53
ENDBRANCH  10  11
ENDBRANCH   3   5
ENDBRANCH   2   3
ENDBRANCH   1   2
BRANCH   1  61
ATOM     61  C   UNL A   1      42.612  23.940  26.677  1.00  0.00     0.275 C 
BRANCH  61  62
ATOM     62  O   UNL A   1      41.268  23.503  26.959  1.00  0.00    -0.458 OA
BRANCH  62  63
ATOM     63  C   UNL A   1      41.122  22.236  27.437  1.00  0.00     0.340 C 
ATOM     64  O   UNL A   1      41.724  21.748  28.376  1.00  0.00    -0.246 OA
BRANCH  63  65
ATOM     65  C   UNL A   1      40.080  21.495  26.672  1.00  0.00     0.083 A 
ATOM     66  C   UNL A   1      39.000  22.240  26.157  1.00  0.00     0.021 A 
ATOM     67  C   UNL A   1      40.174  20.097  26.418  1.00  0.00     0.058 A 
ATOM     68  C   UNL A   1      38.038  21.623  25.364  1.00  0.00     0.040 A 
ATOM     69  C   UNL A   1      39.252  19.538  25.532  1.00  0.00     0.066 A 
ATOM     70  C   UNL A   1      38.185  20.286  25.044  1.00  0.00     0.125 A 
ATOM     71  F   UNL A   1      37.279  19.693  24.258  1.00  0.00    -0.207 F 
BRANCH  67  72
ATOM     72  N   UNL A   1      41.150  19.310  27.080  1.00  0.00    -0.325 N 
ATOM     73  C   UNL A   1      42.449  18.961  26.815  1.00  0.00     0.228 C 
ATOM     74  H   UNL A   1      40.819  18.926  27.923  1.00  0.00     0.169 HD
ATOM     75  O   UNL A   1      43.016  18.264  27.663  1.00  0.00    -0.274 OA
BRANCH  73  76
ATOM     76  C   UNL A   1      43.226  19.374  25.566  1.00  0.00     0.095 C 
ATOM     77  C   UNL A   1      43.759  20.830  25.672  1.00  0.00     0.030 C 
ATOM     78  C   UNL A   1      44.513  18.608  25.295  1.00  0.00     0.150 C 
ATOM     79  C   UNL A   1      44.669  21.094  24.468  1.00  0.00     0.138 C 
ATOM     80  S   UNL A   1      45.268  19.496  23.958  1.00  0.00     0.151 S 
ATOM     81  O   UNL A   1      44.591  19.115  22.738  1.00  0.00    -0.229 OA
ATOM     82  O   UNL A   1      46.706  19.432  24.113  1.00  0.00    -0.229 OA
ENDBRANCH  73  76
ENDBRANCH  67  72
ENDBRANCH  63  65
ENDBRANCH  62  63
ENDBRANCH  61  62
ENDBRANCH   1  61
TORSDOF 13
ENDMDL
MODEL 2
REMARK VINA RESULT:     -11.6      5.793      9.157
REMARK SMILES O=C(OCCOC(=O)c1ccc(F)cc1NC(=O)[C@H]1CCS(=O)(=O)C1)c1ccc(-c2c3nc(c(-c4c(F)cccc4F)c4ccc([nH]4)c(-c4c(F)cccc4F)c4nc(c(-c5c(F)cccc5F)c5ccc2[nH]5)C=C4)C=C3)cc1
REMARK SMILES IDX 4 1 3 2 2 3 1 4 26 5 27 6 79 7 28 8 78 9 29 10 30 11 31 12
REMARK SMILES IDX 72 13 32 14 77 15 71 16 73 17 33 18 76 19 70 20 69 21 34 23
REMARK SMILES IDX 60 24 43 25 59 26 44 27 47 28 58 29 74 30 45 31 46 32 57 34
REMARK SMILES IDX 75 35 48 36 35 37 36 38 41 39 37 40 38 41 40 42 42 43 39 44
REMARK SMILES IDX 61 45 62 46 67 47 63 48 64 49 66 50 68 51 65 52 49 53 50 54
REMARK SMILES IDX 55 55 51 56 52 57 54 58 56 59 53 60 5 61 6 62 7 63 8 64 9 65
REMARK SMILES IDX 10 66 15 67 11 68 14 69 12 70 13 71 16 72 17 73 18 75 19 76
REMARK SMILES IDX 20 77 25 78 21 79 22 80 23 81 24 82
REMARK H PARENT 73 22 47 33 16 74
REMARK Flexibility Score: inf
ROOT
ATOM      1  C   UNL A   1      38.187  20.013  24.956  1.00  0.00     0.275 C 
ENDROOT
BRANCH   1   2
ATOM      2  O   UNL A   1      39.116  19.493  25.914  1.00  0.00    -0.458 OA
BRANCH   2   3
ATOM      3  C   UNL A   1      40.451  19.663  26.009  1.00  0.00     0.338 C 
ATOM      4  O   UNL A   1      41.179  18.743  25.643  1.00  0.00    -0.246 OA
BRANCH   3   5
ATOM      5  C   UNL A   1      41.114  20.862  26.623  1.00  0.00     0.060 A 
ATOM      6  C   UNL A   1      41.368  21.099  27.980  1.00  0.00     0.016 A 
ATOM      7  C   UNL A   1      41.538  21.839  25.711  1.00  0.00     0.016 A 
ATOM      8  C   UNL A   1      42.077  22.228  28.412  1.00  0.00     0.010 A 
ATOM      9  C   UNL A   1      42.260  22.951  26.133  1.00  0.00     0.010 A 
ATOM     10  C   UNL A   1      42.524  23.162  27.488  1.00  0.00    -0.014 A 
BRANCH  10  11
ATOM     11  C   UNL A   1      43.083  24.471  27.880  1.00  0.00     0.031 A 
ATOM     12  C   UNL A   1      42.111  25.572  28.186  1.00  0.00     0.074 A 
ATOM     13  C   UNL A   1      44.407  24.702  27.858  1.00  0.00     0.049 A 
ATOM     14  N   UNL A   1      42.333  26.841  28.385  1.00  0.00    -0.248 NA
ATOM     15  C   UNL A   1      40.689  25.187  28.250  1.00  0.00     0.031 C 
ATOM     16  C   UNL A   1      45.437  23.699  27.608  1.00  0.00     0.029 A 
ATOM     17  N   UNL A   1      45.108  25.872  28.001  1.00  0.00    -0.354 N 
ATOM     18  C   UNL A   1      41.081  27.400  28.595  1.00  0.00     0.074 A 
ATOM     19  C   UNL A   1      40.100  26.361  28.396  1.00  0.00     0.031 C 
ATOM     20  C   UNL A   1      46.634  24.305  27.537  1.00  0.00     0.029 A 
ATOM     21  C   UNL A   1      46.450  25.739  27.738  1.00  0.00     0.049 A 
ATOM     22  H   UNL A   1      44.691  26.724  28.267  1.00  0.00     0.167 HD
ATOM     23  C   UNL A   1      40.783  28.659  28.984  1.00  0.00     0.037 A 
ATOM     24  C   UNL A   1      47.415  26.675  27.650  1.00  0.00     0.037 A 
ATOM     25  C   UNL A   1      41.779  29.667  29.201  1.00  0.00     0.049 A 
ATOM     26  C   UNL A   1      47.066  28.098  27.986  1.00  0.00     0.074 A 
ATOM     27  C   UNL A   1      41.616  30.950  29.681  1.00  0.00     0.029 A 
ATOM     28  N   UNL A   1      43.131  29.499  28.930  1.00  0.00    -0.354 N 
ATOM     29  N   UNL A   1      45.895  28.600  28.296  1.00  0.00    -0.248 NA
ATOM     30  C   UNL A   1      48.165  29.073  28.012  1.00  0.00     0.031 C 
ATOM     31  C   UNL A   1      42.864  31.578  29.649  1.00  0.00     0.029 A 
ATOM     32  C   UNL A   1      43.813  30.667  29.206  1.00  0.00     0.049 A 
ATOM     33  H   UNL A   1      43.541  28.670  28.592  1.00  0.00     0.167 HD
ATOM     34  C   UNL A   1      46.119  29.933  28.609  1.00  0.00     0.074 A 
ATOM     35  C   UNL A   1      47.539  30.169  28.427  1.00  0.00     0.031 C 
ATOM     36  C   UNL A   1      45.233  30.865  29.036  1.00  0.00     0.037 A 
BRANCH  23  37
ATOM     37  C   UNL A   1      39.336  28.979  29.211  1.00  0.00     0.057 A 
ATOM     38  C   UNL A   1      38.530  29.430  28.160  1.00  0.00     0.134 A 
ATOM     39  C   UNL A   1      38.730  28.814  30.465  1.00  0.00     0.134 A 
ATOM     40  F   UNL A   1      39.044  29.616  26.936  1.00  0.00    -0.206 F 
ATOM     41  C   UNL A   1      37.171  29.691  28.345  1.00  0.00     0.040 A 
ATOM     42  C   UNL A   1      37.366  29.039  30.655  1.00  0.00     0.040 A 
ATOM     43  F   UNL A   1      39.442  28.366  31.512  1.00  0.00    -0.206 F 
ATOM     44  C   UNL A   1      36.583  29.483  29.592  1.00  0.00     0.006 A 
ENDBRANCH  23  37
BRANCH  24  45
ATOM     45  C   UNL A   1      48.792  26.264  27.279  1.00  0.00     0.057 A 
ATOM     46  C   UNL A   1      49.719  25.871  28.254  1.00  0.00     0.134 A 
ATOM     47  C   UNL A   1      49.240  26.337  25.958  1.00  0.00     0.134 A 
ATOM     48  F   UNL A   1      49.355  25.796  29.542  1.00  0.00    -0.206 F 
ATOM     49  C   UNL A   1      51.046  25.584  27.928  1.00  0.00     0.040 A 
ATOM     50  C   UNL A   1      50.562  26.042  25.616  1.00  0.00     0.040 A 
ATOM     51  F   UNL A   1      48.399  26.703  24.980  1.00  0.00    -0.206 F 
ATOM     52  C   UNL A   1      51.472  25.672  26.604  1.00  0.00     0.006 A 
ENDBRANCH  24  45
BRANCH  36  53
ATOM     53  C   UNL A   1      45.753  32.223  29.397  1.00  0.00     0.057 A 
ATOM     54  C   UNL A   1      45.924  33.194  28.400  1.00  0.00     0.134 A 
ATOM     55  C   UNL A   1      46.244  32.506  30.675  1.00  0.00     0.134 A 
ATOM     56  F   UNL A   1      45.485  32.973  27.151  1.00  0.00    -0.206 F 
ATOM     57  C   UNL A   1      46.609  34.381  28.651  1.00  0.00     0.040 A 
ATOM     58  C   UNL A   1      46.908  33.703  30.945  1.00  0.00     0.040 A 
ATOM     59  F   UNL A   1      46.099  31.620  31.671  1.00  0.00    -0.206 F 
ATOM     60  C   UNL A   1      47.110  34.634  29.927  1.00  0.00     0.006 A 
ENDBRANCH  36  53
ENDBRANCH  10  11
ENDBRANCH   3   5
ENDBRANCH   2   3
ENDBRANCH   1   2
BRANCH   1  61
ATOM     61  C   UNL A   1      37.778  21.473  25.182  1.00  0.00     0.275 C 
BRANCH  61  62
ATOM     62  O   UNL A   1      36.476  21.667  25.765  1.00  0.00    -0.458 OA
BRANCH  62  63
ATOM     63  C   UNL A   1      35.822  22.817  25.440  1.00  0.00     0.340 C 
ATOM     64  O   UNL A   1      36.291  23.762  24.831  1.00  0.00    -0.246 OA
BRANCH  63  65
ATOM     65  C   UNL A   1      34.407  22.776  25.902  1.00  0.00     0.083 A 
ATOM     66  C   UNL A   1      34.176  22.460  27.256  1.00  0.00     0.021 A 
ATOM     67  C   UNL A   1      33.317  23.086  25.041  1.00  0.00     0.058 A 
ATOM     68  C   UNL A   1      32.883  22.487  27.771  1.00  0.00     0.040 A 
ATOM     69  C   UNL A   1      32.052  23.208  25.618  1.00  0.00     0.066 A 
ATOM     70  C   UNL A   1      31.840  22.879  26.953  1.00  0.00     0.125 A 
ATOM     71  F   UNL A   1      30.599  22.936  27.450  1.00  0.00    -0.207 F 
BRANCH  67  72
ATOM     72  N   UNL A   1      33.520  23.225  23.645  1.00  0.00    -0.325 N 
ATOM     73  C   UNL A   1      33.352  24.243  22.742  1.00  0.00     0.228 C 
ATOM     74  H   UNL A   1      33.859  22.401  23.228  1.00  0.00     0.169 HD
ATOM     75  O   UNL A   1      33.675  24.002  21.574  1.00  0.00    -0.274 OA
BRANCH  73  76
ATOM     76  C   UNL A   1      32.808  25.630  23.082  1.00  0.00     0.095 C 
ATOM     77  C   UNL A   1      33.558  26.750  22.307  1.00  0.00     0.030 C 
ATOM     78  C   UNL A   1      31.368  25.902  22.673  1.00  0.00     0.150 C 
ATOM     79  C   UNL A   1      32.836  28.076  22.569  1.00  0.00     0.138 C 
ATOM     80  S   UNL A   1      31.158  27.638  22.973  1.00  0.00     0.151 S 
ATOM     81  O   UNL A   1      30.961  27.819  24.395  1.00  0.00    -0.229 OA
ATOM     82  O   UNL A   1      30.251  28.173  21.979  1.00  0.00    -0.229 OA
ENDBRANCH  73  76
ENDBRANCH  67  72
ENDBRANCH  63  65
ENDBRANCH  62  63
ENDBRANCH  61  62
ENDBRANCH   1  61
TORSDOF 13
ENDMDL
MODEL 3
REMARK VINA RESULT:     -11.6      4.692      8.692
REMARK SMILES O=C(OCCOC(=O)c1ccc(F)cc1NC(=O)[C@H]1CCS(=O)(=O)C1)c1ccc(-c2c3nc(c(-c4c(F)cccc4F)c4ccc([nH]4)c(-c4c(F)cccc4F)c4nc(c(-c5c(F)cccc5F)c5ccc2[nH]5)C=C4)C=C3)cc1
REMARK SMILES IDX 4 1 3 2 2 3 1 4 26 5 27 6 79 7 28 8 78 9 29 10 30 11 31 12
REMARK SMILES IDX 72 13 32 14 77 15 71 16 73 17 33 18 76 19 70 20 69 21 34 23
REMARK SMILES IDX 60 24 43 25 59 26 44 27 47 28 58 29 74 30 45 31 46 32 57 34
REMARK SMILES IDX 75 35 48 36 35 37 36 38 41 39 37 40 38 41 40 42 42 43 39 44
REMARK SMILES IDX 61 45 62 46 67 47 63 48 64 49 66 50 68 51 65 52 49 53 50 54
REMARK SMILES IDX 55 55 51 56 52 57 54 58 56 59 53 60 5 61 6 62 7 63 8 64 9 65
REMARK SMILES IDX 10 66 15 67 11 68 14 69 12 70 13 71 16 72 17 73 18 75 19 76
REMARK SMILES IDX 20 77 25 78 21 79 22 80 23 81 24 82
REMARK H PARENT 73 22 47 33 16 74
REMARK Flexibility Score: inf
ROOT
ATOM      1  C   UNL A   1      31.870  31.843  26.894  1.00  0.00     0.275 C 
ENDROOT
BRANCH   1   2
ATOM      2  O   UNL A   1      32.584  33.084  26.945  1.00  0.00    -0.458 OA
BRANCH   2   3
ATOM      3  C   UNL A   1      33.113  33.738  27.999  1.00  0.00     0.338 C 
ATOM      4  O   UNL A   1      32.527  34.736  28.415  1.00  0.00    -0.246 OA
BRANCH   3   5
ATOM      5  C   UNL A   1      34.424  33.392  28.644  1.00  0.00     0.060 A 
ATOM      6  C   UNL A   1      35.681  33.952  28.383  1.00  0.00     0.016 A 
ATOM      7  C   UNL A   1      34.356  32.402  29.634  1.00  0.00     0.016 A 
ATOM      8  C   UNL A   1      36.816  33.595  29.123  1.00  0.00     0.010 A 
ATOM      9  C   UNL A   1      35.475  32.059  30.385  1.00  0.00     0.010 A 
ATOM     10  C   UNL A   1      36.718  32.642  30.128  1.00  0.00    -0.014 A 
BRANCH  10  11
ATOM     11  C   UNL A   1      37.898  32.062  30.798  1.00  0.00     0.031 A 
ATOM     12  C   UNL A   1      38.599  30.931  30.105  1.00  0.00     0.074 A 
ATOM     13  C   UNL A   1      38.267  32.454  32.030  1.00  0.00     0.049 A 
ATOM     14  N   UNL A   1      39.540  30.145  30.546  1.00  0.00    -0.248 NA
ATOM     15  C   UNL A   1      38.155  30.634  28.730  1.00  0.00     0.031 C 
ATOM     16  C   UNL A   1      37.677  33.561  32.777  1.00  0.00     0.029 A 
ATOM     17  N   UNL A   1      39.196  31.928  32.890  1.00  0.00    -0.354 N 
ATOM     18  C   UNL A   1      39.795  29.264  29.506  1.00  0.00     0.074 A 
ATOM     19  C   UNL A   1      38.845  29.541  28.456  1.00  0.00     0.031 C 
ATOM     20  C   UNL A   1      38.203  33.586  34.014  1.00  0.00     0.029 A 
ATOM     21  C   UNL A   1      39.165  32.495  34.141  1.00  0.00     0.049 A 
ATOM     22  H   UNL A   1      39.825  31.214  32.636  1.00  0.00     0.167 HD
ATOM     23  C   UNL A   1      40.782  28.346  29.412  1.00  0.00     0.037 A 
ATOM     24  C   UNL A   1      39.826  32.158  35.265  1.00  0.00     0.037 A 
ATOM     25  C   UNL A   1      41.731  28.108  30.460  1.00  0.00     0.049 A 
ATOM     26  C   UNL A   1      40.856  31.066  35.190  1.00  0.00     0.074 A 
ATOM     27  C   UNL A   1      42.829  27.272  30.454  1.00  0.00     0.029 A 
ATOM     28  N   UNL A   1      41.675  28.703  31.713  1.00  0.00    -0.354 N 
ATOM     29  N   UNL A   1      41.173  30.311  34.166  1.00  0.00    -0.248 NA
ATOM     30  C   UNL A   1      41.655  30.809  36.396  1.00  0.00     0.031 C 
ATOM     31  C   UNL A   1      43.407  27.321  31.725  1.00  0.00     0.029 A 
ATOM     32  C   UNL A   1      42.704  28.232  32.503  1.00  0.00     0.049 A 
ATOM     33  H   UNL A   1      41.001  29.364  31.996  1.00  0.00     0.167 HD
ATOM     34  C   UNL A   1      42.241  29.529  34.580  1.00  0.00     0.074 A 
ATOM     35  C   UNL A   1      42.504  29.885  35.961  1.00  0.00     0.031 C 
ATOM     36  C   UNL A   1      42.956  28.622  33.870  1.00  0.00     0.037 A 
BRANCH  23  37
ATOM     37  C   UNL A   1      40.873  27.571  28.132  1.00  0.00     0.057 A 
ATOM     38  C   UNL A   1      41.631  28.051  27.058  1.00  0.00     0.134 A 
ATOM     39  C   UNL A   1      40.233  26.333  27.970  1.00  0.00     0.134 A 
ATOM     40  F   UNL A   1      42.265  29.229  27.141  1.00  0.00    -0.206 F 
ATOM     41  C   UNL A   1      41.762  27.320  25.875  1.00  0.00     0.040 A 
ATOM     42  C   UNL A   1      40.384  25.578  26.806  1.00  0.00     0.040 A 
ATOM     43  F   UNL A   1      39.506  25.807  28.968  1.00  0.00    -0.206 F 
ATOM     44  C   UNL A   1      41.148  26.074  25.752  1.00  0.00     0.006 A 
ENDBRANCH  23  37
BRANCH  24  45
ATOM     45  C   UNL A   1      39.554  32.904  36.518  1.00  0.00     0.057 A 
ATOM     46  C   UNL A   1      38.511  32.527  37.375  1.00  0.00     0.134 A 
ATOM     47  C   UNL A   1      40.268  34.059  36.846  1.00  0.00     0.134 A 
ATOM     48  F   UNL A   1      37.777  31.436  37.109  1.00  0.00    -0.206 F 
ATOM     49  C   UNL A   1      38.179  33.283  38.502  1.00  0.00     0.040 A 
ATOM     50  C   UNL A   1      39.955  34.819  37.976  1.00  0.00     0.040 A 
ATOM     51  F   UNL A   1      41.279  34.469  36.066  1.00  0.00    -0.206 F 
ATOM     52  C   UNL A   1      38.901  34.436  38.803  1.00  0.00     0.006 A 
ENDBRANCH  24  45
BRANCH  36  53
ATOM     53  C   UNL A   1      44.132  27.973  34.531  1.00  0.00     0.057 A 
ATOM     54  C   UNL A   1      43.958  26.790  35.264  1.00  0.00     0.134 A 
ATOM     55  C   UNL A   1      45.380  28.601  34.592  1.00  0.00     0.134 A 
ATOM     56  F   UNL A   1      42.779  26.150  35.254  1.00  0.00    -0.206 F 
ATOM     57  C   UNL A   1      44.972  26.281  36.074  1.00  0.00     0.040 A 
ATOM     58  C   UNL A   1      46.410  28.086  35.380  1.00  0.00     0.040 A 
ATOM     59  F   UNL A   1      45.608  29.729  33.904  1.00  0.00    -0.206 F 
ATOM     60  C   UNL A   1      46.200  26.935  36.139  1.00  0.00     0.006 A 
ENDBRANCH  36  53
ENDBRANCH  10  11
ENDBRANCH   3   5
ENDBRANCH   2   3
ENDBRANCH   1   2
BRANCH   1  61
ATOM     61  C   UNL A   1      32.751  30.591  26.947  1.00  0.00     0.275 C 
BRANCH  61  62
ATOM     62  O   UNL A   1      32.786  29.807  25.739  1.00  0.00    -0.458 OA
BRANCH  62  63
ATOM     63  C   UNL A   1      33.132  28.496  25.867  1.00  0.00     0.340 C 
ATOM     64  O   UNL A   1      33.435  27.931  26.902  1.00  0.00    -0.246 OA
BRANCH  63  65
ATOM     65  C   UNL A   1      33.066  27.796  24.554  1.00  0.00     0.083 A 
ATOM     66  C   UNL A   1      33.537  28.492  23.423  1.00  0.00     0.021 A 
ATOM     67  C   UNL A   1      32.593  26.459  24.429  1.00  0.00     0.058 A 
ATOM     68  C   UNL A   1      33.581  27.865  22.182  1.00  0.00     0.040 A 
ATOM     69  C   UNL A   1      32.753  25.830  23.193  1.00  0.00     0.066 A 
ATOM     70  C   UNL A   1      33.208  26.537  22.084  1.00  0.00     0.125 A 
ATOM     71  F   UNL A   1      33.276  25.920  20.899  1.00  0.00    -0.207 F 
BRANCH  67  72
ATOM     72  N   UNL A   1      31.951  25.818  25.518  1.00  0.00    -0.325 N 
ATOM     73  C   UNL A   1      32.178  24.670  26.231  1.00  0.00     0.228 C 
ATOM     74  H   UNL A   1      31.159  26.311  25.834  1.00  0.00     0.169 HD
ATOM     75  O   UNL A   1      31.404  24.440  27.166  1.00  0.00    -0.274 OA
BRANCH  73  76
ATOM     76  C   UNL A   1      33.308  23.679  25.955  1.00  0.00     0.095 C 
ATOM     77  C   UNL A   1      33.730  22.912  27.239  1.00  0.00     0.030 C 
ATOM     78  C   UNL A   1      32.974  22.527  25.019  1.00  0.00     0.150 C 
ATOM     79  C   UNL A   1      34.733  21.825  26.837  1.00  0.00     0.138 C 
ATOM     80  S   UNL A   1      34.388  21.462  25.127  1.00  0.00     0.151 S 
ATOM     81  O   UNL A   1      35.436  22.036  24.311  1.00  0.00    -0.229 OA
ATOM     82  O   UNL A   1      33.947  20.090  24.989  1.00  0.00    -0.229 OA
ENDBRANCH  73  76
ENDBRANCH  67  72
ENDBRANCH  63  65
ENDBRANCH  62  63
ENDBRANCH  61  62
ENDBRANCH   1  61
TORSDOF 13
ENDMDL
