MODEL 1
REMARK VINA RESULT:     -11.3      0.000      0.000
REMARK SMILES O=C(OCCOC(=O)[C@H]1CC[C@@H](C[NH2+][C@H]2CCC[C@H](C3CC3)C2)CC1)c1ccc(-c2c3nc(c(-c4c(F)cccc4F)c4ccc([nH]4)c(-c4c(F)cccc4F)c4nc(c(-c5c(F)cccc5F)c5ccc2[nH]5)C=C4)C=C3)cc1
REMARK SMILES IDX 5 1 4 2 3 3 2 4 1 5 26 6 27 7 79 8 28 9 78 10 29 11 30 12
REMARK SMILES IDX 31 13 72 14 32 15 77 16 71 17 73 18 33 19 76 20 70 21 69 22
REMARK SMILES IDX 34 24 60 25 43 26 59 27 44 28 47 29 58 30 74 31 45 32 46 33
REMARK SMILES IDX 57 35 75 36 48 37 35 38 36 39 41 40 37 41 38 42 40 43 42 44
REMARK SMILES IDX 39 45 61 46 62 47 67 48 63 49 64 50 66 51 68 52 65 53 49 54
REMARK SMILES IDX 50 55 55 56 51 57 52 58 54 59 56 60 53 61 6 62 7 63 8 64
REMARK SMILES IDX 9 65 25 66 10 67 24 68 11 69 12 70 13 71 14 72 15 75 16 76
REMARK SMILES IDX 23 77 17 78 19 79 18 80 20 81 21 82 22 83
REMARK H PARENT 73 23 47 34 14 73 14 74
REMARK Flexibility Score: inf
ROOT
ATOM      1  C   UNL A   1      32.113  30.808  26.385  1.00  0.00     0.274 C 
ENDROOT
BRANCH   1   2
ATOM      2  C   UNL A   1      31.436  32.091  26.876  1.00  0.00     0.275 C 
BRANCH   2   3
ATOM      3  O   UNL A   1      32.319  33.225  26.908  1.00  0.00    -0.458 OA
BRANCH   3   4
ATOM      4  C   UNL A   1      33.028  33.728  27.947  1.00  0.00     0.338 C 
ATOM      5  O   UNL A   1      32.680  34.805  28.430  1.00  0.00    -0.246 OA
BRANCH   4   6
ATOM      6  C   UNL A   1      34.334  33.152  28.408  1.00  0.00     0.060 A 
ATOM      7  C   UNL A   1      35.599  33.725  28.257  1.00  0.00     0.016 A 
ATOM      8  C   UNL A   1      34.250  31.947  29.129  1.00  0.00     0.016 A 
ATOM      9  C   UNL A   1      36.716  33.196  28.906  1.00  0.00     0.010 A 
ATOM     10  C   UNL A   1      35.353  31.436  29.819  1.00  0.00     0.010 A 
ATOM     11  C   UNL A   1      36.597  32.064  29.712  1.00  0.00    -0.014 A 
BRANCH  11  12
ATOM     12  C   UNL A   1      37.818  31.421  30.243  1.00  0.00     0.031 A 
ATOM     13  C   UNL A   1      38.171  31.716  31.671  1.00  0.00     0.074 A 
ATOM     14  C   UNL A   1      38.540  30.551  29.511  1.00  0.00     0.049 A 
ATOM     15  N   UNL A   1      39.154  31.256  32.396  1.00  0.00    -0.248 NA
ATOM     16  C   UNL A   1      37.292  32.663  32.381  1.00  0.00     0.031 C 
ATOM     17  C   UNL A   1      38.259  30.163  28.129  1.00  0.00     0.029 A 
ATOM     18  N   UNL A   1      39.654  29.818  29.835  1.00  0.00    -0.354 N 
ATOM     19  C   UNL A   1      39.005  31.856  33.638  1.00  0.00     0.074 A 
ATOM     20  C   UNL A   1      37.896  32.775  33.548  1.00  0.00     0.031 C 
ATOM     21  C   UNL A   1      39.169  29.260  27.724  1.00  0.00     0.029 A 
ATOM     22  C   UNL A   1      40.103  29.008  28.816  1.00  0.00     0.049 A 
ATOM     23  H   UNL A   1      40.092  29.867  30.715  1.00  0.00     0.167 HD
ATOM     24  C   UNL A   1      39.701  31.627  34.772  1.00  0.00     0.037 A 
ATOM     25  C   UNL A   1      41.145  28.155  28.783  1.00  0.00     0.037 A 
ATOM     26  C   UNL A   1      40.796  30.707  34.852  1.00  0.00     0.049 A 
ATOM     27  C   UNL A   1      41.964  27.983  30.038  1.00  0.00     0.074 A 
ATOM     28  C   UNL A   1      41.594  30.406  35.937  1.00  0.00     0.029 A 
ATOM     29  N   UNL A   1      41.247  29.940  33.786  1.00  0.00    -0.354 N 
ATOM     30  N   UNL A   1      41.792  28.532  31.218  1.00  0.00    -0.248 NA
ATOM     31  C   UNL A   1      43.108  27.065  29.964  1.00  0.00     0.031 C 
ATOM     32  C   UNL A   1      42.560  29.486  35.515  1.00  0.00     0.029 A 
ATOM     33  C   UNL A   1      42.327  29.175  34.183  1.00  0.00     0.049 A 
ATOM     34  H   UNL A   1      40.856  29.941  32.883  1.00  0.00     0.167 HD
ATOM     35  C   UNL A   1      42.781  28.000  32.035  1.00  0.00     0.074 A 
ATOM     36  C   UNL A   1      43.540  27.075  31.217  1.00  0.00     0.031 C 
ATOM     37  C   UNL A   1      43.043  28.248  33.342  1.00  0.00     0.037 A 
BRANCH  24  38
ATOM     38  C   UNL A   1      39.285  32.410  35.981  1.00  0.00     0.057 A 
ATOM     39  C   UNL A   1      38.323  31.926  36.879  1.00  0.00     0.134 A 
ATOM     40  C   UNL A   1      39.797  33.692  36.209  1.00  0.00     0.134 A 
ATOM     41  F   UNL A   1      37.767  30.718  36.695  1.00  0.00    -0.206 F 
ATOM     42  C   UNL A   1      37.853  32.707  37.937  1.00  0.00     0.040 A 
ATOM     43  C   UNL A   1      39.357  34.470  37.280  1.00  0.00     0.040 A 
ATOM     44  F   UNL A   1      40.712  34.218  35.381  1.00  0.00    -0.206 F 
ATOM     45  C   UNL A   1      38.374  33.983  38.139  1.00  0.00     0.006 A 
ENDBRANCH  24  38
BRANCH  25  46
ATOM     46  C   UNL A   1      41.468  27.382  27.552  1.00  0.00     0.057 A 
ATOM     47  C   UNL A   1      40.963  26.092  27.348  1.00  0.00     0.134 A 
ATOM     48  C   UNL A   1      42.328  27.892  26.572  1.00  0.00     0.134 A 
ATOM     49  F   UNL A   1      40.145  25.536  28.254  1.00  0.00    -0.206 F 
ATOM     50  C   UNL A   1      41.325  25.327  26.236  1.00  0.00     0.040 A 
ATOM     51  C   UNL A   1      42.680  27.148  25.442  1.00  0.00     0.040 A 
ATOM     52  F   UNL A   1      42.846  29.124  26.698  1.00  0.00    -0.206 F 
ATOM     53  C   UNL A   1      42.186  25.856  25.277  1.00  0.00     0.006 A 
ENDBRANCH  25  46
BRANCH  37  54
ATOM     54  C   UNL A   1      44.162  27.480  33.977  1.00  0.00     0.057 A 
ATOM     55  C   UNL A   1      43.962  26.219  34.550  1.00  0.00     0.134 A 
ATOM     56  C   UNL A   1      45.470  27.981  33.942  1.00  0.00     0.134 A 
ATOM     57  F   UNL A   1      42.730  25.692  34.623  1.00  0.00    -0.206 F 
ATOM     58  C   UNL A   1      45.023  25.489  35.084  1.00  0.00     0.040 A 
ATOM     59  C   UNL A   1      46.543  27.246  34.444  1.00  0.00     0.040 A 
ATOM     60  F   UNL A   1      45.728  29.178  33.394  1.00  0.00    -0.206 F 
ATOM     61  C   UNL A   1      46.320  25.997  35.020  1.00  0.00     0.006 A 
ENDBRANCH  37  54
ENDBRANCH  11  12
ENDBRANCH   4   6
ENDBRANCH   3   4
ENDBRANCH   2   3
ENDBRANCH   1   2
BRANCH   1  62
ATOM     62  O   UNL A   1      32.166  29.787  27.396  1.00  0.00    -0.462 OA
BRANCH  62  63
ATOM     63  C   UNL A   1      31.801  28.528  27.017  1.00  0.00     0.309 C 
ATOM     64  O   UNL A   1      31.153  27.748  27.706  1.00  0.00    -0.252 OA
BRANCH  63  65
ATOM     65  C   UNL A   1      32.272  28.235  25.601  1.00  0.00     0.099 C 
ATOM     66  C   UNL A   1      33.362  27.155  25.569  1.00  0.00     0.016 C 
ATOM     67  C   UNL A   1      31.079  27.830  24.744  1.00  0.00     0.016 C 
ATOM     68  C   UNL A   1      33.676  26.635  24.149  1.00  0.00     0.010 C 
ATOM     69  C   UNL A   1      31.514  27.520  23.319  1.00  0.00     0.010 C 
ATOM     70  C   UNL A   1      32.421  26.283  23.310  1.00  0.00     0.044 C 
BRANCH  70  71
ATOM     71  C   UNL A   1      31.746  24.984  23.845  1.00  0.00     0.264 C 
BRANCH  71  72
ATOM     72  N   UNL A   1      32.668  23.869  24.055  1.00  0.00    -0.344 N 
ATOM     73  H   UNL A   1      33.612  24.221  23.896  1.00  0.00     0.346 HD
ATOM     74  H   UNL A   1      32.351  23.149  23.406  1.00  0.00     0.346 HD
BRANCH  72  75
ATOM     75  C   UNL A   1      32.661  23.209  25.374  1.00  0.00     0.182 C 
ATOM     76  C   UNL A   1      31.807  21.942  25.563  1.00  0.00     0.065 C 
ATOM     77  C   UNL A   1      34.116  22.874  25.787  1.00  0.00     0.069 C 
ATOM     78  C   UNL A   1      32.338  20.719  24.825  1.00  0.00     0.006 C 
ATOM     79  C   UNL A   1      34.722  21.667  25.027  1.00  0.00    -0.002 C 
ATOM     80  C   UNL A   1      33.804  20.439  25.136  1.00  0.00     0.004 C 
BRANCH  79  81
ATOM     81  C   UNL A   1      36.143  21.403  25.505  1.00  0.00    -0.008 C 
ATOM     82  C   UNL A   1      37.358  21.386  24.600  1.00  0.00     0.004 C 
ATOM     83  C   UNL A   1      37.143  22.538  25.537  1.00  0.00     0.004 C 
ENDBRANCH  79  81
ENDBRANCH  72  75
ENDBRANCH  71  72
ENDBRANCH  70  71
ENDBRANCH  63  65
ENDBRANCH  62  63
ENDBRANCH   1  62
TORSDOF 15
ENDMDL
MODEL 2
REMARK VINA RESULT:     -11.1      1.067      2.241
REMARK SMILES O=C(OCCOC(=O)[C@H]1CC[C@@H](C[NH2+][C@H]2CCC[C@H](C3CC3)C2)CC1)c1ccc(-c2c3nc(c(-c4c(F)cccc4F)c4ccc([nH]4)c(-c4c(F)cccc4F)c4nc(c(-c5c(F)cccc5F)c5ccc2[nH]5)C=C4)C=C3)cc1
REMARK SMILES IDX 5 1 4 2 3 3 2 4 1 5 26 6 27 7 79 8 28 9 78 10 29 11 30 12
REMARK SMILES IDX 31 13 72 14 32 15 77 16 71 17 73 18 33 19 76 20 70 21 69 22
REMARK SMILES IDX 34 24 60 25 43 26 59 27 44 28 47 29 58 30 74 31 45 32 46 33
REMARK SMILES IDX 57 35 75 36 48 37 35 38 36 39 41 40 37 41 38 42 40 43 42 44
REMARK SMILES IDX 39 45 61 46 62 47 67 48 63 49 64 50 66 51 68 52 65 53 49 54
REMARK SMILES IDX 50 55 55 56 51 57 52 58 54 59 56 60 53 61 6 62 7 63 8 64
REMARK SMILES IDX 9 65 25 66 10 67 24 68 11 69 12 70 13 71 14 72 15 75 16 76
REMARK SMILES IDX 23 77 17 78 19 79 18 80 20 81 21 82 22 83
REMARK H PARENT 73 23 47 34 14 73 14 74
REMARK Flexibility Score: inf
ROOT
ATOM      1  C   UNL A   1      32.124  30.971  26.590  1.00  0.00     0.274 C 
ENDROOT
BRANCH   1   2
ATOM      2  C   UNL A   1      31.386  32.290  26.832  1.00  0.00     0.275 C 
BRANCH   2   3
ATOM      3  O   UNL A   1      32.264  33.424  26.936  1.00  0.00    -0.458 OA
BRANCH   3   4
ATOM      4  C   UNL A   1      32.949  33.881  28.011  1.00  0.00     0.338 C 
ATOM      5  O   UNL A   1      32.582  34.929  28.541  1.00  0.00    -0.246 OA
BRANCH   4   6
ATOM      6  C   UNL A   1      34.252  33.294  28.467  1.00  0.00     0.060 A 
ATOM      7  C   UNL A   1      35.530  33.785  28.192  1.00  0.00     0.016 A 
ATOM      8  C   UNL A   1      34.154  32.177  29.318  1.00  0.00     0.016 A 
ATOM      9  C   UNL A   1      36.657  33.273  28.840  1.00  0.00     0.010 A 
ATOM     10  C   UNL A   1      35.270  31.689  30.004  1.00  0.00     0.010 A 
ATOM     11  C   UNL A   1      36.533  32.240  29.768  1.00  0.00    -0.014 A 
BRANCH  11  12
ATOM     12  C   UNL A   1      37.751  31.599  30.306  1.00  0.00     0.031 A 
ATOM     13  C   UNL A   1      38.123  31.930  31.721  1.00  0.00     0.074 A 
ATOM     14  C   UNL A   1      38.456  30.700  29.591  1.00  0.00     0.049 A 
ATOM     15  N   UNL A   1      39.109  31.480  32.448  1.00  0.00    -0.248 NA
ATOM     16  C   UNL A   1      37.262  32.908  32.412  1.00  0.00     0.031 C 
ATOM     17  C   UNL A   1      38.156  30.276  28.224  1.00  0.00     0.029 A 
ATOM     18  N   UNL A   1      39.564  29.963  29.924  1.00  0.00    -0.354 N 
ATOM     19  C   UNL A   1      38.979  32.117  33.674  1.00  0.00     0.074 A 
ATOM     20  C   UNL A   1      37.881  33.045  33.569  1.00  0.00     0.031 C 
ATOM     21  C   UNL A   1      39.051  29.351  27.836  1.00  0.00     0.029 A 
ATOM     22  C   UNL A   1      39.994  29.120  28.925  1.00  0.00     0.049 A 
ATOM     23  H   UNL A   1      40.013  30.032  30.798  1.00  0.00     0.167 HD
ATOM     24  C   UNL A   1      39.684  31.912  34.807  1.00  0.00     0.037 A 
ATOM     25  C   UNL A   1      41.026  28.254  28.906  1.00  0.00     0.037 A 
ATOM     26  C   UNL A   1      40.770  30.981  34.902  1.00  0.00     0.049 A 
ATOM     27  C   UNL A   1      41.855  28.108  30.157  1.00  0.00     0.074 A 
ATOM     28  C   UNL A   1      41.576  30.702  35.987  1.00  0.00     0.029 A 
ATOM     29  N   UNL A   1      41.200  30.179  33.854  1.00  0.00    -0.354 N 
ATOM     30  N   UNL A   1      41.702  28.692  31.322  1.00  0.00    -0.248 NA
ATOM     31  C   UNL A   1      42.988  27.175  30.097  1.00  0.00     0.031 C 
ATOM     32  C   UNL A   1      42.526  29.759  35.582  1.00  0.00     0.029 A 
ATOM     33  C   UNL A   1      42.276  29.413  34.262  1.00  0.00     0.049 A 
ATOM     34  H   UNL A   1      40.800  30.159  32.955  1.00  0.00     0.167 HD
ATOM     35  C   UNL A   1      42.694  28.172  32.144  1.00  0.00     0.074 A 
ATOM     36  C   UNL A   1      43.434  27.215  31.345  1.00  0.00     0.031 C 
ATOM     37  C   UNL A   1      42.972  28.455  33.440  1.00  0.00     0.037 A 
BRANCH  24  38
ATOM     38  C   UNL A   1      39.291  32.734  35.997  1.00  0.00     0.057 A 
ATOM     39  C   UNL A   1      39.839  34.004  36.231  1.00  0.00     0.134 A 
ATOM     40  C   UNL A   1      38.412  32.222  36.957  1.00  0.00     0.134 A 
ATOM     41  F   UNL A   1      40.717  34.536  35.366  1.00  0.00    -0.206 F 
ATOM     42  C   UNL A   1      39.560  34.715  37.399  1.00  0.00     0.040 A 
ATOM     43  C   UNL A   1      38.102  32.936  38.114  1.00  0.00     0.040 A 
ATOM     44  F   UNL A   1      37.861  31.009  36.798  1.00  0.00    -0.206 F 
ATOM     45  C   UNL A   1      38.687  34.181  38.344  1.00  0.00     0.006 A 
ENDBRANCH  24  38
BRANCH  25  46
ATOM     46  C   UNL A   1      41.327  27.442  27.694  1.00  0.00     0.057 A 
ATOM     47  C   UNL A   1      42.144  27.938  26.670  1.00  0.00     0.134 A 
ATOM     48  C   UNL A   1      40.768  26.173  27.506  1.00  0.00     0.134 A 
ATOM     49  F   UNL A   1      42.700  29.153  26.778  1.00  0.00    -0.206 F 
ATOM     50  C   UNL A   1      42.367  27.218  25.493  1.00  0.00     0.040 A 
ATOM     51  C   UNL A   1      41.002  25.430  26.344  1.00  0.00     0.040 A 
ATOM     52  F   UNL A   1      39.980  25.632  28.447  1.00  0.00    -0.206 F 
ATOM     53  C   UNL A   1      41.795  25.958  25.328  1.00  0.00     0.006 A 
ENDBRANCH  25  46
BRANCH  37  54
ATOM     54  C   UNL A   1      44.089  27.692  34.086  1.00  0.00     0.057 A 
ATOM     55  C   UNL A   1      45.393  28.195  34.141  1.00  0.00     0.134 A 
ATOM     56  C   UNL A   1      43.832  26.472  34.727  1.00  0.00     0.134 A 
ATOM     57  F   UNL A   1      45.703  29.352  33.536  1.00  0.00    -0.206 F 
ATOM     58  C   UNL A   1      46.411  27.502  34.798  1.00  0.00     0.040 A 
ATOM     59  C   UNL A   1      44.833  25.787  35.413  1.00  0.00     0.040 A 
ATOM     60  F   UNL A   1      42.599  25.945  34.720  1.00  0.00    -0.206 F 
ATOM     61  C   UNL A   1      46.128  26.301  35.447  1.00  0.00     0.006 A 
ENDBRANCH  37  54
ENDBRANCH  11  12
ENDBRANCH   4   6
ENDBRANCH   3   4
ENDBRANCH   2   3
ENDBRANCH   1   2
BRANCH   1  62
ATOM     62  O   UNL A   1      31.714  30.320  25.375  1.00  0.00    -0.462 OA
BRANCH  62  63
ATOM     63  C   UNL A   1      32.191  29.060  25.162  1.00  0.00     0.309 C 
ATOM     64  O   UNL A   1      33.368  28.779  24.963  1.00  0.00    -0.252 OA
BRANCH  63  65
ATOM     65  C   UNL A   1      31.067  28.039  25.246  1.00  0.00     0.099 C 
ATOM     66  C   UNL A   1      30.391  27.814  23.886  1.00  0.00     0.016 C 
ATOM     67  C   UNL A   1      31.611  26.731  25.806  1.00  0.00     0.016 C 
ATOM     68  C   UNL A   1      29.435  26.602  23.864  1.00  0.00     0.010 C 
ATOM     69  C   UNL A   1      30.514  25.680  25.897  1.00  0.00     0.010 C 
ATOM     70  C   UNL A   1      30.029  25.314  24.489  1.00  0.00     0.044 C 
BRANCH  70  71
ATOM     71  C   UNL A   1      31.128  24.708  23.565  1.00  0.00     0.264 C 
BRANCH  71  72
ATOM     72  N   UNL A   1      31.633  23.407  24.001  1.00  0.00    -0.344 N 
ATOM     73  H   UNL A   1      31.324  22.716  23.317  1.00  0.00     0.346 HD
ATOM     74  H   UNL A   1      31.261  23.290  24.943  1.00  0.00     0.346 HD
BRANCH  72  75
ATOM     75  C   UNL A   1      33.091  23.251  24.155  1.00  0.00     0.182 C 
ATOM     76  C   UNL A   1      33.759  23.771  25.441  1.00  0.00     0.065 C 
ATOM     77  C   UNL A   1      33.468  21.757  23.988  1.00  0.00     0.069 C 
ATOM     78  C   UNL A   1      33.424  22.960  26.687  1.00  0.00     0.006 C 
ATOM     79  C   UNL A   1      33.100  20.878  25.210  1.00  0.00    -0.002 C 
ATOM     80  C   UNL A   1      33.685  21.470  26.502  1.00  0.00     0.004 C 
BRANCH  79  81
ATOM     81  C   UNL A   1      33.516  19.434  24.964  1.00  0.00    -0.008 C 
ATOM     82  C   UNL A   1      32.719  18.228  25.414  1.00  0.00     0.004 C 
ATOM     83  C   UNL A   1      32.753  18.597  23.961  1.00  0.00     0.004 C 
ENDBRANCH  79  81
ENDBRANCH  72  75
ENDBRANCH  71  72
ENDBRANCH  70  71
ENDBRANCH  63  65
ENDBRANCH  62  63
ENDBRANCH   1  62
TORSDOF 15
ENDMDL
MODEL 3
REMARK VINA RESULT:     -11.1      5.830     10.828
REMARK SMILES O=C(OCCOC(=O)[C@H]1CC[C@@H](C[NH2+][C@H]2CCC[C@H](C3CC3)C2)CC1)c1ccc(-c2c3nc(c(-c4c(F)cccc4F)c4ccc([nH]4)c(-c4c(F)cccc4F)c4nc(c(-c5c(F)cccc5F)c5ccc2[nH]5)C=C4)C=C3)cc1
REMARK SMILES IDX 5 1 4 2 3 3 2 4 1 5 26 6 27 7 79 8 28 9 78 10 29 11 30 12
REMARK SMILES IDX 31 13 72 14 32 15 77 16 71 17 73 18 33 19 76 20 70 21 69 22
REMARK SMILES IDX 34 24 60 25 43 26 59 27 44 28 47 29 58 30 74 31 45 32 46 33
REMARK SMILES IDX 57 35 75 36 48 37 35 38 36 39 41 40 37 41 38 42 40 43 42 44
REMARK SMILES IDX 39 45 61 46 62 47 67 48 63 49 64 50 66 51 68 52 65 53 49 54
REMARK SMILES IDX 50 55 55 56 51 57 52 58 54 59 56 60 53 61 6 62 7 63 8 64
REMARK SMILES IDX 9 65 25 66 10 67 24 68 11 69 12 70 13 71 14 72 15 75 16 76
REMARK SMILES IDX 23 77 17 78 19 79 18 80 20 81 21 82 22 83
REMARK H PARENT 73 23 47 34 14 73 14 74
REMARK Flexibility Score: inf
ROOT
ATOM      1  C   UNL A   1      41.414  19.140  26.107  1.00  0.00     0.274 C 
ENDROOT
BRANCH   1   2
ATOM      2  C   UNL A   1      42.822  18.537  26.070  1.00  0.00     0.275 C 
BRANCH   2   3
ATOM      3  O   UNL A   1      43.457  18.652  24.785  1.00  0.00    -0.458 OA
BRANCH   3   4
ATOM      4  C   UNL A   1      44.499  19.432  24.412  1.00  0.00     0.338 C 
ATOM      5  O   UNL A   1      45.470  18.900  23.876  1.00  0.00    -0.246 OA
BRANCH   4   6
ATOM      6  C   UNL A   1      44.627  20.876  24.801  1.00  0.00     0.060 A 
ATOM      7  C   UNL A   1      44.213  21.981  24.055  1.00  0.00     0.016 A 
ATOM      8  C   UNL A   1      45.152  21.119  26.084  1.00  0.00     0.016 A 
ATOM      9  C   UNL A   1      44.196  23.264  24.607  1.00  0.00     0.010 A 
ATOM     10  C   UNL A   1      45.097  22.391  26.660  1.00  0.00     0.010 A 
ATOM     11  C   UNL A   1      44.614  23.474  25.921  1.00  0.00    -0.014 A 
BRANCH  11  12
ATOM     12  C   UNL A   1      44.754  24.857  26.423  1.00  0.00     0.031 A 
ATOM     13  C   UNL A   1      46.110  25.488  26.300  1.00  0.00     0.074 A 
ATOM     14  C   UNL A   1      43.703  25.552  26.898  1.00  0.00     0.049 A 
ATOM     15  N   UNL A   1      46.498  26.692  26.618  1.00  0.00    -0.248 NA
ATOM     16  C   UNL A   1      47.178  24.638  25.741  1.00  0.00     0.031 C 
ATOM     17  C   UNL A   1      42.335  25.048  27.021  1.00  0.00     0.029 A 
ATOM     18  N   UNL A   1      43.615  26.843  27.352  1.00  0.00    -0.354 N 
ATOM     19  C   UNL A   1      47.846  26.739  26.294  1.00  0.00     0.074 A 
ATOM     20  C   UNL A   1      48.232  25.426  25.838  1.00  0.00     0.031 C 
ATOM     21  C   UNL A   1      41.543  26.018  27.510  1.00  0.00     0.029 A 
ATOM     22  C   UNL A   1      42.347  27.213  27.741  1.00  0.00     0.049 A 
ATOM     23  H   UNL A   1      44.388  27.451  27.396  1.00  0.00     0.167 HD
ATOM     24  C   UNL A   1      48.683  27.798  26.326  1.00  0.00     0.037 A 
ATOM     25  C   UNL A   1      41.895  28.388  28.219  1.00  0.00     0.037 A 
ATOM     26  C   UNL A   1      48.287  29.101  26.774  1.00  0.00     0.049 A 
ATOM     27  C   UNL A   1      42.871  29.533  28.330  1.00  0.00     0.074 A 
ATOM     28  C   UNL A   1      49.049  30.248  26.876  1.00  0.00     0.029 A 
ATOM     29  N   UNL A   1      47.006  29.421  27.202  1.00  0.00    -0.354 N 
ATOM     30  N   UNL A   1      44.137  29.575  27.989  1.00  0.00    -0.248 NA
ATOM     31  C   UNL A   1      42.354  30.794  28.877  1.00  0.00     0.031 C 
ATOM     32  C   UNL A   1      48.237  31.254  27.409  1.00  0.00     0.029 A 
ATOM     33  C   UNL A   1      46.957  30.747  27.586  1.00  0.00     0.049 A 
ATOM     34  H   UNL A   1      46.245  28.796  27.227  1.00  0.00     0.167 HD
ATOM     35  C   UNL A   1      44.559  30.873  28.244  1.00  0.00     0.074 A 
ATOM     36  C   UNL A   1      43.408  31.590  28.757  1.00  0.00     0.031 C 
ATOM     37  C   UNL A   1      45.784  31.429  28.072  1.00  0.00     0.037 A 
BRANCH  24  38
ATOM     38  C   UNL A   1      50.092  27.551  25.881  1.00  0.00     0.057 A 
ATOM     39  C   UNL A   1      50.444  27.524  24.523  1.00  0.00     0.134 A 
ATOM     40  C   UNL A   1      51.094  27.264  26.814  1.00  0.00     0.134 A 
ATOM     41  F   UNL A   1      49.520  27.754  23.577  1.00  0.00    -0.206 F 
ATOM     42  C   UNL A   1      51.730  27.177  24.108  1.00  0.00     0.040 A 
ATOM     43  C   UNL A   1      52.392  26.945  26.414  1.00  0.00     0.040 A 
ATOM     44  F   UNL A   1      50.822  27.263  28.127  1.00  0.00    -0.206 F 
ATOM     45  C   UNL A   1      52.709  26.889  25.057  1.00  0.00     0.006 A 
ENDBRANCH  24  38
BRANCH  25  46
ATOM     46  C   UNL A   1      40.467  28.566  28.603  1.00  0.00     0.057 A 
ATOM     47  C   UNL A   1      39.521  29.046  27.688  1.00  0.00     0.134 A 
ATOM     48  C   UNL A   1      40.022  28.307  29.904  1.00  0.00     0.134 A 
ATOM     49  F   UNL A   1      39.883  29.329  26.428  1.00  0.00    -0.206 F 
ATOM     50  C   UNL A   1      38.197  29.293  28.060  1.00  0.00     0.040 A 
ATOM     51  C   UNL A   1      38.694  28.525  30.285  1.00  0.00     0.040 A 
ATOM     52  F   UNL A   1      40.871  27.840  30.832  1.00  0.00    -0.206 F 
ATOM     53  C   UNL A   1      37.779  29.031  29.364  1.00  0.00     0.006 A 
ENDBRANCH  25  46
BRANCH  37  54
ATOM     54  C   UNL A   1      45.930  32.884  28.396  1.00  0.00     0.057 A 
ATOM     55  C   UNL A   1      45.712  33.882  27.439  1.00  0.00     0.134 A 
ATOM     56  C   UNL A   1      46.219  33.290  29.706  1.00  0.00     0.134 A 
ATOM     57  F   UNL A   1      45.444  33.555  26.165  1.00  0.00    -0.206 F 
ATOM     58  C   UNL A   1      45.792  35.234  27.769  1.00  0.00     0.040 A 
ATOM     59  C   UNL A   1      46.270  34.639  30.055  1.00  0.00     0.040 A 
ATOM     60  F   UNL A   1      46.425  32.382  30.672  1.00  0.00    -0.206 F 
ATOM     61  C   UNL A   1      46.060  35.615  29.084  1.00  0.00     0.006 A 
ENDBRANCH  37  54
ENDBRANCH  11  12
ENDBRANCH   4   6
ENDBRANCH   3   4
ENDBRANCH   2   3
ENDBRANCH   1   2
BRANCH   1  62
ATOM     62  O   UNL A   1      41.423  20.576  26.028  1.00  0.00    -0.462 OA
BRANCH  62  63
ATOM     63  C   UNL A   1      40.456  21.235  26.729  1.00  0.00     0.309 C 
ATOM     64  O   UNL A   1      40.405  21.311  27.952  1.00  0.00    -0.252 OA
BRANCH  63  65
ATOM     65  C   UNL A   1      39.469  21.903  25.784  1.00  0.00     0.099 C 
ATOM     66  C   UNL A   1      38.429  20.912  25.245  1.00  0.00     0.016 C 
ATOM     67  C   UNL A   1      38.793  23.067  26.498  1.00  0.00     0.016 C 
ATOM     68  C   UNL A   1      37.255  21.589  24.504  1.00  0.00     0.010 C 
ATOM     69  C   UNL A   1      37.789  23.755  25.585  1.00  0.00     0.010 C 
ATOM     70  C   UNL A   1      36.639  22.794  25.259  1.00  0.00     0.044 C 
BRANCH  70  71
ATOM     71  C   UNL A   1      35.830  22.312  26.501  1.00  0.00     0.264 C 
BRANCH  71  72
ATOM     72  N   UNL A   1      35.074  21.078  26.286  1.00  0.00    -0.344 N 
ATOM     73  H   UNL A   1      35.338  20.428  27.026  1.00  0.00     0.346 HD
ATOM     74  H   UNL A   1      35.319  20.789  25.339  1.00  0.00     0.346 HD
BRANCH  72  75
ATOM     75  C   UNL A   1      33.602  21.164  26.280  1.00  0.00     0.182 C 
ATOM     76  C   UNL A   1      32.931  22.291  25.474  1.00  0.00     0.065 C 
ATOM     77  C   UNL A   1      33.011  19.813  25.804  1.00  0.00     0.069 C 
ATOM     78  C   UNL A   1      33.042  22.124  23.963  1.00  0.00     0.006 C 
ATOM     79  C   UNL A   1      33.146  19.572  24.280  1.00  0.00    -0.002 C 
ATOM     80  C   UNL A   1      32.567  20.756  23.488  1.00  0.00     0.004 C 
BRANCH  79  81
ATOM     81  C   UNL A   1      32.529  18.232  23.901  1.00  0.00    -0.008 C 
ATOM     82  C   UNL A   1      33.326  17.016  23.477  1.00  0.00     0.004 C 
ATOM     83  C   UNL A   1      32.684  17.050  24.833  1.00  0.00     0.004 C 
ENDBRANCH  79  81
ENDBRANCH  72  75
ENDBRANCH  71  72
ENDBRANCH  70  71
ENDBRANCH  63  65
ENDBRANCH  62  63
ENDBRANCH   1  62
TORSDOF 15
ENDMDL
