MODEL 1
REMARK VINA RESULT:     -12.5      0.000      0.000
REMARK SMILES O=C(OCCOC(=O)[C@H]1CSCN1C(=O)Nc1ccc(F)cc1F)c1ccc(-c2c3nc(c(-c4c(F)cccc4F)c4ccc([nH]4)c(-c4c(F)cccc4F)c4nc(c(-c5c(F)cccc5F)c5ccc2[nH]5)C=C4)C=C3)cc1
REMARK SMILES IDX 4 1 3 2 2 3 1 4 25 5 26 6 78 7 27 8 77 9 28 10 29 11 30 12
REMARK SMILES IDX 71 13 31 14 76 15 70 16 72 17 32 18 75 19 69 20 68 21 33 23
REMARK SMILES IDX 59 24 42 25 58 26 43 27 46 28 57 29 73 30 44 31 45 32 56 34
REMARK SMILES IDX 74 35 47 36 34 37 35 38 40 39 36 40 37 41 39 42 41 43 38 44
REMARK SMILES IDX 60 45 61 46 66 47 62 48 63 49 65 50 67 51 64 52 48 53 49 54
REMARK SMILES IDX 54 55 50 56 51 57 53 58 55 59 52 60 5 61 6 62 7 63 8 64 9 65
REMARK SMILES IDX 10 66 13 67 11 68 12 69 14 70 15 71 16 72 17 74 18 75 23 76
REMARK SMILES IDX 19 77 22 78 24 79 20 80 21 81
REMARK H PARENT 72 22 46 33 16 73
REMARK Flexibility Score: inf
ROOT
ATOM      1  C   UNL A   1      46.717  23.077  39.136  1.00  0.00     0.275 C 
ENDROOT
BRANCH   1   2
ATOM      2  O   UNL A   1      45.618  23.266  38.207  1.00  0.00    -0.458 OA
BRANCH   2   3
ATOM      3  C   UNL A   1      45.629  23.340  36.850  1.00  0.00     0.338 C 
ATOM      4  O   UNL A   1      46.297  22.555  36.184  1.00  0.00    -0.246 OA
BRANCH   3   5
ATOM      5  C   UNL A   1      44.987  24.454  36.118  1.00  0.00     0.060 A 
ATOM      6  C   UNL A   1      43.186  24.506  35.819  1.00  0.00     0.016 A 
ATOM      7  C   UNL A   1      45.992  25.908  35.625  1.00  0.00     0.016 A 
ATOM      8  C   UNL A   1      42.393  25.912  35.069  1.00  0.00     0.010 A 
ATOM      9  C   UNL A   1      45.134  27.354  34.802  1.00  0.00     0.010 A 
ATOM     10  C   UNL A   1      43.339  27.289  34.510  1.00  0.00    -0.014 A 
BRANCH  10  11
ATOM     11  C   UNL A   1      42.583  28.167  33.600  1.00  0.00     0.031 A 
ATOM     12  C   UNL A   1      41.936  29.443  34.065  1.00  0.00     0.074 A 
ATOM     13  C   UNL A   1      42.641  27.893  32.297  1.00  0.00     0.049 A 
ATOM     14  N   UNL A   1      40.867  30.035  33.602  1.00  0.00    -0.248 NA
ATOM     15  C   UNL A   1      42.499  30.102  35.252  1.00  0.00     0.031 C 
ATOM     16  C   UNL A   1      43.521  26.905  31.683  1.00  0.00     0.029 A 
ATOM     17  N   UNL A   1      41.940  28.427  31.261  1.00  0.00    -0.354 N 
ATOM     18  C   UNL A   1      40.473  30.931  34.605  1.00  0.00     0.074 A 
ATOM     19  C   UNL A   1      41.506  30.905  35.616  1.00  0.00     0.031 C 
ATOM     20  C   UNL A   1      43.267  26.858  30.369  1.00  0.00     0.029 A 
ATOM     21  C   UNL A   1      42.155  27.757  30.087  1.00  0.00     0.049 A 
ATOM     22  H   UNL A   1      41.345  29.206  31.346  1.00  0.00     0.167 HD
ATOM     23  C   UNL A   1      39.286  31.585  34.668  1.00  0.00     0.037 A 
ATOM     24  C   UNL A   1      41.465  27.829  28.939  1.00  0.00     0.037 A 
ATOM     25  C   UNL A   1      38.442  31.674  33.498  1.00  0.00     0.049 A 
ATOM     26  C   UNL A   1      40.280  28.746  28.906  1.00  0.00     0.074 A 
ATOM     27  C   UNL A   1      37.291  32.410  33.300  1.00  0.00     0.029 A 
ATOM     28  N   UNL A   1      38.723  31.033  32.294  1.00  0.00    -0.354 N 
ATOM     29  N   UNL A   1      39.759  29.444  29.891  1.00  0.00    -0.248 NA
ATOM     30  C   UNL A   1      39.586  28.892  27.627  1.00  0.00     0.031 C 
ATOM     31  C   UNL A   1      36.869  32.196  31.982  1.00  0.00     0.029 A 
ATOM     32  C   UNL A   1      37.795  31.383  31.339  1.00  0.00     0.049 A 
ATOM     33  H   UNL A   1      39.479  30.419  32.148  1.00  0.00     0.167 HD
ATOM     34  C   UNL A   1      38.690  30.138  29.348  1.00  0.00     0.074 A 
ATOM     35  C   UNL A   1      38.642  29.771  27.943  1.00  0.00     0.031 C 
ATOM     36  C   UNL A   1      37.826  30.997  29.946  1.00  0.00     0.037 A 
BRANCH  23  37
ATOM     37  C   UNL A   1      38.803  32.169  35.982  1.00  0.00     0.057 A 
ATOM     38  C   UNL A   1      39.097  33.511  36.304  1.00  0.00     0.134 A 
ATOM     39  C   UNL A   1      38.079  31.455  36.944  1.00  0.00     0.134 A 
ATOM     40  F   UNL A   1      39.803  34.281  35.462  1.00  0.00    -0.206 F 
ATOM     41  C   UNL A   1      38.685  34.104  37.505  1.00  0.00     0.040 A 
ATOM     42  C   UNL A   1      37.612  32.053  38.123  1.00  0.00     0.040 A 
ATOM     43  F   UNL A   1      37.785  30.160  36.756  1.00  0.00    -0.206 F 
ATOM     44  C   UNL A   1      37.920  33.380  38.411  1.00  0.00     0.006 A 
ENDBRANCH  23  37
BRANCH  24  45
ATOM     45  C   UNL A   1      41.939  27.028  27.789  1.00  0.00     0.057 A 
ATOM     46  C   UNL A   1      42.778  27.571  26.805  1.00  0.00     0.134 A 
ATOM     47  C   UNL A   1      41.393  25.765  27.547  1.00  0.00     0.134 A 
ATOM     48  F   UNL A   1      43.291  28.802  26.956  1.00  0.00    -0.206 F 
ATOM     49  C   UNL A   1      43.025  26.901  25.606  1.00  0.00     0.040 A 
ATOM     50  C   UNL A   1      41.651  25.073  26.365  1.00  0.00     0.040 A 
ATOM     51  F   UNL A   1      40.569  25.206  28.445  1.00  0.00    -0.206 F 
ATOM     52  C   UNL A   1      42.457  25.649  25.382  1.00  0.00     0.006 A 
ENDBRANCH  24  45
BRANCH  36  53
ATOM     53  C   UNL A   1      36.799  31.649  29.076  1.00  0.00     0.057 A 
ATOM     54  C   UNL A   1      36.940  32.999  28.725  1.00  0.00     0.134 A 
ATOM     55  C   UNL A   1      35.612  30.999  28.732  1.00  0.00     0.134 A 
ATOM     56  F   UNL A   1      38.056  33.674  29.045  1.00  0.00    -0.206 F 
ATOM     57  C   UNL A   1      35.913  33.691  28.090  1.00  0.00     0.040 A 
ATOM     58  C   UNL A   1      34.588  31.675  28.070  1.00  0.00     0.040 A 
ATOM     59  F   UNL A   1      35.428  29.706  29.039  1.00  0.00    -0.206 F 
ATOM     60  C   UNL A   1      34.731  33.028  27.765  1.00  0.00     0.006 A 
ENDBRANCH  36  53
ENDBRANCH  10  11
ENDBRANCH   3   5
ENDBRANCH   2   3
ENDBRANCH   1   2
BRANCH   1  61
ATOM     61  C   UNL A   1      47.181  21.599  39.287  1.00  0.00     0.274 C 
BRANCH  61  62
ATOM     62  O   UNL A   1      46.098  20.641  39.322  1.00  0.00    -0.461 OA
BRANCH  62  63
ATOM     63  C   UNL A   1      45.821  20.186  40.573  1.00  0.00     0.329 C 
ATOM     64  O   UNL A   1      45.338  20.938  41.411  1.00  0.00    -0.250 OA
BRANCH  63  65
ATOM     65  C   UNL A   1      46.176  18.625  40.781  1.00  0.00     0.207 C 
ATOM     66  C   UNL A   1      46.990  18.803  42.145  1.00  0.00     0.108 C 
ATOM     67  N   UNL A   1      45.226  17.100  40.891  1.00  0.00    -0.301 N 
ATOM     68  S   UNL A   1      46.801  17.457  43.261  1.00  0.00    -0.138 SA
ATOM     69  C   UNL A   1      46.402  16.355  41.928  1.00  0.00     0.192 C 
BRANCH  67  70
ATOM     70  C   UNL A   1      43.452  16.520  40.187  1.00  0.00     0.323 C 
ATOM     71  O   UNL A   1      42.658  16.965  39.281  1.00  0.00    -0.248 OA
ATOM     72  N   UNL A   1      42.515  15.348  40.658  1.00  0.00    -0.305 N 
ATOM     73  H   UNL A   1      41.810  15.242  39.980  1.00  0.00     0.171 HD
BRANCH  72  74
ATOM     74  C   UNL A   1      42.277  14.358  41.696  1.00  0.00     0.079 A 
ATOM     75  C   UNL A   1      42.851  14.473  42.960  1.00  0.00     0.032 A 
ATOM     76  C   UNL A   1      41.627  13.141  41.396  1.00  0.00     0.149 A 
ATOM     77  C   UNL A   1      42.960  13.340  43.780  1.00  0.00     0.041 A 
ATOM     78  C   UNL A   1      41.722  12.014  42.201  1.00  0.00     0.080 A 
ATOM     79  F   UNL A   1      41.052  12.950  40.220  1.00  0.00    -0.205 F 
ATOM     80  C   UNL A   1      42.433  12.116  43.375  1.00  0.00     0.126 A 
ATOM     81  F   UNL A   1      42.647  11.018  44.110  1.00  0.00    -0.207 F 
ENDBRANCH  72  74
ENDBRANCH  67  70
ENDBRANCH  63  65
ENDBRANCH  62  63
ENDBRANCH  61  62
ENDBRANCH   1  61
TORSDOF 13
ENDMDL
MODEL 2
REMARK VINA RESULT:     -12.3      9.995     15.350
REMARK SMILES O=C(OCCOC(=O)[C@H]1CSCN1C(=O)Nc1ccc(F)cc1F)c1ccc(-c2c3nc(c(-c4c(F)cccc4F)c4ccc([nH]4)c(-c4c(F)cccc4F)c4nc(c(-c5c(F)cccc5F)c5ccc2[nH]5)C=C4)C=C3)cc1
REMARK SMILES IDX 4 1 3 2 2 3 1 4 25 5 26 6 78 7 27 8 77 9 28 10 29 11 30 12
REMARK SMILES IDX 71 13 31 14 76 15 70 16 72 17 32 18 75 19 69 20 68 21 33 23
REMARK SMILES IDX 59 24 42 25 58 26 43 27 46 28 57 29 73 30 44 31 45 32 56 34
REMARK SMILES IDX 74 35 47 36 34 37 35 38 40 39 36 40 37 41 39 42 41 43 38 44
REMARK SMILES IDX 60 45 61 46 66 47 62 48 63 49 65 50 67 51 64 52 48 53 49 54
REMARK SMILES IDX 54 55 50 56 51 57 53 58 55 59 52 60 5 61 6 62 7 63 8 64 9 65
REMARK SMILES IDX 10 66 13 67 11 68 12 69 14 70 15 71 16 72 17 74 18 75 23 76
REMARK SMILES IDX 19 77 22 78 24 79 20 80 21 81
REMARK H PARENT 72 22 46 33 16 73
REMARK Flexibility Score: inf
ROOT
ATOM      1  C   UNL A   1      32.941  28.671  26.571  1.00  0.00     0.275 C 
ENDROOT
BRANCH   1   2
ATOM      2  O   UNL A   1      33.778  28.935  27.727  1.00  0.00    -0.458 OA
BRANCH   2   3
ATOM      3  C   UNL A   1      34.693  29.920  27.931  1.00  0.00     0.338 C 
ATOM      4  O   UNL A   1      34.381  31.101  27.814  1.00  0.00    -0.246 OA
BRANCH   3   5
ATOM      5  C   UNL A   1      36.129  29.628  28.135  1.00  0.00     0.060 A 
ATOM      6  C   UNL A   1      37.337  29.702  26.767  1.00  0.00     0.016 A 
ATOM      7  C   UNL A   1      36.757  29.333  29.833  1.00  0.00     0.016 A 
ATOM      8  C   UNL A   1      39.083  29.495  27.036  1.00  0.00     0.010 A 
ATOM      9  C   UNL A   1      38.597  29.079  30.078  1.00  0.00     0.010 A 
ATOM     10  C   UNL A   1      39.712  29.129  28.641  1.00  0.00    -0.014 A 
BRANCH  10  11
ATOM     11  C   UNL A   1      41.097  28.631  28.610  1.00  0.00     0.031 A 
ATOM     12  C   UNL A   1      42.272  29.495  28.976  1.00  0.00     0.074 A 
ATOM     13  C   UNL A   1      41.273  27.322  28.421  1.00  0.00     0.049 A 
ATOM     14  N   UNL A   1      43.503  29.433  28.540  1.00  0.00    -0.248 NA
ATOM     15  C   UNL A   1      42.032  30.629  29.880  1.00  0.00     0.031 C 
ATOM     16  C   UNL A   1      40.211  26.323  28.413  1.00  0.00     0.029 A 
ATOM     17  N   UNL A   1      42.416  26.618  28.201  1.00  0.00    -0.354 N 
ATOM     18  C   UNL A   1      44.078  30.667  28.869  1.00  0.00     0.074 A 
ATOM     19  C   UNL A   1      43.108  31.378  29.672  1.00  0.00     0.031 C 
ATOM     20  C   UNL A   1      40.746  25.127  28.138  1.00  0.00     0.029 A 
ATOM     21  C   UNL A   1      42.168  25.312  27.877  1.00  0.00     0.049 A 
ATOM     22  H   UNL A   1      43.319  27.005  28.267  1.00  0.00     0.167 HD
ATOM     23  C   UNL A   1      45.260  31.146  28.405  1.00  0.00     0.037 A 
ATOM     24  C   UNL A   1      43.004  24.401  27.358  1.00  0.00     0.037 A 
ATOM     25  C   UNL A   1      46.209  30.254  27.780  1.00  0.00     0.049 A 
ATOM     26  C   UNL A   1      44.405  24.844  27.065  1.00  0.00     0.074 A 
ATOM     27  C   UNL A   1      47.511  30.493  27.386  1.00  0.00     0.029 A 
ATOM     28  N   UNL A   1      45.951  28.909  27.524  1.00  0.00    -0.354 N 
ATOM     29  N   UNL A   1      44.921  26.049  27.167  1.00  0.00    -0.248 NA
ATOM     30  C   UNL A   1      45.339  23.825  26.586  1.00  0.00     0.031 C 
ATOM     31  C   UNL A   1      48.029  29.297  26.875  1.00  0.00     0.029 A 
ATOM     32  C   UNL A   1      47.075  28.297  27.015  1.00  0.00     0.049 A 
ATOM     33  H   UNL A   1      45.089  28.462  27.686  1.00  0.00     0.167 HD
ATOM     34  C   UNL A   1      46.250  25.933  26.794  1.00  0.00     0.074 A 
ATOM     35  C   UNL A   1      46.456  24.534  26.462  1.00  0.00     0.031 C 
ATOM     36  C   UNL A   1      47.214  26.886  26.730  1.00  0.00     0.037 A 
BRANCH  23  37
ATOM     37  C   UNL A   1      45.566  32.630  28.476  1.00  0.00     0.057 A 
ATOM     38  C   UNL A   1      44.991  33.511  27.536  1.00  0.00     0.134 A 
ATOM     39  C   UNL A   1      46.416  33.216  29.420  1.00  0.00     0.134 A 
ATOM     40  F   UNL A   1      44.176  33.052  26.573  1.00  0.00    -0.206 F 
ATOM     41  C   UNL A   1      45.241  34.890  27.545  1.00  0.00     0.040 A 
ATOM     42  C   UNL A   1      46.630  34.601  29.475  1.00  0.00     0.040 A 
ATOM     43  F   UNL A   1      47.049  32.462  30.331  1.00  0.00    -0.206 F 
ATOM     44  C   UNL A   1      46.047  35.442  28.532  1.00  0.00     0.006 A 
ENDBRANCH  23  37
BRANCH  24  45
ATOM     45  C   UNL A   1      42.494  23.028  27.145  1.00  0.00     0.057 A 
ATOM     46  C   UNL A   1      42.274  22.147  28.213  1.00  0.00     0.134 A 
ATOM     47  C   UNL A   1      42.416  22.508  25.851  1.00  0.00     0.134 A 
ATOM     48  F   UNL A   1      42.387  22.576  29.480  1.00  0.00    -0.206 F 
ATOM     49  C   UNL A   1      42.031  20.789  28.001  1.00  0.00     0.040 A 
ATOM     50  C   UNL A   1      42.149  21.159  25.623  1.00  0.00     0.040 A 
ATOM     51  F   UNL A   1      42.636  23.301  24.792  1.00  0.00    -0.206 F 
ATOM     52  C   UNL A   1      41.972  20.291  26.701  1.00  0.00     0.006 A 
ENDBRANCH  24  45
BRANCH  36  53
ATOM     53  C   UNL A   1      48.590  26.441  26.348  1.00  0.00     0.057 A 
ATOM     54  C   UNL A   1      49.483  26.013  27.339  1.00  0.00     0.134 A 
ATOM     55  C   UNL A   1      49.072  26.590  25.045  1.00  0.00     0.134 A 
ATOM     56  F   UNL A   1      49.074  25.867  28.609  1.00  0.00    -0.206 F 
ATOM     57  C   UNL A   1      50.826  25.785  27.051  1.00  0.00     0.040 A 
ATOM     58  C   UNL A   1      50.408  26.336  24.740  1.00  0.00     0.040 A 
ATOM     59  F   UNL A   1      48.258  26.991  24.058  1.00  0.00    -0.206 F 
ATOM     60  C   UNL A   1      51.292  25.951  25.748  1.00  0.00     0.006 A 
ENDBRANCH  36  53
ENDBRANCH  10  11
ENDBRANCH   3   5
ENDBRANCH   2   3
ENDBRANCH   1   2
BRANCH   1  61
ATOM     61  C   UNL A   1      32.994  27.201  26.064  1.00  0.00     0.274 C 
BRANCH  61  62
ATOM     62  O   UNL A   1      31.807  26.430  26.366  1.00  0.00    -0.461 OA
BRANCH  62  63
ATOM     63  C   UNL A   1      32.040  25.094  26.455  1.00  0.00     0.329 C 
ATOM     64  O   UNL A   1      31.386  24.402  27.227  1.00  0.00    -0.250 OA
BRANCH  63  65
ATOM     65  C   UNL A   1      33.203  24.578  25.462  1.00  0.00     0.207 C 
ATOM     66  C   UNL A   1      33.073  23.025  25.818  1.00  0.00     0.108 C 
ATOM     67  N   UNL A   1      33.538  24.720  23.699  1.00  0.00    -0.301 N 
ATOM     68  S   UNL A   1      33.383  21.958  24.455  1.00  0.00    -0.138 SA
ATOM     69  C   UNL A   1      34.373  23.198  23.658  1.00  0.00     0.192 C 
BRANCH  67  70
ATOM     70  C   UNL A   1      33.048  26.055  22.301  1.00  0.00     0.323 C 
ATOM     71  O   UNL A   1      33.652  26.547  21.280  1.00  0.00    -0.248 OA
ATOM     72  N   UNL A   1      31.750  26.930  22.154  1.00  0.00    -0.305 N 
ATOM     73  H   UNL A   1      31.770  27.343  21.260  1.00  0.00     0.171 HD
BRANCH  72  74
ATOM     74  C   UNL A   1      30.531  27.372  22.811  1.00  0.00     0.079 A 
ATOM     75  C   UNL A   1      29.778  26.511  23.608  1.00  0.00     0.032 A 
ATOM     76  C   UNL A   1      29.955  28.624  22.500  1.00  0.00     0.149 A 
ATOM     77  C   UNL A   1      28.434  26.809  23.876  1.00  0.00     0.041 A 
ATOM     78  C   UNL A   1      28.628  28.933  22.765  1.00  0.00     0.080 A 
ATOM     79  F   UNL A   1      30.604  29.502  21.753  1.00  0.00    -0.205 F 
ATOM     80  C   UNL A   1      27.863  27.993  23.417  1.00  0.00     0.126 A 
ATOM     81  F   UNL A   1      26.551  28.210  23.576  1.00  0.00    -0.207 F 
ENDBRANCH  72  74
ENDBRANCH  67  70
ENDBRANCH  63  65
ENDBRANCH  62  63
ENDBRANCH  61  62
ENDBRANCH   1  61
TORSDOF 13
ENDMDL
MODEL 3
REMARK VINA RESULT:     -12.2      8.026     15.876
REMARK SMILES O=C(OCCOC(=O)[C@H]1CSCN1C(=O)Nc1ccc(F)cc1F)c1ccc(-c2c3nc(c(-c4c(F)cccc4F)c4ccc([nH]4)c(-c4c(F)cccc4F)c4nc(c(-c5c(F)cccc5F)c5ccc2[nH]5)C=C4)C=C3)cc1
REMARK SMILES IDX 4 1 3 2 2 3 1 4 25 5 26 6 78 7 27 8 77 9 28 10 29 11 30 12
REMARK SMILES IDX 71 13 31 14 76 15 70 16 72 17 32 18 75 19 69 20 68 21 33 23
REMARK SMILES IDX 59 24 42 25 58 26 43 27 46 28 57 29 73 30 44 31 45 32 56 34
REMARK SMILES IDX 74 35 47 36 34 37 35 38 40 39 36 40 37 41 39 42 41 43 38 44
REMARK SMILES IDX 60 45 61 46 66 47 62 48 63 49 65 50 67 51 64 52 48 53 49 54
REMARK SMILES IDX 54 55 50 56 51 57 53 58 55 59 52 60 5 61 6 62 7 63 8 64 9 65
REMARK SMILES IDX 10 66 13 67 11 68 12 69 14 70 15 71 16 72 17 74 18 75 23 76
REMARK SMILES IDX 19 77 22 78 24 79 20 80 21 81
REMARK H PARENT 72 22 46 33 16 73
REMARK Flexibility Score: inf
ROOT
ATOM      1  C   UNL A   1      31.591  29.086  25.748  1.00  0.00     0.275 C 
ENDROOT
BRANCH   1   2
ATOM      2  O   UNL A   1      32.603  30.124  25.831  1.00  0.00    -0.458 OA
BRANCH   2   3
ATOM      3  C   UNL A   1      32.983  30.884  26.893  1.00  0.00     0.338 C 
ATOM      4  O   UNL A   1      32.252  31.771  27.323  1.00  0.00    -0.246 OA
BRANCH   3   5
ATOM      5  C   UNL A   1      34.342  30.802  27.471  1.00  0.00     0.060 A 
ATOM      6  C   UNL A   1      35.208  29.210  27.691  1.00  0.00     0.016 A 
ATOM      7  C   UNL A   1      35.259  32.348  27.840  1.00  0.00     0.016 A 
ATOM      8  C   UNL A   1      36.895  29.121  28.249  1.00  0.00     0.010 A 
ATOM      9  C   UNL A   1      37.020  32.219  28.465  1.00  0.00     0.010 A 
ATOM     10  C   UNL A   1      37.778  30.580  28.691  1.00  0.00    -0.014 A 
BRANCH  10  11
ATOM     11  C   UNL A   1      38.996  30.296  29.468  1.00  0.00     0.031 A 
ATOM     12  C   UNL A   1      40.177  29.575  28.878  1.00  0.00     0.074 A 
ATOM     13  C   UNL A   1      39.100  30.861  30.671  1.00  0.00     0.049 A 
ATOM     14  N   UNL A   1      41.054  28.812  29.476  1.00  0.00    -0.248 NA
ATOM     15  C   UNL A   1      40.362  29.643  27.422  1.00  0.00     0.031 C 
ATOM     16  C   UNL A   1      38.192  31.867  31.210  1.00  0.00     0.029 A 
ATOM     17  N   UNL A   1      40.021  30.661  31.652  1.00  0.00    -0.354 N 
ATOM     18  C   UNL A   1      41.679  28.090  28.452  1.00  0.00     0.074 A 
ATOM     19  C   UNL A   1      41.187  28.626  27.203  1.00  0.00     0.031 C 
ATOM     20  C   UNL A   1      38.567  32.161  32.461  1.00  0.00     0.029 A 
ATOM     21  C   UNL A   1      39.688  31.300  32.816  1.00  0.00     0.049 A 
ATOM     22  H   UNL A   1      40.835  30.119  31.538  1.00  0.00     0.167 HD
ATOM     23  C   UNL A   1      42.484  27.009  28.615  1.00  0.00     0.037 A 
ATOM     24  C   UNL A   1      40.204  31.135  34.043  1.00  0.00     0.037 A 
ATOM     25  C   UNL A   1      43.048  26.712  29.912  1.00  0.00     0.049 A 
ATOM     26  C   UNL A   1      41.283  30.107  34.201  1.00  0.00     0.074 A 
ATOM     27  C   UNL A   1      43.998  25.774  30.262  1.00  0.00     0.029 A 
ATOM     28  N   UNL A   1      42.739  27.425  31.068  1.00  0.00    -0.354 N 
ATOM     29  N   UNL A   1      41.749  29.266  33.305  1.00  0.00    -0.248 NA
ATOM     30  C   UNL A   1      41.906  29.994  35.520  1.00  0.00     0.031 C 
ATOM     31  C   UNL A   1      44.246  25.909  31.633  1.00  0.00     0.029 A 
ATOM     32  C   UNL A   1      43.503  26.976  32.123  1.00  0.00     0.049 A 
ATOM     33  H   UNL A   1      42.071  28.146  31.122  1.00  0.00     0.167 HD
ATOM     34  C   UNL A   1      42.744  28.539  33.939  1.00  0.00     0.074 A 
ATOM     35  C   UNL A   1      42.809  29.044  35.299  1.00  0.00     0.031 C 
ATOM     36  C   UNL A   1      43.533  27.548  33.451  1.00  0.00     0.037 A 
BRANCH  23  37
ATOM     37  C   UNL A   1      42.742  26.065  27.456  1.00  0.00     0.057 A 
ATOM     38  C   UNL A   1      41.891  24.959  27.248  1.00  0.00     0.134 A 
ATOM     39  C   UNL A   1      43.804  26.196  26.554  1.00  0.00     0.134 A 
ATOM     40  F   UNL A   1      40.854  24.728  28.067  1.00  0.00    -0.206 F 
ATOM     41  C   UNL A   1      42.082  24.049  26.200  1.00  0.00     0.040 A 
ATOM     42  C   UNL A   1      43.973  25.324  25.468  1.00  0.00     0.040 A 
ATOM     43  F   UNL A   1      44.697  27.187  26.688  1.00  0.00    -0.206 F 
ATOM     44  C   UNL A   1      43.115  24.243  25.291  1.00  0.00     0.006 A 
ENDBRANCH  23  37
BRANCH  24  45
ATOM     45  C   UNL A   1      39.695  31.994  35.134  1.00  0.00     0.057 A 
ATOM     46  C   UNL A   1      38.591  31.624  35.914  1.00  0.00     0.134 A 
ATOM     47  C   UNL A   1      40.181  33.296  35.279  1.00  0.00     0.134 A 
ATOM     48  F   UNL A   1      38.047  30.405  35.783  1.00  0.00    -0.206 F 
ATOM     49  C   UNL A   1      37.965  32.531  36.771  1.00  0.00     0.040 A 
ATOM     50  C   UNL A   1      39.582  34.205  36.150  1.00  0.00     0.040 A 
ATOM     51  F   UNL A   1      41.224  33.711  34.544  1.00  0.00    -0.206 F 
ATOM     52  C   UNL A   1      38.460  33.828  36.887  1.00  0.00     0.006 A 
ENDBRANCH  24  45
BRANCH  36  53
ATOM     53  C   UNL A   1      44.574  26.990  34.367  1.00  0.00     0.057 A 
ATOM     54  C   UNL A   1      45.871  27.519  34.351  1.00  0.00     0.134 A 
ATOM     55  C   UNL A   1      44.339  25.843  35.130  1.00  0.00     0.134 A 
ATOM     56  F   UNL A   1      46.153  28.612  33.624  1.00  0.00    -0.206 F 
ATOM     57  C   UNL A   1      46.912  26.901  35.037  1.00  0.00     0.040 A 
ATOM     58  C   UNL A   1      45.368  25.232  35.844  1.00  0.00     0.040 A 
ATOM     59  F   UNL A   1      43.114  25.299  35.184  1.00  0.00    -0.206 F 
ATOM     60  C   UNL A   1      46.661  25.750  35.783  1.00  0.00     0.006 A 
ENDBRANCH  36  53
ENDBRANCH  10  11
ENDBRANCH   3   5
ENDBRANCH   2   3
ENDBRANCH   1   2
BRANCH   1  61
ATOM     61  C   UNL A   1      31.540  28.140  26.983  1.00  0.00     0.274 C 
BRANCH  61  62
ATOM     62  O   UNL A   1      32.619  27.177  27.034  1.00  0.00    -0.461 OA
BRANCH  62  63
ATOM     63  C   UNL A   1      32.269  25.951  26.562  1.00  0.00     0.329 C 
ATOM     64  O   UNL A   1      31.193  25.454  26.873  1.00  0.00    -0.250 OA
BRANCH  63  65
ATOM     65  C   UNL A   1      33.381  25.296  25.593  1.00  0.00     0.207 C 
ATOM     66  C   UNL A   1      33.267  23.807  26.163  1.00  0.00     0.108 C 
ATOM     67  N   UNL A   1      33.627  25.196  23.813  1.00  0.00    -0.301 N 
ATOM     68  S   UNL A   1      33.508  22.563  24.943  1.00  0.00    -0.138 SA
ATOM     69  C   UNL A   1      34.457  23.676  23.938  1.00  0.00     0.192 C 
BRANCH  67  70
ATOM     70  C   UNL A   1      33.069  26.333  22.272  1.00  0.00     0.323 C 
ATOM     71  O   UNL A   1      33.638  26.710  21.184  1.00  0.00    -0.248 OA
ATOM     72  N   UNL A   1      31.741  27.145  22.047  1.00  0.00    -0.305 N 
ATOM     73  H   UNL A   1      31.732  27.444  21.110  1.00  0.00     0.171 HD
BRANCH  72  74
ATOM     74  C   UNL A   1      30.522  27.630  22.673  1.00  0.00     0.079 A 
ATOM     75  C   UNL A   1      29.743  26.809  23.487  1.00  0.00     0.032 A 
ATOM     76  C   UNL A   1      29.974  28.881  22.313  1.00  0.00     0.149 A 
ATOM     77  C   UNL A   1      28.401  27.140  23.726  1.00  0.00     0.041 A 
ATOM     78  C   UNL A   1      28.649  29.222  22.549  1.00  0.00     0.080 A 
ATOM     79  F   UNL A   1      30.648  29.722  21.547  1.00  0.00    -0.205 F 
ATOM     80  C   UNL A   1      27.858  28.319  23.221  1.00  0.00     0.126 A 
ATOM     81  F   UNL A   1      26.549  28.564  23.355  1.00  0.00    -0.207 F 
ENDBRANCH  72  74
ENDBRANCH  67  70
ENDBRANCH  63  65
ENDBRANCH  62  63
ENDBRANCH  61  62
ENDBRANCH   1  61
TORSDOF 13
ENDMDL
