MODEL 1
REMARK VINA RESULT:     -12.6      0.000      0.000
REMARK SMILES NS(=O)(=O)c1ccc(-c2coc(=O)n2-c2ccc(C(=O)OCCOC(=O)c3ccc(-c4c5nc(c(-c6c(F)cccc6F)c6ccc([nH]6)c(-c6c(F)cccc6F)c6nc(c(-c7c(F)cccc7F)c7ccc4[nH]7)C=C6)C=C5)cc3)cc2)cc1
REMARK SMILES IDX 22 1 21 2 19 3 20 4 18 5 15 6 16 7 82 8 17 9 81 10 14 11
REMARK SMILES IDX 9 12 10 13 11 14 12 15 13 16 8 17 5 18 6 19 84 20 7 21 83 22
REMARK SMILES IDX 2 23 3 24 4 25 1 26 23 29 24 30 25 31 26 32 27 33 28 34
REMARK SMILES IDX 80 35 29 36 79 37 30 38 31 39 32 40 73 41 33 42 78 43 72 44
REMARK SMILES IDX 74 45 34 46 77 47 71 48 70 49 35 51 61 52 44 53 60 54 45 55
REMARK SMILES IDX 48 56 59 57 75 58 46 59 47 60 58 62 76 63 49 64 36 65 37 66
REMARK SMILES IDX 42 67 38 68 39 69 41 70 43 71 40 72 62 73 63 74 68 75 64 76
REMARK SMILES IDX 65 77 67 78 69 79 66 80 50 81 51 82 56 83 52 84 53 85 55 86
REMARK SMILES IDX 57 87 54 88
REMARK H PARENT 1 27 1 28 74 50 48 61
REMARK Flexibility Score: inf
ROOT
ATOM      1  C   UNL A   1      34.865  31.809  28.017  1.00  0.00     0.275 C 
ENDROOT
BRANCH   1   2
ATOM      2  O   UNL A   1      34.432  30.491  27.650  1.00  0.00    -0.458 OA
BRANCH   2   3
ATOM      3  C   UNL A   1      33.165  30.391  27.168  1.00  0.00     0.338 C 
ATOM      4  O   UNL A   1      32.370  31.305  27.018  1.00  0.00    -0.246 OA
BRANCH   3   5
ATOM      5  C   UNL A   1      32.895  29.000  26.732  1.00  0.00     0.060 A 
ATOM      6  C   UNL A   1      32.323  26.459  25.706  1.00  0.00     0.053 A 
ATOM      7  C   UNL A   1      33.496  27.111  25.322  1.00  0.00     0.028 A 
ATOM      8  C   UNL A   1      31.509  27.034  26.695  1.00  0.00     0.028 A 
ATOM      9  C   UNL A   1      33.768  28.392  25.816  1.00  0.00     0.018 A 
ATOM     10  C   UNL A   1      31.793  28.294  27.211  1.00  0.00     0.018 A 
BRANCH   6  11
ATOM     11  N   UNL A   1      31.871  25.316  25.010  1.00  0.00    -0.242 N 
ATOM     12  C   UNL A   1      30.866  25.262  24.081  1.00  0.00     0.095 A 
ATOM     13  C   UNL A   1      30.791  23.997  23.688  1.00  0.00     0.228 A 
ATOM     14  O   UNL A   1      31.715  23.154  24.300  1.00  0.00    -0.415 OA
ATOM     15  C   UNL A   1      32.419  24.041  25.120  1.00  0.00     0.424 A 
ATOM     16  O   UNL A   1      33.353  23.681  25.825  1.00  0.00    -0.223 OA
BRANCH  12  17
ATOM     17  C   UNL A   1      30.176  26.425  23.528  1.00  0.00     0.002 A 
ATOM     18  C   UNL A   1      28.969  28.801  22.670  1.00  0.00     0.082 A 
ATOM     19  C   UNL A   1      30.295  28.538  22.323  1.00  0.00     0.022 A 
ATOM     20  C   UNL A   1      28.236  27.880  23.426  1.00  0.00     0.022 A 
ATOM     21  C   UNL A   1      30.890  27.348  22.742  1.00  0.00     0.012 A 
ATOM     22  C   UNL A   1      28.839  26.690  23.848  1.00  0.00     0.012 A 
BRANCH  18  23
ATOM     23  S   UNL A   1      28.270  30.337  22.146  1.00  0.00     0.238 S 
ATOM     24  O   UNL A   1      27.325  30.767  23.151  1.00  0.00    -0.207 OA
ATOM     25  O   UNL A   1      27.937  30.234  20.747  1.00  0.00    -0.207 OA
BRANCH  23  26
ATOM     26  N   UNL A   1      29.541  31.435  22.219  1.00  0.00    -0.225 NA
ATOM     27  H   UNL A   1      29.372  32.195  21.559  1.00  0.00     0.137 HD
ATOM     28  H   UNL A   1      30.413  30.964  21.979  1.00  0.00     0.137 HD
ENDBRANCH  23  26
ENDBRANCH  18  23
ENDBRANCH  12  17
ENDBRANCH   6  11
ENDBRANCH   3   5
ENDBRANCH   2   3
ENDBRANCH   1   2
BRANCH   1  29
ATOM     29  C   UNL A   1      35.349  31.840  29.458  1.00  0.00     0.275 C 
BRANCH  29  30
ATOM     30  O   UNL A   1      36.620  31.205  29.578  1.00  0.00    -0.458 OA
BRANCH  30  31
ATOM     31  C   UNL A   1      36.622  30.027  30.240  1.00  0.00     0.338 C 
ATOM     32  O   UNL A   1      36.025  29.749  31.266  1.00  0.00    -0.246 OA
BRANCH  31  33
ATOM     33  C   UNL A   1      37.661  29.172  29.663  1.00  0.00     0.060 A 
ATOM     34  C   UNL A   1      38.210  28.183  30.486  1.00  0.00     0.016 A 
ATOM     35  C   UNL A   1      38.283  29.585  28.476  1.00  0.00     0.016 A 
ATOM     36  C   UNL A   1      39.495  27.761  30.224  1.00  0.00     0.010 A 
ATOM     37  C   UNL A   1      39.564  29.172  28.224  1.00  0.00     0.010 A 
ATOM     38  C   UNL A   1      40.183  28.341  29.153  1.00  0.00    -0.014 A 
BRANCH  38  39
ATOM     39  C   UNL A   1      41.580  28.018  28.968  1.00  0.00     0.031 A 
ATOM     40  C   UNL A   1      41.792  26.738  28.253  1.00  0.00     0.074 A 
ATOM     41  C   UNL A   1      42.546  28.899  29.291  1.00  0.00     0.049 A 
ATOM     42  N   UNL A   1      42.416  25.687  28.666  1.00  0.00    -0.248 NA
ATOM     43  C   UNL A   1      41.083  26.550  26.974  1.00  0.00     0.031 C 
ATOM     44  C   UNL A   1      42.410  30.290  29.739  1.00  0.00     0.029 A 
ATOM     45  N   UNL A   1      43.892  28.752  29.180  1.00  0.00    -0.354 N 
ATOM     46  C   UNL A   1      42.335  24.766  27.626  1.00  0.00     0.074 A 
ATOM     47  C   UNL A   1      41.376  25.283  26.688  1.00  0.00     0.031 C 
ATOM     48  C   UNL A   1      43.605  30.916  29.630  1.00  0.00     0.029 A 
ATOM     49  C   UNL A   1      44.608  29.942  29.245  1.00  0.00     0.049 A 
ATOM     50  H   UNL A   1      44.324  27.876  29.064  1.00  0.00     0.167 HD
ATOM     51  C   UNL A   1      43.231  23.750  27.508  1.00  0.00     0.037 A 
ATOM     52  C   UNL A   1      45.914  30.089  28.909  1.00  0.00     0.037 A 
ATOM     53  C   UNL A   1      43.902  23.500  28.756  1.00  0.00     0.049 A 
ATOM     54  C   UNL A   1      46.524  28.732  28.917  1.00  0.00     0.074 A 
ATOM     55  C   UNL A   1      43.488  23.073  30.003  1.00  0.00     0.029 A 
ATOM     56  N   UNL A   1      45.140  24.063  28.944  1.00  0.00    -0.354 N 
ATOM     57  N   UNL A   1      46.688  28.022  29.999  1.00  0.00    -0.248 NA
ATOM     58  C   UNL A   1      46.490  27.977  27.672  1.00  0.00     0.031 C 
ATOM     59  C   UNL A   1      44.263  23.832  30.927  1.00  0.00     0.029 A 
ATOM     60  C   UNL A   1      45.149  24.625  30.195  1.00  0.00     0.049 A 
ATOM     61  H   UNL A   1      45.884  24.063  28.299  1.00  0.00     0.167 HD
ATOM     62  C   UNL A   1      46.361  26.724  29.626  1.00  0.00     0.074 A 
ATOM     63  C   UNL A   1      46.304  26.749  28.166  1.00  0.00     0.031 C 
ATOM     64  C   UNL A   1      45.880  25.824  30.534  1.00  0.00     0.037 A 
BRANCH  51  65
ATOM     65  C   UNL A   1      43.743  23.236  26.190  1.00  0.00     0.057 A 
ATOM     66  C   UNL A   1      43.665  21.862  25.911  1.00  0.00     0.134 A 
ATOM     67  C   UNL A   1      44.563  23.981  25.317  1.00  0.00     0.134 A 
ATOM     68  F   UNL A   1      42.925  21.045  26.676  1.00  0.00    -0.206 F 
ATOM     69  C   UNL A   1      44.408  21.263  24.888  1.00  0.00     0.040 A 
ATOM     70  C   UNL A   1      45.270  23.402  24.261  1.00  0.00     0.040 A 
ATOM     71  F   UNL A   1      44.810  25.286  25.496  1.00  0.00    -0.206 F 
ATOM     72  C   UNL A   1      45.221  22.033  24.063  1.00  0.00     0.006 A 
ENDBRANCH  51  65
BRANCH  52  73
ATOM     73  C   UNL A   1      46.546  31.238  28.219  1.00  0.00     0.057 A 
ATOM     74  C   UNL A   1      46.065  31.704  26.988  1.00  0.00     0.134 A 
ATOM     75  C   UNL A   1      47.459  32.079  28.881  1.00  0.00     0.134 A 
ATOM     76  F   UNL A   1      45.154  30.996  26.303  1.00  0.00    -0.206 F 
ATOM     77  C   UNL A   1      46.457  32.939  26.453  1.00  0.00     0.040 A 
ATOM     78  C   UNL A   1      47.863  33.311  28.357  1.00  0.00     0.040 A 
ATOM     79  F   UNL A   1      47.922  31.774  30.102  1.00  0.00    -0.206 F 
ATOM     80  C   UNL A   1      47.352  33.752  27.143  1.00  0.00     0.006 A 
ENDBRANCH  52  73
BRANCH  64  81
ATOM     81  C   UNL A   1      45.892  26.215  31.989  1.00  0.00     0.057 A 
ATOM     82  C   UNL A   1      44.796  26.784  32.656  1.00  0.00     0.134 A 
ATOM     83  C   UNL A   1      46.984  25.841  32.777  1.00  0.00     0.134 A 
ATOM     84  F   UNL A   1      43.667  27.083  32.004  1.00  0.00    -0.206 F 
ATOM     85  C   UNL A   1      44.802  27.003  34.038  1.00  0.00     0.040 A 
ATOM     86  C   UNL A   1      46.990  26.023  34.162  1.00  0.00     0.040 A 
ATOM     87  F   UNL A   1      48.044  25.237  32.219  1.00  0.00    -0.206 F 
ATOM     88  C   UNL A   1      45.900  26.613  34.797  1.00  0.00     0.006 A 
ENDBRANCH  64  81
ENDBRANCH  38  39
ENDBRANCH  31  33
ENDBRANCH  30  31
ENDBRANCH  29  30
ENDBRANCH   1  29
TORSDOF 15
ENDMDL
MODEL 2
REMARK VINA RESULT:     -12.5      1.844      5.962
REMARK SMILES NS(=O)(=O)c1ccc(-c2coc(=O)n2-c2ccc(C(=O)OCCOC(=O)c3ccc(-c4c5nc(c(-c6c(F)cccc6F)c6ccc([nH]6)c(-c6c(F)cccc6F)c6nc(c(-c7c(F)cccc7F)c7ccc4[nH]7)C=C6)C=C5)cc3)cc2)cc1
REMARK SMILES IDX 22 1 21 2 19 3 20 4 18 5 15 6 16 7 82 8 17 9 81 10 14 11
REMARK SMILES IDX 9 12 10 13 11 14 12 15 13 16 8 17 5 18 6 19 84 20 7 21 83 22
REMARK SMILES IDX 2 23 3 24 4 25 1 26 23 29 24 30 25 31 26 32 27 33 28 34
REMARK SMILES IDX 80 35 29 36 79 37 30 38 31 39 32 40 73 41 33 42 78 43 72 44
REMARK SMILES IDX 74 45 34 46 77 47 71 48 70 49 35 51 61 52 44 53 60 54 45 55
REMARK SMILES IDX 48 56 59 57 75 58 46 59 47 60 58 62 76 63 49 64 36 65 37 66
REMARK SMILES IDX 42 67 38 68 39 69 41 70 43 71 40 72 62 73 63 74 68 75 64 76
REMARK SMILES IDX 65 77 67 78 69 79 66 80 50 81 51 82 56 83 52 84 53 85 55 86
REMARK SMILES IDX 57 87 54 88
REMARK H PARENT 1 27 1 28 74 50 48 61
REMARK Flexibility Score: inf
ROOT
ATOM      1  C   UNL A   1      34.535  32.514  28.013  1.00  0.00     0.275 C 
ENDROOT
BRANCH   1   2
ATOM      2  O   UNL A   1      34.114  31.148  27.876  1.00  0.00    -0.458 OA
BRANCH   2   3
ATOM      3  C   UNL A   1      32.912  30.951  27.275  1.00  0.00     0.338 C 
ATOM      4  O   UNL A   1      32.084  31.807  27.006  1.00  0.00    -0.246 OA
BRANCH   3   5
ATOM      5  C   UNL A   1      32.771  29.529  26.876  1.00  0.00     0.060 A 
ATOM      6  C   UNL A   1      32.439  26.921  25.914  1.00  0.00     0.053 A 
ATOM      7  C   UNL A   1      33.564  27.658  25.538  1.00  0.00     0.028 A 
ATOM      8  C   UNL A   1      31.555  27.453  26.866  1.00  0.00     0.028 A 
ATOM      9  C   UNL A   1      33.714  28.972  25.999  1.00  0.00     0.018 A 
ATOM     10  C   UNL A   1      31.719  28.747  27.350  1.00  0.00     0.018 A 
BRANCH   6  11
ATOM     11  N   UNL A   1      32.102  25.725  25.244  1.00  0.00    -0.242 N 
ATOM     12  C   UNL A   1      31.148  25.565  24.276  1.00  0.00     0.095 A 
ATOM     13  C   UNL A   1      31.182  24.286  23.927  1.00  0.00     0.228 A 
ATOM     14  O   UNL A   1      32.135  23.534  24.610  1.00  0.00    -0.415 OA
ATOM     15  C   UNL A   1      32.735  24.498  25.425  1.00  0.00     0.424 A 
ATOM     16  O   UNL A   1      33.660  24.232  26.182  1.00  0.00    -0.223 OA
BRANCH  12  17
ATOM     17  C   UNL A   1      30.401  26.655  23.650  1.00  0.00     0.002 A 
ATOM     18  C   UNL A   1      29.059  28.902  22.658  1.00  0.00     0.082 A 
ATOM     19  C   UNL A   1      30.423  28.747  22.406  1.00  0.00     0.022 A 
ATOM     20  C   UNL A   1      28.357  27.936  23.385  1.00  0.00     0.022 A 
ATOM     21  C   UNL A   1      31.086  27.621  22.892  1.00  0.00     0.012 A 
ATOM     22  C   UNL A   1      29.028  26.810  23.874  1.00  0.00     0.012 A 
BRANCH  18  23
ATOM     23  S   UNL A   1      28.270  30.363  22.052  1.00  0.00     0.238 S 
ATOM     24  O   UNL A   1      27.285  30.779  23.025  1.00  0.00    -0.207 OA
ATOM     25  O   UNL A   1      27.965  30.172  20.657  1.00  0.00    -0.207 OA
BRANCH  23  26
ATOM     26  N   UNL A   1      29.467  31.543  22.087  1.00  0.00    -0.225 NA
ATOM     27  H   UNL A   1      29.044  32.450  22.290  1.00  0.00     0.137 HD
ATOM     28  H   UNL A   1      29.934  31.582  21.181  1.00  0.00     0.137 HD
ENDBRANCH  23  26
ENDBRANCH  18  23
ENDBRANCH  12  17
ENDBRANCH   6  11
ENDBRANCH   3   5
ENDBRANCH   2   3
ENDBRANCH   1   2
BRANCH   1  29
ATOM     29  C   UNL A   1      34.499  32.950  29.469  1.00  0.00     0.275 C 
BRANCH  29  30
ATOM     30  O   UNL A   1      35.795  32.858  30.056  1.00  0.00    -0.458 OA
BRANCH  30  31
ATOM     31  C   UNL A   1      36.013  31.762  30.816  1.00  0.00     0.338 C 
ATOM     32  O   UNL A   1      35.635  31.560  31.957  1.00  0.00    -0.246 OA
BRANCH  31  33
ATOM     33  C   UNL A   1      36.998  30.917  30.139  1.00  0.00     0.060 A 
ATOM     34  C   UNL A   1      36.802  29.532  30.189  1.00  0.00     0.016 A 
ATOM     35  C   UNL A   1      38.231  31.482  29.782  1.00  0.00     0.016 A 
ATOM     36  C   UNL A   1      37.906  28.716  30.088  1.00  0.00     0.010 A 
ATOM     37  C   UNL A   1      39.329  30.669  29.692  1.00  0.00     0.010 A 
ATOM     38  C   UNL A   1      39.164  29.310  29.941  1.00  0.00    -0.014 A 
BRANCH  38  39
ATOM     39  C   UNL A   1      40.339  28.469  29.992  1.00  0.00     0.031 A 
ATOM     40  C   UNL A   1      40.921  28.362  31.350  1.00  0.00     0.074 A 
ATOM     41  C   UNL A   1      40.730  27.755  28.919  1.00  0.00     0.049 A 
ATOM     42  N   UNL A   1      42.106  28.691  31.739  1.00  0.00    -0.248 NA
ATOM     43  C   UNL A   1      40.012  27.984  32.449  1.00  0.00     0.031 C 
ATOM     44  C   UNL A   1      40.051  27.588  27.629  1.00  0.00     0.029 A 
ATOM     45  N   UNL A   1      41.799  26.925  28.802  1.00  0.00    -0.354 N 
ATOM     46  C   UNL A   1      42.154  28.393  33.098  1.00  0.00     0.074 A 
ATOM     47  C   UNL A   1      40.805  28.118  33.510  1.00  0.00     0.031 C 
ATOM     48  C   UNL A   1      40.595  26.540  26.967  1.00  0.00     0.029 A 
ATOM     49  C   UNL A   1      41.740  26.060  27.716  1.00  0.00     0.049 A 
ATOM     50  H   UNL A   1      42.552  26.935  29.435  1.00  0.00     0.167 HD
ATOM     51  C   UNL A   1      43.337  28.178  33.734  1.00  0.00     0.037 A 
ATOM     52  C   UNL A   1      42.540  24.981  27.530  1.00  0.00     0.037 A 
ATOM     53  C   UNL A   1      44.437  28.732  32.990  1.00  0.00     0.049 A 
ATOM     54  C   UNL A   1      43.731  25.162  28.405  1.00  0.00     0.074 A 
ATOM     55  C   UNL A   1      44.798  30.012  32.618  1.00  0.00     0.029 A 
ATOM     56  N   UNL A   1      45.155  27.889  32.180  1.00  0.00    -0.354 N 
ATOM     57  N   UNL A   1      44.625  26.093  28.220  1.00  0.00    -0.248 NA
ATOM     58  C   UNL A   1      43.653  24.627  29.758  1.00  0.00     0.031 C 
ATOM     59  C   UNL A   1      45.325  29.877  31.301  1.00  0.00     0.029 A 
ATOM     60  C   UNL A   1      45.318  28.520  30.973  1.00  0.00     0.049 A 
ATOM     61  H   UNL A   1      45.491  26.995  32.421  1.00  0.00     0.167 HD
ATOM     62  C   UNL A   1      44.927  26.554  29.495  1.00  0.00     0.074 A 
ATOM     63  C   UNL A   1      44.341  25.572  30.406  1.00  0.00     0.031 C 
ATOM     64  C   UNL A   1      45.366  27.831  29.704  1.00  0.00     0.037 A 
BRANCH  51  65
ATOM     65  C   UNL A   1      43.523  27.167  34.832  1.00  0.00     0.057 A 
ATOM     66  C   UNL A   1      43.499  25.798  34.518  1.00  0.00     0.134 A 
ATOM     67  C   UNL A   1      43.432  27.469  36.207  1.00  0.00     0.134 A 
ATOM     68  F   UNL A   1      43.567  25.383  33.244  1.00  0.00    -0.206 F 
ATOM     69  C   UNL A   1      43.322  24.810  35.492  1.00  0.00     0.040 A 
ATOM     70  C   UNL A   1      43.306  26.488  37.193  1.00  0.00     0.040 A 
ATOM     71  F   UNL A   1      43.356  28.725  36.667  1.00  0.00    -0.206 F 
ATOM     72  C   UNL A   1      43.216  25.154  36.835  1.00  0.00     0.006 A 
ENDBRANCH  51  65
BRANCH  52  73
ATOM     73  C   UNL A   1      42.165  23.663  26.965  1.00  0.00     0.057 A 
ATOM     74  C   UNL A   1      43.039  22.951  26.132  1.00  0.00     0.134 A 
ATOM     75  C   UNL A   1      41.057  22.946  27.451  1.00  0.00     0.134 A 
ATOM     76  F   UNL A   1      44.150  23.534  25.658  1.00  0.00    -0.206 F 
ATOM     77  C   UNL A   1      42.831  21.602  25.813  1.00  0.00     0.040 A 
ATOM     78  C   UNL A   1      40.835  21.601  27.137  1.00  0.00     0.040 A 
ATOM     79  F   UNL A   1      40.200  23.501  28.320  1.00  0.00    -0.206 F 
ATOM     80  C   UNL A   1      41.731  20.919  26.324  1.00  0.00     0.006 A 
ENDBRANCH  52  73
BRANCH  64  81
ATOM     81  C   UNL A   1      45.696  28.669  28.497  1.00  0.00     0.057 A 
ATOM     82  C   UNL A   1      44.775  29.507  27.849  1.00  0.00     0.134 A 
ATOM     83  C   UNL A   1      47.029  28.765  28.089  1.00  0.00     0.134 A 
ATOM     84  F   UNL A   1      43.495  29.559  28.236  1.00  0.00    -0.206 F 
ATOM     85  C   UNL A   1      45.157  30.373  26.819  1.00  0.00     0.040 A 
ATOM     86  C   UNL A   1      47.431  29.649  27.084  1.00  0.00     0.040 A 
ATOM     87  F   UNL A   1      47.977  28.039  28.701  1.00  0.00    -0.206 F 
ATOM     88  C   UNL A   1      46.493  30.451  26.439  1.00  0.00     0.006 A 
ENDBRANCH  64  81
ENDBRANCH  38  39
ENDBRANCH  31  33
ENDBRANCH  30  31
ENDBRANCH  29  30
ENDBRANCH   1  29
TORSDOF 15
ENDMDL
MODEL 3
REMARK VINA RESULT:     -12.4      4.905      9.625
REMARK SMILES NS(=O)(=O)c1ccc(-c2coc(=O)n2-c2ccc(C(=O)OCCOC(=O)c3ccc(-c4c5nc(c(-c6c(F)cccc6F)c6ccc([nH]6)c(-c6c(F)cccc6F)c6nc(c(-c7c(F)cccc7F)c7ccc4[nH]7)C=C6)C=C5)cc3)cc2)cc1
REMARK SMILES IDX 22 1 21 2 19 3 20 4 18 5 15 6 16 7 82 8 17 9 81 10 14 11
REMARK SMILES IDX 9 12 10 13 11 14 12 15 13 16 8 17 5 18 6 19 84 20 7 21 83 22
REMARK SMILES IDX 2 23 3 24 4 25 1 26 23 29 24 30 25 31 26 32 27 33 28 34
REMARK SMILES IDX 80 35 29 36 79 37 30 38 31 39 32 40 73 41 33 42 78 43 72 44
REMARK SMILES IDX 74 45 34 46 77 47 71 48 70 49 35 51 61 52 44 53 60 54 45 55
REMARK SMILES IDX 48 56 59 57 75 58 46 59 47 60 58 62 76 63 49 64 36 65 37 66
REMARK SMILES IDX 42 67 38 68 39 69 41 70 43 71 40 72 62 73 63 74 68 75 64 76
REMARK SMILES IDX 65 77 67 78 69 79 66 80 50 81 51 82 56 83 52 84 53 85 55 86
REMARK SMILES IDX 57 87 54 88
REMARK H PARENT 1 27 1 28 74 50 48 61
REMARK Flexibility Score: inf
ROOT
ATOM      1  C   UNL A   1      34.549  34.467  29.424  1.00  0.00     0.275 C 
ENDROOT
BRANCH   1   2
ATOM      2  O   UNL A   1      34.047  33.616  30.466  1.00  0.00    -0.458 OA
BRANCH   2   3
ATOM      3  C   UNL A   1      34.144  34.100  31.732  1.00  0.00     0.338 C 
ATOM      4  O   UNL A   1      33.287  34.720  32.341  1.00  0.00    -0.246 OA
BRANCH   3   5
ATOM      5  C   UNL A   1      35.427  33.675  32.341  1.00  0.00     0.060 A 
ATOM      6  C   UNL A   1      37.727  32.769  33.655  1.00  0.00     0.053 A 
ATOM      7  C   UNL A   1      36.971  31.877  32.892  1.00  0.00     0.028 A 
ATOM      8  C   UNL A   1      37.392  34.132  33.651  1.00  0.00     0.028 A 
ATOM      9  C   UNL A   1      35.807  32.326  32.257  1.00  0.00     0.018 A 
ATOM     10  C   UNL A   1      36.254  34.587  32.995  1.00  0.00     0.018 A 
BRANCH   6  11
ATOM     11  N   UNL A   1      38.721  32.299  34.541  1.00  0.00    -0.242 N 
ATOM     12  C   UNL A   1      40.077  32.337  34.351  1.00  0.00     0.095 A 
ATOM     13  C   UNL A   1      40.619  31.798  35.435  1.00  0.00     0.228 A 
ATOM     14  O   UNL A   1      39.694  31.387  36.392  1.00  0.00    -0.415 OA
ATOM     15  C   UNL A   1      38.482  31.756  35.801  1.00  0.00     0.424 A 
ATOM     16  O   UNL A   1      37.403  31.578  36.351  1.00  0.00    -0.223 OA
BRANCH  12  17
ATOM     17  C   UNL A   1      40.747  33.019  33.246  1.00  0.00     0.002 A 
ATOM     18  C   UNL A   1      42.215  34.118  31.131  1.00  0.00     0.082 A 
ATOM     19  C   UNL A   1      41.297  33.098  30.876  1.00  0.00     0.022 A 
ATOM     20  C   UNL A   1      42.392  34.607  32.429  1.00  0.00     0.022 A 
ATOM     21  C   UNL A   1      40.560  32.560  31.930  1.00  0.00     0.012 A 
ATOM     22  C   UNL A   1      41.652  34.060  33.484  1.00  0.00     0.012 A 
BRANCH  18  23
ATOM     23  S   UNL A   1      43.151  34.743  29.768  1.00  0.00     0.238 S 
ATOM     24  O   UNL A   1      42.325  34.670  28.584  1.00  0.00    -0.207 OA
ATOM     25  O   UNL A   1      44.480  34.189  29.834  1.00  0.00    -0.207 OA
BRANCH  23  26
ATOM     26  N   UNL A   1      43.337  36.382  30.091  1.00  0.00    -0.225 NA
ATOM     27  H   UNL A   1      42.913  36.601  30.993  1.00  0.00     0.137 HD
ATOM     28  H   UNL A   1      42.881  36.928  29.359  1.00  0.00     0.137 HD
ENDBRANCH  23  26
ENDBRANCH  18  23
ENDBRANCH  12  17
ENDBRANCH   6  11
ENDBRANCH   3   5
ENDBRANCH   2   3
ENDBRANCH   1   2
BRANCH   1  29
ATOM     29  C   UNL A   1      34.386  33.813  28.062  1.00  0.00     0.275 C 
BRANCH  29  30
ATOM     30  O   UNL A   1      35.478  32.939  27.787  1.00  0.00    -0.458 OA
BRANCH  30  31
ATOM     31  C   UNL A   1      35.231  31.623  27.970  1.00  0.00     0.338 C 
ATOM     32  O   UNL A   1      34.228  31.004  27.659  1.00  0.00    -0.246 OA
BRANCH  31  33
ATOM     33  C   UNL A   1      36.276  31.071  28.834  1.00  0.00     0.060 A 
ATOM     34  C   UNL A   1      37.423  31.847  29.032  1.00  0.00     0.016 A 
ATOM     35  C   UNL A   1      36.242  29.701  29.132  1.00  0.00     0.016 A 
ATOM     36  C   UNL A   1      38.601  31.199  29.329  1.00  0.00     0.010 A 
ATOM     37  C   UNL A   1      37.416  29.058  29.418  1.00  0.00     0.010 A 
ATOM     38  C   UNL A   1      38.592  29.802  29.417  1.00  0.00    -0.014 A 
BRANCH  38  39
ATOM     39  C   UNL A   1      39.850  29.108  29.574  1.00  0.00     0.031 A 
ATOM     40  C   UNL A   1      40.247  28.934  30.991  1.00  0.00     0.074 A 
ATOM     41  C   UNL A   1      40.478  28.558  28.516  1.00  0.00     0.049 A 
ATOM     42  N   UNL A   1      41.312  29.362  31.580  1.00  0.00    -0.248 NA
ATOM     43  C   UNL A   1      39.254  28.340  31.905  1.00  0.00     0.031 C 
ATOM     44  C   UNL A   1      40.012  28.443  27.129  1.00  0.00     0.029 A 
ATOM     45  N   UNL A   1      41.654  27.879  28.493  1.00  0.00    -0.354 N 
ATOM     46  C   UNL A   1      41.211  28.935  32.901  1.00  0.00     0.074 A 
ATOM     47  C   UNL A   1      39.867  28.460  33.081  1.00  0.00     0.031 C 
ATOM     48  C   UNL A   1      40.778  27.541  26.472  1.00  0.00     0.029 A 
ATOM     49  C   UNL A   1      41.862  27.128  27.343  1.00  0.00     0.049 A 
ATOM     50  H   UNL A   1      42.304  27.915  29.231  1.00  0.00     0.167 HD
ATOM     51  C   UNL A   1      42.312  28.801  33.687  1.00  0.00     0.037 A 
ATOM     52  C   UNL A   1      42.818  26.178  27.190  1.00  0.00     0.037 A 
ATOM     53  C   UNL A   1      43.420  29.556  33.166  1.00  0.00     0.049 A 
ATOM     54  C   UNL A   1      43.840  26.411  28.246  1.00  0.00     0.074 A 
ATOM     55  C   UNL A   1      43.656  30.901  32.960  1.00  0.00     0.029 A 
ATOM     56  N   UNL A   1      44.350  28.891  32.406  1.00  0.00    -0.354 N 
ATOM     57  N   UNL A   1      44.619  27.457  28.276  1.00  0.00    -0.248 NA
ATOM     58  C   UNL A   1      43.648  25.736  29.523  1.00  0.00     0.031 C 
ATOM     59  C   UNL A   1      44.373  30.965  31.730  1.00  0.00     0.029 A 
ATOM     60  C   UNL A   1      44.593  29.657  31.294  1.00  0.00     0.049 A 
ATOM     61  H   UNL A   1      44.766  28.025  32.619  1.00  0.00     0.167 HD
ATOM     62  C   UNL A   1      44.677  27.819  29.616  1.00  0.00     0.074 A 
ATOM     63  C   UNL A   1      44.107  26.686  30.343  1.00  0.00     0.031 C 
ATOM     64  C   UNL A   1      44.908  29.111  29.994  1.00  0.00     0.037 A 
BRANCH  51  65
ATOM     65  C   UNL A   1      42.477  27.713  34.713  1.00  0.00     0.057 A 
ATOM     66  C   UNL A   1      42.806  26.414  34.292  1.00  0.00     0.134 A 
ATOM     67  C   UNL A   1      42.047  27.819  36.052  1.00  0.00     0.134 A 
ATOM     68  F   UNL A   1      43.218  26.182  33.036  1.00  0.00    -0.206 F 
ATOM     69  C   UNL A   1      42.645  25.296  35.117  1.00  0.00     0.040 A 
ATOM     70  C   UNL A   1      41.931  26.716  36.901  1.00  0.00     0.040 A 
ATOM     71  F   UNL A   1      41.617  28.971  36.584  1.00  0.00    -0.206 F 
ATOM     72  C   UNL A   1      42.198  25.444  36.425  1.00  0.00     0.006 A 
ENDBRANCH  51  65
BRANCH  52  73
ATOM     73  C   UNL A   1      42.704  24.889  26.468  1.00  0.00     0.057 A 
ATOM     74  C   UNL A   1      43.516  24.598  25.363  1.00  0.00     0.134 A 
ATOM     75  C   UNL A   1      41.993  23.804  27.012  1.00  0.00     0.134 A 
ATOM     76  F   UNL A   1      44.270  25.556  24.805  1.00  0.00    -0.206 F 
ATOM     77  C   UNL A   1      43.626  23.302  24.839  1.00  0.00     0.040 A 
ATOM     78  C   UNL A   1      42.089  22.507  26.497  1.00  0.00     0.040 A 
ATOM     79  F   UNL A   1      41.248  23.949  28.119  1.00  0.00    -0.206 F 
ATOM     80  C   UNL A   1      42.918  22.249  25.413  1.00  0.00     0.006 A 
ENDBRANCH  52  73
BRANCH  64  81
ATOM     81  C   UNL A   1      45.287  30.101  28.923  1.00  0.00     0.057 A 
ATOM     82  C   UNL A   1      44.360  30.878  28.211  1.00  0.00     0.134 A 
ATOM     83  C   UNL A   1      46.638  30.405  28.736  1.00  0.00     0.134 A 
ATOM     84  F   UNL A   1      43.043  30.729  28.397  1.00  0.00    -0.206 F 
ATOM     85  C   UNL A   1      44.761  31.884  27.325  1.00  0.00     0.040 A 
ATOM     86  C   UNL A   1      47.052  31.428  27.880  1.00  0.00     0.040 A 
ATOM     87  F   UNL A   1      47.581  29.746  29.428  1.00  0.00    -0.206 F 
ATOM     88  C   UNL A   1      46.114  32.168  27.165  1.00  0.00     0.006 A 
ENDBRANCH  64  81
ENDBRANCH  38  39
ENDBRANCH  31  33
ENDBRANCH  30  31
ENDBRANCH  29  30
ENDBRANCH   1  29
TORSDOF 15
ENDMDL
