MODEL 1
REMARK VINA RESULT:     -10.0      0.000      0.000
REMARK SMILES COc1ccc(C(=O)OCCOC(=O)c2ccc(-c3c4nc(c(-c5c(F)cccc5F)c5ccc([nH]5)c(-c5c(F)cccc5F)c5nc(c(-c6c(F)cccc6F)c6ccc3[nH]6)C=C5)C=C4)cc2)cc1C(F)(F)F
REMARK SMILES IDX 11 1 10 2 9 3 7 4 8 5 6 6 3 7 4 8 70 9 5 10 69 11 2 12 1 13
REMARK SMILES IDX 71 14 72 15 73 16 74 17 12 18 13 19 14 20 15 21 16 22 68 23
REMARK SMILES IDX 17 24 67 25 18 26 19 27 20 28 61 29 21 30 66 31 60 32 62 33
REMARK SMILES IDX 22 34 65 35 59 36 58 37 23 39 49 40 32 41 48 42 33 43 36 44
REMARK SMILES IDX 47 45 63 46 34 47 35 48 46 50 64 51 37 52 24 53 25 54 30 55
REMARK SMILES IDX 26 56 27 57 29 58 31 59 28 60 50 61 51 62 56 63 52 64 53 65
REMARK SMILES IDX 55 66 57 67 54 68 38 69 39 70 44 71 40 72 41 73 43 74 45 75
REMARK SMILES IDX 42 76
REMARK H PARENT 62 38 36 49
REMARK Flexibility Score: inf
ROOT
ATOM      1  C   UNL A   1      43.163  18.567  25.548  1.00  0.00     0.275 C 
ENDROOT
BRANCH   1   2
ATOM      2  C   UNL A   1      44.475  18.740  24.783  1.00  0.00     0.275 C 
BRANCH   2   3
ATOM      3  O   UNL A   1      44.599  20.084  24.273  1.00  0.00    -0.458 OA
BRANCH   3   4
ATOM      4  C   UNL A   1      45.693  20.770  24.687  1.00  0.00     0.338 C 
ATOM      5  O   UNL A   1      46.811  20.317  24.869  1.00  0.00    -0.246 OA
BRANCH   4   6
ATOM      6  C   UNL A   1      45.384  22.215  24.833  1.00  0.00     0.060 A 
ATOM      7  C   UNL A   1      44.723  24.925  24.998  1.00  0.00     0.131 A 
ATOM      8  C   UNL A   1      43.743  23.988  24.664  1.00  0.00     0.048 A 
ATOM      9  C   UNL A   1      46.031  24.526  25.294  1.00  0.00     0.098 A 
ATOM     10  C   UNL A   1      44.081  22.643  24.549  1.00  0.00     0.019 A 
ATOM     11  C   UNL A   1      46.353  23.154  25.209  1.00  0.00     0.032 A 
BRANCH   7  12
ATOM     12  O   UNL A   1      44.359  26.239  25.084  1.00  0.00    -0.496 OA
ATOM     13  C   UNL A   1      42.942  26.367  25.218  1.00  0.00     0.278 C 
ENDBRANCH   7  12
BRANCH   9  14
ATOM     14  C   UNL A   1      47.113  25.526  25.603  1.00  0.00     0.419 C 
ATOM     15  F   UNL A   1      48.163  24.971  26.276  1.00  0.00    -0.166 F 
ATOM     16  F   UNL A   1      47.651  26.050  24.465  1.00  0.00    -0.166 F 
ATOM     17  F   UNL A   1      46.722  26.588  26.356  1.00  0.00    -0.166 F 
ENDBRANCH   9  14
ENDBRANCH   4   6
ENDBRANCH   3   4
ENDBRANCH   2   3
ENDBRANCH   1   2
BRANCH   1  18
ATOM     18  O   UNL A   1      42.202  19.529  25.079  1.00  0.00    -0.458 OA
BRANCH  18  19
ATOM     19  C   UNL A   1      41.158  19.775  25.899  1.00  0.00     0.338 C 
ATOM     20  O   UNL A   1      40.154  19.098  26.059  1.00  0.00    -0.246 OA
BRANCH  19  21
ATOM     21  C   UNL A   1      41.399  21.032  26.623  1.00  0.00     0.060 A 
ATOM     22  C   UNL A   1      40.840  22.216  26.143  1.00  0.00     0.016 A 
ATOM     23  C   UNL A   1      42.265  21.056  27.715  1.00  0.00     0.016 A 
ATOM     24  C   UNL A   1      41.184  23.438  26.718  1.00  0.00     0.010 A 
ATOM     25  C   UNL A   1      42.560  22.276  28.332  1.00  0.00     0.010 A 
ATOM     26  C   UNL A   1      42.048  23.483  27.822  1.00  0.00    -0.014 A 
BRANCH  26  27
ATOM     27  C   UNL A   1      42.467  24.791  28.397  1.00  0.00     0.031 A 
ATOM     28  C   UNL A   1      41.443  25.870  28.635  1.00  0.00     0.074 A 
ATOM     29  C   UNL A   1      43.753  25.017  28.730  1.00  0.00     0.049 A 
ATOM     30  N   UNL A   1      41.622  27.121  28.978  1.00  0.00    -0.248 NA
ATOM     31  C   UNL A   1      40.032  25.493  28.453  1.00  0.00     0.031 C 
ATOM     32  C   UNL A   1      44.845  24.053  28.598  1.00  0.00     0.029 A 
ATOM     33  N   UNL A   1      44.356  26.133  29.255  1.00  0.00    -0.354 N 
ATOM     34  C   UNL A   1      40.356  27.694  28.994  1.00  0.00     0.074 A 
ATOM     35  C   UNL A   1      39.417  26.652  28.635  1.00  0.00     0.031 C 
ATOM     36  C   UNL A   1      45.977  24.606  29.060  1.00  0.00     0.029 A 
ATOM     37  C   UNL A   1      45.707  25.985  29.455  1.00  0.00     0.049 A 
ATOM     38  H   UNL A   1      43.867  26.960  29.467  1.00  0.00     0.167 HD
ATOM     39  C   UNL A   1      40.009  28.971  29.279  1.00  0.00     0.037 A 
ATOM     40  C   UNL A   1      46.632  26.868  29.877  1.00  0.00     0.037 A 
ATOM     41  C   UNL A   1      40.931  29.994  29.699  1.00  0.00     0.049 A 
ATOM     42  C   UNL A   1      46.224  28.280  30.187  1.00  0.00     0.074 A 
ATOM     43  C   UNL A   1      40.667  31.313  30.025  1.00  0.00     0.029 A 
ATOM     44  N   UNL A   1      42.293  29.805  29.871  1.00  0.00    -0.354 N 
ATOM     45  N   UNL A   1      45.034  28.824  30.138  1.00  0.00    -0.248 NA
ATOM     46  C   UNL A   1      47.294  29.205  30.590  1.00  0.00     0.031 C 
ATOM     47  C   UNL A   1      41.874  31.928  30.375  1.00  0.00     0.029 A 
ATOM     48  C   UNL A   1      42.884  30.984  30.293  1.00  0.00     0.049 A 
ATOM     49  H   UNL A   1      42.769  28.957  29.715  1.00  0.00     0.167 HD
ATOM     50  C   UNL A   1      45.208  30.153  30.503  1.00  0.00     0.074 A 
ATOM     51  C   UNL A   1      46.617  30.327  30.794  1.00  0.00     0.031 C 
ATOM     52  C   UNL A   1      44.285  31.141  30.578  1.00  0.00     0.037 A 
BRANCH  39  53
ATOM     53  C   UNL A   1      38.567  29.347  29.115  1.00  0.00     0.057 A 
ATOM     54  C   UNL A   1      38.022  29.679  27.870  1.00  0.00     0.134 A 
ATOM     55  C   UNL A   1      37.706  29.340  30.220  1.00  0.00     0.134 A 
ATOM     56  F   UNL A   1      38.798  29.717  26.776  1.00  0.00    -0.206 F 
ATOM     57  C   UNL A   1      36.672  30.008  27.731  1.00  0.00     0.040 A 
ATOM     58  C   UNL A   1      36.351  29.648  30.090  1.00  0.00     0.040 A 
ATOM     59  F   UNL A   1      38.167  29.027  31.441  1.00  0.00    -0.206 F 
ATOM     60  C   UNL A   1      35.832  29.988  28.843  1.00  0.00     0.006 A 
ENDBRANCH  39  53
BRANCH  40  61
ATOM     61  C   UNL A   1      48.050  26.447  29.999  1.00  0.00     0.057 A 
ATOM     62  C   UNL A   1      48.499  25.733  31.114  1.00  0.00     0.134 A 
ATOM     63  C   UNL A   1      48.986  26.746  29.002  1.00  0.00     0.134 A 
ATOM     64  F   UNL A   1      47.653  25.441  32.114  1.00  0.00    -0.206 F 
ATOM     65  C   UNL A   1      49.831  25.332  31.237  1.00  0.00     0.040 A 
ATOM     66  C   UNL A   1      50.315  26.332  29.100  1.00  0.00     0.040 A 
ATOM     67  F   UNL A   1      48.616  27.430  27.908  1.00  0.00    -0.206 F 
ATOM     68  C   UNL A   1      50.741  25.625  30.222  1.00  0.00     0.006 A 
ENDBRANCH  40  61
BRANCH  52  69
ATOM     69  C   UNL A   1      44.769  32.493  31.003  1.00  0.00     0.057 A 
ATOM     70  C   UNL A   1      45.179  33.452  30.069  1.00  0.00     0.134 A 
ATOM     71  C   UNL A   1      44.797  32.851  32.356  1.00  0.00     0.134 A 
ATOM     72  F   UNL A   1      45.187  33.163  28.758  1.00  0.00    -0.206 F 
ATOM     73  C   UNL A   1      45.615  34.716  30.467  1.00  0.00     0.040 A 
ATOM     74  C   UNL A   1      45.214  34.118  32.765  1.00  0.00     0.040 A 
ATOM     75  F   UNL A   1      44.412  31.978  33.299  1.00  0.00    -0.206 F 
ATOM     76  C   UNL A   1      45.628  35.053  31.819  1.00  0.00     0.006 A 
ENDBRANCH  52  69
ENDBRANCH  26  27
ENDBRANCH  19  21
ENDBRANCH  18  19
ENDBRANCH   1  18
TORSDOF 13
ENDMDL
MODEL 2
REMARK VINA RESULT:      -9.8      3.969      8.484
REMARK SMILES COc1ccc(C(=O)OCCOC(=O)c2ccc(-c3c4nc(c(-c5c(F)cccc5F)c5ccc([nH]5)c(-c5c(F)cccc5F)c5nc(c(-c6c(F)cccc6F)c6ccc3[nH]6)C=C5)C=C4)cc2)cc1C(F)(F)F
REMARK SMILES IDX 11 1 10 2 9 3 7 4 8 5 6 6 3 7 4 8 70 9 5 10 69 11 2 12 1 13
REMARK SMILES IDX 71 14 72 15 73 16 74 17 12 18 13 19 14 20 15 21 16 22 68 23
REMARK SMILES IDX 17 24 67 25 18 26 19 27 20 28 61 29 21 30 66 31 60 32 62 33
REMARK SMILES IDX 22 34 65 35 59 36 58 37 23 39 49 40 32 41 48 42 33 43 36 44
REMARK SMILES IDX 47 45 63 46 34 47 35 48 46 50 64 51 37 52 24 53 25 54 30 55
REMARK SMILES IDX 26 56 27 57 29 58 31 59 28 60 50 61 51 62 56 63 52 64 53 65
REMARK SMILES IDX 55 66 57 67 54 68 38 69 39 70 44 71 40 72 41 73 43 74 45 75
REMARK SMILES IDX 42 76
REMARK H PARENT 62 38 36 49
REMARK Flexibility Score: inf
ROOT
ATOM      1  C   UNL A   1      43.818  21.538  24.943  1.00  0.00     0.275 C 
ENDROOT
BRANCH   1   2
ATOM      2  C   UNL A   1      43.422  20.368  25.843  1.00  0.00     0.275 C 
BRANCH   2   3
ATOM      3  O   UNL A   1      42.084  19.919  25.542  1.00  0.00    -0.458 OA
BRANCH   3   4
ATOM      4  C   UNL A   1      41.195  20.000  26.562  1.00  0.00     0.338 C 
ATOM      5  O   UNL A   1      41.426  19.823  27.747  1.00  0.00    -0.246 OA
BRANCH   4   6
ATOM      6  C   UNL A   1      39.859  20.418  26.064  1.00  0.00     0.060 A 
ATOM      7  C   UNL A   1      37.365  21.122  25.021  1.00  0.00     0.131 A 
ATOM      8  C   UNL A   1      37.804  19.799  24.943  1.00  0.00     0.048 A 
ATOM      9  C   UNL A   1      38.138  22.103  25.653  1.00  0.00     0.098 A 
ATOM     10  C   UNL A   1      39.061  19.457  25.433  1.00  0.00     0.019 A 
ATOM     11  C   UNL A   1      39.395  21.735  26.178  1.00  0.00     0.032 A 
BRANCH   7  12
ATOM     12  O   UNL A   1      36.133  21.426  24.513  1.00  0.00    -0.496 OA
ATOM     13  C   UNL A   1      35.097  20.924  25.358  1.00  0.00     0.278 C 
ENDBRANCH   7  12
BRANCH   9  14
ATOM     14  C   UNL A   1      37.705  23.545  25.699  1.00  0.00     0.419 C 
ATOM     15  F   UNL A   1      37.135  23.958  24.529  1.00  0.00    -0.166 F 
ATOM     16  F   UNL A   1      36.756  23.752  26.656  1.00  0.00    -0.166 F 
ATOM     17  F   UNL A   1      38.697  24.438  25.954  1.00  0.00    -0.166 F 
ENDBRANCH   9  14
ENDBRANCH   4   6
ENDBRANCH   3   4
ENDBRANCH   2   3
ENDBRANCH   1   2
BRANCH   1  18
ATOM     18  O   UNL A   1      43.011  22.685  25.263  1.00  0.00    -0.458 OA
BRANCH  18  19
ATOM     19  C   UNL A   1      43.608  23.889  25.131  1.00  0.00     0.338 C 
ATOM     20  O   UNL A   1      44.497  24.204  24.353  1.00  0.00    -0.246 OA
BRANCH  19  21
ATOM     21  C   UNL A   1      43.017  24.830  26.093  1.00  0.00     0.060 A 
ATOM     22  C   UNL A   1      43.413  26.167  26.075  1.00  0.00     0.016 A 
ATOM     23  C   UNL A   1      42.152  24.367  27.083  1.00  0.00     0.016 A 
ATOM     24  C   UNL A   1      42.989  27.038  27.076  1.00  0.00     0.010 A 
ATOM     25  C   UNL A   1      41.675  25.257  28.051  1.00  0.00     0.010 A 
ATOM     26  C   UNL A   1      42.112  26.594  28.077  1.00  0.00    -0.014 A 
BRANCH  26  27
ATOM     27  C   UNL A   1      41.708  27.506  29.183  1.00  0.00     0.031 A 
ATOM     28  C   UNL A   1      42.500  27.531  30.463  1.00  0.00     0.074 A 
ATOM     29  C   UNL A   1      40.650  28.329  29.045  1.00  0.00     0.049 A 
ATOM     30  N   UNL A   1      42.228  28.131  31.595  1.00  0.00    -0.248 NA
ATOM     31  C   UNL A   1      43.761  26.772  30.474  1.00  0.00     0.031 C 
ATOM     32  C   UNL A   1      39.817  28.446  27.849  1.00  0.00     0.029 A 
ATOM     33  N   UNL A   1      40.100  29.230  29.923  1.00  0.00    -0.354 N 
ATOM     34  C   UNL A   1      43.248  27.774  32.468  1.00  0.00     0.074 A 
ATOM     35  C   UNL A   1      44.151  26.913  31.733  1.00  0.00     0.031 C 
ATOM     36  C   UNL A   1      38.883  29.388  28.055  1.00  0.00     0.029 A 
ATOM     37  C   UNL A   1      39.006  29.890  29.420  1.00  0.00     0.049 A 
ATOM     38  H   UNL A   1      40.456  29.387  30.828  1.00  0.00     0.167 HD
ATOM     39  C   UNL A   1      43.417  28.130  33.764  1.00  0.00     0.037 A 
ATOM     40  C   UNL A   1      38.174  30.776  30.000  1.00  0.00     0.037 A 
ATOM     41  C   UNL A   1      42.559  29.037  34.479  1.00  0.00     0.049 A 
ATOM     42  C   UNL A   1      38.379  31.156  31.439  1.00  0.00     0.074 A 
ATOM     43  C   UNL A   1      42.661  29.469  35.791  1.00  0.00     0.029 A 
ATOM     44  N   UNL A   1      41.451  29.669  33.936  1.00  0.00    -0.354 N 
ATOM     45  N   UNL A   1      39.312  30.763  32.270  1.00  0.00    -0.248 NA
ATOM     46  C   UNL A   1      37.402  32.086  32.025  1.00  0.00     0.031 C 
ATOM     47  C   UNL A   1      41.601  30.347  36.047  1.00  0.00     0.029 A 
ATOM     48  C   UNL A   1      40.858  30.483  34.886  1.00  0.00     0.049 A 
ATOM     49  H   UNL A   1      41.134  29.555  33.010  1.00  0.00     0.167 HD
ATOM     50  C   UNL A   1      39.036  31.395  33.476  1.00  0.00     0.074 A 
ATOM     51  C   UNL A   1      37.863  32.217  33.261  1.00  0.00     0.031 C 
ATOM     52  C   UNL A   1      39.691  31.293  34.657  1.00  0.00     0.037 A 
BRANCH  39  53
ATOM     53  C   UNL A   1      44.560  27.509  34.506  1.00  0.00     0.057 A 
ATOM     54  C   UNL A   1      45.793  28.155  34.651  1.00  0.00     0.134 A 
ATOM     55  C   UNL A   1      44.409  26.256  35.116  1.00  0.00     0.134 A 
ATOM     56  F   UNL A   1      46.006  29.350  34.078  1.00  0.00    -0.206 F 
ATOM     57  C   UNL A   1      46.843  27.570  35.362  1.00  0.00     0.040 A 
ATOM     58  C   UNL A   1      45.444  25.670  35.846  1.00  0.00     0.040 A 
ATOM     59  F   UNL A   1      43.250  25.587  35.018  1.00  0.00    -0.206 F 
ATOM     60  C   UNL A   1      46.667  26.326  35.967  1.00  0.00     0.006 A 
ENDBRANCH  39  53
BRANCH  40  61
ATOM     61  C   UNL A   1      37.043  31.342  29.224  1.00  0.00     0.057 A 
ATOM     62  C   UNL A   1      37.095  32.645  28.717  1.00  0.00     0.134 A 
ATOM     63  C   UNL A   1      35.889  30.593  28.968  1.00  0.00     0.134 A 
ATOM     64  F   UNL A   1      38.164  33.419  28.953  1.00  0.00    -0.206 F 
ATOM     65  C   UNL A   1      36.036  33.185  27.984  1.00  0.00     0.040 A 
ATOM     66  C   UNL A   1      34.833  31.112  28.218  1.00  0.00     0.040 A 
ATOM     67  F   UNL A   1      35.780  29.338  29.429  1.00  0.00    -0.206 F 
ATOM     68  C   UNL A   1      34.904  32.413  27.726  1.00  0.00     0.006 A 
ENDBRANCH  40  61
BRANCH  52  69
ATOM     69  C   UNL A   1      39.160  32.101  35.802  1.00  0.00     0.057 A 
ATOM     70  C   UNL A   1      38.263  31.556  36.728  1.00  0.00     0.134 A 
ATOM     71  C   UNL A   1      39.573  33.424  35.997  1.00  0.00     0.134 A 
ATOM     72  F   UNL A   1      37.821  30.296  36.586  1.00  0.00    -0.206 F 
ATOM     73  C   UNL A   1      37.781  32.304  37.802  1.00  0.00     0.040 A 
ATOM     74  C   UNL A   1      39.112  34.177  37.077  1.00  0.00     0.040 A 
ATOM     75  F   UNL A   1      40.435  34.001  35.147  1.00  0.00    -0.206 F 
ATOM     76  C   UNL A   1      38.210  33.619  37.981  1.00  0.00     0.006 A 
ENDBRANCH  52  69
ENDBRANCH  26  27
ENDBRANCH  19  21
ENDBRANCH  18  19
ENDBRANCH   1  18
TORSDOF 13
ENDMDL
MODEL 3
REMARK VINA RESULT:      -9.5      4.525     10.701
REMARK SMILES COc1ccc(C(=O)OCCOC(=O)c2ccc(-c3c4nc(c(-c5c(F)cccc5F)c5ccc([nH]5)c(-c5c(F)cccc5F)c5nc(c(-c6c(F)cccc6F)c6ccc3[nH]6)C=C5)C=C4)cc2)cc1C(F)(F)F
REMARK SMILES IDX 11 1 10 2 9 3 7 4 8 5 6 6 3 7 4 8 70 9 5 10 69 11 2 12 1 13
REMARK SMILES IDX 71 14 72 15 73 16 74 17 12 18 13 19 14 20 15 21 16 22 68 23
REMARK SMILES IDX 17 24 67 25 18 26 19 27 20 28 61 29 21 30 66 31 60 32 62 33
REMARK SMILES IDX 22 34 65 35 59 36 58 37 23 39 49 40 32 41 48 42 33 43 36 44
REMARK SMILES IDX 47 45 63 46 34 47 35 48 46 50 64 51 37 52 24 53 25 54 30 55
REMARK SMILES IDX 26 56 27 57 29 58 31 59 28 60 50 61 51 62 56 63 52 64 53 65
REMARK SMILES IDX 55 66 57 67 54 68 38 69 39 70 44 71 40 72 41 73 43 74 45 75
REMARK SMILES IDX 42 76
REMARK H PARENT 62 38 36 49
REMARK Flexibility Score: inf
ROOT
ATOM      1  C   UNL A   1      34.363  33.854  30.669  1.00  0.00     0.275 C 
ENDROOT
BRANCH   1   2
ATOM      2  C   UNL A   1      34.042  34.072  29.191  1.00  0.00     0.275 C 
BRANCH   2   3
ATOM      3  O   UNL A   1      34.071  32.823  28.469  1.00  0.00    -0.458 OA
BRANCH   3   4
ATOM      4  C   UNL A   1      32.989  32.568  27.693  1.00  0.00     0.338 C 
ATOM      5  O   UNL A   1      32.055  33.323  27.474  1.00  0.00    -0.246 OA
BRANCH   4   6
ATOM      6  C   UNL A   1      33.102  31.234  27.053  1.00  0.00     0.060 A 
ATOM      7  C   UNL A   1      33.450  28.742  25.839  1.00  0.00     0.131 A 
ATOM      8  C   UNL A   1      34.376  29.192  26.782  1.00  0.00     0.048 A 
ATOM      9  C   UNL A   1      32.320  29.501  25.517  1.00  0.00     0.098 A 
ATOM     10  C   UNL A   1      34.219  30.448  27.360  1.00  0.00     0.019 A 
ATOM     11  C   UNL A   1      32.154  30.758  26.138  1.00  0.00     0.032 A 
BRANCH   7  12
ATOM     12  O   UNL A   1      33.645  27.511  25.277  1.00  0.00    -0.496 OA
ATOM     13  C   UNL A   1      33.144  26.478  26.128  1.00  0.00     0.278 C 
ENDBRANCH   7  12
BRANCH   9  14
ATOM     14  C   UNL A   1      31.339  29.056  24.464  1.00  0.00     0.419 C 
ATOM     15  F   UNL A   1      30.621  27.960  24.846  1.00  0.00    -0.166 F 
ATOM     16  F   UNL A   1      30.413  30.022  24.203  1.00  0.00    -0.166 F 
ATOM     17  F   UNL A   1      31.888  28.730  23.264  1.00  0.00    -0.166 F 
ENDBRANCH   9  14
ENDBRANCH   4   6
ENDBRANCH   3   4
ENDBRANCH   2   3
ENDBRANCH   1   2
BRANCH   1  18
ATOM     18  O   UNL A   1      34.529  32.447  30.923  1.00  0.00    -0.458 OA
BRANCH  18  19
ATOM     19  C   UNL A   1      35.409  32.118  31.892  1.00  0.00     0.338 C 
ATOM     20  O   UNL A   1      35.322  32.339  33.090  1.00  0.00    -0.246 OA
BRANCH  19  21
ATOM     21  C   UNL A   1      36.549  31.412  31.289  1.00  0.00     0.060 A 
ATOM     22  C   UNL A   1      37.475  30.776  32.116  1.00  0.00     0.016 A 
ATOM     23  C   UNL A   1      36.760  31.471  29.913  1.00  0.00     0.016 A 
ATOM     24  C   UNL A   1      38.644  30.241  31.579  1.00  0.00     0.010 A 
ATOM     25  C   UNL A   1      37.903  30.877  29.367  1.00  0.00     0.010 A 
ATOM     26  C   UNL A   1      38.872  30.283  30.196  1.00  0.00    -0.014 A 
BRANCH  26  27
ATOM     27  C   UNL A   1      40.149  29.769  29.628  1.00  0.00     0.031 A 
ATOM     28  C   UNL A   1      41.351  30.672  29.543  1.00  0.00     0.074 A 
ATOM     29  C   UNL A   1      40.250  28.494  29.205  1.00  0.00     0.049 A 
ATOM     30  N   UNL A   1      42.499  30.471  28.945  1.00  0.00    -0.248 NA
ATOM     31  C   UNL A   1      41.244  31.979  30.211  1.00  0.00     0.031 C 
ATOM     32  C   UNL A   1      39.185  27.493  29.265  1.00  0.00     0.029 A 
ATOM     33  N   UNL A   1      41.308  27.821  28.645  1.00  0.00    -0.354 N 
ATOM     34  C   UNL A   1      43.225  31.643  29.114  1.00  0.00     0.074 A 
ATOM     35  C   UNL A   1      42.392  32.550  29.876  1.00  0.00     0.031 C 
ATOM     36  C   UNL A   1      39.653  26.326  28.793  1.00  0.00     0.029 A 
ATOM     37  C   UNL A   1      41.025  26.514  28.333  1.00  0.00     0.049 A 
ATOM     38  H   UNL A   1      42.186  28.236  28.482  1.00  0.00     0.167 HD
ATOM     39  C   UNL A   1      44.470  31.939  28.671  1.00  0.00     0.037 A 
ATOM     40  C   UNL A   1      41.772  25.578  27.716  1.00  0.00     0.037 A 
ATOM     41  C   UNL A   1      45.326  31.020  27.968  1.00  0.00     0.049 A 
ATOM     42  C   UNL A   1      43.150  25.929  27.232  1.00  0.00     0.074 A 
ATOM     43  C   UNL A   1      46.610  31.227  27.494  1.00  0.00     0.029 A 
ATOM     44  N   UNL A   1      44.992  29.712  27.657  1.00  0.00    -0.354 N 
ATOM     45  N   UNL A   1      43.799  27.061  27.343  1.00  0.00    -0.248 NA
ATOM     46  C   UNL A   1      43.889  24.877  26.518  1.00  0.00     0.031 C 
ATOM     47  C   UNL A   1      47.045  30.048  26.878  1.00  0.00     0.029 A 
ATOM     48  C   UNL A   1      46.042  29.100  26.994  1.00  0.00     0.049 A 
ATOM     49  H   UNL A   1      44.133  29.281  27.876  1.00  0.00     0.167 HD
ATOM     50  C   UNL A   1      45.022  26.860  26.714  1.00  0.00     0.074 A 
ATOM     51  C   UNL A   1      45.033  25.489  26.245  1.00  0.00     0.031 C 
ATOM     52  C   UNL A   1      46.038  27.737  26.533  1.00  0.00     0.037 A 
BRANCH  39  53
ATOM     53  C   UNL A   1      44.972  33.331  28.905  1.00  0.00     0.057 A 
ATOM     54  C   UNL A   1      45.733  33.669  30.030  1.00  0.00     0.134 A 
ATOM     55  C   UNL A   1      44.718  34.341  27.967  1.00  0.00     0.134 A 
ATOM     56  F   UNL A   1      45.998  32.750  30.972  1.00  0.00    -0.206 F 
ATOM     57  C   UNL A   1      46.209  34.967  30.224  1.00  0.00     0.040 A 
ATOM     58  C   UNL A   1      45.206  35.637  28.140  1.00  0.00     0.040 A 
ATOM     59  F   UNL A   1      43.999  34.080  26.864  1.00  0.00    -0.206 F 
ATOM     60  C   UNL A   1      45.950  35.954  29.274  1.00  0.00     0.006 A 
ENDBRANCH  39  53
BRANCH  40  61
ATOM     61  C   UNL A   1      41.214  24.222  27.489  1.00  0.00     0.057 A 
ATOM     62  C   UNL A   1      41.650  23.126  28.241  1.00  0.00     0.134 A 
ATOM     63  C   UNL A   1      40.231  23.992  26.519  1.00  0.00     0.134 A 
ATOM     64  F   UNL A   1      42.608  23.281  29.167  1.00  0.00    -0.206 F 
ATOM     65  C   UNL A   1      41.130  21.847  28.035  1.00  0.00     0.040 A 
ATOM     66  C   UNL A   1      39.686  22.723  26.318  1.00  0.00     0.040 A 
ATOM     67  F   UNL A   1      39.774  25.003  25.765  1.00  0.00    -0.206 F 
ATOM     68  C   UNL A   1      40.138  21.645  27.077  1.00  0.00     0.006 A 
ENDBRANCH  40  61
BRANCH  52  69
ATOM     69  C   UNL A   1      47.249  27.235  25.809  1.00  0.00     0.057 A 
ATOM     70  C   UNL A   1      47.406  27.418  24.430  1.00  0.00     0.134 A 
ATOM     71  C   UNL A   1      48.281  26.592  26.501  1.00  0.00     0.134 A 
ATOM     72  F   UNL A   1      46.444  28.017  23.711  1.00  0.00    -0.206 F 
ATOM     73  C   UNL A   1      48.542  26.964  23.760  1.00  0.00     0.040 A 
ATOM     74  C   UNL A   1      49.431  26.148  25.846  1.00  0.00     0.040 A 
ATOM     75  F   UNL A   1      48.193  26.391  27.824  1.00  0.00    -0.206 F 
ATOM     76  C   UNL A   1      49.561  26.331  24.470  1.00  0.00     0.006 A 
ENDBRANCH  52  69
ENDBRANCH  26  27
ENDBRANCH  19  21
ENDBRANCH  18  19
ENDBRANCH   1  18
TORSDOF 13
ENDMDL
