MODEL 1
REMARK VINA RESULT:     -11.4      0.000      0.000
REMARK SMILES CN1CC(=O)N(CC(=O)N2CCCC[C@H]2C(=O)OCCOC(=O)c2ccc(-c3c4nc(c(-c5c(F)cccc5F)c5ccc([nH]5)c(-c5c(F)cccc5F)c5nc(c(-c6c(F)cccc6F)c6ccc3[nH]6)C=C5)C=C4)cc2)C1=O
REMARK SMILES IDX 19 1 18 2 16 3 17 4 15 5 10 6 11 7 12 8 14 9 13 10 8 11 9 12
REMARK SMILES IDX 7 13 6 14 1 15 2 16 3 17 78 18 4 19 79 20 5 21 20 22 21 23
REMARK SMILES IDX 22 24 23 25 24 26 25 27 77 28 26 29 76 30 27 31 28 32 29 33
REMARK SMILES IDX 70 34 30 35 75 36 69 37 71 38 31 39 74 40 68 41 67 42 32 44
REMARK SMILES IDX 58 45 41 46 57 47 42 48 45 49 56 50 72 51 43 52 44 53 55 55
REMARK SMILES IDX 73 56 46 57 33 58 34 59 39 60 35 61 36 62 38 63 40 64 37 65
REMARK SMILES IDX 59 66 60 67 65 68 61 69 62 70 64 71 66 72 63 73 47 74 48 75
REMARK SMILES IDX 53 76 49 77 50 78 52 79 54 80 51 81
REMARK H PARENT 71 43 45 54
REMARK Flexibility Score: inf
ROOT
ATOM      1  C   UNL A   1      31.139  29.390  24.194  1.00  0.00     0.274 C 
ENDROOT
BRANCH   1   2
ATOM      2  O   UNL A   1      31.416  28.186  23.447  1.00  0.00    -0.461 OA
BRANCH   2   3
ATOM      3  C   UNL A   1      30.568  27.139  23.625  1.00  0.00     0.328 C 
ATOM      4  O   UNL A   1      29.373  27.252  23.877  1.00  0.00    -0.250 OA
BRANCH   3   5
ATOM      5  C   UNL A   1      31.303  25.783  23.690  1.00  0.00     0.195 C 
ATOM      6  N   UNL A   1      32.756  25.746  23.415  1.00  0.00    -0.327 N 
ATOM      7  C   UNL A   1      33.608  26.286  24.484  1.00  0.00     0.120 C 
ATOM      8  C   UNL A   1      33.374  25.532  25.786  1.00  0.00     0.022 C 
ATOM      9  C   UNL A   1      30.996  25.116  25.047  1.00  0.00     0.037 C 
ATOM     10  C   UNL A   1      31.903  25.592  26.185  1.00  0.00     0.005 C 
BRANCH   6  11
ATOM     11  C   UNL A   1      33.394  25.043  22.397  1.00  0.00     0.243 C 
ATOM     12  O   UNL A   1      33.653  25.623  21.329  1.00  0.00    -0.273 OA
BRANCH  11  13
ATOM     13  C   UNL A   1      33.595  23.514  22.382  1.00  0.00     0.230 C 
BRANCH  13  14
ATOM     14  N   UNL A   1      34.327  22.769  23.375  1.00  0.00    -0.253 N 
ATOM     15  C   UNL A   1      37.347  21.649  25.008  1.00  0.00     0.149 C 
ATOM     16  N   UNL A   1      36.008  22.013  24.614  1.00  0.00    -0.318 N 
ATOM     17  C   UNL A   1      34.837  21.563  25.324  1.00  0.00     0.221 C 
ATOM     18  C   UNL A   1      35.686  22.751  23.495  1.00  0.00     0.327 C 
ATOM     19  C   UNL A   1      33.745  22.106  24.418  1.00  0.00     0.250 C 
ATOM     20  O   UNL A   1      36.483  23.280  22.737  1.00  0.00    -0.248 OA
ATOM     21  O   UNL A   1      32.546  21.967  24.610  1.00  0.00    -0.272 OA
ENDBRANCH  13  14
ENDBRANCH  11  13
ENDBRANCH   6  11
ENDBRANCH   3   5
ENDBRANCH   2   3
ENDBRANCH   1   2
BRANCH   1  22
ATOM     22  C   UNL A   1      31.725  29.244  25.593  1.00  0.00     0.275 C 
BRANCH  22  23
ATOM     23  O   UNL A   1      32.918  30.040  25.657  1.00  0.00    -0.458 OA
BRANCH  23  24
ATOM     24  C   UNL A   1      32.990  30.918  26.682  1.00  0.00     0.338 C 
ATOM     25  O   UNL A   1      32.149  31.723  27.040  1.00  0.00    -0.246 OA
BRANCH  24  26
ATOM     26  C   UNL A   1      34.294  30.749  27.340  1.00  0.00     0.060 A 
ATOM     27  C   UNL A   1      34.714  29.476  27.722  1.00  0.00     0.016 A 
ATOM     28  C   UNL A   1      35.074  31.867  27.630  1.00  0.00     0.016 A 
ATOM     29  C   UNL A   1      35.908  29.325  28.426  1.00  0.00     0.010 A 
ATOM     30  C   UNL A   1      36.298  31.700  28.286  1.00  0.00     0.010 A 
ATOM     31  C   UNL A   1      36.720  30.427  28.708  1.00  0.00    -0.014 A 
BRANCH  31  32
ATOM     32  C   UNL A   1      37.982  30.270  29.480  1.00  0.00     0.031 A 
ATOM     33  C   UNL A   1      39.085  29.418  28.920  1.00  0.00     0.074 A 
ATOM     34  C   UNL A   1      38.158  30.878  30.669  1.00  0.00     0.049 A 
ATOM     35  N   UNL A   1      40.114  28.887  29.528  1.00  0.00    -0.248 NA
ATOM     36  C   UNL A   1      39.014  29.119  27.481  1.00  0.00     0.031 C 
ATOM     37  C   UNL A   1      37.236  31.830  31.288  1.00  0.00     0.029 A 
ATOM     38  N   UNL A   1      39.180  30.767  31.581  1.00  0.00    -0.354 N 
ATOM     39  C   UNL A   1      40.775  28.137  28.564  1.00  0.00     0.074 A 
ATOM     40  C   UNL A   1      40.044  28.297  27.325  1.00  0.00     0.031 C 
ATOM     41  C   UNL A   1      37.733  32.219  32.472  1.00  0.00     0.029 A 
ATOM     42  C   UNL A   1      38.952  31.465  32.743  1.00  0.00     0.049 A 
ATOM     43  H   UNL A   1      39.996  30.239  31.418  1.00  0.00     0.167 HD
ATOM     44  C   UNL A   1      41.883  27.373  28.710  1.00  0.00     0.037 A 
ATOM     45  C   UNL A   1      39.606  31.446  33.920  1.00  0.00     0.037 A 
ATOM     46  C   UNL A   1      42.631  27.261  29.934  1.00  0.00     0.049 A 
ATOM     47  C   UNL A   1      40.783  30.529  34.092  1.00  0.00     0.074 A 
ATOM     48  C   UNL A   1      43.752  26.494  30.198  1.00  0.00     0.029 A 
ATOM     49  N   UNL A   1      42.339  27.957  31.098  1.00  0.00    -0.354 N 
ATOM     50  N   UNL A   1      41.339  29.727  33.216  1.00  0.00    -0.248 NA
ATOM     51  C   UNL A   1      41.407  30.491  35.422  1.00  0.00     0.031 C 
ATOM     52  C   UNL A   1      44.123  26.704  31.531  1.00  0.00     0.029 A 
ATOM     53  C   UNL A   1      43.256  27.632  32.084  1.00  0.00     0.049 A 
ATOM     54  H   UNL A   1      41.592  28.588  31.207  1.00  0.00     0.167 HD
ATOM     55  C   UNL A   1      42.385  29.103  33.882  1.00  0.00     0.074 A 
ATOM     56  C   UNL A   1      42.393  29.625  35.233  1.00  0.00     0.031 C 
ATOM     57  C   UNL A   1      43.259  28.178  33.417  1.00  0.00     0.037 A 
BRANCH  44  58
ATOM     58  C   UNL A   1      42.320  26.552  27.533  1.00  0.00     0.057 A 
ATOM     59  C   UNL A   1      41.879  25.240  27.329  1.00  0.00     0.134 A 
ATOM     60  C   UNL A   1      43.177  27.104  26.571  1.00  0.00     0.134 A 
ATOM     61  F   UNL A   1      41.070  24.649  28.222  1.00  0.00    -0.206 F 
ATOM     62  C   UNL A   1      42.288  24.498  26.219  1.00  0.00     0.040 A 
ATOM     63  C   UNL A   1      43.574  26.381  25.445  1.00  0.00     0.040 A 
ATOM     64  F   UNL A   1      43.632  28.359  26.704  1.00  0.00    -0.206 F 
ATOM     65  C   UNL A   1      43.133  25.071  25.270  1.00  0.00     0.006 A 
ENDBRANCH  44  58
BRANCH  45  66
ATOM     66  C   UNL A   1      39.108  32.266  35.054  1.00  0.00     0.057 A 
ATOM     67  C   UNL A   1      39.455  33.616  35.179  1.00  0.00     0.134 A 
ATOM     68  C   UNL A   1      38.273  31.720  36.038  1.00  0.00     0.134 A 
ATOM     69  F   UNL A   1      40.274  34.188  34.285  1.00  0.00    -0.206 F 
ATOM     70  C   UNL A   1      38.991  34.393  36.243  1.00  0.00     0.040 A 
ATOM     71  C   UNL A   1      37.780  32.492  37.090  1.00  0.00     0.040 A 
ATOM     72  F   UNL A   1      37.908  30.431  35.978  1.00  0.00    -0.206 F 
ATOM     73  C   UNL A   1      38.143  33.833  37.197  1.00  0.00     0.006 A 
ENDBRANCH  45  66
BRANCH  57  74
ATOM     74  C   UNL A   1      44.329  27.711  34.355  1.00  0.00     0.057 A 
ATOM     75  C   UNL A   1      44.169  26.570  35.150  1.00  0.00     0.134 A 
ATOM     76  C   UNL A   1      45.555  28.384  34.423  1.00  0.00     0.134 A 
ATOM     77  F   UNL A   1      43.012  25.890  35.138  1.00  0.00    -0.206 F 
ATOM     78  C   UNL A   1      45.189  26.121  35.990  1.00  0.00     0.040 A 
ATOM     79  C   UNL A   1      46.590  27.934  35.243  1.00  0.00     0.040 A 
ATOM     80  F   UNL A   1      45.771  29.481  33.681  1.00  0.00    -0.206 F 
ATOM     81  C   UNL A   1      46.406  26.799  36.031  1.00  0.00     0.006 A 
ENDBRANCH  57  74
ENDBRANCH  31  32
ENDBRANCH  24  26
ENDBRANCH  23  24
ENDBRANCH  22  23
ENDBRANCH   1  22
TORSDOF 14
ENDMDL
MODEL 2
REMARK VINA RESULT:     -11.4      1.063      1.780
REMARK SMILES CN1CC(=O)N(CC(=O)N2CCCC[C@H]2C(=O)OCCOC(=O)c2ccc(-c3c4nc(c(-c5c(F)cccc5F)c5ccc([nH]5)c(-c5c(F)cccc5F)c5nc(c(-c6c(F)cccc6F)c6ccc3[nH]6)C=C5)C=C4)cc2)C1=O
REMARK SMILES IDX 19 1 18 2 16 3 17 4 15 5 10 6 11 7 12 8 14 9 13 10 8 11 9 12
REMARK SMILES IDX 7 13 6 14 1 15 2 16 3 17 78 18 4 19 79 20 5 21 20 22 21 23
REMARK SMILES IDX 22 24 23 25 24 26 25 27 77 28 26 29 76 30 27 31 28 32 29 33
REMARK SMILES IDX 70 34 30 35 75 36 69 37 71 38 31 39 74 40 68 41 67 42 32 44
REMARK SMILES IDX 58 45 41 46 57 47 42 48 45 49 56 50 72 51 43 52 44 53 55 55
REMARK SMILES IDX 73 56 46 57 33 58 34 59 39 60 35 61 36 62 38 63 40 64 37 65
REMARK SMILES IDX 59 66 60 67 65 68 61 69 62 70 64 71 66 72 63 73 47 74 48 75
REMARK SMILES IDX 53 76 49 77 50 78 52 79 54 80 51 81
REMARK H PARENT 71 43 45 54
REMARK Flexibility Score: inf
ROOT
ATOM      1  C   UNL A   1      31.630  27.941  25.739  1.00  0.00     0.274 C 
ENDROOT
BRANCH   1   2
ATOM      2  O   UNL A   1      31.432  27.092  24.589  1.00  0.00    -0.461 OA
BRANCH   2   3
ATOM      3  C   UNL A   1      32.546  26.603  23.981  1.00  0.00     0.328 C 
ATOM      4  O   UNL A   1      33.059  27.095  22.982  1.00  0.00    -0.250 OA
BRANCH   3   5
ATOM      5  C   UNL A   1      32.982  25.236  24.549  1.00  0.00     0.195 C 
ATOM      6  N   UNL A   1      31.942  24.288  25.005  1.00  0.00    -0.327 N 
ATOM      7  C   UNL A   1      31.185  23.628  23.933  1.00  0.00     0.120 C 
ATOM      8  C   UNL A   1      32.124  22.861  23.011  1.00  0.00     0.022 C 
ATOM      9  C   UNL A   1      33.922  24.553  23.533  1.00  0.00     0.037 C 
ATOM     10  C   UNL A   1      33.185  23.789  22.431  1.00  0.00     0.005 C 
BRANCH   6  11
ATOM     11  C   UNL A   1      31.783  23.781  26.292  1.00  0.00     0.243 C 
ATOM     12  O   UNL A   1      31.156  24.445  27.134  1.00  0.00    -0.273 OA
BRANCH  11  13
ATOM     13  C   UNL A   1      32.536  22.555  26.848  1.00  0.00     0.230 C 
BRANCH  13  14
ATOM     14  N   UNL A   1      33.515  21.789  26.119  1.00  0.00    -0.253 N 
ATOM     15  C   UNL A   1      36.868  21.045  25.001  1.00  0.00     0.149 C 
ATOM     16  N   UNL A   1      35.474  21.054  25.374  1.00  0.00    -0.318 N 
ATOM     17  C   UNL A   1      34.550  20.029  24.959  1.00  0.00     0.221 C 
ATOM     18  C   UNL A   1      34.852  22.058  26.086  1.00  0.00     0.327 C 
ATOM     19  C   UNL A   1      33.249  20.604  25.493  1.00  0.00     0.250 C 
ATOM     20  O   UNL A   1      35.405  23.025  26.582  1.00  0.00    -0.248 OA
ATOM     21  O   UNL A   1      32.153  20.077  25.376  1.00  0.00    -0.272 OA
ENDBRANCH  13  14
ENDBRANCH  11  13
ENDBRANCH   6  11
ENDBRANCH   3   5
ENDBRANCH   2   3
ENDBRANCH   1   2
BRANCH   1  22
ATOM     22  C   UNL A   1      31.701  29.390  25.273  1.00  0.00     0.275 C 
BRANCH  22  23
ATOM     23  O   UNL A   1      32.962  29.929  25.695  1.00  0.00    -0.458 OA
BRANCH  23  24
ATOM     24  C   UNL A   1      32.910  30.865  26.669  1.00  0.00     0.338 C 
ATOM     25  O   UNL A   1      32.033  31.683  26.876  1.00  0.00    -0.246 OA
BRANCH  24  26
ATOM     26  C   UNL A   1      34.125  30.743  27.488  1.00  0.00     0.060 A 
ATOM     27  C   UNL A   1      34.875  31.880  27.784  1.00  0.00     0.016 A 
ATOM     28  C   UNL A   1      34.551  29.486  27.913  1.00  0.00     0.016 A 
ATOM     29  C   UNL A   1      36.075  31.754  28.483  1.00  0.00     0.010 A 
ATOM     30  C   UNL A   1      35.726  29.376  28.663  1.00  0.00     0.010 A 
ATOM     31  C   UNL A   1      36.511  30.508  28.941  1.00  0.00    -0.014 A 
BRANCH  31  32
ATOM     32  C   UNL A   1      37.803  30.369  29.666  1.00  0.00     0.031 A 
ATOM     33  C   UNL A   1      38.905  29.551  29.055  1.00  0.00     0.074 A 
ATOM     34  C   UNL A   1      38.006  30.963  30.858  1.00  0.00     0.049 A 
ATOM     35  N   UNL A   1      39.966  29.036  29.619  1.00  0.00    -0.248 NA
ATOM     36  C   UNL A   1      38.790  29.273  27.615  1.00  0.00     0.031 C 
ATOM     37  C   UNL A   1      37.084  31.884  31.524  1.00  0.00     0.029 A 
ATOM     38  N   UNL A   1      39.062  30.862  31.733  1.00  0.00    -0.354 N 
ATOM     39  C   UNL A   1      40.611  28.316  28.621  1.00  0.00     0.074 A 
ATOM     40  C   UNL A   1      39.833  28.478  27.410  1.00  0.00     0.031 C 
ATOM     41  C   UNL A   1      37.613  32.266  32.696  1.00  0.00     0.029 A 
ATOM     42  C   UNL A   1      38.858  31.537  32.912  1.00  0.00     0.049 A 
ATOM     43  H   UNL A   1      39.883  30.356  31.533  1.00  0.00     0.167 HD
ATOM     44  C   UNL A   1      41.740  27.576  28.716  1.00  0.00     0.037 A 
ATOM     45  C   UNL A   1      39.553  31.515  34.066  1.00  0.00     0.037 A 
ATOM     46  C   UNL A   1      42.532  27.464  29.912  1.00  0.00     0.049 A 
ATOM     47  C   UNL A   1      40.756  30.623  34.182  1.00  0.00     0.074 A 
ATOM     48  C   UNL A   1      43.679  26.719  30.125  1.00  0.00     0.029 A 
ATOM     49  N   UNL A   1      42.265  28.135  31.096  1.00  0.00    -0.354 N 
ATOM     50  N   UNL A   1      41.299  29.848  33.276  1.00  0.00    -0.248 NA
ATOM     51  C   UNL A   1      41.426  30.580  35.490  1.00  0.00     0.031 C 
ATOM     52  C   UNL A   1      44.091  26.918  31.447  1.00  0.00     0.029 A 
ATOM     53  C   UNL A   1      43.223  27.816  32.045  1.00  0.00     0.049 A 
ATOM     54  H   UNL A   1      41.508  28.746  31.241  1.00  0.00     0.167 HD
ATOM     55  C   UNL A   1      42.382  29.239  33.895  1.00  0.00     0.074 A 
ATOM     56  C   UNL A   1      42.425  29.741  35.253  1.00  0.00     0.031 C 
ATOM     57  C   UNL A   1      43.260  28.341  33.385  1.00  0.00     0.037 A 
BRANCH  44  58
ATOM     58  C   UNL A   1      42.154  26.784  27.512  1.00  0.00     0.057 A 
ATOM     59  C   UNL A   1      41.741  25.463  27.305  1.00  0.00     0.134 A 
ATOM     60  C   UNL A   1      42.960  27.372  26.528  1.00  0.00     0.134 A 
ATOM     61  F   UNL A   1      40.981  24.839  28.218  1.00  0.00    -0.206 F 
ATOM     62  C   UNL A   1      42.128  24.748  26.170  1.00  0.00     0.040 A 
ATOM     63  C   UNL A   1      43.335  26.676  25.377  1.00  0.00     0.040 A 
ATOM     64  F   UNL A   1      43.386  28.637  26.662  1.00  0.00    -0.206 F 
ATOM     65  C   UNL A   1      42.922  25.357  25.199  1.00  0.00     0.006 A 
ENDBRANCH  44  58
BRANCH  45  66
ATOM     66  C   UNL A   1      39.076  32.306  35.230  1.00  0.00     0.057 A 
ATOM     67  C   UNL A   1      39.433  33.650  35.388  1.00  0.00     0.134 A 
ATOM     68  C   UNL A   1      38.252  31.738  36.209  1.00  0.00     0.134 A 
ATOM     69  F   UNL A   1      40.243  34.242  34.498  1.00  0.00    -0.206 F 
ATOM     70  C   UNL A   1      38.989  34.400  36.479  1.00  0.00     0.040 A 
ATOM     71  C   UNL A   1      37.778  32.483  37.289  1.00  0.00     0.040 A 
ATOM     72  F   UNL A   1      37.878  30.453  36.119  1.00  0.00    -0.206 F 
ATOM     73  C   UNL A   1      38.151  33.818  37.429  1.00  0.00     0.006 A 
ENDBRANCH  45  66
BRANCH  57  74
ATOM     74  C   UNL A   1      44.373  27.886  34.279  1.00  0.00     0.057 A 
ATOM     75  C   UNL A   1      44.272  26.720  35.047  1.00  0.00     0.134 A 
ATOM     76  C   UNL A   1      45.578  28.597  34.328  1.00  0.00     0.134 A 
ATOM     77  F   UNL A   1      43.138  26.005  35.052  1.00  0.00    -0.206 F 
ATOM     78  C   UNL A   1      45.331  26.283  35.844  1.00  0.00     0.040 A 
ATOM     79  C   UNL A   1      46.651  28.159  35.104  1.00  0.00     0.040 A 
ATOM     80  F   UNL A   1      45.737  29.718  33.609  1.00  0.00    -0.206 F 
ATOM     81  C   UNL A   1      46.527  26.999  35.867  1.00  0.00     0.006 A 
ENDBRANCH  57  74
ENDBRANCH  31  32
ENDBRANCH  24  26
ENDBRANCH  23  24
ENDBRANCH  22  23
ENDBRANCH   1  22
TORSDOF 14
ENDMDL
MODEL 3
REMARK VINA RESULT:     -11.3      3.628      8.710
REMARK SMILES CN1CC(=O)N(CC(=O)N2CCCC[C@H]2C(=O)OCCOC(=O)c2ccc(-c3c4nc(c(-c5c(F)cccc5F)c5ccc([nH]5)c(-c5c(F)cccc5F)c5nc(c(-c6c(F)cccc6F)c6ccc3[nH]6)C=C5)C=C4)cc2)C1=O
REMARK SMILES IDX 19 1 18 2 16 3 17 4 15 5 10 6 11 7 12 8 14 9 13 10 8 11 9 12
REMARK SMILES IDX 7 13 6 14 1 15 2 16 3 17 78 18 4 19 79 20 5 21 20 22 21 23
REMARK SMILES IDX 22 24 23 25 24 26 25 27 77 28 26 29 76 30 27 31 28 32 29 33
REMARK SMILES IDX 70 34 30 35 75 36 69 37 71 38 31 39 74 40 68 41 67 42 32 44
REMARK SMILES IDX 58 45 41 46 57 47 42 48 45 49 56 50 72 51 43 52 44 53 55 55
REMARK SMILES IDX 73 56 46 57 33 58 34 59 39 60 35 61 36 62 38 63 40 64 37 65
REMARK SMILES IDX 59 66 60 67 65 68 61 69 62 70 64 71 66 72 63 73 47 74 48 75
REMARK SMILES IDX 53 76 49 77 50 78 52 79 54 80 51 81
REMARK H PARENT 71 43 45 54
REMARK Flexibility Score: inf
ROOT
ATOM      1  C   UNL A   1      34.943  20.387  25.005  1.00  0.00     0.274 C 
ENDROOT
BRANCH   1   2
ATOM      2  O   UNL A   1      33.898  21.163  25.627  1.00  0.00    -0.461 OA
BRANCH   2   3
ATOM      3  C   UNL A   1      32.627  20.953  25.192  1.00  0.00     0.328 C 
ATOM      4  O   UNL A   1      32.139  19.846  24.995  1.00  0.00    -0.250 OA
BRANCH   3   5
ATOM      5  C   UNL A   1      31.923  22.258  24.764  1.00  0.00     0.195 C 
ATOM      6  N   UNL A   1      32.337  23.532  25.390  1.00  0.00    -0.327 N 
ATOM      7  C   UNL A   1      33.634  24.057  24.941  1.00  0.00     0.120 C 
ATOM      8  C   UNL A   1      33.627  24.275  23.433  1.00  0.00     0.022 C 
ATOM      9  C   UNL A   1      31.982  22.372  23.225  1.00  0.00     0.037 C 
ATOM     10  C   UNL A   1      33.287  22.980  22.704  1.00  0.00     0.005 C 
BRANCH   6  11
ATOM     11  C   UNL A   1      31.539  24.388  26.144  1.00  0.00     0.243 C 
ATOM     12  O   UNL A   1      31.275  24.092  27.322  1.00  0.00    -0.273 OA
BRANCH  11  13
ATOM     13  C   UNL A   1      30.737  25.572  25.567  1.00  0.00     0.230 C 
BRANCH  13  14
ATOM     14  N   UNL A   1      31.202  26.935  25.515  1.00  0.00    -0.253 N 
ATOM     15  C   UNL A   1      32.215  30.070  26.995  1.00  0.00     0.149 C 
ATOM     16  N   UNL A   1      31.960  28.919  26.162  1.00  0.00    -0.318 N 
ATOM     17  C   UNL A   1      32.161  28.931  24.735  1.00  0.00     0.221 C 
ATOM     18  C   UNL A   1      31.432  27.725  26.603  1.00  0.00     0.327 C 
ATOM     19  C   UNL A   1      31.616  27.560  24.373  1.00  0.00     0.250 C 
ATOM     20  O   UNL A   1      31.197  27.437  27.765  1.00  0.00    -0.248 OA
ATOM     21  O   UNL A   1      31.568  27.105  23.240  1.00  0.00    -0.272 OA
ENDBRANCH  13  14
ENDBRANCH  11  13
ENDBRANCH   6  11
ENDBRANCH   3   5
ENDBRANCH   2   3
ENDBRANCH   1   2
BRANCH   1  22
ATOM     22  C   UNL A   1      36.079  21.322  24.610  1.00  0.00     0.275 C 
BRANCH  22  23
ATOM     23  O   UNL A   1      36.832  21.626  25.794  1.00  0.00    -0.458 OA
BRANCH  23  24
ATOM     24  C   UNL A   1      38.147  21.316  25.756  1.00  0.00     0.338 C 
ATOM     25  O   UNL A   1      38.665  20.297  25.335  1.00  0.00    -0.246 OA
BRANCH  24  26
ATOM     26  C   UNL A   1      38.901  22.445  26.320  1.00  0.00     0.060 A 
ATOM     27  C   UNL A   1      38.475  23.749  26.078  1.00  0.00     0.016 A 
ATOM     28  C   UNL A   1      40.068  22.206  27.044  1.00  0.00     0.016 A 
ATOM     29  C   UNL A   1      39.239  24.822  26.536  1.00  0.00     0.010 A 
ATOM     30  C   UNL A   1      40.797  23.287  27.549  1.00  0.00     0.010 A 
ATOM     31  C   UNL A   1      40.400  24.609  27.284  1.00  0.00    -0.014 A 
BRANCH  31  32
ATOM     32  C   UNL A   1      41.228  25.752  27.753  1.00  0.00     0.031 A 
ATOM     33  C   UNL A   1      40.602  26.808  28.620  1.00  0.00     0.074 A 
ATOM     34  C   UNL A   1      42.529  25.861  27.420  1.00  0.00     0.049 A 
ATOM     35  N   UNL A   1      41.015  28.021  28.880  1.00  0.00    -0.248 NA
ATOM     36  C   UNL A   1      39.335  26.447  29.276  1.00  0.00     0.031 C 
ATOM     37  C   UNL A   1      43.311  24.862  26.690  1.00  0.00     0.029 A 
ATOM     38  N   UNL A   1      43.422  26.881  27.643  1.00  0.00    -0.354 N 
ATOM     39  C   UNL A   1      40.028  28.593  29.673  1.00  0.00     0.074 A 
ATOM     40  C   UNL A   1      39.005  27.587  29.870  1.00  0.00     0.031 C 
ATOM     41  C   UNL A   1      44.563  25.315  26.529  1.00  0.00     0.029 A 
ATOM     42  C   UNL A   1      44.644  26.675  27.049  1.00  0.00     0.049 A 
ATOM     43  H   UNL A   1      43.207  27.681  28.176  1.00  0.00     0.167 HD
ATOM     44  C   UNL A   1      39.979  29.848  30.176  1.00  0.00     0.037 A 
ATOM     45  C   UNL A   1      45.686  27.511  26.875  1.00  0.00     0.037 A 
ATOM     46  C   UNL A   1      41.026  30.823  30.015  1.00  0.00     0.049 A 
ATOM     47  C   UNL A   1      45.581  28.927  27.365  1.00  0.00     0.074 A 
ATOM     48  C   UNL A   1      41.065  32.133  30.461  1.00  0.00     0.029 A 
ATOM     49  N   UNL A   1      42.230  30.582  29.372  1.00  0.00    -0.354 N 
ATOM     50  N   UNL A   1      44.599  29.507  28.011  1.00  0.00    -0.248 NA
ATOM     51  C   UNL A   1      46.717  29.815  27.075  1.00  0.00     0.031 C 
ATOM     52  C   UNL A   1      42.283  32.694  30.061  1.00  0.00     0.029 A 
ATOM     53  C   UNL A   1      43.017  31.722  29.402  1.00  0.00     0.049 A 
ATOM     54  H   UNL A   1      42.487  29.729  28.954  1.00  0.00     0.167 HD
ATOM     55  C   UNL A   1      45.003  30.819  28.221  1.00  0.00     0.074 A 
ATOM     56  C   UNL A   1      46.323  30.948  27.641  1.00  0.00     0.031 C 
ATOM     57  C   UNL A   1      44.337  31.826  28.837  1.00  0.00     0.037 A 
BRANCH  44  58
ATOM     58  C   UNL A   1      38.730  30.259  30.895  1.00  0.00     0.057 A 
ATOM     59  C   UNL A   1      38.569  30.090  32.275  1.00  0.00     0.134 A 
ATOM     60  C   UNL A   1      37.680  30.864  30.191  1.00  0.00     0.134 A 
ATOM     61  F   UNL A   1      39.530  29.503  33.004  1.00  0.00    -0.206 F 
ATOM     62  C   UNL A   1      37.401  30.492  32.928  1.00  0.00     0.040 A 
ATOM     63  C   UNL A   1      36.518  31.293  30.835  1.00  0.00     0.040 A 
ATOM     64  F   UNL A   1      37.773  31.061  28.867  1.00  0.00    -0.206 F 
ATOM     65  C   UNL A   1      36.375  31.101  32.207  1.00  0.00     0.006 A 
ENDBRANCH  44  58
BRANCH  45  66
ATOM     66  C   UNL A   1      46.887  27.049  26.133  1.00  0.00     0.057 A 
ATOM     67  C   UNL A   1      47.005  27.241  24.753  1.00  0.00     0.134 A 
ATOM     68  C   UNL A   1      47.946  26.406  26.788  1.00  0.00     0.134 A 
ATOM     69  F   UNL A   1      46.012  27.824  24.065  1.00  0.00    -0.206 F 
ATOM     70  C   UNL A   1      48.131  26.808  24.049  1.00  0.00     0.040 A 
ATOM     71  C   UNL A   1      49.089  25.994  26.102  1.00  0.00     0.040 A 
ATOM     72  F   UNL A   1      47.893  26.187  28.110  1.00  0.00    -0.206 F 
ATOM     73  C   UNL A   1      49.181  26.191  24.726  1.00  0.00     0.006 A 
ENDBRANCH  45  66
BRANCH  57  74
ATOM     74  C   UNL A   1      45.046  33.140  28.963  1.00  0.00     0.057 A 
ATOM     75  C   UNL A   1      45.910  33.413  30.030  1.00  0.00     0.134 A 
ATOM     76  C   UNL A   1      44.899  34.121  27.975  1.00  0.00     0.134 A 
ATOM     77  F   UNL A   1      46.080  32.517  31.014  1.00  0.00    -0.206 F 
ATOM     78  C   UNL A   1      46.596  34.625  30.115  1.00  0.00     0.040 A 
ATOM     79  C   UNL A   1      45.595  35.328  28.038  1.00  0.00     0.040 A 
ATOM     80  F   UNL A   1      44.090  33.915  26.926  1.00  0.00    -0.206 F 
ATOM     81  C   UNL A   1      46.446  35.583  29.113  1.00  0.00     0.006 A 
ENDBRANCH  57  74
ENDBRANCH  31  32
ENDBRANCH  24  26
ENDBRANCH  23  24
ENDBRANCH  22  23
ENDBRANCH   1  22
TORSDOF 14
ENDMDL
