MODEL 1
REMARK VINA RESULT:     -12.0      0.000      0.000
REMARK SMILES C[C@]1(c2ccccc2C(=O)OCCOC(=O)c2ccc(-c3c4nc(c(-c5c(F)cccc5F)c5ccc([nH]5)c(-c5c(F)cccc5F)c5nc(c(-c6c(F)cccc6F)c6ccc3[nH]6)C=C5)C=C4)cc2)NN=C(c2ccccc2)S1
REMARK SMILES IDX 12 1 11 2 9 3 10 4 8 5 3 6 4 7 5 8 7 9 6 10 2 11 1 12 71 13
REMARK SMILES IDX 80 14 72 15 73 17 74 18 75 19 79 20 76 21 78 22 77 23 13 24
REMARK SMILES IDX 14 25 15 26 16 27 17 28 18 29 70 30 19 31 69 32 20 33 21 34
REMARK SMILES IDX 22 35 63 36 23 37 68 38 62 39 64 40 24 41 67 42 61 43 60 44
REMARK SMILES IDX 25 46 51 47 34 48 50 49 35 50 38 51 49 52 65 53 36 54 37 55
REMARK SMILES IDX 48 57 66 58 39 59 26 60 27 61 32 62 28 63 29 64 31 65 33 66
REMARK SMILES IDX 30 67 52 68 53 69 58 70 54 71 55 72 57 73 59 74 56 75 40 76
REMARK SMILES IDX 41 77 46 78 42 79 43 80 45 81 47 82 44 83
REMARK H PARENT 71 16 64 45 38 56
REMARK Flexibility Score: inf
ROOT
ATOM      1  C   UNL A   1      31.759  31.108  26.677  1.00  0.00     0.275 C 
ENDROOT
BRANCH   1   2
ATOM      2  O   UNL A   1      31.235  30.647  25.419  1.00  0.00    -0.458 OA
BRANCH   2   3
ATOM      3  C   UNL A   1      31.909  29.677  24.777  1.00  0.00     0.338 C 
ATOM      4  O   UNL A   1      33.114  29.642  24.591  1.00  0.00    -0.246 OA
BRANCH   3   5
ATOM      5  C   UNL A   1      31.006  28.524  24.526  1.00  0.00     0.066 A 
ATOM      6  C   UNL A   1      30.986  27.285  25.211  1.00  0.00     0.004 A 
ATOM      7  C   UNL A   1      29.966  26.372  24.808  1.00  0.00     0.008 A 
ATOM      8  C   UNL A   1      29.052  26.641  23.787  1.00  0.00     0.000 A 
ATOM      9  C   UNL A   1      30.060  28.791  23.504  1.00  0.00     0.016 A 
ATOM     10  C   UNL A   1      29.101  27.854  23.128  1.00  0.00     0.001 A 
BRANCH   6  11
ATOM     11  C   UNL A   1      31.814  26.877  26.455  1.00  0.00     0.129 C 
ATOM     12  C   UNL A   1      31.544  27.889  27.576  1.00  0.00     0.054 C 
ATOM     13  N   UNL A   1      31.451  25.500  26.902  1.00  0.00    -0.288 NA
ATOM     14  S   UNL A   1      33.610  26.666  26.261  1.00  0.00    -0.070 SA
ATOM     15  N   UNL A   1      32.187  24.501  26.292  1.00  0.00    -0.171 NA
ATOM     16  H   UNL A   1      30.751  25.319  27.570  1.00  0.00     0.185 HD
ATOM     17  C   UNL A   1      33.322  24.981  25.877  1.00  0.00     0.126 C 
BRANCH  17  18
ATOM     18  C   UNL A   1      34.313  24.233  25.081  1.00  0.00     0.009 A 
ATOM     19  C   UNL A   1      33.928  23.742  23.827  1.00  0.00     0.011 A 
ATOM     20  C   UNL A   1      35.642  24.092  25.503  1.00  0.00     0.011 A 
ATOM     21  C   UNL A   1      34.880  23.174  22.977  1.00  0.00     0.001 A 
ATOM     22  C   UNL A   1      36.586  23.509  24.655  1.00  0.00     0.001 A 
ATOM     23  C   UNL A   1      36.209  23.067  23.388  1.00  0.00     0.000 A 
ENDBRANCH  17  18
ENDBRANCH   6  11
ENDBRANCH   3   5
ENDBRANCH   2   3
ENDBRANCH   1   2
BRANCH   1  24
ATOM     24  C   UNL A   1      31.599  32.630  26.747  1.00  0.00     0.275 C 
BRANCH  24  25
ATOM     25  O   UNL A   1      32.894  33.260  26.764  1.00  0.00    -0.458 OA
BRANCH  25  26
ATOM     26  C   UNL A   1      33.185  33.904  27.915  1.00  0.00     0.338 C 
ATOM     27  O   UNL A   1      32.503  34.727  28.511  1.00  0.00    -0.246 OA
BRANCH  26  28
ATOM     28  C   UNL A   1      34.380  33.320  28.518  1.00  0.00     0.060 A 
ATOM     29  C   UNL A   1      34.246  32.047  29.070  1.00  0.00     0.016 A 
ATOM     30  C   UNL A   1      35.581  34.021  28.607  1.00  0.00     0.016 A 
ATOM     31  C   UNL A   1      35.321  31.457  29.718  1.00  0.00     0.010 A 
ATOM     32  C   UNL A   1      36.669  33.421  29.248  1.00  0.00     0.010 A 
ATOM     33  C   UNL A   1      36.545  32.136  29.809  1.00  0.00    -0.014 A 
BRANCH  33  34
ATOM     34  C   UNL A   1      37.674  31.477  30.507  1.00  0.00     0.031 A 
ATOM     35  C   UNL A   1      38.570  30.522  29.775  1.00  0.00     0.074 A 
ATOM     36  C   UNL A   1      37.933  31.808  31.786  1.00  0.00     0.049 A 
ATOM     37  N   UNL A   1      39.596  29.847  30.224  1.00  0.00    -0.248 NA
ATOM     38  C   UNL A   1      38.272  30.293  28.353  1.00  0.00     0.031 C 
ATOM     39  C   UNL A   1      37.151  32.752  32.587  1.00  0.00     0.029 A 
ATOM     40  N   UNL A   1      38.941  31.412  32.626  1.00  0.00    -0.354 N 
ATOM     41  C   UNL A   1      40.049  29.089  29.152  1.00  0.00     0.074 A 
ATOM     42  C   UNL A   1      39.181  29.383  28.031  1.00  0.00     0.031 C 
ATOM     43  C   UNL A   1      37.739  32.903  33.784  1.00  0.00     0.029 A 
ATOM     44  C   UNL A   1      38.904  32.028  33.855  1.00  0.00     0.049 A 
ATOM     45  H   UNL A   1      39.626  30.752  32.375  1.00  0.00     0.167 HD
ATOM     46  C   UNL A   1      41.094  28.228  29.111  1.00  0.00     0.037 A 
ATOM     47  C   UNL A   1      39.714  31.893  34.921  1.00  0.00     0.037 A 
ATOM     48  C   UNL A   1      41.972  27.962  30.221  1.00  0.00     0.049 A 
ATOM     49  C   UNL A   1      40.866  30.932  34.845  1.00  0.00     0.074 A 
ATOM     50  C   UNL A   1      43.047  27.093  30.286  1.00  0.00     0.029 A 
ATOM     51  N   UNL A   1      41.886  28.580  31.460  1.00  0.00    -0.354 N 
ATOM     52  N   UNL A   1      41.253  30.187  33.839  1.00  0.00    -0.248 NA
ATOM     53  C   UNL A   1      41.684  30.785  36.057  1.00  0.00     0.031 C 
ATOM     54  C   UNL A   1      43.597  27.168  31.571  1.00  0.00     0.029 A 
ATOM     55  C   UNL A   1      42.885  28.109  32.296  1.00  0.00     0.049 A 
ATOM     56  H   UNL A   1      41.213  29.254  31.709  1.00  0.00     0.167 HD
ATOM     57  C   UNL A   1      42.360  29.482  34.295  1.00  0.00     0.074 A 
ATOM     58  C   UNL A   1      42.600  29.916  35.656  1.00  0.00     0.031 C 
ATOM     59  C   UNL A   1      43.103  28.552  33.649  1.00  0.00     0.037 A 
BRANCH  46  60
ATOM     60  C   UNL A   1      41.324  27.486  27.829  1.00  0.00     0.057 A 
ATOM     61  C   UNL A   1      42.136  27.999  26.809  1.00  0.00     0.134 A 
ATOM     62  C   UNL A   1      40.745  26.228  27.622  1.00  0.00     0.134 A 
ATOM     63  F   UNL A   1      42.706  29.207  26.938  1.00  0.00    -0.206 F 
ATOM     64  C   UNL A   1      42.348  27.295  25.622  1.00  0.00     0.040 A 
ATOM     65  C   UNL A   1      40.966  25.505  26.449  1.00  0.00     0.040 A 
ATOM     66  F   UNL A   1      39.959  25.678  28.560  1.00  0.00    -0.206 F 
ATOM     67  C   UNL A   1      41.768  26.041  25.443  1.00  0.00     0.006 A 
ENDBRANCH  46  60
BRANCH  47  68
ATOM     68  C   UNL A   1      39.460  32.682  36.151  1.00  0.00     0.057 A 
ATOM     69  C   UNL A   1      40.110  33.900  36.378  1.00  0.00     0.134 A 
ATOM     70  C   UNL A   1      38.562  32.237  37.130  1.00  0.00     0.134 A 
ATOM     71  F   UNL A   1      40.998  34.367  35.488  1.00  0.00    -0.206 F 
ATOM     72  C   UNL A   1      39.888  34.642  37.539  1.00  0.00     0.040 A 
ATOM     73  C   UNL A   1      38.310  32.982  38.282  1.00  0.00     0.040 A 
ATOM     74  F   UNL A   1      37.906  31.078  36.970  1.00  0.00    -0.206 F 
ATOM     75  C   UNL A   1      38.979  34.186  38.491  1.00  0.00     0.006 A 
ENDBRANCH  47  68
BRANCH  59  76
ATOM     76  C   UNL A   1      44.246  27.955  34.413  1.00  0.00     0.057 A 
ATOM     77  C   UNL A   1      44.091  26.786  35.169  1.00  0.00     0.134 A 
ATOM     78  C   UNL A   1      45.511  28.551  34.388  1.00  0.00     0.134 A 
ATOM     79  F   UNL A   1      42.898  26.177  35.244  1.00  0.00    -0.206 F 
ATOM     80  C   UNL A   1      45.151  26.246  35.898  1.00  0.00     0.040 A 
ATOM     81  C   UNL A   1      46.584  28.008  35.097  1.00  0.00     0.040 A 
ATOM     82  F   UNL A   1      45.725  29.669  33.679  1.00  0.00    -0.206 F 
ATOM     83  C   UNL A   1      46.404  26.856  35.859  1.00  0.00     0.006 A 
ENDBRANCH  59  76
ENDBRANCH  33  34
ENDBRANCH  26  28
ENDBRANCH  25  26
ENDBRANCH  24  25
ENDBRANCH   1  24
TORSDOF 13
ENDMDL
MODEL 2
REMARK VINA RESULT:     -11.9      4.588      9.110
REMARK SMILES C[C@]1(c2ccccc2C(=O)OCCOC(=O)c2ccc(-c3c4nc(c(-c5c(F)cccc5F)c5ccc([nH]5)c(-c5c(F)cccc5F)c5nc(c(-c6c(F)cccc6F)c6ccc3[nH]6)C=C5)C=C4)cc2)NN=C(c2ccccc2)S1
REMARK SMILES IDX 12 1 11 2 9 3 10 4 8 5 3 6 4 7 5 8 7 9 6 10 2 11 1 12 71 13
REMARK SMILES IDX 80 14 72 15 73 17 74 18 75 19 79 20 76 21 78 22 77 23 13 24
REMARK SMILES IDX 14 25 15 26 16 27 17 28 18 29 70 30 19 31 69 32 20 33 21 34
REMARK SMILES IDX 22 35 63 36 23 37 68 38 62 39 64 40 24 41 67 42 61 43 60 44
REMARK SMILES IDX 25 46 51 47 34 48 50 49 35 50 38 51 49 52 65 53 36 54 37 55
REMARK SMILES IDX 48 57 66 58 39 59 26 60 27 61 32 62 28 63 29 64 31 65 33 66
REMARK SMILES IDX 30 67 52 68 53 69 58 70 54 71 55 72 57 73 59 74 56 75 40 76
REMARK SMILES IDX 41 77 46 78 42 79 43 80 45 81 47 82 44 83
REMARK H PARENT 71 16 64 45 38 56
REMARK Flexibility Score: inf
ROOT
ATOM      1  C   UNL A   1      37.876  20.791  25.178  1.00  0.00     0.275 C 
ENDROOT
BRANCH   1   2
ATOM      2  O   UNL A   1      36.530  20.313  25.003  1.00  0.00    -0.458 OA
BRANCH   2   3
ATOM      3  C   UNL A   1      35.541  20.992  25.609  1.00  0.00     0.338 C 
ATOM      4  O   UNL A   1      35.617  21.570  26.680  1.00  0.00    -0.246 OA
BRANCH   3   5
ATOM      5  C   UNL A   1      34.393  21.141  24.676  1.00  0.00     0.066 A 
ATOM      6  C   UNL A   1      34.107  22.247  23.840  1.00  0.00     0.004 A 
ATOM      7  C   UNL A   1      32.969  22.101  22.990  1.00  0.00     0.008 A 
ATOM      8  C   UNL A   1      32.155  20.967  22.982  1.00  0.00     0.000 A 
ATOM      9  C   UNL A   1      33.568  19.988  24.644  1.00  0.00     0.016 A 
ATOM     10  C   UNL A   1      32.452  19.906  23.816  1.00  0.00     0.001 A 
BRANCH   6  11
ATOM     11  C   UNL A   1      34.974  23.509  23.608  1.00  0.00     0.129 C 
ATOM     12  C   UNL A   1      36.322  23.076  23.019  1.00  0.00     0.054 C 
ATOM     13  N   UNL A   1      34.286  24.460  22.684  1.00  0.00    -0.288 NA
ATOM     14  S   UNL A   1      35.268  24.621  25.017  1.00  0.00    -0.070 SA
ATOM     15  N   UNL A   1      33.450  25.355  23.323  1.00  0.00    -0.171 NA
ATOM     16  H   UNL A   1      34.417  24.449  21.708  1.00  0.00     0.185 HD
ATOM     17  C   UNL A   1      33.826  25.504  24.560  1.00  0.00     0.126 C 
BRANCH  17  18
ATOM     18  C   UNL A   1      33.101  26.295  25.571  1.00  0.00     0.009 A 
ATOM     19  C   UNL A   1      33.771  27.356  26.193  1.00  0.00     0.011 A 
ATOM     20  C   UNL A   1      31.745  26.074  25.847  1.00  0.00     0.011 A 
ATOM     21  C   UNL A   1      33.072  28.228  27.033  1.00  0.00     0.001 A 
ATOM     22  C   UNL A   1      31.055  26.941  26.699  1.00  0.00     0.001 A 
ATOM     23  C   UNL A   1      31.714  28.024  27.276  1.00  0.00     0.000 A 
ENDBRANCH  17  18
ENDBRANCH   6  11
ENDBRANCH   3   5
ENDBRANCH   2   3
ENDBRANCH   1   2
BRANCH   1  24
ATOM     24  C   UNL A   1      38.740  19.640  25.702  1.00  0.00     0.275 C 
BRANCH  24  25
ATOM     25  O   UNL A   1      40.051  19.699  25.106  1.00  0.00    -0.458 OA
BRANCH  25  26
ATOM     26  C   UNL A   1      41.068  19.573  25.986  1.00  0.00     0.338 C 
ATOM     27  O   UNL A   1      41.786  18.600  26.173  1.00  0.00    -0.246 OA
BRANCH  26  28
ATOM     28  C   UNL A   1      41.372  20.873  26.577  1.00  0.00     0.060 A 
ATOM     29  C   UNL A   1      41.856  21.857  25.715  1.00  0.00     0.016 A 
ATOM     30  C   UNL A   1      41.256  21.108  27.946  1.00  0.00     0.016 A 
ATOM     31  C   UNL A   1      42.228  23.094  26.218  1.00  0.00     0.010 A 
ATOM     32  C   UNL A   1      41.618  22.361  28.450  1.00  0.00     0.010 A 
ATOM     33  C   UNL A   1      42.107  23.361  27.589  1.00  0.00    -0.014 A 
BRANCH  33  34
ATOM     34  C   UNL A   1      42.514  24.694  28.093  1.00  0.00     0.031 A 
ATOM     35  C   UNL A   1      41.488  25.762  28.333  1.00  0.00     0.074 A 
ATOM     36  C   UNL A   1      43.805  24.908  28.407  1.00  0.00     0.049 A 
ATOM     37  N   UNL A   1      41.659  26.987  28.761  1.00  0.00    -0.248 NA
ATOM     38  C   UNL A   1      40.088  25.410  28.054  1.00  0.00     0.031 C 
ATOM     39  C   UNL A   1      44.883  23.930  28.250  1.00  0.00     0.029 A 
ATOM     40  N   UNL A   1      44.424  26.003  28.953  1.00  0.00    -0.354 N 
ATOM     41  C   UNL A   1      40.395  27.564  28.773  1.00  0.00     0.074 A 
ATOM     42  C   UNL A   1      39.468  26.555  28.304  1.00  0.00     0.031 C 
ATOM     43  C   UNL A   1      46.021  24.450  28.738  1.00  0.00     0.029 A 
ATOM     44  C   UNL A   1      45.764  25.813  29.190  1.00  0.00     0.049 A 
ATOM     45  H   UNL A   1      43.954  26.844  29.156  1.00  0.00     0.167 HD
ATOM     46  C   UNL A   1      40.046  28.819  29.143  1.00  0.00     0.037 A 
ATOM     47  C   UNL A   1      46.684  26.649  29.707  1.00  0.00     0.037 A 
ATOM     48  C   UNL A   1      40.969  29.807  29.637  1.00  0.00     0.049 A 
ATOM     49  C   UNL A   1      46.266  28.034  30.109  1.00  0.00     0.074 A 
ATOM     50  C   UNL A   1      40.716  31.113  30.019  1.00  0.00     0.029 A 
ATOM     51  N   UNL A   1      42.324  29.590  29.835  1.00  0.00    -0.354 N 
ATOM     52  N   UNL A   1      45.076  28.581  30.070  1.00  0.00    -0.248 NA
ATOM     53  C   UNL A   1      47.322  28.922  30.615  1.00  0.00     0.031 C 
ATOM     54  C   UNL A   1      41.924  31.693  30.427  1.00  0.00     0.029 A 
ATOM     55  C   UNL A   1      42.921  30.738  30.330  1.00  0.00     0.049 A 
ATOM     56  H   UNL A   1      42.794  28.745  29.650  1.00  0.00     0.167 HD
ATOM     57  C   UNL A   1      45.238  29.875  30.546  1.00  0.00     0.074 A 
ATOM     58  C   UNL A   1      46.636  30.019  30.898  1.00  0.00     0.031 C 
ATOM     59  C   UNL A   1      44.316  30.860  30.669  1.00  0.00     0.037 A 
BRANCH  46  60
ATOM     60  C   UNL A   1      38.604  29.203  28.996  1.00  0.00     0.057 A 
ATOM     61  C   UNL A   1      38.071  29.633  27.774  1.00  0.00     0.134 A 
ATOM     62  C   UNL A   1      37.730  29.114  30.087  1.00  0.00     0.134 A 
ATOM     63  F   UNL A   1      38.859  29.755  26.695  1.00  0.00    -0.206 F 
ATOM     64  C   UNL A   1      36.724  29.981  27.648  1.00  0.00     0.040 A 
ATOM     65  C   UNL A   1      36.378  29.439  29.969  1.00  0.00     0.040 A 
ATOM     66  F   UNL A   1      38.176  28.706  31.285  1.00  0.00    -0.206 F 
ATOM     67  C   UNL A   1      35.873  29.878  28.746  1.00  0.00     0.006 A 
ENDBRANCH  46  60
BRANCH  47  68
ATOM     68  C   UNL A   1      48.089  26.201  29.864  1.00  0.00     0.057 A 
ATOM     69  C   UNL A   1      48.543  25.652  31.068  1.00  0.00     0.134 A 
ATOM     70  C   UNL A   1      49.011  26.312  28.816  1.00  0.00     0.134 A 
ATOM     71  F   UNL A   1      47.713  25.541  32.116  1.00  0.00    -0.206 F 
ATOM     72  C   UNL A   1      49.867  25.241  31.230  1.00  0.00     0.040 A 
ATOM     73  C   UNL A   1      50.331  25.880  28.956  1.00  0.00     0.040 A 
ATOM     74  F   UNL A   1      48.637  26.828  27.636  1.00  0.00    -0.206 F 
ATOM     75  C   UNL A   1      50.763  25.348  30.169  1.00  0.00     0.006 A 
ENDBRANCH  47  68
BRANCH  59  76
ATOM     76  C   UNL A   1      44.799  32.169  31.216  1.00  0.00     0.057 A 
ATOM     77  C   UNL A   1      44.779  32.443  32.589  1.00  0.00     0.134 A 
ATOM     78  C   UNL A   1      45.291  33.162  30.361  1.00  0.00     0.134 A 
ATOM     79  F   UNL A   1      44.304  31.537  33.457  1.00  0.00    -0.206 F 
ATOM     80  C   UNL A   1      45.208  33.672  33.092  1.00  0.00     0.040 A 
ATOM     81  C   UNL A   1      45.742  34.387  30.855  1.00  0.00     0.040 A 
ATOM     82  F   UNL A   1      45.340  32.960  29.036  1.00  0.00    -0.206 F 
ATOM     83  C   UNL A   1      45.695  34.647  32.222  1.00  0.00     0.006 A 
ENDBRANCH  59  76
ENDBRANCH  33  34
ENDBRANCH  26  28
ENDBRANCH  25  26
ENDBRANCH  24  25
ENDBRANCH   1  24
TORSDOF 13
ENDMDL
MODEL 3
REMARK VINA RESULT:     -11.8      5.153     10.286
REMARK SMILES C[C@]1(c2ccccc2C(=O)OCCOC(=O)c2ccc(-c3c4nc(c(-c5c(F)cccc5F)c5ccc([nH]5)c(-c5c(F)cccc5F)c5nc(c(-c6c(F)cccc6F)c6ccc3[nH]6)C=C5)C=C4)cc2)NN=C(c2ccccc2)S1
REMARK SMILES IDX 12 1 11 2 9 3 10 4 8 5 3 6 4 7 5 8 7 9 6 10 2 11 1 12 71 13
REMARK SMILES IDX 80 14 72 15 73 17 74 18 75 19 79 20 76 21 78 22 77 23 13 24
REMARK SMILES IDX 14 25 15 26 16 27 17 28 18 29 70 30 19 31 69 32 20 33 21 34
REMARK SMILES IDX 22 35 63 36 23 37 68 38 62 39 64 40 24 41 67 42 61 43 60 44
REMARK SMILES IDX 25 46 51 47 34 48 50 49 35 50 38 51 49 52 65 53 36 54 37 55
REMARK SMILES IDX 48 57 66 58 39 59 26 60 27 61 32 62 28 63 29 64 31 65 33 66
REMARK SMILES IDX 30 67 52 68 53 69 58 70 54 71 55 72 57 73 59 74 56 75 40 76
REMARK SMILES IDX 41 77 46 78 42 79 43 80 45 81 47 82 44 83
REMARK H PARENT 71 16 64 45 38 56
REMARK Flexibility Score: inf
ROOT
ATOM      1  C   UNL A   1      44.397  24.077  24.632  1.00  0.00     0.275 C 
ENDROOT
BRANCH   1   2
ATOM      2  O   UNL A   1      45.036  24.548  25.832  1.00  0.00    -0.458 OA
BRANCH   2   3
ATOM      3  C   UNL A   1      45.574  23.631  26.656  1.00  0.00     0.338 C 
ATOM      4  O   UNL A   1      46.405  22.792  26.352  1.00  0.00    -0.246 OA
BRANCH   3   5
ATOM      5  C   UNL A   1      45.188  23.933  28.059  1.00  0.00     0.066 A 
ATOM      6  C   UNL A   1      45.684  24.975  28.880  1.00  0.00     0.004 A 
ATOM      7  C   UNL A   1      45.090  25.079  30.174  1.00  0.00     0.008 A 
ATOM      8  C   UNL A   1      44.104  24.208  30.640  1.00  0.00     0.000 A 
ATOM      9  C   UNL A   1      44.173  23.067  28.539  1.00  0.00     0.016 A 
ATOM     10  C   UNL A   1      43.645  23.193  29.821  1.00  0.00     0.001 A 
BRANCH   6  11
ATOM     11  C   UNL A   1      46.654  26.115  28.481  1.00  0.00     0.129 C 
ATOM     12  C   UNL A   1      48.040  25.511  28.222  1.00  0.00     0.054 C 
ATOM     13  N   UNL A   1      46.163  26.825  27.264  1.00  0.00    -0.288 NA
ATOM     14  S   UNL A   1      46.823  27.532  29.608  1.00  0.00    -0.070 SA
ATOM     15  N   UNL A   1      45.306  27.875  27.536  1.00  0.00    -0.171 NA
ATOM     16  H   UNL A   1      46.425  26.569  26.350  1.00  0.00     0.185 HD
ATOM     17  C   UNL A   1      45.518  28.316  28.742  1.00  0.00     0.126 C 
BRANCH  17  18
ATOM     18  C   UNL A   1      44.714  29.354  29.413  1.00  0.00     0.009 A 
ATOM     19  C   UNL A   1      45.100  29.772  30.693  1.00  0.00     0.011 A 
ATOM     20  C   UNL A   1      43.647  29.992  28.767  1.00  0.00     0.011 A 
ATOM     21  C   UNL A   1      44.465  30.863  31.293  1.00  0.00     0.001 A 
ATOM     22  C   UNL A   1      43.007  31.074  29.377  1.00  0.00     0.001 A 
ATOM     23  C   UNL A   1      43.427  31.518  30.630  1.00  0.00     0.000 A 
ENDBRANCH  17  18
ENDBRANCH   6  11
ENDBRANCH   3   5
ENDBRANCH   2   3
ENDBRANCH   1   2
BRANCH   1  24
ATOM     24  C   UNL A   1      43.026  23.501  25.001  1.00  0.00     0.275 C 
BRANCH  24  25
ATOM     25  O   UNL A   1      42.189  24.537  25.549  1.00  0.00    -0.458 OA
BRANCH  25  26
ATOM     26  C   UNL A   1      41.318  24.109  26.488  1.00  0.00     0.338 C 
ATOM     27  O   UNL A   1      40.907  22.970  26.674  1.00  0.00    -0.246 OA
BRANCH  26  28
ATOM     28  C   UNL A   1      41.064  25.178  27.449  1.00  0.00     0.060 A 
ATOM     29  C   UNL A   1      42.097  26.092  27.658  1.00  0.00     0.016 A 
ATOM     30  C   UNL A   1      39.881  25.251  28.181  1.00  0.00     0.016 A 
ATOM     31  C   UNL A   1      41.953  27.095  28.604  1.00  0.00     0.010 A 
ATOM     32  C   UNL A   1      39.730  26.271  29.125  1.00  0.00     0.010 A 
ATOM     33  C   UNL A   1      40.765  27.199  29.344  1.00  0.00    -0.014 A 
BRANCH  33  34
ATOM     34  C   UNL A   1      40.644  28.282  30.347  1.00  0.00     0.031 A 
ATOM     35  C   UNL A   1      39.574  29.326  30.214  1.00  0.00     0.074 A 
ATOM     36  C   UNL A   1      41.455  28.273  31.420  1.00  0.00     0.049 A 
ATOM     37  N   UNL A   1      39.323  30.351  30.987  1.00  0.00    -0.248 NA
ATOM     38  C   UNL A   1      38.670  29.204  29.060  1.00  0.00     0.031 C 
ATOM     39  C   UNL A   1      42.507  27.287  31.672  1.00  0.00     0.029 A 
ATOM     40  N   UNL A   1      41.502  29.098  32.514  1.00  0.00    -0.354 N 
ATOM     41  C   UNL A   1      38.254  31.016  30.400  1.00  0.00     0.074 A 
ATOM     42  C   UNL A   1      37.908  30.280  29.202  1.00  0.00     0.031 C 
ATOM     43  C   UNL A   1      43.061  27.532  32.870  1.00  0.00     0.029 A 
ATOM     44  C   UNL A   1      42.441  28.722  33.444  1.00  0.00     0.049 A 
ATOM     45  H   UNL A   1      40.919  29.884  32.624  1.00  0.00     0.167 HD
ATOM     46  C   UNL A   1      37.622  32.136  30.825  1.00  0.00     0.037 A 
ATOM     47  C   UNL A   1      42.772  29.281  34.623  1.00  0.00     0.037 A 
ATOM     48  C   UNL A   1      37.953  32.846  32.034  1.00  0.00     0.049 A 
ATOM     49  C   UNL A   1      42.052  30.522  35.069  1.00  0.00     0.074 A 
ATOM     50  C   UNL A   1      37.385  34.002  32.541  1.00  0.00     0.029 A 
ATOM     51  N   UNL A   1      38.931  32.454  32.935  1.00  0.00    -0.354 N 
ATOM     52  N   UNL A   1      41.075  31.166  34.479  1.00  0.00    -0.248 NA
ATOM     53  C   UNL A   1      42.492  31.120  36.337  1.00  0.00     0.031 C 
ATOM     54  C   UNL A   1      38.035  34.322  33.739  1.00  0.00     0.029 A 
ATOM     55  C   UNL A   1      38.985  33.346  33.994  1.00  0.00     0.049 A 
ATOM     56  H   UNL A   1      39.503  31.659  32.838  1.00  0.00     0.167 HD
ATOM     57  C   UNL A   1      40.781  32.244  35.303  1.00  0.00     0.074 A 
ATOM     58  C   UNL A   1      41.662  32.146  36.450  1.00  0.00     0.031 C 
ATOM     59  C   UNL A   1      39.872  33.232  35.122  1.00  0.00     0.037 A 
BRANCH  46  60
ATOM     60  C   UNL A   1      36.528  32.680  29.957  1.00  0.00     0.057 A 
ATOM     61  C   UNL A   1      35.174  32.489  30.260  1.00  0.00     0.134 A 
ATOM     62  C   UNL A   1      36.835  33.428  28.813  1.00  0.00     0.134 A 
ATOM     63  F   UNL A   1      34.814  31.768  31.333  1.00  0.00    -0.206 F 
ATOM     64  C   UNL A   1      34.164  33.008  29.447  1.00  0.00     0.040 A 
ATOM     65  C   UNL A   1      35.835  33.969  28.003  1.00  0.00     0.040 A 
ATOM     66  F   UNL A   1      38.112  33.649  28.467  1.00  0.00    -0.206 F 
ATOM     67  C   UNL A   1      34.494  33.755  28.318  1.00  0.00     0.006 A 
ENDBRANCH  46  60
BRANCH  47  68
ATOM     68  C   UNL A   1      43.838  28.676  35.459  1.00  0.00     0.057 A 
ATOM     69  C   UNL A   1      43.533  27.752  36.464  1.00  0.00     0.134 A 
ATOM     70  C   UNL A   1      45.185  29.009  35.275  1.00  0.00     0.134 A 
ATOM     71  F   UNL A   1      42.258  27.409  36.703  1.00  0.00    -0.206 F 
ATOM     72  C   UNL A   1      44.528  27.188  37.264  1.00  0.00     0.040 A 
ATOM     73  C   UNL A   1      46.192  28.434  36.050  1.00  0.00     0.040 A 
ATOM     74  F   UNL A   1      45.542  29.888  34.326  1.00  0.00    -0.206 F 
ATOM     75  C   UNL A   1      45.863  27.524  37.052  1.00  0.00     0.006 A 
ENDBRANCH  47  68
BRANCH  59  76
ATOM     76  C   UNL A   1      39.789  34.274  36.196  1.00  0.00     0.057 A 
ATOM     77  C   UNL A   1      39.002  34.087  37.339  1.00  0.00     0.134 A 
ATOM     78  C   UNL A   1      40.504  35.472  36.087  1.00  0.00     0.134 A 
ATOM     79  F   UNL A   1      38.281  32.966  37.493  1.00  0.00    -0.206 F 
ATOM     80  C   UNL A   1      38.907  35.069  38.326  1.00  0.00     0.040 A 
ATOM     81  C   UNL A   1      40.434  36.453  37.078  1.00  0.00     0.040 A 
ATOM     82  F   UNL A   1      41.279  35.709  35.019  1.00  0.00    -0.206 F 
ATOM     83  C   UNL A   1      39.629  36.256  38.198  1.00  0.00     0.006 A 
ENDBRANCH  59  76
ENDBRANCH  33  34
ENDBRANCH  26  28
ENDBRANCH  25  26
ENDBRANCH  24  25
ENDBRANCH   1  24
TORSDOF 13
ENDMDL
