MODEL 1
REMARK VINA RESULT:     -10.7      0.000      0.000
REMARK SMILES C[C@H](/N=C(\Cc1ccccc1)C(=O)OC(C)(C)C)C(=O)OCCOC(=O)c1ccc(-c2c3nc(c(-c4c(F)cccc4F)c4ccc([nH]4)c(-c4c(F)cccc4F)c4nc(c(-c5c(F)cccc5F)c5ccc2[nH]5)C=C4)C=C3)cc1
REMARK SMILES IDX 22 1 21 2 19 3 20 4 2 5 1 6 3 7 4 8 5 9 6 10 7 11 11 12 8 13
REMARK SMILES IDX 10 14 9 15 12 16 13 17 14 18 15 19 16 20 17 21 18 22 23 23
REMARK SMILES IDX 24 24 25 25 26 26 27 27 28 28 80 29 29 30 79 31 30 32 31 33
REMARK SMILES IDX 32 34 73 35 33 36 78 37 72 38 74 39 34 40 77 41 71 42 70 43
REMARK SMILES IDX 35 45 61 46 44 47 60 48 45 49 48 50 59 51 75 52 46 53 47 54
REMARK SMILES IDX 58 56 76 57 49 58 36 59 37 60 42 61 38 62 39 63 41 64 43 65
REMARK SMILES IDX 40 66 62 67 63 68 68 69 64 70 65 71 67 72 69 73 66 74 50 75
REMARK SMILES IDX 51 76 56 77 52 78 53 79 55 80 57 81 54 82
REMARK H PARENT 74 44 48 55
REMARK Flexibility Score: inf
ROOT
ATOM      1  C   UNL A   1      31.804  31.633  26.346  1.00  0.00     0.274 C 
ENDROOT
BRANCH   1   2
ATOM      2  O   UNL A   1      31.797  30.362  27.025  1.00  0.00    -0.460 OA
BRANCH   2   3
ATOM      3  C   UNL A   1      32.843  29.531  26.756  1.00  0.00     0.330 C 
ATOM      4  O   UNL A   1      34.007  29.758  27.067  1.00  0.00    -0.250 OA
BRANCH   3   5
ATOM      5  C   UNL A   1      32.424  28.252  26.023  1.00  0.00     0.212 C 
ATOM      6  C   UNL A   1      33.547  27.237  25.978  1.00  0.00     0.046 C 
BRANCH   5   7
ATOM      7  N   UNL A   1      31.687  28.526  24.784  1.00  0.00    -0.267 NA
ATOM      8  C   UNL A   1      30.634  27.973  24.300  1.00  0.00     0.125 C 
BRANCH   8   9
ATOM      9  C   UNL A   1      29.797  26.889  24.938  1.00  0.00     0.099 C 
BRANCH   9  10
ATOM     10  C   UNL A   1      30.349  25.485  24.757  1.00  0.00    -0.042 A 
ATOM     11  C   UNL A   1      30.769  24.776  25.892  1.00  0.00     0.004 A 
ATOM     12  C   UNL A   1      30.499  24.873  23.500  1.00  0.00     0.004 A 
ATOM     13  C   UNL A   1      31.318  23.497  25.772  1.00  0.00     0.000 A 
ATOM     14  C   UNL A   1      31.056  23.599  23.381  1.00  0.00     0.000 A 
ATOM     15  C   UNL A   1      31.466  22.910  24.518  1.00  0.00     0.000 A 
ENDBRANCH   9  10
ENDBRANCH   8   9
BRANCH   8  16
ATOM     16  C   UNL A   1      30.106  28.531  22.950  1.00  0.00     0.353 C 
ATOM     17  O   UNL A   1      30.249  27.959  21.889  1.00  0.00    -0.245 OA
BRANCH  16  18
ATOM     18  O   UNL A   1      29.572  29.752  23.145  1.00  0.00    -0.455 OA
BRANCH  18  19
ATOM     19  C   UNL A   1      28.187  30.043  22.830  1.00  0.00     0.104 C 
ATOM     20  C   UNL A   1      27.300  28.812  23.046  1.00  0.00     0.056 C 
ATOM     21  C   UNL A   1      27.682  31.259  23.610  1.00  0.00     0.056 C 
ATOM     22  C   UNL A   1      28.202  30.380  21.332  1.00  0.00     0.056 C 
ENDBRANCH  18  19
ENDBRANCH  16  18
ENDBRANCH   8  16
ENDBRANCH   5   7
ENDBRANCH   3   5
ENDBRANCH   2   3
ENDBRANCH   1   2
BRANCH   1  23
ATOM     23  C   UNL A   1      31.638  32.777  27.345  1.00  0.00     0.275 C 
BRANCH  23  24
ATOM     24  O   UNL A   1      32.675  33.758  27.156  1.00  0.00    -0.458 OA
BRANCH  24  25
ATOM     25  C   UNL A   1      33.154  34.328  28.287  1.00  0.00     0.338 C 
ATOM     26  O   UNL A   1      32.690  35.270  28.905  1.00  0.00    -0.246 OA
BRANCH  25  27
ATOM     27  C   UNL A   1      34.353  33.599  28.721  1.00  0.00     0.060 A 
ATOM     28  C   UNL A   1      34.191  32.357  29.332  1.00  0.00     0.016 A 
ATOM     29  C   UNL A   1      35.616  34.181  28.627  1.00  0.00     0.016 A 
ATOM     30  C   UNL A   1      35.293  31.681  29.850  1.00  0.00     0.010 A 
ATOM     31  C   UNL A   1      36.727  33.500  29.140  1.00  0.00     0.010 A 
ATOM     32  C   UNL A   1      36.571  32.250  29.767  1.00  0.00    -0.014 A 
BRANCH  32  33
ATOM     33  C   UNL A   1      37.721  31.551  30.394  1.00  0.00     0.031 A 
ATOM     34  C   UNL A   1      38.071  31.818  31.832  1.00  0.00     0.074 A 
ATOM     35  C   UNL A   1      38.415  30.637  29.692  1.00  0.00     0.049 A 
ATOM     36  N   UNL A   1      39.063  31.345  32.543  1.00  0.00    -0.248 NA
ATOM     37  C   UNL A   1      37.188  32.737  32.567  1.00  0.00     0.031 C 
ATOM     38  C   UNL A   1      38.148  30.256  28.304  1.00  0.00     0.029 A 
ATOM     39  N   UNL A   1      39.484  29.855  30.054  1.00  0.00    -0.354 N 
ATOM     40  C   UNL A   1      38.934  31.918  33.802  1.00  0.00     0.074 A 
ATOM     41  C   UNL A   1      37.779  32.789  33.753  1.00  0.00     0.031 C 
ATOM     42  C   UNL A   1      39.020  29.303  27.937  1.00  0.00     0.029 A 
ATOM     43  C   UNL A   1      39.934  29.039  29.045  1.00  0.00     0.049 A 
ATOM     44  H   UNL A   1      39.889  29.877  30.951  1.00  0.00     0.167 HD
ATOM     45  C   UNL A   1      39.705  31.730  34.900  1.00  0.00     0.037 A 
ATOM     46  C   UNL A   1      40.977  28.189  29.009  1.00  0.00     0.037 A 
ATOM     47  C   UNL A   1      40.843  30.850  34.956  1.00  0.00     0.049 A 
ATOM     48  C   UNL A   1      41.840  28.030  30.231  1.00  0.00     0.074 A 
ATOM     49  C   UNL A   1      41.693  30.604  36.021  1.00  0.00     0.029 A 
ATOM     50  N   UNL A   1      41.285  30.063  33.904  1.00  0.00    -0.354 N 
ATOM     51  N   UNL A   1      41.725  28.601  31.405  1.00  0.00    -0.248 NA
ATOM     52  C   UNL A   1      42.983  27.113  30.119  1.00  0.00     0.031 C 
ATOM     53  C   UNL A   1      42.666  29.688  35.604  1.00  0.00     0.029 A 
ATOM     54  C   UNL A   1      42.400  29.337  34.291  1.00  0.00     0.049 A 
ATOM     55  H   UNL A   1      40.867  30.025  33.013  1.00  0.00     0.167 HD
ATOM     56  C   UNL A   1      42.770  28.108  32.172  1.00  0.00     0.074 A 
ATOM     57  C   UNL A   1      43.495  27.169  31.339  1.00  0.00     0.031 C 
ATOM     58  C   UNL A   1      43.109  28.410  33.449  1.00  0.00     0.037 A 
BRANCH  45  59
ATOM     59  C   UNL A   1      39.353  32.508  36.133  1.00  0.00     0.057 A 
ATOM     60  C   UNL A   1      39.920  33.759  36.403  1.00  0.00     0.134 A 
ATOM     61  C   UNL A   1      38.400  32.020  37.036  1.00  0.00     0.134 A 
ATOM     62  F   UNL A   1      40.847  34.275  35.583  1.00  0.00    -0.206 F 
ATOM     63  C   UNL A   1      39.562  34.492  37.535  1.00  0.00     0.040 A 
ATOM     64  C   UNL A   1      38.019  32.752  38.161  1.00  0.00     0.040 A 
ATOM     65  F   UNL A   1      37.814  30.830  36.832  1.00  0.00    -0.206 F 
ATOM     66  C   UNL A   1      38.603  33.992  38.415  1.00  0.00     0.006 A 
ENDBRANCH  45  59
BRANCH  46  67
ATOM     67  C   UNL A   1      41.287  27.441  27.766  1.00  0.00     0.057 A 
ATOM     68  C   UNL A   1      40.811  26.142  27.559  1.00  0.00     0.134 A 
ATOM     69  C   UNL A   1      42.091  28.002  26.765  1.00  0.00     0.134 A 
ATOM     70  F   UNL A   1      40.059  25.542  28.494  1.00  0.00    -0.206 F 
ATOM     71  C   UNL A   1      41.135  25.420  26.409  1.00  0.00     0.040 A 
ATOM     72  C   UNL A   1      42.401  27.302  25.599  1.00  0.00     0.040 A 
ATOM     73  F   UNL A   1      42.579  29.243  26.905  1.00  0.00    -0.206 F 
ATOM     74  C   UNL A   1      41.929  26.002  25.423  1.00  0.00     0.006 A 
ENDBRANCH  46  67
BRANCH  58  75
ATOM     75  C   UNL A   1      44.303  27.705  34.019  1.00  0.00     0.057 A 
ATOM     76  C   UNL A   1      45.588  28.257  33.944  1.00  0.00     0.134 A 
ATOM     77  C   UNL A   1      44.165  26.467  34.659  1.00  0.00     0.134 A 
ATOM     78  F   UNL A   1      45.786  29.434  33.330  1.00  0.00    -0.206 F 
ATOM     79  C   UNL A   1      46.699  27.590  34.461  1.00  0.00     0.040 A 
ATOM     80  C   UNL A   1      45.266  25.801  35.200  1.00  0.00     0.040 A 
ATOM     81  F   UNL A   1      42.960  25.887  34.771  1.00  0.00    -0.206 F 
ATOM     82  C   UNL A   1      46.538  26.360  35.095  1.00  0.00     0.006 A 
ENDBRANCH  58  75
ENDBRANCH  32  33
ENDBRANCH  25  27
ENDBRANCH  24  25
ENDBRANCH  23  24
ENDBRANCH   1  23
TORSDOF 17
ENDMDL
MODEL 2
REMARK VINA RESULT:     -10.6      1.626      2.756
REMARK SMILES C[C@H](/N=C(\Cc1ccccc1)C(=O)OC(C)(C)C)C(=O)OCCOC(=O)c1ccc(-c2c3nc(c(-c4c(F)cccc4F)c4ccc([nH]4)c(-c4c(F)cccc4F)c4nc(c(-c5c(F)cccc5F)c5ccc2[nH]5)C=C4)C=C3)cc1
REMARK SMILES IDX 22 1 21 2 19 3 20 4 2 5 1 6 3 7 4 8 5 9 6 10 7 11 11 12 8 13
REMARK SMILES IDX 10 14 9 15 12 16 13 17 14 18 15 19 16 20 17 21 18 22 23 23
REMARK SMILES IDX 24 24 25 25 26 26 27 27 28 28 80 29 29 30 79 31 30 32 31 33
REMARK SMILES IDX 32 34 73 35 33 36 78 37 72 38 74 39 34 40 77 41 71 42 70 43
REMARK SMILES IDX 35 45 61 46 44 47 60 48 45 49 48 50 59 51 75 52 46 53 47 54
REMARK SMILES IDX 58 56 76 57 49 58 36 59 37 60 42 61 38 62 39 63 41 64 43 65
REMARK SMILES IDX 40 66 62 67 63 68 68 69 64 70 65 71 67 72 69 73 66 74 50 75
REMARK SMILES IDX 51 76 56 77 52 78 53 79 55 80 57 81 54 82
REMARK H PARENT 74 44 48 55
REMARK Flexibility Score: inf
ROOT
ATOM      1  C   UNL A   1      31.476  32.075  26.642  1.00  0.00     0.274 C 
ENDROOT
BRANCH   1   2
ATOM      2  O   UNL A   1      32.406  31.063  27.074  1.00  0.00    -0.460 OA
BRANCH   2   3
ATOM      3  C   UNL A   1      32.550  29.987  26.249  1.00  0.00     0.330 C 
ATOM      4  O   UNL A   1      32.348  30.009  25.040  1.00  0.00    -0.250 OA
BRANCH   3   5
ATOM      5  C   UNL A   1      33.008  28.723  26.982  1.00  0.00     0.212 C 
ATOM      6  C   UNL A   1      34.481  28.448  26.762  1.00  0.00     0.046 C 
BRANCH   5   7
ATOM      7  N   UNL A   1      32.064  27.609  26.831  1.00  0.00    -0.267 NA
ATOM      8  C   UNL A   1      31.889  26.790  25.857  1.00  0.00     0.125 C 
BRANCH   8   9
ATOM      9  C   UNL A   1      32.688  26.710  24.577  1.00  0.00     0.099 C 
BRANCH   9  10
ATOM     10  C   UNL A   1      33.675  25.558  24.528  1.00  0.00    -0.042 A 
ATOM     11  C   UNL A   1      33.794  24.824  23.338  1.00  0.00     0.004 A 
ATOM     12  C   UNL A   1      34.451  25.160  25.631  1.00  0.00     0.004 A 
ATOM     13  C   UNL A   1      34.661  23.731  23.256  1.00  0.00     0.000 A 
ATOM     14  C   UNL A   1      35.310  24.063  25.550  1.00  0.00     0.000 A 
ATOM     15  C   UNL A   1      35.415  23.348  24.362  1.00  0.00     0.000 A 
ENDBRANCH   9  10
ENDBRANCH   8   9
BRANCH   8  16
ATOM     16  C   UNL A   1      30.793  25.706  26.042  1.00  0.00     0.353 C 
ATOM     17  O   UNL A   1      29.676  25.798  25.575  1.00  0.00    -0.245 OA
BRANCH  16  18
ATOM     18  O   UNL A   1      31.252  24.735  26.856  1.00  0.00    -0.455 OA
BRANCH  18  19
ATOM     19  C   UNL A   1      31.150  23.332  26.510  1.00  0.00     0.104 C 
ATOM     20  C   UNL A   1      31.102  23.139  24.990  1.00  0.00     0.056 C 
ATOM     21  C   UNL A   1      32.271  22.515  27.157  1.00  0.00     0.056 C 
ATOM     22  C   UNL A   1      29.804  22.891  27.103  1.00  0.00     0.056 C 
ENDBRANCH  18  19
ENDBRANCH  16  18
ENDBRANCH   8  16
ENDBRANCH   5   7
ENDBRANCH   3   5
ENDBRANCH   2   3
ENDBRANCH   1   2
BRANCH   1  23
ATOM     23  C   UNL A   1      32.092  33.466  26.780  1.00  0.00     0.275 C 
BRANCH  23  24
ATOM     24  O   UNL A   1      32.188  33.832  28.170  1.00  0.00    -0.458 OA
BRANCH  24  25
ATOM     25  C   UNL A   1      33.198  34.678  28.483  1.00  0.00     0.338 C 
ATOM     26  O   UNL A   1      33.185  35.896  28.473  1.00  0.00    -0.246 OA
BRANCH  25  27
ATOM     27  C   UNL A   1      34.369  33.894  28.898  1.00  0.00     0.060 A 
ATOM     28  C   UNL A   1      34.161  32.717  29.614  1.00  0.00     0.016 A 
ATOM     29  C   UNL A   1      35.661  34.369  28.678  1.00  0.00     0.016 A 
ATOM     30  C   UNL A   1      35.244  31.999  30.114  1.00  0.00     0.010 A 
ATOM     31  C   UNL A   1      36.753  33.644  29.173  1.00  0.00     0.010 A 
ATOM     32  C   UNL A   1      36.551  32.461  29.906  1.00  0.00    -0.014 A 
BRANCH  32  33
ATOM     33  C   UNL A   1      37.688  31.725  30.513  1.00  0.00     0.031 A 
ATOM     34  C   UNL A   1      38.066  31.973  31.947  1.00  0.00     0.074 A 
ATOM     35  C   UNL A   1      38.345  30.794  29.797  1.00  0.00     0.049 A 
ATOM     36  N   UNL A   1      39.054  31.466  32.642  1.00  0.00    -0.248 NA
ATOM     37  C   UNL A   1      37.222  32.914  32.699  1.00  0.00     0.031 C 
ATOM     38  C   UNL A   1      38.047  30.429  28.411  1.00  0.00     0.029 A 
ATOM     39  N   UNL A   1      39.395  29.978  30.139  1.00  0.00    -0.354 N 
ATOM     40  C   UNL A   1      38.960  32.037  33.905  1.00  0.00     0.074 A 
ATOM     41  C   UNL A   1      37.830  32.942  33.877  1.00  0.00     0.031 C 
ATOM     42  C   UNL A   1      38.885  29.452  28.026  1.00  0.00     0.029 A 
ATOM     43  C   UNL A   1      39.806  29.155  29.120  1.00  0.00     0.049 A 
ATOM     44  H   UNL A   1      39.813  29.983  31.031  1.00  0.00     0.167 HD
ATOM     45  C   UNL A   1      39.740  31.819  34.991  1.00  0.00     0.037 A 
ATOM     46  C   UNL A   1      40.823  28.274  29.065  1.00  0.00     0.037 A 
ATOM     47  C   UNL A   1      40.852  30.906  35.027  1.00  0.00     0.049 A 
ATOM     48  C   UNL A   1      41.698  28.083  30.274  1.00  0.00     0.074 A 
ATOM     49  C   UNL A   1      41.709  30.629  36.078  1.00  0.00     0.029 A 
ATOM     50  N   UNL A   1      41.255  30.112  33.964  1.00  0.00    -0.354 N 
ATOM     51  N   UNL A   1      41.616  28.651  31.452  1.00  0.00    -0.248 NA
ATOM     52  C   UNL A   1      42.812  27.133  30.141  1.00  0.00     0.031 C 
ATOM     53  C   UNL A   1      42.649  29.686  35.643  1.00  0.00     0.029 A 
ATOM     54  C   UNL A   1      42.354  29.351  34.332  1.00  0.00     0.049 A 
ATOM     55  H   UNL A   1      40.825  30.091  33.079  1.00  0.00     0.167 HD
ATOM     56  C   UNL A   1      42.657  28.123  32.201  1.00  0.00     0.074 A 
ATOM     57  C   UNL A   1      43.342  27.168  31.354  1.00  0.00     0.031 C 
ATOM     58  C   UNL A   1      43.023  28.408  33.475  1.00  0.00     0.037 A 
BRANCH  45  59
ATOM     59  C   UNL A   1      39.429  32.601  36.233  1.00  0.00     0.057 A 
ATOM     60  C   UNL A   1      40.032  33.836  36.498  1.00  0.00     0.134 A 
ATOM     61  C   UNL A   1      38.479  32.134  37.149  1.00  0.00     0.134 A 
ATOM     62  F   UNL A   1      40.959  34.332  35.664  1.00  0.00    -0.206 F 
ATOM     63  C   UNL A   1      39.713  34.574  37.639  1.00  0.00     0.040 A 
ATOM     64  C   UNL A   1      38.135  32.871  38.284  1.00  0.00     0.040 A 
ATOM     65  F   UNL A   1      37.859  30.960  36.951  1.00  0.00    -0.206 F 
ATOM     66  C   UNL A   1      38.756  34.094  38.532  1.00  0.00     0.006 A 
ENDBRANCH  45  59
BRANCH  46  67
ATOM     67  C   UNL A   1      41.093  27.525  27.814  1.00  0.00     0.057 A 
ATOM     68  C   UNL A   1      41.880  28.071  26.793  1.00  0.00     0.134 A 
ATOM     69  C   UNL A   1      40.548  26.253  27.599  1.00  0.00     0.134 A 
ATOM     70  F   UNL A   1      42.408  29.296  26.930  1.00  0.00    -0.206 F 
ATOM     71  C   UNL A   1      42.102  27.386  25.597  1.00  0.00     0.040 A 
ATOM     72  C   UNL A   1      40.783  25.547  26.419  1.00  0.00     0.040 A 
ATOM     73  F   UNL A   1      39.784  25.677  28.537  1.00  0.00    -0.206 F 
ATOM     74  C   UNL A   1      41.556  26.118  25.409  1.00  0.00     0.006 A 
ENDBRANCH  46  67
BRANCH  58  75
ATOM     75  C   UNL A   1      44.203  27.665  34.025  1.00  0.00     0.057 A 
ATOM     76  C   UNL A   1      45.500  28.187  33.949  1.00  0.00     0.134 A 
ATOM     77  C   UNL A   1      44.039  26.420  34.644  1.00  0.00     0.134 A 
ATOM     78  F   UNL A   1      45.723  29.369  33.354  1.00  0.00    -0.206 F 
ATOM     79  C   UNL A   1      46.599  27.485  34.447  1.00  0.00     0.040 A 
ATOM     80  C   UNL A   1      45.128  25.718  35.166  1.00  0.00     0.040 A 
ATOM     81  F   UNL A   1      42.822  25.867  34.755  1.00  0.00    -0.206 F 
ATOM     82  C   UNL A   1      46.412  26.248  35.061  1.00  0.00     0.006 A 
ENDBRANCH  58  75
ENDBRANCH  32  33
ENDBRANCH  25  27
ENDBRANCH  24  25
ENDBRANCH  23  24
ENDBRANCH   1  23
TORSDOF 17
ENDMDL
MODEL 3
REMARK VINA RESULT:     -10.5      3.440      8.035
REMARK SMILES C[C@H](/N=C(\Cc1ccccc1)C(=O)OC(C)(C)C)C(=O)OCCOC(=O)c1ccc(-c2c3nc(c(-c4c(F)cccc4F)c4ccc([nH]4)c(-c4c(F)cccc4F)c4nc(c(-c5c(F)cccc5F)c5ccc2[nH]5)C=C4)C=C3)cc1
REMARK SMILES IDX 22 1 21 2 19 3 20 4 2 5 1 6 3 7 4 8 5 9 6 10 7 11 11 12 8 13
REMARK SMILES IDX 10 14 9 15 12 16 13 17 14 18 15 19 16 20 17 21 18 22 23 23
REMARK SMILES IDX 24 24 25 25 26 26 27 27 28 28 80 29 29 30 79 31 30 32 31 33
REMARK SMILES IDX 32 34 73 35 33 36 78 37 72 38 74 39 34 40 77 41 71 42 70 43
REMARK SMILES IDX 35 45 61 46 44 47 60 48 45 49 48 50 59 51 75 52 46 53 47 54
REMARK SMILES IDX 58 56 76 57 49 58 36 59 37 60 42 61 38 62 39 63 41 64 43 65
REMARK SMILES IDX 40 66 62 67 63 68 68 69 64 70 65 71 67 72 69 73 66 74 50 75
REMARK SMILES IDX 51 76 56 77 52 78 53 79 55 80 57 81 54 82
REMARK H PARENT 74 44 48 55
REMARK Flexibility Score: inf
ROOT
ATOM      1  C   UNL A   1      38.966  21.474  25.888  1.00  0.00     0.274 C 
ENDROOT
BRANCH   1   2
ATOM      2  O   UNL A   1      37.722  22.187  25.748  1.00  0.00    -0.460 OA
BRANCH   2   3
ATOM      3  C   UNL A   1      36.616  21.427  25.514  1.00  0.00     0.330 C 
ATOM      4  O   UNL A   1      36.644  20.262  25.130  1.00  0.00    -0.250 OA
BRANCH   3   5
ATOM      5  C   UNL A   1      35.304  22.168  25.790  1.00  0.00     0.212 C 
ATOM      6  C   UNL A   1      34.504  21.504  26.892  1.00  0.00     0.046 C 
BRANCH   5   7
ATOM      7  N   UNL A   1      34.603  22.555  24.560  1.00  0.00    -0.267 NA
ATOM      8  C   UNL A   1      34.332  23.717  24.085  1.00  0.00     0.125 C 
BRANCH   8   9
ATOM      9  C   UNL A   1      34.739  25.054  24.657  1.00  0.00     0.099 C 
BRANCH   9  10
ATOM     10  C   UNL A   1      33.629  25.782  25.396  1.00  0.00    -0.042 A 
ATOM     11  C   UNL A   1      33.789  27.148  25.675  1.00  0.00     0.004 A 
ATOM     12  C   UNL A   1      32.463  25.145  25.854  1.00  0.00     0.004 A 
ATOM     13  C   UNL A   1      32.814  27.851  26.386  1.00  0.00     0.000 A 
ATOM     14  C   UNL A   1      31.493  25.847  26.573  1.00  0.00     0.000 A 
ATOM     15  C   UNL A   1      31.668  27.200  26.839  1.00  0.00     0.000 A 
ENDBRANCH   9  10
ENDBRANCH   8   9
BRANCH   8  16
ATOM     16  C   UNL A   1      33.576  23.760  22.729  1.00  0.00     0.353 C 
ATOM     17  O   UNL A   1      32.916  22.834  22.303  1.00  0.00    -0.245 OA
BRANCH  16  18
ATOM     18  O   UNL A   1      33.849  24.917  22.096  1.00  0.00    -0.455 OA
BRANCH  18  19
ATOM     19  C   UNL A   1      32.802  25.809  21.641  1.00  0.00     0.104 C 
ATOM     20  C   UNL A   1      32.571  25.666  20.133  1.00  0.00     0.056 C 
ATOM     21  C   UNL A   1      31.513  25.609  22.441  1.00  0.00     0.056 C 
ATOM     22  C   UNL A   1      33.352  27.215  21.922  1.00  0.00     0.056 C 
ENDBRANCH  18  19
ENDBRANCH  16  18
ENDBRANCH   8  16
ENDBRANCH   5   7
ENDBRANCH   3   5
ENDBRANCH   2   3
ENDBRANCH   1   2
BRANCH   1  23
ATOM     23  C   UNL A   1      39.971  22.299  26.690  1.00  0.00     0.275 C 
BRANCH  23  24
ATOM     24  O   UNL A   1      39.709  23.705  26.523  1.00  0.00    -0.458 OA
BRANCH  24  25
ATOM     25  C   UNL A   1      40.796  24.511  26.564  1.00  0.00     0.338 C 
ATOM     26  O   UNL A   1      41.818  24.425  25.907  1.00  0.00    -0.246 OA
BRANCH  25  27
ATOM     27  C   UNL A   1      40.555  25.590  27.532  1.00  0.00     0.060 A 
ATOM     28  C   UNL A   1      41.480  26.629  27.612  1.00  0.00     0.016 A 
ATOM     29  C   UNL A   1      39.488  25.523  28.426  1.00  0.00     0.016 A 
ATOM     30  C   UNL A   1      41.345  27.616  28.585  1.00  0.00     0.010 A 
ATOM     31  C   UNL A   1      39.345  26.519  29.401  1.00  0.00     0.010 A 
ATOM     32  C   UNL A   1      40.280  27.565  29.495  1.00  0.00    -0.014 A 
BRANCH  32  33
ATOM     33  C   UNL A   1      40.196  28.582  30.574  1.00  0.00     0.031 A 
ATOM     34  C   UNL A   1      39.183  29.690  30.487  1.00  0.00     0.074 A 
ATOM     35  C   UNL A   1      40.988  28.479  31.657  1.00  0.00     0.049 A 
ATOM     36  N   UNL A   1      38.987  30.697  31.302  1.00  0.00    -0.248 NA
ATOM     37  C   UNL A   1      38.271  29.663  29.334  1.00  0.00     0.031 C 
ATOM     38  C   UNL A   1      41.980  27.426  31.881  1.00  0.00     0.029 A 
ATOM     39  N   UNL A   1      41.077  29.267  32.778  1.00  0.00    -0.354 N 
ATOM     40  C   UNL A   1      37.942  31.430  30.753  1.00  0.00     0.074 A 
ATOM     41  C   UNL A   1      37.557  30.763  29.527  1.00  0.00     0.031 C 
ATOM     42  C   UNL A   1      42.567  27.625  33.072  1.00  0.00     0.029 A 
ATOM     43  C   UNL A   1      42.027  28.841  33.674  1.00  0.00     0.049 A 
ATOM     44  H   UNL A   1      40.513  30.061  32.925  1.00  0.00     0.167 HD
ATOM     45  C   UNL A   1      37.352  32.551  31.232  1.00  0.00     0.037 A 
ATOM     46  C   UNL A   1      42.432  29.382  34.839  1.00  0.00     0.037 A 
ATOM     47  C   UNL A   1      37.721  33.205  32.461  1.00  0.00     0.049 A 
ATOM     48  C   UNL A   1      41.787  30.650  35.326  1.00  0.00     0.074 A 
ATOM     49  C   UNL A   1      37.189  34.354  33.022  1.00  0.00     0.029 A 
ATOM     50  N   UNL A   1      38.709  32.760  33.326  1.00  0.00    -0.354 N 
ATOM     51  N   UNL A   1      40.821  31.349  34.782  1.00  0.00    -0.248 NA
ATOM     52  C   UNL A   1      42.296  31.209  36.587  1.00  0.00     0.031 C 
ATOM     53  C   UNL A   1      37.875  34.619  34.213  1.00  0.00     0.029 A 
ATOM     54  C   UNL A   1      38.808  33.615  34.411  1.00  0.00     0.049 A 
ATOM     55  H   UNL A   1      39.258  31.954  33.189  1.00  0.00     0.167 HD
ATOM     56  C   UNL A   1      40.600  32.420  35.636  1.00  0.00     0.074 A 
ATOM     57  C   UNL A   1      41.515  32.266  36.749  1.00  0.00     0.031 C 
ATOM     58  C   UNL A   1      39.725  33.447  35.508  1.00  0.00     0.037 A 
BRANCH  45  59
ATOM     59  C   UNL A   1      36.253  33.158  30.412  1.00  0.00     0.057 A 
ATOM     60  C   UNL A   1      34.907  33.034  30.775  1.00  0.00     0.134 A 
ATOM     61  C   UNL A   1      36.550  33.916  29.272  1.00  0.00     0.134 A 
ATOM     62  F   UNL A   1      34.557  32.311  31.849  1.00  0.00    -0.206 F 
ATOM     63  C   UNL A   1      33.891  33.629  30.025  1.00  0.00     0.040 A 
ATOM     64  C   UNL A   1      35.546  34.534  28.525  1.00  0.00     0.040 A 
ATOM     65  F   UNL A   1      37.821  34.079  28.874  1.00  0.00    -0.206 F 
ATOM     66  C   UNL A   1      34.211  34.389  28.900  1.00  0.00     0.006 A 
ENDBRANCH  45  59
BRANCH  46  67
ATOM     67  C   UNL A   1      43.525  28.746  35.615  1.00  0.00     0.057 A 
ATOM     68  C   UNL A   1      44.862  29.114  35.427  1.00  0.00     0.134 A 
ATOM     69  C   UNL A   1      43.259  27.734  36.546  1.00  0.00     0.134 A 
ATOM     70  F   UNL A   1      45.182  30.058  34.529  1.00  0.00    -0.206 F 
ATOM     71  C   UNL A   1      45.897  28.489  36.124  1.00  0.00     0.040 A 
ATOM     72  C   UNL A   1      44.281  27.119  37.269  1.00  0.00     0.040 A 
ATOM     73  F   UNL A   1      41.999  27.335  36.770  1.00  0.00    -0.206 F 
ATOM     74  C   UNL A   1      45.607  27.491  37.052  1.00  0.00     0.006 A 
ENDBRANCH  46  67
BRANCH  58  75
ATOM     75  C   UNL A   1      39.710  34.467  36.607  1.00  0.00     0.057 A 
ATOM     76  C   UNL A   1      39.003  34.256  37.796  1.00  0.00     0.134 A 
ATOM     77  C   UNL A   1      40.419  35.668  36.477  1.00  0.00     0.134 A 
ATOM     78  F   UNL A   1      38.292  33.131  37.973  1.00  0.00    -0.206 F 
ATOM     79  C   UNL A   1      38.977  35.215  38.810  1.00  0.00     0.040 A 
ATOM     80  C   UNL A   1      40.420  36.625  37.493  1.00  0.00     0.040 A 
ATOM     81  F   UNL A   1      41.123  35.929  35.365  1.00  0.00    -0.206 F 
ATOM     82  C   UNL A   1      39.691  36.402  38.660  1.00  0.00     0.006 A 
ENDBRANCH  58  75
ENDBRANCH  32  33
ENDBRANCH  25  27
ENDBRANCH  24  25
ENDBRANCH  23  24
ENDBRANCH   1  23
TORSDOF 17
ENDMDL
