MODEL 1
REMARK VINA RESULT:     -10.0      0.000      0.000
REMARK SMILES O=C(OCCOC(=O)[C@H]1CC2=c3ccccc3=N[C@H]2[C@@H](c2ccccc2)[NH2+]1)c1ccc(-c2c3nc(c(-c4c(F)cccc4F)c4ccc([nH]4)c(-c4c(F)cccc4F)c4nc(c(-c5c(F)cccc5F)c5ccc2[nH]5)C=C4)C=C3)cc1
REMARK SMILES IDX 4 1 3 2 2 3 1 4 28 5 29 6 81 7 30 8 80 9 31 10 32 11 33 12
REMARK SMILES IDX 74 13 34 14 79 15 73 16 75 17 35 18 78 19 72 20 71 21 36 23
REMARK SMILES IDX 62 24 45 25 61 26 46 27 49 28 60 29 76 30 47 31 48 32 59 34
REMARK SMILES IDX 77 35 50 36 37 37 38 38 43 39 39 40 40 41 42 42 44 43 41 44
REMARK SMILES IDX 63 45 64 46 69 47 65 48 66 49 68 50 70 51 67 52 51 53 52 54
REMARK SMILES IDX 57 55 53 56 54 57 56 58 58 59 55 60 5 61 6 62 7 63 8 64 9 65
REMARK SMILES IDX 10 66 27 67 11 68 20 69 12 72 19 73 13 74 17 75 18 76 14 77
REMARK SMILES IDX 16 78 15 79 21 80 22 81 26 82 23 83 25 84 24 85
REMARK H PARENT 75 22 49 33 27 70 27 71
REMARK Flexibility Score: inf
ROOT
ATOM      1  C   UNL A   1      34.330  36.275  31.883  1.00  0.00     0.275 C 
ENDROOT
BRANCH   1   2
ATOM      2  O   UNL A   1      33.384  35.698  30.967  1.00  0.00    -0.458 OA
BRANCH   2   3
ATOM      3  C   UNL A   1      33.626  34.709  30.084  1.00  0.00     0.338 C 
ATOM      4  O   UNL A   1      32.718  34.336  29.338  1.00  0.00    -0.246 OA
BRANCH   3   5
ATOM      5  C   UNL A   1      34.995  34.123  29.898  1.00  0.00     0.060 A 
ATOM      6  C   UNL A   1      35.278  33.016  30.693  1.00  0.00     0.016 A 
ATOM      7  C   UNL A   1      35.982  34.512  28.982  1.00  0.00     0.016 A 
ATOM      8  C   UNL A   1      36.531  32.408  30.635  1.00  0.00     0.010 A 
ATOM      9  C   UNL A   1      37.257  33.882  28.944  1.00  0.00     0.010 A 
ATOM     10  C   UNL A   1      37.578  32.839  29.815  1.00  0.00    -0.014 A 
BRANCH  10  11
ATOM     11  C   UNL A   1      38.929  32.185  30.013  1.00  0.00     0.031 A 
ATOM     12  C   UNL A   1      39.924  32.683  31.048  1.00  0.00     0.074 A 
ATOM     13  C   UNL A   1      39.194  30.988  29.432  1.00  0.00     0.049 A 
ATOM     14  N   UNL A   1      41.013  32.097  31.502  1.00  0.00    -0.248 NA
ATOM     15  C   UNL A   1      39.686  34.006  31.636  1.00  0.00     0.031 C 
ATOM     16  C   UNL A   1      38.363  30.339  28.415  1.00  0.00     0.029 A 
ATOM     17  N   UNL A   1      40.190  30.064  29.673  1.00  0.00    -0.354 N 
ATOM     18  C   UNL A   1      41.548  32.957  32.457  1.00  0.00     0.074 A 
ATOM     19  C   UNL A   1      40.722  34.137  32.454  1.00  0.00     0.031 C 
ATOM     20  C   UNL A   1      38.804  29.087  28.216  1.00  0.00     0.029 A 
ATOM     21  C   UNL A   1      40.015  28.873  29.003  1.00  0.00     0.049 A 
ATOM     22  H   UNL A   1      40.955  30.240  30.267  1.00  0.00     0.167 HD
ATOM     23  C   UNL A   1      42.608  32.781  33.286  1.00  0.00     0.037 A 
ATOM     24  C   UNL A   1      40.741  27.735  28.990  1.00  0.00     0.037 A 
ATOM     25  C   UNL A   1      43.491  31.645  33.277  1.00  0.00     0.049 A 
ATOM     26  C   UNL A   1      41.997  27.631  29.804  1.00  0.00     0.074 A 
ATOM     27  C   UNL A   1      44.640  31.448  34.030  1.00  0.00     0.029 A 
ATOM     28  N   UNL A   1      43.337  30.526  32.484  1.00  0.00    -0.354 N 
ATOM     29  N   UNL A   1      42.464  28.451  30.710  1.00  0.00    -0.248 NA
ATOM     30  C   UNL A   1      42.851  26.456  29.563  1.00  0.00     0.031 C 
ATOM     31  C   UNL A   1      45.188  30.212  33.683  1.00  0.00     0.029 A 
ATOM     32  C   UNL A   1      44.385  29.649  32.711  1.00  0.00     0.049 A 
ATOM     33  H   UNL A   1      42.595  30.375  31.855  1.00  0.00     0.167 HD
ATOM     34  C   UNL A   1      43.669  27.903  31.131  1.00  0.00     0.074 A 
ATOM     35  C   UNL A   1      43.842  26.657  30.419  1.00  0.00     0.031 C 
ATOM     36  C   UNL A   1      44.563  28.410  32.010  1.00  0.00     0.037 A 
BRANCH  23  37
ATOM     37  C   UNL A   1      42.914  33.830  34.318  1.00  0.00     0.057 A 
ATOM     38  C   UNL A   1      43.701  34.948  34.030  1.00  0.00     0.134 A 
ATOM     39  C   UNL A   1      42.580  33.603  35.660  1.00  0.00     0.134 A 
ATOM     40  F   UNL A   1      44.083  35.206  32.770  1.00  0.00    -0.206 F 
ATOM     41  C   UNL A   1      44.140  35.810  35.039  1.00  0.00     0.040 A 
ATOM     42  C   UNL A   1      43.038  34.439  36.680  1.00  0.00     0.040 A 
ATOM     43  F   UNL A   1      41.840  32.538  36.009  1.00  0.00    -0.206 F 
ATOM     44  C   UNL A   1      43.815  35.552  36.370  1.00  0.00     0.006 A 
ENDBRANCH  23  37
BRANCH  24  45
ATOM     45  C   UNL A   1      40.349  26.615  28.091  1.00  0.00     0.057 A 
ATOM     46  C   UNL A   1      39.401  25.667  28.503  1.00  0.00     0.134 A 
ATOM     47  C   UNL A   1      40.872  26.482  26.800  1.00  0.00     0.134 A 
ATOM     48  F   UNL A   1      38.846  25.751  29.721  1.00  0.00    -0.206 F 
ATOM     49  C   UNL A   1      39.016  24.610  27.681  1.00  0.00     0.040 A 
ATOM     50  C   UNL A   1      40.468  25.448  25.954  1.00  0.00     0.040 A 
ATOM     51  F   UNL A   1      41.750  27.380  26.329  1.00  0.00    -0.206 F 
ATOM     52  C   UNL A   1      39.546  24.502  26.398  1.00  0.00     0.006 A 
ENDBRANCH  24  45
BRANCH  36  53
ATOM     53  C   UNL A   1      45.824  27.636  32.240  1.00  0.00     0.057 A 
ATOM     54  C   UNL A   1      45.896  26.641  33.221  1.00  0.00     0.134 A 
ATOM     55  C   UNL A   1      46.982  27.907  31.501  1.00  0.00     0.134 A 
ATOM     56  F   UNL A   1      44.827  26.346  33.974  1.00  0.00    -0.206 F 
ATOM     57  C   UNL A   1      47.077  25.934  33.453  1.00  0.00     0.040 A 
ATOM     58  C   UNL A   1      48.163  27.194  31.710  1.00  0.00     0.040 A 
ATOM     59  F   UNL A   1      46.974  28.848  30.545  1.00  0.00    -0.206 F 
ATOM     60  C   UNL A   1      48.213  26.205  32.691  1.00  0.00     0.006 A 
ENDBRANCH  36  53
ENDBRANCH  10  11
ENDBRANCH   3   5
ENDBRANCH   2   3
ENDBRANCH   1   2
BRANCH   1  61
ATOM     61  C   UNL A   1      34.167  35.874  33.344  1.00  0.00     0.274 C 
BRANCH  61  62
ATOM     62  O   UNL A   1      35.345  35.267  33.888  1.00  0.00    -0.458 OA
BRANCH  62  63
ATOM     63  C   UNL A   1      35.358  33.903  33.936  1.00  0.00     0.365 C 
ATOM     64  O   UNL A   1      34.344  33.199  34.018  1.00  0.00    -0.245 OA
BRANCH  63  65
ATOM     65  C   UNL A   1      36.772  33.337  34.080  1.00  0.00     0.298 C 
ATOM     66  C   UNL A   1      37.652  34.073  35.158  1.00  0.00     0.111 C 
ATOM     67  N   UNL A   1      36.765  31.854  34.184  1.00  0.00    -0.326 N 
ATOM     68  C   UNL A   1      38.767  33.274  35.942  1.00  0.00    -0.024 C 
ATOM     69  C   UNL A   1      38.184  31.497  34.317  1.00  0.00     0.243 C 
ATOM     70  H   UNL A   1      36.362  31.434  33.347  1.00  0.00     0.347 HD
ATOM     71  H   UNL A   1      36.203  31.519  34.967  1.00  0.00     0.347 HD
ATOM     72  C   UNL A   1      38.774  33.481  37.261  1.00  0.00     0.002 A 
ATOM     73  C   UNL A   1      38.616  31.754  35.779  1.00  0.00     0.196 C 
ATOM     74  C   UNL A   1      39.732  34.013  38.181  1.00  0.00     0.010 A 
ATOM     75  C   UNL A   1      37.884  32.400  37.734  1.00  0.00     0.066 A 
ATOM     76  N   UNL A   1      37.620  31.444  36.882  1.00  0.00    -0.270 NA
ATOM     77  C   UNL A   1      39.409  33.987  39.486  1.00  0.00     0.001 A 
ATOM     78  C   UNL A   1      37.381  32.680  39.109  1.00  0.00     0.028 A 
ATOM     79  C   UNL A   1      38.116  33.477  39.905  1.00  0.00     0.002 A 
BRANCH  69  80
ATOM     80  C   UNL A   1      38.680  30.387  33.407  1.00  0.00     0.012 A 
ATOM     81  C   UNL A   1      37.733  29.737  32.594  1.00  0.00     0.010 A 
ATOM     82  C   UNL A   1      39.905  29.735  33.639  1.00  0.00     0.010 A 
ATOM     83  C   UNL A   1      37.963  28.443  32.126  1.00  0.00     0.001 A 
ATOM     84  C   UNL A   1      40.159  28.466  33.111  1.00  0.00     0.001 A 
ATOM     85  C   UNL A   1      39.174  27.807  32.384  1.00  0.00     0.000 A 
ENDBRANCH  69  80
ENDBRANCH  63  65
ENDBRANCH  62  63
ENDBRANCH  61  62
ENDBRANCH   1  61
TORSDOF 12
ENDMDL
MODEL 2
REMARK VINA RESULT:      -9.7      5.589     11.372
REMARK SMILES O=C(OCCOC(=O)[C@H]1CC2=c3ccccc3=N[C@H]2[C@@H](c2ccccc2)[NH2+]1)c1ccc(-c2c3nc(c(-c4c(F)cccc4F)c4ccc([nH]4)c(-c4c(F)cccc4F)c4nc(c(-c5c(F)cccc5F)c5ccc2[nH]5)C=C4)C=C3)cc1
REMARK SMILES IDX 4 1 3 2 2 3 1 4 28 5 29 6 81 7 30 8 80 9 31 10 32 11 33 12
REMARK SMILES IDX 74 13 34 14 79 15 73 16 75 17 35 18 78 19 72 20 71 21 36 23
REMARK SMILES IDX 62 24 45 25 61 26 46 27 49 28 60 29 76 30 47 31 48 32 59 34
REMARK SMILES IDX 77 35 50 36 37 37 38 38 43 39 39 40 40 41 42 42 44 43 41 44
REMARK SMILES IDX 63 45 64 46 69 47 65 48 66 49 68 50 70 51 67 52 51 53 52 54
REMARK SMILES IDX 57 55 53 56 54 57 56 58 58 59 55 60 5 61 6 62 7 63 8 64 9 65
REMARK SMILES IDX 10 66 27 67 11 68 20 69 12 72 19 73 13 74 17 75 18 76 14 77
REMARK SMILES IDX 16 78 15 79 21 80 22 81 26 82 23 83 25 84 24 85
REMARK H PARENT 75 22 49 33 27 70 27 71
REMARK Flexibility Score: inf
ROOT
ATOM      1  C   UNL A   1      38.796  20.103  25.012  1.00  0.00     0.275 C 
ENDROOT
BRANCH   1   2
ATOM      2  O   UNL A   1      39.705  19.334  25.817  1.00  0.00    -0.458 OA
BRANCH   2   3
ATOM      3  C   UNL A   1      41.025  19.561  25.972  1.00  0.00     0.338 C 
ATOM      4  O   UNL A   1      41.826  18.684  25.640  1.00  0.00    -0.246 OA
BRANCH   3   5
ATOM      5  C   UNL A   1      41.559  20.887  26.427  1.00  0.00     0.060 A 
ATOM      6  C   UNL A   1      41.632  21.054  27.808  1.00  0.00     0.016 A 
ATOM      7  C   UNL A   1      42.050  21.936  25.637  1.00  0.00     0.016 A 
ATOM      8  C   UNL A   1      42.077  22.258  28.350  1.00  0.00     0.010 A 
ATOM      9  C   UNL A   1      42.493  23.160  26.211  1.00  0.00     0.010 A 
ATOM     10  C   UNL A   1      42.468  23.365  27.592  1.00  0.00    -0.014 A 
BRANCH  10  11
ATOM     11  C   UNL A   1      42.743  24.654  28.338  1.00  0.00     0.031 A 
ATOM     12  C   UNL A   1      44.155  25.123  28.645  1.00  0.00     0.074 A 
ATOM     13  C   UNL A   1      41.742  25.544  28.547  1.00  0.00     0.049 A 
ATOM     14  N   UNL A   1      44.566  26.304  29.061  1.00  0.00    -0.248 NA
ATOM     15  C   UNL A   1      45.243  24.151  28.488  1.00  0.00     0.031 C 
ATOM     16  C   UNL A   1      40.318  25.286  28.314  1.00  0.00     0.029 A 
ATOM     17  N   UNL A   1      41.771  26.872  28.920  1.00  0.00    -0.354 N 
ATOM     18  C   UNL A   1      45.952  26.222  29.160  1.00  0.00     0.074 A 
ATOM     19  C   UNL A   1      46.304  24.860  28.851  1.00  0.00     0.031 C 
ATOM     20  C   UNL A   1      39.636  26.436  28.423  1.00  0.00     0.029 A 
ATOM     21  C   UNL A   1      40.546  27.497  28.843  1.00  0.00     0.049 A 
ATOM     22  H   UNL A   1      42.591  27.330  29.215  1.00  0.00     0.167 HD
ATOM     23  C   UNL A   1      46.860  27.187  29.450  1.00  0.00     0.037 A 
ATOM     24  C   UNL A   1      40.169  28.769  29.096  1.00  0.00     0.037 A 
ATOM     25  C   UNL A   1      46.545  28.541  29.821  1.00  0.00     0.049 A 
ATOM     26  C   UNL A   1      41.177  29.777  29.565  1.00  0.00     0.074 A 
ATOM     27  C   UNL A   1      47.416  29.545  30.218  1.00  0.00     0.029 A 
ATOM     28  N   UNL A   1      45.275  29.080  29.851  1.00  0.00    -0.354 N 
ATOM     29  N   UNL A   1      42.479  29.673  29.629  1.00  0.00    -0.248 NA
ATOM     30  C   UNL A   1      40.655  31.070  30.038  1.00  0.00     0.031 C 
ATOM     31  C   UNL A   1      46.671  30.691  30.499  1.00  0.00     0.029 A 
ATOM     32  C   UNL A   1      45.338  30.394  30.286  1.00  0.00     0.049 A 
ATOM     33  H   UNL A   1      44.450  28.604  29.600  1.00  0.00     0.167 HD
ATOM     34  C   UNL A   1      42.928  30.873  30.163  1.00  0.00     0.074 A 
ATOM     35  C   UNL A   1      41.767  31.711  30.363  1.00  0.00     0.031 C 
ATOM     36  C   UNL A   1      44.191  31.232  30.485  1.00  0.00     0.037 A 
BRANCH  23  37
ATOM     37  C   UNL A   1      48.326  26.860  29.380  1.00  0.00     0.057 A 
ATOM     38  C   UNL A   1      49.064  27.008  28.203  1.00  0.00     0.134 A 
ATOM     39  C   UNL A   1      48.943  26.201  30.452  1.00  0.00     0.134 A 
ATOM     40  F   UNL A   1      48.522  27.601  27.129  1.00  0.00    -0.206 F 
ATOM     41  C   UNL A   1      50.369  26.519  28.095  1.00  0.00     0.040 A 
ATOM     42  C   UNL A   1      50.234  25.681  30.346  1.00  0.00     0.040 A 
ATOM     43  F   UNL A   1      48.285  26.010  31.606  1.00  0.00    -0.206 F 
ATOM     44  C   UNL A   1      50.955  25.846  29.166  1.00  0.00     0.006 A 
ENDBRANCH  23  37
BRANCH  24  45
ATOM     45  C   UNL A   1      38.733  29.150  29.003  1.00  0.00     0.057 A 
ATOM     46  C   UNL A   1      38.183  29.573  27.785  1.00  0.00     0.134 A 
ATOM     47  C   UNL A   1      37.871  29.065  30.102  1.00  0.00     0.134 A 
ATOM     48  F   UNL A   1      38.952  29.654  26.688  1.00  0.00    -0.206 F 
ATOM     49  C   UNL A   1      36.843  29.933  27.670  1.00  0.00     0.040 A 
ATOM     50  C   UNL A   1      36.517  29.391  29.992  1.00  0.00     0.040 A 
ATOM     51  F   UNL A   1      38.323  28.627  31.286  1.00  0.00    -0.206 F 
ATOM     52  C   UNL A   1      36.003  29.837  28.776  1.00  0.00     0.006 A 
ENDBRANCH  24  45
BRANCH  36  53
ATOM     53  C   UNL A   1      44.392  32.578  31.110  1.00  0.00     0.057 A 
ATOM     54  C   UNL A   1      44.622  33.715  30.328  1.00  0.00     0.134 A 
ATOM     55  C   UNL A   1      44.389  32.735  32.502  1.00  0.00     0.134 A 
ATOM     56  F   UNL A   1      44.655  33.628  28.990  1.00  0.00    -0.206 F 
ATOM     57  C   UNL A   1      44.833  34.966  30.909  1.00  0.00     0.040 A 
ATOM     58  C   UNL A   1      44.579  33.984  33.094  1.00  0.00     0.040 A 
ATOM     59  F   UNL A   1      44.172  31.682  33.304  1.00  0.00    -0.206 F 
ATOM     60  C   UNL A   1      44.804  35.104  32.296  1.00  0.00     0.006 A 
ENDBRANCH  36  53
ENDBRANCH  10  11
ENDBRANCH   3   5
ENDBRANCH   2   3
ENDBRANCH   1   2
BRANCH   1  61
ATOM     61  C   UNL A   1      38.198  21.336  25.680  1.00  0.00     0.274 C 
BRANCH  61  62
ATOM     62  O   UNL A   1      37.595  22.237  24.744  1.00  0.00    -0.458 OA
BRANCH  62  63
ATOM     63  C   UNL A   1      37.188  23.443  25.237  1.00  0.00     0.365 C 
ATOM     64  O   UNL A   1      37.798  24.082  26.104  1.00  0.00    -0.245 OA
BRANCH  63  65
ATOM     65  C   UNL A   1      35.790  23.831  24.752  1.00  0.00     0.298 C 
ATOM     66  C   UNL A   1      35.137  22.788  23.772  1.00  0.00     0.111 C 
ATOM     67  N   UNL A   1      34.919  24.268  25.875  1.00  0.00    -0.326 N 
ATOM     68  C   UNL A   1      33.566  22.614  23.743  1.00  0.00    -0.024 C 
ATOM     69  C   UNL A   1      33.639  24.593  25.230  1.00  0.00     0.243 C 
ATOM     70  H   UNL A   1      35.309  25.087  26.339  1.00  0.00     0.347 HD
ATOM     71  H   UNL A   1      34.822  23.553  26.597  1.00  0.00     0.347 HD
ATOM     72  C   UNL A   1      33.149  21.345  23.759  1.00  0.00     0.002 A 
ATOM     73  C   UNL A   1      32.885  23.273  24.951  1.00  0.00     0.196 C 
ATOM     74  C   UNL A   1      32.387  20.535  22.860  1.00  0.00     0.010 A 
ATOM     75  C   UNL A   1      32.993  21.106  25.210  1.00  0.00     0.066 A 
ATOM     76  N   UNL A   1      32.987  22.162  25.980  1.00  0.00    -0.270 NA
ATOM     77  C   UNL A   1      32.082  19.289  23.265  1.00  0.00     0.001 A 
ATOM     78  C   UNL A   1      32.962  19.646  25.514  1.00  0.00     0.028 A 
ATOM     79  C   UNL A   1      32.560  18.803  24.546  1.00  0.00     0.002 A 
BRANCH  69  80
ATOM     80  C   UNL A   1      33.021  25.927  25.611  1.00  0.00     0.012 A 
ATOM     81  C   UNL A   1      33.886  27.023  25.781  1.00  0.00     0.010 A 
ATOM     82  C   UNL A   1      31.736  26.009  26.178  1.00  0.00     0.010 A 
ATOM     83  C   UNL A   1      33.517  28.106  26.580  1.00  0.00     0.001 A 
ATOM     84  C   UNL A   1      31.345  27.127  26.920  1.00  0.00     0.001 A 
ATOM     85  C   UNL A   1      32.248  28.159  27.149  1.00  0.00     0.000 A 
ENDBRANCH  69  80
ENDBRANCH  63  65
ENDBRANCH  62  63
ENDBRANCH  61  62
ENDBRANCH   1  61
TORSDOF 12
ENDMDL
MODEL 3
REMARK VINA RESULT:      -9.5      4.177      7.552
REMARK SMILES O=C(OCCOC(=O)[C@H]1CC2=c3ccccc3=N[C@H]2[C@@H](c2ccccc2)[NH2+]1)c1ccc(-c2c3nc(c(-c4c(F)cccc4F)c4ccc([nH]4)c(-c4c(F)cccc4F)c4nc(c(-c5c(F)cccc5F)c5ccc2[nH]5)C=C4)C=C3)cc1
REMARK SMILES IDX 4 1 3 2 2 3 1 4 28 5 29 6 81 7 30 8 80 9 31 10 32 11 33 12
REMARK SMILES IDX 74 13 34 14 79 15 73 16 75 17 35 18 78 19 72 20 71 21 36 23
REMARK SMILES IDX 62 24 45 25 61 26 46 27 49 28 60 29 76 30 47 31 48 32 59 34
REMARK SMILES IDX 77 35 50 36 37 37 38 38 43 39 39 40 40 41 42 42 44 43 41 44
REMARK SMILES IDX 63 45 64 46 69 47 65 48 66 49 68 50 70 51 67 52 51 53 52 54
REMARK SMILES IDX 57 55 53 56 54 57 56 58 58 59 55 60 5 61 6 62 7 63 8 64 9 65
REMARK SMILES IDX 10 66 27 67 11 68 20 69 12 72 19 73 13 74 17 75 18 76 14 77
REMARK SMILES IDX 16 78 15 79 21 80 22 81 26 82 23 83 25 84 24 85
REMARK H PARENT 75 22 49 33 27 70 27 71
REMARK Flexibility Score: inf
ROOT
ATOM      1  C   UNL A   1      31.959  32.138  27.295  1.00  0.00     0.275 C 
ENDROOT
BRANCH   1   2
ATOM      2  O   UNL A   1      32.369  33.515  27.246  1.00  0.00    -0.458 OA
BRANCH   2   3
ATOM      3  C   UNL A   1      32.986  34.202  28.229  1.00  0.00     0.338 C 
ATOM      4  O   UNL A   1      32.452  35.220  28.674  1.00  0.00    -0.246 OA
BRANCH   3   5
ATOM      5  C   UNL A   1      34.245  33.708  28.878  1.00  0.00     0.060 A 
ATOM      6  C   UNL A   1      35.427  34.103  28.256  1.00  0.00     0.016 A 
ATOM      7  C   UNL A   1      34.371  32.962  30.058  1.00  0.00     0.016 A 
ATOM      8  C   UNL A   1      36.659  33.676  28.747  1.00  0.00     0.010 A 
ATOM      9  C   UNL A   1      35.639  32.529  30.538  1.00  0.00     0.010 A 
ATOM     10  C   UNL A   1      36.817  32.839  29.855  1.00  0.00    -0.014 A 
BRANCH  10  11
ATOM     11  C   UNL A   1      38.211  32.319  30.139  1.00  0.00     0.031 A 
ATOM     12  C   UNL A   1      39.078  32.895  31.245  1.00  0.00     0.074 A 
ATOM     13  C   UNL A   1      38.634  31.166  29.564  1.00  0.00     0.049 A 
ATOM     14  N   UNL A   1      40.188  32.412  31.767  1.00  0.00    -0.248 NA
ATOM     15  C   UNL A   1      38.669  34.176  31.831  1.00  0.00     0.031 C 
ATOM     16  C   UNL A   1      37.944  30.455  28.485  1.00  0.00     0.029 A 
ATOM     17  N   UNL A   1      39.700  30.341  29.862  1.00  0.00    -0.354 N 
ATOM     18  C   UNL A   1      40.568  33.304  32.767  1.00  0.00     0.074 A 
ATOM     19  C   UNL A   1      39.629  34.395  32.720  1.00  0.00     0.031 C 
ATOM     20  C   UNL A   1      38.521  29.258  28.302  1.00  0.00     0.029 A 
ATOM     21  C   UNL A   1      39.691  29.151  29.169  1.00  0.00     0.049 A 
ATOM     22  H   UNL A   1      40.401  30.581  30.511  1.00  0.00     0.167 HD
ATOM     23  C   UNL A   1      41.582  33.219  33.665  1.00  0.00     0.037 A 
ATOM     24  C   UNL A   1      40.528  28.091  29.193  1.00  0.00     0.037 A 
ATOM     25  C   UNL A   1      42.573  32.177  33.704  1.00  0.00     0.049 A 
ATOM     26  C   UNL A   1      41.730  28.098  30.091  1.00  0.00     0.074 A 
ATOM     27  C   UNL A   1      43.682  32.082  34.533  1.00  0.00     0.029 A 
ATOM     28  N   UNL A   1      42.586  31.063  32.890  1.00  0.00    -0.354 N 
ATOM     29  N   UNL A   1      42.049  28.944  31.036  1.00  0.00    -0.248 NA
ATOM     30  C   UNL A   1      42.713  27.019  29.896  1.00  0.00     0.031 C 
ATOM     31  C   UNL A   1      44.374  30.914  34.211  1.00  0.00     0.029 A 
ATOM     32  C   UNL A   1      43.700  30.291  33.178  1.00  0.00     0.049 A 
ATOM     33  H   UNL A   1      41.907  30.850  32.209  1.00  0.00     0.167 HD
ATOM     34  C   UNL A   1      43.272  28.512  31.533  1.00  0.00     0.074 A 
ATOM     35  C   UNL A   1      43.617  27.303  30.821  1.00  0.00     0.031 C 
ATOM     36  C   UNL A   1      44.049  29.089  32.477  1.00  0.00     0.037 A 
BRANCH  23  37
ATOM     37  C   UNL A   1      41.709  34.275  34.727  1.00  0.00     0.057 A 
ATOM     38  C   UNL A   1      41.058  34.171  35.959  1.00  0.00     0.134 A 
ATOM     39  C   UNL A   1      42.328  35.495  34.424  1.00  0.00     0.134 A 
ATOM     40  F   UNL A   1      40.418  33.042  36.298  1.00  0.00    -0.206 F 
ATOM     41  C   UNL A   1      41.023  35.241  36.858  1.00  0.00     0.040 A 
ATOM     42  C   UNL A   1      42.273  36.581  35.300  1.00  0.00     0.040 A 
ATOM     43  F   UNL A   1      42.957  35.669  33.251  1.00  0.00    -0.206 F 
ATOM     44  C   UNL A   1      41.625  36.454  36.525  1.00  0.00     0.006 A 
ENDBRANCH  23  37
BRANCH  24  45
ATOM     45  C   UNL A   1      40.312  26.954  28.257  1.00  0.00     0.057 A 
ATOM     46  C   UNL A   1      40.960  26.920  27.014  1.00  0.00     0.134 A 
ATOM     47  C   UNL A   1      39.498  25.866  28.588  1.00  0.00     0.134 A 
ATOM     48  F   UNL A   1      41.772  27.922  26.646  1.00  0.00    -0.206 F 
ATOM     49  C   UNL A   1      40.777  25.867  26.120  1.00  0.00     0.040 A 
ATOM     50  C   UNL A   1      39.333  24.787  27.716  1.00  0.00     0.040 A 
ATOM     51  F   UNL A   1      38.884  25.816  29.779  1.00  0.00    -0.206 F 
ATOM     52  C   UNL A   1      39.965  24.792  26.473  1.00  0.00     0.006 A 
ENDBRANCH  24  45
BRANCH  36  53
ATOM     53  C   UNL A   1      45.363  28.440  32.785  1.00  0.00     0.057 A 
ATOM     54  C   UNL A   1      46.522  28.776  32.078  1.00  0.00     0.134 A 
ATOM     55  C   UNL A   1      45.465  27.452  33.772  1.00  0.00     0.134 A 
ATOM     56  F   UNL A   1      46.486  29.702  31.109  1.00  0.00    -0.206 F 
ATOM     57  C   UNL A   1      47.743  28.155  32.348  1.00  0.00     0.040 A 
ATOM     58  C   UNL A   1      46.684  26.839  34.065  1.00  0.00     0.040 A 
ATOM     59  F   UNL A   1      44.388  27.089  34.486  1.00  0.00    -0.206 F 
ATOM     60  C   UNL A   1      47.827  27.189  33.349  1.00  0.00     0.006 A 
ENDBRANCH  36  53
ENDBRANCH  10  11
ENDBRANCH   3   5
ENDBRANCH   2   3
ENDBRANCH   1   2
BRANCH   1  61
ATOM     61  C   UNL A   1      33.033  31.113  26.954  1.00  0.00     0.274 C 
BRANCH  61  62
ATOM     62  O   UNL A   1      32.678  29.783  27.350  1.00  0.00    -0.458 OA
BRANCH  62  63
ATOM     63  C   UNL A   1      33.639  28.826  27.193  1.00  0.00     0.365 C 
ATOM     64  O   UNL A   1      34.841  29.000  27.430  1.00  0.00    -0.245 OA
BRANCH  63  65
ATOM     65  C   UNL A   1      33.106  27.570  26.502  1.00  0.00     0.298 C 
ATOM     66  C   UNL A   1      31.579  27.644  26.124  1.00  0.00     0.111 C 
ATOM     67  N   UNL A   1      34.002  27.122  25.404  1.00  0.00    -0.326 N 
ATOM     68  C   UNL A   1      31.044  26.862  24.860  1.00  0.00    -0.024 C 
ATOM     69  C   UNL A   1      33.338  25.927  24.864  1.00  0.00     0.243 C 
ATOM     70  H   UNL A   1      34.928  26.891  25.763  1.00  0.00     0.347 HD
ATOM     71  H   UNL A   1      34.145  27.842  24.696  1.00  0.00     0.347 HD
ATOM     72  C   UNL A   1      30.239  27.574  24.068  1.00  0.00     0.002 A 
ATOM     73  C   UNL A   1      32.182  26.386  23.946  1.00  0.00     0.196 C 
ATOM     74  C   UNL A   1      28.878  27.438  23.649  1.00  0.00     0.010 A 
ATOM     75  C   UNL A   1      31.205  28.152  23.109  1.00  0.00     0.066 A 
ATOM     76  N   UNL A   1      32.399  27.620  23.089  1.00  0.00    -0.270 NA
ATOM     77  C   UNL A   1      28.420  28.329  22.752  1.00  0.00     0.001 A 
ATOM     78  C   UNL A   1      30.621  29.326  22.399  1.00  0.00     0.028 A 
ATOM     79  C   UNL A   1      29.283  29.398  22.282  1.00  0.00     0.002 A 
BRANCH  69  80
ATOM     80  C   UNL A   1      34.219  24.705  24.672  1.00  0.00     0.012 A 
ATOM     81  C   UNL A   1      35.213  24.458  25.635  1.00  0.00     0.010 A 
ATOM     82  C   UNL A   1      34.348  24.079  23.418  1.00  0.00     0.010 A 
ATOM     83  C   UNL A   1      36.345  23.706  25.317  1.00  0.00     0.001 A 
ATOM     84  C   UNL A   1      35.450  23.270  23.126  1.00  0.00     0.001 A 
ATOM     85  C   UNL A   1      36.463  23.112  24.064  1.00  0.00     0.000 A 
ENDBRANCH  69  80
ENDBRANCH  63  65
ENDBRANCH  62  63
ENDBRANCH  61  62
ENDBRANCH   1  61
TORSDOF 12
ENDMDL
