MODEL 1
REMARK VINA RESULT:     -11.5      0.000      0.000
REMARK SMILES C[C@H](C(=O)OCCOC(=O)c1ccc(-c2c3nc(c(-c4c(F)cccc4F)c4ccc([nH]4)c(-c4c(F)cccc4F)c4nc(c(-c5c(F)cccc5F)c5ccc2[nH]5)C=C4)C=C3)cc1)N1C(=O)C[C@](C)(c2ccccc2)C1=O
REMARK SMILES IDX 6 1 5 2 3 3 4 4 2 5 1 6 65 7 66 8 77 9 67 10 68 11 69 12
REMARK SMILES IDX 78 13 70 14 71 15 72 16 76 17 73 18 75 19 74 20 7 21 8 22
REMARK SMILES IDX 9 23 10 24 11 25 12 26 64 27 13 28 63 29 14 30 15 31 16 32
REMARK SMILES IDX 57 33 17 34 62 35 56 36 58 37 18 38 61 39 55 40 54 41 19 43
REMARK SMILES IDX 45 44 28 45 44 46 29 47 32 48 43 49 59 50 30 51 31 52 42 54
REMARK SMILES IDX 60 55 33 56 20 57 21 58 26 59 22 60 23 61 25 62 27 63 24 64
REMARK SMILES IDX 46 65 47 66 52 67 48 68 49 69 51 70 53 71 50 72 34 73 35 74
REMARK SMILES IDX 40 75 36 76 37 77 39 78 41 79 38 80
REMARK H PARENT 58 42 32 53
REMARK Flexibility Score: inf
ROOT
ATOM      1  C   UNL A   1      31.399  31.983  26.694  1.00  0.00     0.274 C 
ENDROOT
BRANCH   1   2
ATOM      2  O   UNL A   1      32.023  30.691  26.815  1.00  0.00    -0.461 OA
BRANCH   2   3
ATOM      3  C   UNL A   1      32.015  29.889  25.717  1.00  0.00     0.329 C 
ATOM      4  O   UNL A   1      31.104  29.856  24.896  1.00  0.00    -0.250 OA
BRANCH   3   5
ATOM      5  C   UNL A   1      33.180  28.889  25.717  1.00  0.00     0.200 C 
ATOM      6  C   UNL A   1      34.115  29.132  26.906  1.00  0.00     0.044 C 
BRANCH   5   7
ATOM      7  N   UNL A   1      32.816  27.481  25.534  1.00  0.00    -0.268 N 
ATOM      8  C   UNL A   1      32.057  26.725  26.376  1.00  0.00     0.231 C 
ATOM      9  C   UNL A   1      33.203  26.777  24.427  1.00  0.00     0.240 C 
ATOM     10  O   UNL A   1      31.416  27.115  27.341  1.00  0.00    -0.274 OA
ATOM     11  C   UNL A   1      32.179  25.277  25.995  1.00  0.00     0.122 C 
ATOM     12  C   UNL A   1      32.862  25.299  24.619  1.00  0.00     0.081 C 
ATOM     13  O   UNL A   1      33.785  27.245  23.457  1.00  0.00    -0.273 OA
ATOM     14  C   UNL A   1      31.832  24.904  23.549  1.00  0.00     0.027 C 
BRANCH  12  15
ATOM     15  C   UNL A   1      34.175  24.502  24.594  1.00  0.00    -0.032 A 
ATOM     16  C   UNL A   1      34.628  23.826  23.451  1.00  0.00     0.005 A 
ATOM     17  C   UNL A   1      35.030  24.528  25.718  1.00  0.00     0.005 A 
ATOM     18  C   UNL A   1      35.901  23.245  23.416  1.00  0.00     0.000 A 
ATOM     19  C   UNL A   1      36.302  23.955  25.678  1.00  0.00     0.000 A 
ATOM     20  C   UNL A   1      36.741  23.321  24.522  1.00  0.00     0.000 A 
ENDBRANCH  12  15
ENDBRANCH   5   7
ENDBRANCH   3   5
ENDBRANCH   2   3
ENDBRANCH   1   2
BRANCH   1  21
ATOM     21  C   UNL A   1      32.438  33.091  26.842  1.00  0.00     0.275 C 
BRANCH  21  22
ATOM     22  O   UNL A   1      32.193  33.851  28.038  1.00  0.00    -0.458 OA
BRANCH  22  23
ATOM     23  C   UNL A   1      33.209  34.664  28.411  1.00  0.00     0.338 C 
ATOM     24  O   UNL A   1      33.195  35.875  28.538  1.00  0.00    -0.246 OA
BRANCH  23  25
ATOM     25  C   UNL A   1      34.351  33.828  28.796  1.00  0.00     0.060 A 
ATOM     26  C   UNL A   1      34.086  32.561  29.313  1.00  0.00     0.016 A 
ATOM     27  C   UNL A   1      35.653  34.318  28.742  1.00  0.00     0.016 A 
ATOM     28  C   UNL A   1      35.118  31.785  29.826  1.00  0.00     0.010 A 
ATOM     29  C   UNL A   1      36.697  33.525  29.228  1.00  0.00     0.010 A 
ATOM     30  C   UNL A   1      36.434  32.264  29.795  1.00  0.00    -0.014 A 
BRANCH  30  31
ATOM     31  C   UNL A   1      37.523  31.477  30.423  1.00  0.00     0.031 A 
ATOM     32  C   UNL A   1      37.830  31.664  31.882  1.00  0.00     0.074 A 
ATOM     33  C   UNL A   1      38.224  30.586  29.697  1.00  0.00     0.049 A 
ATOM     34  N   UNL A   1      38.832  31.201  32.583  1.00  0.00    -0.248 NA
ATOM     35  C   UNL A   1      36.887  32.492  32.650  1.00  0.00     0.031 C 
ATOM     36  C   UNL A   1      37.985  30.264  28.290  1.00  0.00     0.029 A 
ATOM     37  N   UNL A   1      39.283  29.787  30.049  1.00  0.00    -0.354 N 
ATOM     38  C   UNL A   1      38.668  31.719  33.862  1.00  0.00     0.074 A 
ATOM     39  C   UNL A   1      37.472  32.532  33.839  1.00  0.00     0.031 C 
ATOM     40  C   UNL A   1      38.864  29.326  27.902  1.00  0.00     0.029 A 
ATOM     41  C   UNL A   1      39.765  29.028  29.011  1.00  0.00     0.049 A 
ATOM     42  H   UNL A   1      39.660  29.760  30.958  1.00  0.00     0.167 HD
ATOM     43  C   UNL A   1      39.448  31.532  34.952  1.00  0.00     0.037 A 
ATOM     44  C   UNL A   1      40.834  28.213  28.951  1.00  0.00     0.037 A 
ATOM     45  C   UNL A   1      40.609  30.681  34.984  1.00  0.00     0.049 A 
ATOM     46  C   UNL A   1      41.704  28.049  30.165  1.00  0.00     0.074 A 
ATOM     47  C   UNL A   1      41.453  30.411  36.048  1.00  0.00     0.029 A 
ATOM     48  N   UNL A   1      41.079  29.951  33.904  1.00  0.00    -0.354 N 
ATOM     49  N   UNL A   1      41.569  28.579  31.357  1.00  0.00    -0.248 NA
ATOM     50  C   UNL A   1      42.885  27.186  30.021  1.00  0.00     0.031 C 
ATOM     51  C   UNL A   1      42.454  29.540  35.602  1.00  0.00     0.029 A 
ATOM     52  C   UNL A   1      42.211  29.240  34.270  1.00  0.00     0.049 A 
ATOM     53  H   UNL A   1      40.671  29.939  33.007  1.00  0.00     0.167 HD
ATOM     54  C   UNL A   1      42.637  28.106  32.106  1.00  0.00     0.074 A 
ATOM     55  C   UNL A   1      43.402  27.233  31.241  1.00  0.00     0.031 C 
ATOM     56  C   UNL A   1      42.958  28.374  33.395  1.00  0.00     0.037 A 
BRANCH  43  57
ATOM     57  C   UNL A   1      39.089  32.289  36.196  1.00  0.00     0.057 A 
ATOM     58  C   UNL A   1      39.594  33.567  36.462  1.00  0.00     0.134 A 
ATOM     59  C   UNL A   1      38.200  31.737  37.126  1.00  0.00     0.134 A 
ATOM     60  F   UNL A   1      40.462  34.146  35.619  1.00  0.00    -0.206 F 
ATOM     61  C   UNL A   1      39.243  34.261  37.622  1.00  0.00     0.040 A 
ATOM     62  C   UNL A   1      37.823  32.430  38.277  1.00  0.00     0.040 A 
ATOM     63  F   UNL A   1      37.677  30.517  36.928  1.00  0.00    -0.206 F 
ATOM     64  C   UNL A   1      38.350  33.694  38.531  1.00  0.00     0.006 A 
ENDBRANCH  43  57
BRANCH  44  65
ATOM     65  C   UNL A   1      41.159  27.512  27.685  1.00  0.00     0.057 A 
ATOM     66  C   UNL A   1      40.674  26.226  27.427  1.00  0.00     0.134 A 
ATOM     67  C   UNL A   1      41.960  28.111  26.705  1.00  0.00     0.134 A 
ATOM     68  F   UNL A   1      39.921  25.592  28.339  1.00  0.00    -0.206 F 
ATOM     69  C   UNL A   1      40.979  25.555  26.241  1.00  0.00     0.040 A 
ATOM     70  C   UNL A   1      42.254  27.462  25.506  1.00  0.00     0.040 A 
ATOM     71  F   UNL A   1      42.457  29.342  26.895  1.00  0.00    -0.206 F 
ATOM     72  C   UNL A   1      41.766  26.178  25.273  1.00  0.00     0.006 A 
ENDBRANCH  44  65
BRANCH  56  73
ATOM     73  C   UNL A   1      44.172  27.694  33.951  1.00  0.00     0.057 A 
ATOM     74  C   UNL A   1      45.434  28.300  33.917  1.00  0.00     0.134 A 
ATOM     75  C   UNL A   1      44.072  26.434  34.553  1.00  0.00     0.134 A 
ATOM     76  F   UNL A   1      45.596  29.500  33.340  1.00  0.00    -0.206 F 
ATOM     77  C   UNL A   1      46.559  27.667  34.447  1.00  0.00     0.040 A 
ATOM     78  C   UNL A   1      45.185  25.800  35.106  1.00  0.00     0.040 A 
ATOM     79  F   UNL A   1      42.889  25.805  34.623  1.00  0.00    -0.206 F 
ATOM     80  C   UNL A   1      46.435  26.415  35.048  1.00  0.00     0.006 A 
ENDBRANCH  56  73
ENDBRANCH  30  31
ENDBRANCH  23  25
ENDBRANCH  22  23
ENDBRANCH  21  22
ENDBRANCH   1  21
TORSDOF 13
ENDMDL
MODEL 2
REMARK VINA RESULT:     -11.4      4.740     10.093
REMARK SMILES C[C@H](C(=O)OCCOC(=O)c1ccc(-c2c3nc(c(-c4c(F)cccc4F)c4ccc([nH]4)c(-c4c(F)cccc4F)c4nc(c(-c5c(F)cccc5F)c5ccc2[nH]5)C=C4)C=C3)cc1)N1C(=O)C[C@](C)(c2ccccc2)C1=O
REMARK SMILES IDX 6 1 5 2 3 3 4 4 2 5 1 6 65 7 66 8 77 9 67 10 68 11 69 12
REMARK SMILES IDX 78 13 70 14 71 15 72 16 76 17 73 18 75 19 74 20 7 21 8 22
REMARK SMILES IDX 9 23 10 24 11 25 12 26 64 27 13 28 63 29 14 30 15 31 16 32
REMARK SMILES IDX 57 33 17 34 62 35 56 36 58 37 18 38 61 39 55 40 54 41 19 43
REMARK SMILES IDX 45 44 28 45 44 46 29 47 32 48 43 49 59 50 30 51 31 52 42 54
REMARK SMILES IDX 60 55 33 56 20 57 21 58 26 59 22 60 23 61 25 62 27 63 24 64
REMARK SMILES IDX 46 65 47 66 52 67 48 68 49 69 51 70 53 71 50 72 34 73 35 74
REMARK SMILES IDX 40 75 36 76 37 77 39 78 41 79 38 80
REMARK H PARENT 58 42 32 53
REMARK Flexibility Score: inf
ROOT
ATOM      1  C   UNL A   1      38.496  19.663  24.990  1.00  0.00     0.274 C 
ENDROOT
BRANCH   1   2
ATOM      2  O   UNL A   1      37.992  21.012  24.995  1.00  0.00    -0.461 OA
BRANCH   2   3
ATOM      3  C   UNL A   1      36.676  21.185  25.288  1.00  0.00     0.329 C 
ATOM      4  O   UNL A   1      35.802  20.363  25.037  1.00  0.00    -0.250 OA
BRANCH   3   5
ATOM      5  C   UNL A   1      36.374  22.603  25.795  1.00  0.00     0.200 C 
ATOM      6  C   UNL A   1      37.640  23.466  25.806  1.00  0.00     0.044 C 
BRANCH   5   7
ATOM      7  N   UNL A   1      35.215  23.265  25.190  1.00  0.00    -0.268 N 
ATOM      8  C   UNL A   1      35.089  23.644  23.887  1.00  0.00     0.231 C 
ATOM      9  C   UNL A   1      34.090  23.548  25.914  1.00  0.00     0.240 C 
ATOM     10  O   UNL A   1      35.836  23.363  22.962  1.00  0.00    -0.274 OA
ATOM     11  C   UNL A   1      33.904  24.556  23.745  1.00  0.00     0.122 C 
ATOM     12  C   UNL A   1      33.153  24.421  25.079  1.00  0.00     0.081 C 
ATOM     13  O   UNL A   1      33.888  23.205  27.072  1.00  0.00    -0.273 OA
ATOM     14  C   UNL A   1      31.855  23.633  24.838  1.00  0.00     0.027 C 
BRANCH  12  15
ATOM     15  C   UNL A   1      32.982  25.763  25.805  1.00  0.00    -0.032 A 
ATOM     16  C   UNL A   1      34.001  26.725  25.868  1.00  0.00     0.005 A 
ATOM     17  C   UNL A   1      31.722  26.112  26.340  1.00  0.00     0.005 A 
ATOM     18  C   UNL A   1      33.758  27.997  26.398  1.00  0.00     0.000 A 
ATOM     19  C   UNL A   1      31.479  27.384  26.861  1.00  0.00     0.000 A 
ATOM     20  C   UNL A   1      32.496  28.331  26.881  1.00  0.00     0.000 A 
ENDBRANCH  12  15
ENDBRANCH   5   7
ENDBRANCH   3   5
ENDBRANCH   2   3
ENDBRANCH   1   2
BRANCH   1  21
ATOM     21  C   UNL A   1      39.515  19.471  26.108  1.00  0.00     0.275 C 
BRANCH  21  22
ATOM     22  O   UNL A   1      40.805  19.147  25.561  1.00  0.00    -0.458 OA
BRANCH  22  23
ATOM     23  C   UNL A   1      41.846  19.355  26.401  1.00  0.00     0.338 C 
ATOM     24  O   UNL A   1      42.683  18.553  26.775  1.00  0.00    -0.246 OA
BRANCH  23  25
ATOM     25  C   UNL A   1      41.914  20.788  26.707  1.00  0.00     0.060 A 
ATOM     26  C   UNL A   1      41.666  21.687  25.671  1.00  0.00     0.016 A 
ATOM     27  C   UNL A   1      42.307  21.239  27.964  1.00  0.00     0.016 A 
ATOM     28  C   UNL A   1      41.856  23.050  25.867  1.00  0.00     0.010 A 
ATOM     29  C   UNL A   1      42.467  22.612  28.172  1.00  0.00     0.010 A 
ATOM     30  C   UNL A   1      42.266  23.524  27.119  1.00  0.00    -0.014 A 
BRANCH  30  31
ATOM     31  C   UNL A   1      42.556  24.967  27.305  1.00  0.00     0.031 A 
ATOM     32  C   UNL A   1      43.855  25.535  26.809  1.00  0.00     0.074 A 
ATOM     33  C   UNL A   1      41.655  25.771  27.899  1.00  0.00     0.049 A 
ATOM     34  N   UNL A   1      44.372  26.720  27.009  1.00  0.00    -0.248 NA
ATOM     35  C   UNL A   1      44.689  24.644  25.986  1.00  0.00     0.031 C 
ATOM     36  C   UNL A   1      40.331  25.359  28.370  1.00  0.00     0.029 A 
ATOM     37  N   UNL A   1      41.719  27.106  28.209  1.00  0.00    -0.354 N 
ATOM     38  C   UNL A   1      45.610  26.703  26.378  1.00  0.00     0.074 A 
ATOM     39  C   UNL A   1      45.768  25.389  25.791  1.00  0.00     0.031 C 
ATOM     40  C   UNL A   1      39.705  26.423  28.897  1.00  0.00     0.029 A 
ATOM     41  C   UNL A   1      40.603  27.572  28.858  1.00  0.00     0.049 A 
ATOM     42  H   UNL A   1      42.492  27.674  27.987  1.00  0.00     0.167 HD
ATOM     43  C   UNL A   1      46.529  27.693  26.301  1.00  0.00     0.037 A 
ATOM     44  C   UNL A   1      40.348  28.781  29.395  1.00  0.00     0.037 A 
ATOM     45  C   UNL A   1      46.346  29.014  26.843  1.00  0.00     0.049 A 
ATOM     46  C   UNL A   1      41.398  29.853  29.325  1.00  0.00     0.074 A 
ATOM     47  C   UNL A   1      47.212  30.094  26.798  1.00  0.00     0.029 A 
ATOM     48  N   UNL A   1      45.212  29.438  27.517  1.00  0.00    -0.354 N 
ATOM     49  N   UNL A   1      42.585  29.814  28.769  1.00  0.00    -0.248 NA
ATOM     50  C   UNL A   1      41.081  31.133  29.974  1.00  0.00     0.031 C 
ATOM     51  C   UNL A   1      46.612  31.164  27.471  1.00  0.00     0.029 A 
ATOM     52  C   UNL A   1      45.359  30.760  27.906  1.00  0.00     0.049 A 
ATOM     53  H   UNL A   1      44.418  28.883  27.694  1.00  0.00     0.167 HD
ATOM     54  C   UNL A   1      43.149  31.063  28.988  1.00  0.00     0.074 A 
ATOM     55  C   UNL A   1      42.169  31.844  29.715  1.00  0.00     0.031 C 
ATOM     56  C   UNL A   1      44.371  31.522  28.625  1.00  0.00     0.037 A 
BRANCH  43  57
ATOM     57  C   UNL A   1      47.832  27.375  25.632  1.00  0.00     0.057 A 
ATOM     58  C   UNL A   1      48.942  26.909  26.345  1.00  0.00     0.134 A 
ATOM     59  C   UNL A   1      47.964  27.512  24.244  1.00  0.00     0.134 A 
ATOM     60  F   UNL A   1      48.886  26.771  27.678  1.00  0.00    -0.206 F 
ATOM     61  C   UNL A   1      50.147  26.610  25.704  1.00  0.00     0.040 A 
ATOM     62  C   UNL A   1      49.155  27.194  23.588  1.00  0.00     0.040 A 
ATOM     63  F   UNL A   1      46.937  27.950  23.501  1.00  0.00    -0.206 F 
ATOM     64  C   UNL A   1      50.253  26.747  24.321  1.00  0.00     0.006 A 
ENDBRANCH  43  57
BRANCH  44  65
ATOM     65  C   UNL A   1      39.053  29.030  30.072  1.00  0.00     0.057 A 
ATOM     66  C   UNL A   1      38.870  28.705  31.420  1.00  0.00     0.134 A 
ATOM     67  C   UNL A   1      37.971  29.598  29.390  1.00  0.00     0.134 A 
ATOM     68  F   UNL A   1      39.863  28.137  32.119  1.00  0.00    -0.206 F 
ATOM     69  C   UNL A   1      37.652  28.929  32.066  1.00  0.00     0.040 A 
ATOM     70  C   UNL A   1      36.755  29.849  30.028  1.00  0.00     0.040 A 
ATOM     71  F   UNL A   1      38.084  29.929  28.095  1.00  0.00    -0.206 F 
ATOM     72  C   UNL A   1      36.593  29.510  31.369  1.00  0.00     0.006 A 
ENDBRANCH  44  65
BRANCH  56  73
ATOM     73  C   UNL A   1      44.703  32.938  28.984  1.00  0.00     0.057 A 
ATOM     74  C   UNL A   1      45.358  33.260  30.179  1.00  0.00     0.134 A 
ATOM     75  C   UNL A   1      44.389  33.988  28.111  1.00  0.00     0.134 A 
ATOM     76  F   UNL A   1      45.670  32.300  31.062  1.00  0.00    -0.206 F 
ATOM     77  C   UNL A   1      45.674  34.580  30.502  1.00  0.00     0.040 A 
ATOM     78  C   UNL A   1      44.719  35.309  28.413  1.00  0.00     0.040 A 
ATOM     79  F   UNL A   1      43.767  33.744  26.948  1.00  0.00    -0.206 F 
ATOM     80  C   UNL A   1      45.360  35.608  29.615  1.00  0.00     0.006 A 
ENDBRANCH  56  73
ENDBRANCH  30  31
ENDBRANCH  23  25
ENDBRANCH  22  23
ENDBRANCH  21  22
ENDBRANCH   1  21
TORSDOF 13
ENDMDL
MODEL 3
REMARK VINA RESULT:     -11.4      4.307      7.702
REMARK SMILES C[C@H](C(=O)OCCOC(=O)c1ccc(-c2c3nc(c(-c4c(F)cccc4F)c4ccc([nH]4)c(-c4c(F)cccc4F)c4nc(c(-c5c(F)cccc5F)c5ccc2[nH]5)C=C4)C=C3)cc1)N1C(=O)C[C@](C)(c2ccccc2)C1=O
REMARK SMILES IDX 6 1 5 2 3 3 4 4 2 5 1 6 65 7 66 8 77 9 67 10 68 11 69 12
REMARK SMILES IDX 78 13 70 14 71 15 72 16 76 17 73 18 75 19 74 20 7 21 8 22
REMARK SMILES IDX 9 23 10 24 11 25 12 26 64 27 13 28 63 29 14 30 15 31 16 32
REMARK SMILES IDX 57 33 17 34 62 35 56 36 58 37 18 38 61 39 55 40 54 41 19 43
REMARK SMILES IDX 45 44 28 45 44 46 29 47 32 48 43 49 59 50 30 51 31 52 42 54
REMARK SMILES IDX 60 55 33 56 20 57 21 58 26 59 22 60 23 61 25 62 27 63 24 64
REMARK SMILES IDX 46 65 47 66 52 67 48 68 49 69 51 70 53 71 50 72 34 73 35 74
REMARK SMILES IDX 40 75 36 76 37 77 39 78 41 79 38 80
REMARK H PARENT 58 42 32 53
REMARK Flexibility Score: inf
ROOT
ATOM      1  C   UNL A   1      35.253  21.444  25.563  1.00  0.00     0.274 C 
ENDROOT
BRANCH   1   2
ATOM      2  O   UNL A   1      34.386  21.767  24.460  1.00  0.00    -0.461 OA
BRANCH   2   3
ATOM      3  C   UNL A   1      34.580  22.963  23.844  1.00  0.00     0.329 C 
ATOM      4  O   UNL A   1      35.420  23.787  24.190  1.00  0.00    -0.250 OA
BRANCH   3   5
ATOM      5  C   UNL A   1      33.506  23.254  22.786  1.00  0.00     0.200 C 
ATOM      6  C   UNL A   1      32.574  22.052  22.601  1.00  0.00     0.044 C 
BRANCH   5   7
ATOM      7  N   UNL A   1      32.798  24.530  22.926  1.00  0.00    -0.268 N 
ATOM      8  C   UNL A   1      32.790  25.554  22.026  1.00  0.00     0.231 C 
ATOM      9  C   UNL A   1      32.022  24.805  24.017  1.00  0.00     0.240 C 
ATOM     10  O   UNL A   1      33.229  25.536  20.887  1.00  0.00    -0.274 OA
ATOM     11  C   UNL A   1      32.218  26.783  22.674  1.00  0.00     0.122 C 
ATOM     12  C   UNL A   1      31.596  26.273  23.983  1.00  0.00     0.081 C 
ATOM     13  O   UNL A   1      31.755  24.016  24.915  1.00  0.00    -0.273 OA
ATOM     14  C   UNL A   1      30.064  26.323  23.854  1.00  0.00     0.027 C 
BRANCH  12  15
ATOM     15  C   UNL A   1      32.174  26.965  25.226  1.00  0.00    -0.032 A 
ATOM     16  C   UNL A   1      33.516  27.361  25.316  1.00  0.00     0.005 A 
ATOM     17  C   UNL A   1      31.314  27.326  26.287  1.00  0.00     0.005 A 
ATOM     18  C   UNL A   1      33.969  28.129  26.396  1.00  0.00     0.000 A 
ATOM     19  C   UNL A   1      31.765  28.098  27.359  1.00  0.00     0.000 A 
ATOM     20  C   UNL A   1      33.092  28.509  27.408  1.00  0.00     0.000 A 
ENDBRANCH  12  15
ENDBRANCH   5   7
ENDBRANCH   3   5
ENDBRANCH   2   3
ENDBRANCH   1   2
BRANCH   1  21
ATOM     21  C   UNL A   1      36.434  20.606  25.084  1.00  0.00     0.275 C 
BRANCH  21  22
ATOM     22  O   UNL A   1      37.614  21.421  24.972  1.00  0.00    -0.458 OA
BRANCH  22  23
ATOM     23  C   UNL A   1      38.660  21.010  25.727  1.00  0.00     0.338 C 
ATOM     24  O   UNL A   1      39.119  19.886  25.829  1.00  0.00    -0.246 OA
BRANCH  23  25
ATOM     25  C   UNL A   1      39.286  22.191  26.331  1.00  0.00     0.060 A 
ATOM     26  C   UNL A   1      38.820  23.446  25.942  1.00  0.00     0.016 A 
ATOM     27  C   UNL A   1      40.375  22.070  27.190  1.00  0.00     0.016 A 
ATOM     28  C   UNL A   1      39.469  24.597  26.371  1.00  0.00     0.010 A 
ATOM     29  C   UNL A   1      41.010  23.229  27.648  1.00  0.00     0.010 A 
ATOM     30  C   UNL A   1      40.576  24.498  27.223  1.00  0.00    -0.014 A 
BRANCH  30  31
ATOM     31  C   UNL A   1      41.324  25.719  27.609  1.00  0.00     0.031 A 
ATOM     32  C   UNL A   1      40.659  26.760  28.464  1.00  0.00     0.074 A 
ATOM     33  C   UNL A   1      42.599  25.890  27.211  1.00  0.00     0.049 A 
ATOM     34  N   UNL A   1      41.072  27.960  28.780  1.00  0.00    -0.248 NA
ATOM     35  C   UNL A   1      39.349  26.403  29.031  1.00  0.00     0.031 C 
ATOM     36  C   UNL A   1      43.380  24.929  26.431  1.00  0.00     0.029 A 
ATOM     37  N   UNL A   1      43.461  26.939  27.411  1.00  0.00    -0.354 N 
ATOM     38  C   UNL A   1      40.054  28.520  29.542  1.00  0.00     0.074 A 
ATOM     39  C   UNL A   1      39.003  27.529  29.639  1.00  0.00     0.031 C 
ATOM     40  C   UNL A   1      44.610  25.428  26.230  1.00  0.00     0.029 A 
ATOM     41  C   UNL A   1      44.683  26.765  26.811  1.00  0.00     0.049 A 
ATOM     42  H   UNL A   1      43.225  27.738  27.935  1.00  0.00     0.167 HD
ATOM     43  C   UNL A   1      40.003  29.750  30.105  1.00  0.00     0.037 A 
ATOM     44  C   UNL A   1      45.731  27.605  26.709  1.00  0.00     0.037 A 
ATOM     45  C   UNL A   1      41.071  30.713  30.048  1.00  0.00     0.049 A 
ATOM     46  C   UNL A   1      45.637  28.977  27.313  1.00  0.00     0.074 A 
ATOM     47  C   UNL A   1      41.122  31.980  30.605  1.00  0.00     0.029 A 
ATOM     48  N   UNL A   1      42.282  30.509  29.407  1.00  0.00    -0.354 N 
ATOM     49  N   UNL A   1      44.652  29.516  27.991  1.00  0.00    -0.248 NA
ATOM     50  C   UNL A   1      46.793  29.865  27.122  1.00  0.00     0.031 C 
ATOM     51  C   UNL A   1      42.355  32.554  30.275  1.00  0.00     0.029 A 
ATOM     52  C   UNL A   1      43.084  31.631  29.542  1.00  0.00     0.049 A 
ATOM     53  H   UNL A   1      42.537  29.688  28.926  1.00  0.00     0.167 HD
ATOM     54  C   UNL A   1      45.074  30.797  28.318  1.00  0.00     0.074 A 
ATOM     55  C   UNL A   1      46.409  30.950  27.779  1.00  0.00     0.031 C 
ATOM     56  C   UNL A   1      44.412  31.763  29.001  1.00  0.00     0.037 A 
BRANCH  43  57
ATOM     57  C   UNL A   1      38.734  30.137  30.805  1.00  0.00     0.057 A 
ATOM     58  C   UNL A   1      38.517  29.861  32.160  1.00  0.00     0.134 A 
ATOM     59  C   UNL A   1      37.728  30.822  30.113  1.00  0.00     0.134 A 
ATOM     60  F   UNL A   1      39.435  29.194  32.875  1.00  0.00    -0.206 F 
ATOM     61  C   UNL A   1      37.332  30.235  32.797  1.00  0.00     0.040 A 
ATOM     62  C   UNL A   1      36.549  31.222  30.744  1.00  0.00     0.040 A 
ATOM     63  F   UNL A   1      37.875  31.120  28.813  1.00  0.00    -0.206 F 
ATOM     64  C   UNL A   1      36.346  30.923  32.090  1.00  0.00     0.006 A 
ENDBRANCH  43  57
BRANCH  44  65
ATOM     65  C   UNL A   1      46.949  27.180  25.977  1.00  0.00     0.057 A 
ATOM     66  C   UNL A   1      48.001  26.539  26.640  1.00  0.00     0.134 A 
ATOM     67  C   UNL A   1      47.090  27.403  24.603  1.00  0.00     0.134 A 
ATOM     68  F   UNL A   1      47.934  26.319  27.962  1.00  0.00    -0.206 F 
ATOM     69  C   UNL A   1      49.155  26.140  25.963  1.00  0.00     0.040 A 
ATOM     70  C   UNL A   1      48.228  26.989  23.909  1.00  0.00     0.040 A 
ATOM     71  F   UNL A   1      46.117  28.014  23.912  1.00  0.00    -0.206 F 
ATOM     72  C   UNL A   1      49.267  26.360  24.591  1.00  0.00     0.006 A 
ENDBRANCH  44  65
BRANCH  56  73
ATOM     73  C   UNL A   1      45.135  33.056  29.225  1.00  0.00     0.057 A 
ATOM     74  C   UNL A   1      45.976  33.249  30.327  1.00  0.00     0.134 A 
ATOM     75  C   UNL A   1      45.010  34.111  28.311  1.00  0.00     0.134 A 
ATOM     76  F   UNL A   1      46.124  32.281  31.245  1.00  0.00    -0.206 F 
ATOM     77  C   UNL A   1      46.655  34.452  30.523  1.00  0.00     0.040 A 
ATOM     78  C   UNL A   1      45.699  35.311  28.485  1.00  0.00     0.040 A 
ATOM     79  F   UNL A   1      44.223  33.986  27.231  1.00  0.00    -0.206 F 
ATOM     80  C   UNL A   1      46.522  35.485  29.597  1.00  0.00     0.006 A 
ENDBRANCH  56  73
ENDBRANCH  30  31
ENDBRANCH  23  25
ENDBRANCH  22  23
ENDBRANCH  21  22
ENDBRANCH   1  21
TORSDOF 13
ENDMDL
