MODEL 1
REMARK VINA RESULT:     -12.8      0.000      0.000
REMARK SMILES CCN1C(=O)[C@H](CC(=O)Nc2ccc(C(=O)OCCOC(=O)c3ccc(-c4c5nc(c(-c6c(F)cccc6F)c6ccc([nH]6)c(-c6c(F)cccc6F)c6nc(c(-c7c(F)cccc7F)c7ccc4[nH]7)C=C6)C=C5)cc3)cc2)S/C1=[NH+]\c1ccc(Cl)cc1
REMARK SMILES IDX 18 1 17 2 15 3 16 4 14 5 11 6 12 7 78 8 13 9 77 10 10 11
REMARK SMILES IDX 8 12 9 13 7 15 6 16 3 17 4 18 80 19 5 20 79 21 81 22 2 24
REMARK SMILES IDX 1 25 82 26 83 27 88 28 84 29 87 30 85 31 86 32 19 33 20 34
REMARK SMILES IDX 21 35 22 36 23 37 24 38 76 39 25 40 75 41 26 42 27 43 28 44
REMARK SMILES IDX 69 45 29 46 74 47 68 48 70 49 30 50 73 51 67 52 66 53 31 55
REMARK SMILES IDX 57 56 40 57 56 58 41 59 44 60 55 61 71 62 42 63 43 64 54 66
REMARK SMILES IDX 72 67 45 68 32 69 33 70 38 71 34 72 35 73 37 74 39 75 36 76
REMARK SMILES IDX 58 77 59 78 64 79 60 80 61 81 63 82 65 83 62 84 46 85 47 86
REMARK SMILES IDX 52 87 48 88 49 89 51 90 53 91 50 92
REMARK H PARENT 10 14 81 23 70 54 44 65
REMARK Flexibility Score: inf
ROOT
ATOM      1  C   UNL A   1      31.403  32.016  26.836  1.00  0.00     0.275 C 
ENDROOT
BRANCH   1   2
ATOM      2  O   UNL A   1      32.473  31.053  26.756  1.00  0.00    -0.458 OA
BRANCH   2   3
ATOM      3  C   UNL A   1      32.100  29.755  26.699  1.00  0.00     0.338 C 
ATOM      4  O   UNL A   1      31.661  29.060  27.603  1.00  0.00    -0.246 OA
BRANCH   3   5
ATOM      5  C   UNL A   1      32.359  29.234  25.350  1.00  0.00     0.060 A 
ATOM      6  C   UNL A   1      32.702  28.118  22.805  1.00  0.00     0.041 A 
ATOM      7  C   UNL A   1      33.786  28.219  23.680  1.00  0.00     0.027 A 
ATOM      8  C   UNL A   1      31.495  28.719  23.164  1.00  0.00     0.027 A 
ATOM      9  C   UNL A   1      33.606  28.743  24.960  1.00  0.00     0.018 A 
ATOM     10  C   UNL A   1      31.314  29.265  24.436  1.00  0.00     0.018 A 
BRANCH   6  11
ATOM     11  N   UNL A   1      32.915  27.321  21.673  1.00  0.00    -0.326 N 
ATOM     12  C   UNL A   1      32.609  26.030  21.372  1.00  0.00     0.226 C 
ATOM     13  O   UNL A   1      33.032  25.574  20.304  1.00  0.00    -0.275 OA
ATOM     14  H   UNL A   1      33.383  27.791  20.945  1.00  0.00     0.169 HD
BRANCH  12  15
ATOM     15  C   UNL A   1      31.787  25.147  22.276  1.00  0.00     0.128 C 
BRANCH  15  16
ATOM     16  C   UNL A   1      32.485  24.574  23.508  1.00  0.00     0.183 C 
ATOM     17  N   UNL A   1      31.609  23.425  25.445  1.00  0.00    -0.190 N 
ATOM     18  C   UNL A   1      31.812  24.667  24.870  1.00  0.00     0.324 C 
ATOM     19  C   UNL A   1      32.105  22.336  24.764  1.00  0.00     0.319 C 
ATOM     20  O   UNL A   1      31.560  25.748  25.393  1.00  0.00    -0.245 OA
ATOM     21  S   UNL A   1      32.838  22.807  23.258  1.00  0.00    -0.022 SA
ATOM     22  N   UNL A   1      32.015  21.141  25.250  1.00  0.00    -0.235 N 
ATOM     23  H   UNL A   1      31.488  21.003  26.069  1.00  0.00     0.313 HD
BRANCH  17  24
ATOM     24  C   UNL A   1      31.080  23.213  26.797  1.00  0.00     0.243 C 
ATOM     25  C   UNL A   1      29.596  22.948  26.970  1.00  0.00     0.054 C 
ENDBRANCH  17  24
BRANCH  22  26
ATOM     26  C   UNL A   1      32.639  20.036  24.658  1.00  0.00     0.125 A 
ATOM     27  C   UNL A   1      32.149  19.509  23.460  1.00  0.00     0.053 A 
ATOM     28  C   UNL A   1      33.654  19.350  25.334  1.00  0.00     0.053 A 
ATOM     29  C   UNL A   1      32.682  18.325  22.934  1.00  0.00     0.025 A 
ATOM     30  C   UNL A   1      34.199  18.177  24.811  1.00  0.00     0.025 A 
ATOM     31  C   UNL A   1      33.707  17.666  23.612  1.00  0.00     0.041 A 
ATOM     32  Cl  UNL A   1      34.350  16.200  22.986  1.00  0.00    -0.084 Cl
ENDBRANCH  22  26
ENDBRANCH  15  16
ENDBRANCH  12  15
ENDBRANCH   6  11
ENDBRANCH   3   5
ENDBRANCH   2   3
ENDBRANCH   1   2
BRANCH   1  33
ATOM     33  C   UNL A   1      31.936  33.446  26.875  1.00  0.00     0.275 C 
BRANCH  33  34
ATOM     34  O   UNL A   1      32.275  33.811  28.224  1.00  0.00    -0.458 OA
BRANCH  34  35
ATOM     35  C   UNL A   1      33.380  34.580  28.338  1.00  0.00     0.338 C 
ATOM     36  O   UNL A   1      33.445  35.797  28.361  1.00  0.00    -0.246 OA
BRANCH  35  37
ATOM     37  C   UNL A   1      34.553  33.742  28.613  1.00  0.00     0.060 A 
ATOM     38  C   UNL A   1      34.309  32.435  29.004  1.00  0.00     0.016 A 
ATOM     39  C   UNL A   1      35.826  34.284  28.754  1.00  0.00     0.016 A 
ATOM     40  C   UNL A   1      35.259  31.731  29.720  1.00  0.00     0.010 A 
ATOM     41  C   UNL A   1      36.845  33.491  29.299  1.00  0.00     0.010 A 
ATOM     42  C   UNL A   1      36.562  32.220  29.834  1.00  0.00    -0.014 A 
BRANCH  42  43
ATOM     43  C   UNL A   1      37.594  31.387  30.512  1.00  0.00     0.031 A 
ATOM     44  C   UNL A   1      37.851  31.541  31.987  1.00  0.00     0.074 A 
ATOM     45  C   UNL A   1      38.287  30.468  29.803  1.00  0.00     0.049 A 
ATOM     46  N   UNL A   1      38.841  31.078  32.705  1.00  0.00    -0.248 NA
ATOM     47  C   UNL A   1      36.877  32.335  32.757  1.00  0.00     0.031 C 
ATOM     48  C   UNL A   1      38.100  30.170  28.378  1.00  0.00     0.029 A 
ATOM     49  N   UNL A   1      39.288  29.605  30.180  1.00  0.00    -0.354 N 
ATOM     50  C   UNL A   1      38.653  31.584  33.985  1.00  0.00     0.074 A 
ATOM     51  C   UNL A   1      37.446  32.380  33.955  1.00  0.00     0.031 C 
ATOM     52  C   UNL A   1      38.913  29.169  28.018  1.00  0.00     0.029 A 
ATOM     53  C   UNL A   1      39.781  28.853  29.139  1.00  0.00     0.049 A 
ATOM     54  H   UNL A   1      39.619  29.533  31.104  1.00  0.00     0.167 HD
ATOM     55  C   UNL A   1      39.432  31.405  35.079  1.00  0.00     0.037 A 
ATOM     56  C   UNL A   1      40.864  28.060  29.060  1.00  0.00     0.037 A 
ATOM     57  C   UNL A   1      40.595  30.555  35.104  1.00  0.00     0.049 A 
ATOM     58  C   UNL A   1      41.732  27.916  30.274  1.00  0.00     0.074 A 
ATOM     59  C   UNL A   1      41.437  30.279  36.167  1.00  0.00     0.029 A 
ATOM     60  N   UNL A   1      41.070  29.835  34.019  1.00  0.00    -0.354 N 
ATOM     61  N   UNL A   1      41.576  28.441  31.465  1.00  0.00    -0.248 NA
ATOM     62  C   UNL A   1      42.936  27.089  30.131  1.00  0.00     0.031 C 
ATOM     63  C   UNL A   1      42.454  29.435  35.710  1.00  0.00     0.029 A 
ATOM     64  C   UNL A   1      42.210  29.135  34.379  1.00  0.00     0.049 A 
ATOM     65  H   UNL A   1      40.659  29.822  33.124  1.00  0.00     0.167 HD
ATOM     66  C   UNL A   1      42.652  27.996  32.218  1.00  0.00     0.074 A 
ATOM     67  C   UNL A   1      43.437  27.136  31.355  1.00  0.00     0.031 C 
ATOM     68  C   UNL A   1      42.967  28.277  33.505  1.00  0.00     0.037 A 
BRANCH  55  69
ATOM     69  C   UNL A   1      39.095  32.174  36.325  1.00  0.00     0.057 A 
ATOM     70  C   UNL A   1      39.630  33.438  36.601  1.00  0.00     0.134 A 
ATOM     71  C   UNL A   1      38.157  31.660  37.232  1.00  0.00     0.134 A 
ATOM     72  F   UNL A   1      40.544  33.983  35.784  1.00  0.00    -0.206 F 
ATOM     73  C   UNL A   1      39.253  34.158  37.738  1.00  0.00     0.040 A 
ATOM     74  C   UNL A   1      37.751  32.381  38.356  1.00  0.00     0.040 A 
ATOM     75  F   UNL A   1      37.601  30.456  37.026  1.00  0.00    -0.206 F 
ATOM     76  C   UNL A   1      38.301  33.633  38.613  1.00  0.00     0.006 A 
ENDBRANCH  55  69
BRANCH  56  77
ATOM     77  C   UNL A   1      41.240  27.428  27.767  1.00  0.00     0.057 A 
ATOM     78  C   UNL A   1      40.860  26.118  27.456  1.00  0.00     0.134 A 
ATOM     79  C   UNL A   1      42.004  28.117  26.814  1.00  0.00     0.134 A 
ATOM     80  F   UNL A   1      40.144  25.397  28.332  1.00  0.00    -0.206 F 
ATOM     81  C   UNL A   1      41.245  25.509  26.260  1.00  0.00     0.040 A 
ATOM     82  C   UNL A   1      42.363  27.535  25.598  1.00  0.00     0.040 A 
ATOM     83  F   UNL A   1      42.398  29.379  27.042  1.00  0.00    -0.206 F 
ATOM     84  C   UNL A   1      41.993  26.220  25.323  1.00  0.00     0.006 A 
ENDBRANCH  56  77
BRANCH  68  85
ATOM     85  C   UNL A   1      44.186  27.608  34.064  1.00  0.00     0.057 A 
ATOM     86  C   UNL A   1      44.131  26.339  34.653  1.00  0.00     0.134 A 
ATOM     87  C   UNL A   1      45.435  28.237  33.991  1.00  0.00     0.134 A 
ATOM     88  F   UNL A   1      42.961  25.693  34.770  1.00  0.00    -0.206 F 
ATOM     89  C   UNL A   1      45.272  25.731  35.174  1.00  0.00     0.040 A 
ATOM     90  C   UNL A   1      46.588  27.624  34.479  1.00  0.00     0.040 A 
ATOM     91  F   UNL A   1      45.556  29.451  33.431  1.00  0.00    -0.206 F 
ATOM     92  C   UNL A   1      46.507  26.370  35.081  1.00  0.00     0.006 A 
ENDBRANCH  68  85
ENDBRANCH  42  43
ENDBRANCH  35  37
ENDBRANCH  34  35
ENDBRANCH  33  34
ENDBRANCH   1  33
TORSDOF 16
ENDMDL
MODEL 2
REMARK VINA RESULT:     -12.7      4.522      8.258
REMARK SMILES CCN1C(=O)[C@H](CC(=O)Nc2ccc(C(=O)OCCOC(=O)c3ccc(-c4c5nc(c(-c6c(F)cccc6F)c6ccc([nH]6)c(-c6c(F)cccc6F)c6nc(c(-c7c(F)cccc7F)c7ccc4[nH]7)C=C6)C=C5)cc3)cc2)S/C1=[NH+]\c1ccc(Cl)cc1
REMARK SMILES IDX 18 1 17 2 15 3 16 4 14 5 11 6 12 7 78 8 13 9 77 10 10 11
REMARK SMILES IDX 8 12 9 13 7 15 6 16 3 17 4 18 80 19 5 20 79 21 81 22 2 24
REMARK SMILES IDX 1 25 82 26 83 27 88 28 84 29 87 30 85 31 86 32 19 33 20 34
REMARK SMILES IDX 21 35 22 36 23 37 24 38 76 39 25 40 75 41 26 42 27 43 28 44
REMARK SMILES IDX 69 45 29 46 74 47 68 48 70 49 30 50 73 51 67 52 66 53 31 55
REMARK SMILES IDX 57 56 40 57 56 58 41 59 44 60 55 61 71 62 42 63 43 64 54 66
REMARK SMILES IDX 72 67 45 68 32 69 33 70 38 71 34 72 35 73 37 74 39 75 36 76
REMARK SMILES IDX 58 77 59 78 64 79 60 80 61 81 63 82 65 83 62 84 46 85 47 86
REMARK SMILES IDX 52 87 48 88 49 89 51 90 53 91 50 92
REMARK H PARENT 10 14 81 23 70 54 44 65
REMARK Flexibility Score: inf
ROOT
ATOM      1  C   UNL A   1      35.894  20.373  24.987  1.00  0.00     0.275 C 
ENDROOT
BRANCH   1   2
ATOM      2  O   UNL A   1      35.573  21.308  26.037  1.00  0.00    -0.458 OA
BRANCH   2   3
ATOM      3  C   UNL A   1      34.306  21.780  26.044  1.00  0.00     0.338 C 
ATOM      4  O   UNL A   1      33.500  21.749  26.961  1.00  0.00    -0.246 OA
BRANCH   3   5
ATOM      5  C   UNL A   1      33.978  22.313  24.715  1.00  0.00     0.060 A 
ATOM      6  C   UNL A   1      33.335  23.506  22.266  1.00  0.00     0.041 A 
ATOM      7  C   UNL A   1      32.647  22.369  22.695  1.00  0.00     0.027 A 
ATOM      8  C   UNL A   1      34.440  23.937  23.000  1.00  0.00     0.027 A 
ATOM      9  C   UNL A   1      32.945  21.797  23.932  1.00  0.00     0.018 A 
ATOM     10  C   UNL A   1      34.757  23.355  24.229  1.00  0.00     0.018 A 
BRANCH   6  11
ATOM     11  N   UNL A   1      32.773  24.170  21.167  1.00  0.00    -0.326 N 
ATOM     12  C   UNL A   1      32.531  25.481  20.896  1.00  0.00     0.226 C 
ATOM     13  O   UNL A   1      31.914  25.747  19.859  1.00  0.00    -0.275 OA
ATOM     14  H   UNL A   1      32.496  23.563  20.442  1.00  0.00     0.169 HD
BRANCH  12  15
ATOM     15  C   UNL A   1      32.978  26.604  21.797  1.00  0.00     0.128 C 
BRANCH  15  16
ATOM     16  C   UNL A   1      31.969  27.115  22.823  1.00  0.00     0.183 C 
ATOM     17  N   UNL A   1      31.399  26.317  25.031  1.00  0.00    -0.190 N 
ATOM     18  C   UNL A   1      31.192  26.123  23.677  1.00  0.00     0.324 C 
ATOM     19  C   UNL A   1      32.180  27.392  25.393  1.00  0.00     0.319 C 
ATOM     20  O   UNL A   1      30.424  25.306  23.181  1.00  0.00    -0.245 OA
ATOM     21  S   UNL A   1      32.786  28.236  23.998  1.00  0.00    -0.022 SA
ATOM     22  N   UNL A   1      32.382  27.688  26.636  1.00  0.00    -0.235 N 
ATOM     23  H   UNL A   1      32.058  27.068  27.328  1.00  0.00     0.313 HD
BRANCH  17  24
ATOM     24  C   UNL A   1      30.701  25.581  26.092  1.00  0.00     0.243 C 
ATOM     25  C   UNL A   1      31.076  24.134  26.348  1.00  0.00     0.054 C 
ENDBRANCH  17  24
BRANCH  22  26
ATOM     26  C   UNL A   1      33.043  28.856  27.035  1.00  0.00     0.125 A 
ATOM     27  C   UNL A   1      32.352  30.069  27.105  1.00  0.00     0.053 A 
ATOM     28  C   UNL A   1      34.432  28.857  27.214  1.00  0.00     0.053 A 
ATOM     29  C   UNL A   1      33.036  31.262  27.372  1.00  0.00     0.025 A 
ATOM     30  C   UNL A   1      35.118  30.039  27.493  1.00  0.00     0.025 A 
ATOM     31  C   UNL A   1      34.416  31.240  27.567  1.00  0.00     0.041 A 
ATOM     32  Cl  UNL A   1      35.266  32.703  27.871  1.00  0.00    -0.084 Cl
ENDBRANCH  22  26
ENDBRANCH  15  16
ENDBRANCH  12  15
ENDBRANCH   6  11
ENDBRANCH   3   5
ENDBRANCH   2   3
ENDBRANCH   1   2
BRANCH   1  33
ATOM     33  C   UNL A   1      37.381  20.027  24.979  1.00  0.00     0.275 C 
BRANCH  33  34
ATOM     34  O   UNL A   1      38.159  21.179  25.351  1.00  0.00    -0.458 OA
BRANCH  34  35
ATOM     35  C   UNL A   1      39.293  20.897  26.028  1.00  0.00     0.338 C 
ATOM     36  O   UNL A   1      39.963  19.879  25.975  1.00  0.00    -0.246 OA
BRANCH  35  37
ATOM     37  C   UNL A   1      39.754  22.082  26.759  1.00  0.00     0.060 A 
ATOM     38  C   UNL A   1      39.272  23.308  26.328  1.00  0.00     0.016 A 
ATOM     39  C   UNL A   1      40.824  22.028  27.645  1.00  0.00     0.016 A 
ATOM     40  C   UNL A   1      39.968  24.470  26.605  1.00  0.00     0.010 A 
ATOM     41  C   UNL A   1      41.403  23.227  28.085  1.00  0.00     0.010 A 
ATOM     42  C   UNL A   1      41.013  24.462  27.532  1.00  0.00    -0.014 A 
BRANCH  42  43
ATOM     43  C   UNL A   1      41.670  25.748  27.898  1.00  0.00     0.031 A 
ATOM     44  C   UNL A   1      40.943  26.764  28.737  1.00  0.00     0.074 A 
ATOM     45  C   UNL A   1      42.936  25.992  27.495  1.00  0.00     0.049 A 
ATOM     46  N   UNL A   1      41.252  28.013  28.971  1.00  0.00    -0.248 NA
ATOM     47  C   UNL A   1      39.695  26.327  29.388  1.00  0.00     0.031 C 
ATOM     48  C   UNL A   1      43.782  25.071  26.726  1.00  0.00     0.029 A 
ATOM     49  N   UNL A   1      43.745  27.088  27.678  1.00  0.00    -0.354 N 
ATOM     50  C   UNL A   1      40.205  28.530  29.725  1.00  0.00     0.074 A 
ATOM     51  C   UNL A   1      39.255  27.457  29.925  1.00  0.00     0.031 C 
ATOM     52  C   UNL A   1      44.993  25.613  26.550  1.00  0.00     0.029 A 
ATOM     53  C   UNL A   1      44.969  26.974  27.059  1.00  0.00     0.049 A 
ATOM     54  H   UNL A   1      43.475  27.878  28.200  1.00  0.00     0.167 HD
ATOM     55  C   UNL A   1      40.054  29.792  30.193  1.00  0.00     0.037 A 
ATOM     56  C   UNL A   1      45.936  27.883  26.843  1.00  0.00     0.037 A 
ATOM     57  C   UNL A   1      41.043  30.828  30.038  1.00  0.00     0.049 A 
ATOM     58  C   UNL A   1      45.721  29.282  27.334  1.00  0.00     0.074 A 
ATOM     59  C   UNL A   1      41.003  32.132  30.499  1.00  0.00     0.029 A 
ATOM     60  N   UNL A   1      42.254  30.672  29.381  1.00  0.00    -0.354 N 
ATOM     61  N   UNL A   1      44.704  29.776  27.999  1.00  0.00    -0.248 NA
ATOM     62  C   UNL A   1      46.773  30.258  27.027  1.00  0.00     0.031 C 
ATOM     63  C   UNL A   1      42.167  32.780  30.074  1.00  0.00     0.029 A 
ATOM     64  C   UNL A   1      42.959  31.864  29.402  1.00  0.00     0.049 A 
ATOM     65  H   UNL A   1      42.567  29.838  28.962  1.00  0.00     0.167 HD
ATOM     66  C   UNL A   1      45.001  31.114  28.205  1.00  0.00     0.074 A 
ATOM     67  C   UNL A   1      46.305  31.347  27.618  1.00  0.00     0.031 C 
ATOM     68  C   UNL A   1      44.260  32.067  28.819  1.00  0.00     0.037 A 
BRANCH  55  69
ATOM     69  C   UNL A   1      38.761  30.149  30.870  1.00  0.00     0.057 A 
ATOM     70  C   UNL A   1      38.547  29.957  32.240  1.00  0.00     0.134 A 
ATOM     71  C   UNL A   1      37.735  30.764  30.138  1.00  0.00     0.134 A 
ATOM     72  F   UNL A   1      39.480  29.360  32.997  1.00  0.00    -0.206 F 
ATOM     73  C   UNL A   1      37.356  30.354  32.855  1.00  0.00     0.040 A 
ATOM     74  C   UNL A   1      36.553  31.191  30.746  1.00  0.00     0.040 A 
ATOM     75  F   UNL A   1      37.876  30.983  28.822  1.00  0.00    -0.206 F 
ATOM     76  C   UNL A   1      36.360  30.983  32.109  1.00  0.00     0.006 A 
ENDBRANCH  55  69
BRANCH  56  77
ATOM     77  C   UNL A   1      47.140  27.523  26.047  1.00  0.00     0.057 A 
ATOM     78  C   UNL A   1      47.139  27.591  24.649  1.00  0.00     0.134 A 
ATOM     79  C   UNL A   1      48.319  27.085  26.667  1.00  0.00     0.134 A 
ATOM     80  F   UNL A   1      46.038  27.984  23.993  1.00  0.00    -0.206 F 
ATOM     81  C   UNL A   1      48.255  27.217  23.898  1.00  0.00     0.040 A 
ATOM     82  C   UNL A   1      49.454  26.744  25.931  1.00  0.00     0.040 A 
ATOM     83  F   UNL A   1      48.393  27.001  28.003  1.00  0.00    -0.206 F 
ATOM     84  C   UNL A   1      49.420  26.798  24.540  1.00  0.00     0.006 A 
ENDBRANCH  56  77
BRANCH  68  85
ATOM     85  C   UNL A   1      44.870  33.433  28.925  1.00  0.00     0.057 A 
ATOM     86  C   UNL A   1      44.631  34.428  27.969  1.00  0.00     0.134 A 
ATOM     87  C   UNL A   1      45.691  33.758  30.012  1.00  0.00     0.134 A 
ATOM     88  F   UNL A   1      43.868  34.171  26.895  1.00  0.00    -0.206 F 
ATOM     89  C   UNL A   1      45.210  35.692  28.078  1.00  0.00     0.040 A 
ATOM     90  C   UNL A   1      46.248  35.029  30.148  1.00  0.00     0.040 A 
ATOM     91  F   UNL A   1      45.953  32.850  30.965  1.00  0.00    -0.206 F 
ATOM     92  C   UNL A   1      46.015  35.997  29.173  1.00  0.00     0.006 A 
ENDBRANCH  68  85
ENDBRANCH  42  43
ENDBRANCH  35  37
ENDBRANCH  34  35
ENDBRANCH  33  34
ENDBRANCH   1  33
TORSDOF 16
ENDMDL
MODEL 3
REMARK VINA RESULT:     -12.5      1.186      6.116
REMARK SMILES CCN1C(=O)[C@H](CC(=O)Nc2ccc(C(=O)OCCOC(=O)c3ccc(-c4c5nc(c(-c6c(F)cccc6F)c6ccc([nH]6)c(-c6c(F)cccc6F)c6nc(c(-c7c(F)cccc7F)c7ccc4[nH]7)C=C6)C=C5)cc3)cc2)S/C1=[NH+]\c1ccc(Cl)cc1
REMARK SMILES IDX 18 1 17 2 15 3 16 4 14 5 11 6 12 7 78 8 13 9 77 10 10 11
REMARK SMILES IDX 8 12 9 13 7 15 6 16 3 17 4 18 80 19 5 20 79 21 81 22 2 24
REMARK SMILES IDX 1 25 82 26 83 27 88 28 84 29 87 30 85 31 86 32 19 33 20 34
REMARK SMILES IDX 21 35 22 36 23 37 24 38 76 39 25 40 75 41 26 42 27 43 28 44
REMARK SMILES IDX 69 45 29 46 74 47 68 48 70 49 30 50 73 51 67 52 66 53 31 55
REMARK SMILES IDX 57 56 40 57 56 58 41 59 44 60 55 61 71 62 42 63 43 64 54 66
REMARK SMILES IDX 72 67 45 68 32 69 33 70 38 71 34 72 35 73 37 74 39 75 36 76
REMARK SMILES IDX 58 77 59 78 64 79 60 80 61 81 63 82 65 83 62 84 46 85 47 86
REMARK SMILES IDX 52 87 48 88 49 89 51 90 53 91 50 92
REMARK H PARENT 10 14 81 23 70 54 44 65
REMARK Flexibility Score: inf
ROOT
ATOM      1  C   UNL A   1      31.368  31.886  26.539  1.00  0.00     0.275 C 
ENDROOT
BRANCH   1   2
ATOM      2  O   UNL A   1      32.420  30.939  26.814  1.00  0.00    -0.458 OA
BRANCH   2   3
ATOM      3  C   UNL A   1      32.079  29.634  26.736  1.00  0.00     0.338 C 
ATOM      4  O   UNL A   1      31.663  28.913  27.630  1.00  0.00    -0.246 OA
BRANCH   3   5
ATOM      5  C   UNL A   1      32.342  29.143  25.376  1.00  0.00     0.060 A 
ATOM      6  C   UNL A   1      32.699  28.078  22.812  1.00  0.00     0.041 A 
ATOM      7  C   UNL A   1      33.791  28.223  23.670  1.00  0.00     0.027 A 
ATOM      8  C   UNL A   1      31.468  28.613  23.197  1.00  0.00     0.027 A 
ATOM      9  C   UNL A   1      33.605  28.722  24.959  1.00  0.00     0.018 A 
ATOM     10  C   UNL A   1      31.281  29.132  24.479  1.00  0.00     0.018 A 
BRANCH   6  11
ATOM     11  N   UNL A   1      32.933  27.307  21.666  1.00  0.00    -0.326 N 
ATOM     12  C   UNL A   1      32.670  26.011  21.346  1.00  0.00     0.226 C 
ATOM     13  O   UNL A   1      33.103  25.588  20.268  1.00  0.00    -0.275 OA
ATOM     14  H   UNL A   1      33.380  27.805  20.943  1.00  0.00     0.169 HD
BRANCH  12  15
ATOM     15  C   UNL A   1      31.884  25.086  22.240  1.00  0.00     0.128 C 
BRANCH  15  16
ATOM     16  C   UNL A   1      32.612  24.509  23.452  1.00  0.00     0.183 C 
ATOM     17  N   UNL A   1      31.785  23.354  25.406  1.00  0.00    -0.190 N 
ATOM     18  C   UNL A   1      31.973  24.597  24.830  1.00  0.00     0.324 C 
ATOM     19  C   UNL A   1      32.265  22.267  24.710  1.00  0.00     0.319 C 
ATOM     20  O   UNL A   1      31.732  25.676  25.363  1.00  0.00    -0.245 OA
ATOM     21  S   UNL A   1      32.962  22.744  23.188  1.00  0.00    -0.022 SA
ATOM     22  N   UNL A   1      32.189  21.071  25.194  1.00  0.00    -0.235 N 
ATOM     23  H   UNL A   1      31.681  20.929  26.026  1.00  0.00     0.313 HD
BRANCH  17  24
ATOM     24  C   UNL A   1      31.288  23.136  26.770  1.00  0.00     0.243 C 
ATOM     25  C   UNL A   1      29.790  23.092  27.006  1.00  0.00     0.054 C 
ENDBRANCH  17  24
BRANCH  22  26
ATOM     26  C   UNL A   1      32.799  19.968  24.584  1.00  0.00     0.125 A 
ATOM     27  C   UNL A   1      32.083  19.176  23.681  1.00  0.00     0.053 A 
ATOM     28  C   UNL A   1      34.073  19.551  24.987  1.00  0.00     0.053 A 
ATOM     29  C   UNL A   1      32.643  17.998  23.172  1.00  0.00     0.025 A 
ATOM     30  C   UNL A   1      34.642  18.385  24.475  1.00  0.00     0.025 A 
ATOM     31  C   UNL A   1      33.921  17.609  23.570  1.00  0.00     0.041 A 
ATOM     32  Cl  UNL A   1      34.604  16.151  22.968  1.00  0.00    -0.084 Cl
ENDBRANCH  22  26
ENDBRANCH  15  16
ENDBRANCH  12  15
ENDBRANCH   6  11
ENDBRANCH   3   5
ENDBRANCH   2   3
ENDBRANCH   1   2
BRANCH   1  33
ATOM     33  C   UNL A   1      31.795  33.313  26.874  1.00  0.00     0.275 C 
BRANCH  33  34
ATOM     34  O   UNL A   1      33.064  33.304  27.553  1.00  0.00    -0.458 OA
BRANCH  34  35
ATOM     35  C   UNL A   1      33.251  34.332  28.408  1.00  0.00     0.338 C 
ATOM     36  O   UNL A   1      32.551  35.319  28.556  1.00  0.00    -0.246 OA
BRANCH  35  37
ATOM     37  C   UNL A   1      34.367  34.039  29.314  1.00  0.00     0.060 A 
ATOM     38  C   UNL A   1      35.622  34.478  28.922  1.00  0.00     0.016 A 
ATOM     39  C   UNL A   1      34.244  33.134  30.363  1.00  0.00     0.016 A 
ATOM     40  C   UNL A   1      36.761  33.876  29.421  1.00  0.00     0.010 A 
ATOM     41  C   UNL A   1      35.403  32.676  31.005  1.00  0.00     0.010 A 
ATOM     42  C   UNL A   1      36.679  33.005  30.510  1.00  0.00    -0.014 A 
BRANCH  42  43
ATOM     43  C   UNL A   1      37.934  32.460  31.100  1.00  0.00     0.031 A 
ATOM     44  C   UNL A   1      38.672  31.338  30.420  1.00  0.00     0.074 A 
ATOM     45  C   UNL A   1      38.426  32.993  32.240  1.00  0.00     0.049 A 
ATOM     46  N   UNL A   1      39.641  30.590  30.881  1.00  0.00    -0.248 NA
ATOM     47  C   UNL A   1      38.259  31.000  29.047  1.00  0.00     0.031 C 
ATOM     48  C   UNL A   1      37.845  34.124  32.975  1.00  0.00     0.029 A 
ATOM     49  N   UNL A   1      39.532  32.664  32.986  1.00  0.00    -0.354 N 
ATOM     50  C   UNL A   1      39.898  29.648  29.892  1.00  0.00     0.074 A 
ATOM     51  C   UNL A   1      38.995  29.925  28.796  1.00  0.00     0.031 C 
ATOM     52  C   UNL A   1      38.620  34.423  34.025  1.00  0.00     0.029 A 
ATOM     53  C   UNL A   1      39.667  33.420  34.127  1.00  0.00     0.049 A 
ATOM     54  H   UNL A   1      40.166  31.956  32.728  1.00  0.00     0.167 HD
ATOM     55  C   UNL A   1      40.801  28.638  29.912  1.00  0.00     0.037 A 
ATOM     56  C   UNL A   1      40.482  33.279  35.187  1.00  0.00     0.037 A 
ATOM     57  C   UNL A   1      41.735  28.420  30.986  1.00  0.00     0.049 A 
ATOM     58  C   UNL A   1      41.440  32.127  35.201  1.00  0.00     0.074 A 
ATOM     59  C   UNL A   1      42.712  27.446  31.094  1.00  0.00     0.029 A 
ATOM     60  N   UNL A   1      41.816  29.196  32.133  1.00  0.00    -0.354 N 
ATOM     61  N   UNL A   1      41.640  31.210  34.285  1.00  0.00    -0.248 NA
ATOM     62  C   UNL A   1      42.271  31.974  36.400  1.00  0.00     0.031 C 
ATOM     63  C   UNL A   1      43.347  27.599  32.330  1.00  0.00     0.029 A 
ATOM     64  C   UNL A   1      42.809  28.706  32.966  1.00  0.00     0.049 A 
ATOM     65  H   UNL A   1      41.252  29.979  32.327  1.00  0.00     0.167 HD
ATOM     66  C   UNL A   1      42.630  30.381  34.790  1.00  0.00     0.074 A 
ATOM     67  C   UNL A   1      43.007  30.921  36.080  1.00  0.00     0.031 C 
ATOM     68  C   UNL A   1      43.173  29.268  34.240  1.00  0.00     0.037 A 
BRANCH  55  69
ATOM     69  C   UNL A   1      40.797  27.659  28.773  1.00  0.00     0.057 A 
ATOM     70  C   UNL A   1      39.911  26.577  28.710  1.00  0.00     0.134 A 
ATOM     71  C   UNL A   1      41.657  27.851  27.682  1.00  0.00     0.134 A 
ATOM     72  F   UNL A   1      39.071  26.324  29.725  1.00  0.00    -0.206 F 
ATOM     73  C   UNL A   1      39.888  25.715  27.609  1.00  0.00     0.040 A 
ATOM     74  C   UNL A   1      41.624  27.015  26.565  1.00  0.00     0.040 A 
ATOM     75  F   UNL A   1      42.528  28.871  27.675  1.00  0.00    -0.206 F 
ATOM     76  C   UNL A   1      40.739  25.941  26.527  1.00  0.00     0.006 A 
ENDBRANCH  55  69
BRANCH  56  77
ATOM     77  C   UNL A   1      40.357  34.190  36.357  1.00  0.00     0.057 A 
ATOM     78  C   UNL A   1      41.148  35.337  36.478  1.00  0.00     0.134 A 
ATOM     79  C   UNL A   1      39.450  33.923  37.393  1.00  0.00     0.134 A 
ATOM     80  F   UNL A   1      42.048  35.639  35.531  1.00  0.00    -0.206 F 
ATOM     81  C   UNL A   1      41.060  36.171  37.594  1.00  0.00     0.040 A 
ATOM     82  C   UNL A   1      39.324  34.769  38.496  1.00  0.00     0.040 A 
ATOM     83  F   UNL A   1      38.655  32.845  37.340  1.00  0.00    -0.206 F 
ATOM     84  C   UNL A   1      40.141  35.892  38.604  1.00  0.00     0.006 A 
ENDBRANCH  56  77
BRANCH  68  85
ATOM     85  C   UNL A   1      44.267  28.597  35.015  1.00  0.00     0.057 A 
ATOM     86  C   UNL A   1      45.614  28.936  34.842  1.00  0.00     0.134 A 
ATOM     87  C   UNL A   1      43.960  27.612  35.962  1.00  0.00     0.134 A 
ATOM     88  F   UNL A   1      45.973  29.858  33.936  1.00  0.00    -0.206 F 
ATOM     89  C   UNL A   1      46.621  28.298  35.565  1.00  0.00     0.040 A 
ATOM     90  C   UNL A   1      44.956  26.991  36.715  1.00  0.00     0.040 A 
ATOM     91  F   UNL A   1      42.687  27.247  36.180  1.00  0.00    -0.206 F 
ATOM     92  C   UNL A   1      46.293  27.328  36.510  1.00  0.00     0.006 A 
ENDBRANCH  68  85
ENDBRANCH  42  43
ENDBRANCH  35  37
ENDBRANCH  34  35
ENDBRANCH  33  34
ENDBRANCH   1  33
TORSDOF 16
ENDMDL
