MODEL 1
REMARK VINA RESULT:     -14.6      0.000      0.000
REMARK SMILES O=C(OCCOC(=O)[C@@H](Cc1ccccc1)N1C(=O)/C(=C/c2ccc3ncccc3c2)SC1=S)c1ccc(-c2c3nc(c(-c4c(F)cccc4F)c4ccc([nH]4)c(-c4c(F)cccc4F)c4nc(c(-c5c(F)cccc5F)c5ccc2[nH]5)C=C4)C=C3)cc1
REMARK SMILES IDX 4 1 3 2 2 3 1 4 35 5 36 6 88 7 37 8 87 9 38 10 39 11 40 12
REMARK SMILES IDX 81 13 41 14 86 15 80 16 82 17 42 18 85 19 79 20 78 21 43 23
REMARK SMILES IDX 69 24 52 25 68 26 53 27 56 28 67 29 83 30 54 31 55 32 66 34
REMARK SMILES IDX 84 35 57 36 44 37 45 38 50 39 46 40 47 41 49 42 51 43 48 44
REMARK SMILES IDX 70 45 71 46 76 47 72 48 73 49 75 50 77 51 74 52 58 53 59 54
REMARK SMILES IDX 64 55 60 56 61 57 63 58 65 59 62 60 5 61 6 62 7 63 8 64 9 65
REMARK SMILES IDX 10 66 11 67 12 68 16 69 13 70 15 71 14 72 17 73 18 74 33 75
REMARK SMILES IDX 19 76 20 77 32 78 34 79 21 80 22 81 23 82 31 83 24 84 30 85
REMARK SMILES IDX 25 86 29 87 26 88 28 89 27 90
REMARK H PARENT 82 22 56 33
REMARK Flexibility Score: inf
ROOT
ATOM      1  C   UNL A   1      32.852  30.631  27.221  1.00  0.00     0.275 C 
ENDROOT
BRANCH   1   2
ATOM      2  O   UNL A   1      34.245  30.894  27.266  1.00  0.00    -0.458 OA
BRANCH   2   3
ATOM      3  C   UNL A   1      34.949  31.097  28.383  1.00  0.00     0.338 C 
ATOM      4  O   UNL A   1      34.546  31.945  29.178  1.00  0.00    -0.246 OA
BRANCH   3   5
ATOM      5  C   UNL A   1      36.213  30.376  28.763  1.00  0.00     0.060 A 
ATOM      6  C   UNL A   1      36.802  29.397  30.245  1.00  0.00     0.016 A 
ATOM      7  C   UNL A   1      37.225  30.349  27.262  1.00  0.00     0.016 A 
ATOM      8  C   UNL A   1      38.444  28.540  30.156  1.00  0.00     0.010 A 
ATOM      9  C   UNL A   1      38.709  29.350  27.172  1.00  0.00     0.010 A 
ATOM     10  C   UNL A   1      39.421  28.564  28.615  1.00  0.00    -0.014 A 
BRANCH  10  11
ATOM     11  C   UNL A   1      40.880  28.103  28.513  1.00  0.00     0.031 A 
ATOM     12  C   UNL A   1      41.325  26.681  28.230  1.00  0.00     0.074 A 
ATOM     13  C   UNL A   1      41.886  28.955  28.754  1.00  0.00     0.049 A 
ATOM     14  N   UNL A   1      42.387  26.261  27.579  1.00  0.00    -0.248 NA
ATOM     15  C   UNL A   1      40.524  25.575  28.761  1.00  0.00     0.031 C 
ATOM     16  C   UNL A   1      41.677  30.211  29.414  1.00  0.00     0.029 A 
ATOM     17  N   UNL A   1      43.241  28.931  28.543  1.00  0.00    -0.354 N 
ATOM     18  C   UNL A   1      42.271  24.874  27.510  1.00  0.00     0.074 A 
ATOM     19  C   UNL A   1      41.049  24.512  28.177  1.00  0.00     0.031 C 
ATOM     20  C   UNL A   1      42.796  30.939  29.405  1.00  0.00     0.029 A 
ATOM     21  C   UNL A   1      43.842  30.153  28.781  1.00  0.00     0.049 A 
ATOM     22  H   UNL A   1      43.733  28.129  28.254  1.00  0.00     0.167 HD
ATOM     23  C   UNL A   1      43.145  23.945  27.057  1.00  0.00     0.037 A 
ATOM     24  C   UNL A   1      45.084  30.595  28.508  1.00  0.00     0.037 A 
ATOM     25  C   UNL A   1      44.532  24.233  26.836  1.00  0.00     0.049 A 
ATOM     26  C   UNL A   1      46.052  29.583  27.970  1.00  0.00     0.074 A 
ATOM     27  C   UNL A   1      45.568  23.355  26.582  1.00  0.00     0.029 A 
ATOM     28  N   UNL A   1      45.094  25.494  26.988  1.00  0.00    -0.354 N 
ATOM     29  N   UNL A   1      45.828  28.329  27.655  1.00  0.00    -0.248 NA
ATOM     30  C   UNL A   1      47.444  30.012  27.806  1.00  0.00     0.031 C 
ATOM     31  C   UNL A   1      46.767  24.072  26.684  1.00  0.00     0.029 A 
ATOM     32  C   UNL A   1      46.470  25.409  26.904  1.00  0.00     0.049 A 
ATOM     33  H   UNL A   1      44.586  26.324  27.136  1.00  0.00     0.167 HD
ATOM     34  C   UNL A   1      47.058  27.801  27.305  1.00  0.00     0.074 A 
ATOM     35  C   UNL A   1      48.010  28.895  27.367  1.00  0.00     0.031 C 
ATOM     36  C   UNL A   1      47.382  26.521  27.005  1.00  0.00     0.037 A 
BRANCH  23  37
ATOM     37  C   UNL A   1      42.633  22.531  26.990  1.00  0.00     0.057 A 
ATOM     38  C   UNL A   1      42.209  21.972  25.773  1.00  0.00     0.134 A 
ATOM     39  C   UNL A   1      42.442  21.766  28.147  1.00  0.00     0.134 A 
ATOM     40  F   UNL A   1      42.330  22.663  24.629  1.00  0.00    -0.206 F 
ATOM     41  C   UNL A   1      41.590  20.720  25.718  1.00  0.00     0.040 A 
ATOM     42  C   UNL A   1      41.834  20.508  28.102  1.00  0.00     0.040 A 
ATOM     43  F   UNL A   1      42.795  22.249  29.348  1.00  0.00    -0.206 F 
ATOM     44  C   UNL A   1      41.395  19.987  26.886  1.00  0.00     0.006 A 
ENDBRANCH  23  37
BRANCH  24  45
ATOM     45  C   UNL A   1      45.445  32.034  28.683  1.00  0.00     0.057 A 
ATOM     46  C   UNL A   1      45.162  32.968  27.678  1.00  0.00     0.134 A 
ATOM     47  C   UNL A   1      46.013  32.536  29.863  1.00  0.00     0.134 A 
ATOM     48  F   UNL A   1      44.625  32.567  26.516  1.00  0.00    -0.206 F 
ATOM     49  C   UNL A   1      45.428  34.332  27.837  1.00  0.00     0.040 A 
ATOM     50  C   UNL A   1      46.234  33.902  30.058  1.00  0.00     0.040 A 
ATOM     51  F   UNL A   1      46.322  31.708  30.872  1.00  0.00    -0.206 F 
ATOM     52  C   UNL A   1      45.946  34.804  29.038  1.00  0.00     0.006 A 
ENDBRANCH  24  45
BRANCH  36  53
ATOM     53  C   UNL A   1      48.831  26.236  26.772  1.00  0.00     0.057 A 
ATOM     54  C   UNL A   1      49.669  25.819  27.813  1.00  0.00     0.134 A 
ATOM     55  C   UNL A   1      49.369  26.313  25.483  1.00  0.00     0.134 A 
ATOM     56  F   UNL A   1      49.207  25.734  29.069  1.00  0.00    -0.206 F 
ATOM     57  C   UNL A   1      51.006  25.503  27.581  1.00  0.00     0.040 A 
ATOM     58  C   UNL A   1      50.696  25.974  25.235  1.00  0.00     0.040 A 
ATOM     59  F   UNL A   1      48.606  26.697  24.449  1.00  0.00    -0.206 F 
ATOM     60  C   UNL A   1      51.519  25.572  26.286  1.00  0.00     0.006 A 
ENDBRANCH  36  53
ENDBRANCH  10  11
ENDBRANCH   3   5
ENDBRANCH   2   3
ENDBRANCH   1   2
BRANCH   1  61
ATOM     61  C   UNL A   1      32.584  29.128  27.241  1.00  0.00     0.274 C 
BRANCH  61  62
ATOM     62  O   UNL A   1      31.545  28.769  26.307  1.00  0.00    -0.461 OA
BRANCH  62  63
ATOM     63  C   UNL A   1      31.833  28.493  24.995  1.00  0.00     0.329 C 
ATOM     64  O   UNL A   1      32.774  28.974  24.382  1.00  0.00    -0.250 OA
BRANCH  63  65
ATOM     65  C   UNL A   1      30.895  27.363  24.439  1.00  0.00     0.206 C 
BRANCH  65  66
ATOM     66  C   UNL A   1      29.543  27.894  23.176  1.00  0.00     0.073 C 
BRANCH  66  67
ATOM     67  C   UNL A   1      28.594  29.749  22.622  1.00  0.00    -0.045 A 
ATOM     68  C   UNL A   1      28.413  31.044  23.474  1.00  0.00     0.004 A 
ATOM     69  C   UNL A   1      28.048  30.263  21.350  1.00  0.00     0.004 A 
ATOM     70  C   UNL A   1      28.412  32.394  23.067  1.00  0.00     0.000 A 
ATOM     71  C   UNL A   1      28.037  31.631  20.908  1.00  0.00     0.000 A 
ATOM     72  C   UNL A   1      28.355  32.682  21.739  1.00  0.00     0.000 A 
ENDBRANCH  66  67
ENDBRANCH  65  66
BRANCH  65  73
ATOM     73  N   UNL A   1      31.716  26.119  24.111  1.00  0.00    -0.278 N 
ATOM     74  C   UNL A   1      32.053  25.318  25.160  1.00  0.00     0.267 C 
ATOM     75  C   UNL A   1      32.716  25.965  23.156  1.00  0.00     0.149 C 
ATOM     76  O   UNL A   1      32.251  25.744  26.289  1.00  0.00    -0.268 OA
ATOM     77  C   UNL A   1      32.579  24.016  24.699  1.00  0.00     0.081 C 
ATOM     78  S   UNL A   1      33.401  24.318  23.238  1.00  0.00    -0.054 SA
ATOM     79  S   UNL A   1      33.383  27.035  22.061  1.00  0.00    -0.052 S 
ATOM     80  C   UNL A   1      32.404  22.868  25.360  1.00  0.00     0.029 C 
BRANCH  80  81
ATOM     81  C   UNL A   1      33.132  21.614  25.157  1.00  0.00    -0.024 A 
ATOM     82  C   UNL A   1      34.520  21.543  25.259  1.00  0.00     0.010 A 
ATOM     83  C   UNL A   1      32.428  20.491  24.715  1.00  0.00     0.018 A 
ATOM     84  C   UNL A   1      35.177  20.330  24.999  1.00  0.00     0.029 A 
ATOM     85  C   UNL A   1      33.087  19.282  24.468  1.00  0.00     0.001 A 
ATOM     86  C   UNL A   1      34.483  19.185  24.623  1.00  0.00     0.070 A 
ATOM     87  C   UNL A   1      32.373  18.147  24.072  1.00  0.00     0.012 A 
ATOM     88  N   UNL A   1      35.140  18.031  24.407  1.00  0.00    -0.256 NA
ATOM     89  C   UNL A   1      33.044  16.950  23.879  1.00  0.00     0.021 A 
ATOM     90  C   UNL A   1      34.414  16.942  24.063  1.00  0.00     0.112 A 
ENDBRANCH  80  81
ENDBRANCH  65  73
ENDBRANCH  63  65
ENDBRANCH  62  63
ENDBRANCH  61  62
ENDBRANCH   1  61
TORSDOF 15
ENDMDL
MODEL 2
REMARK VINA RESULT:     -14.2      4.868     10.907
REMARK SMILES O=C(OCCOC(=O)[C@@H](Cc1ccccc1)N1C(=O)/C(=C/c2ccc3ncccc3c2)SC1=S)c1ccc(-c2c3nc(c(-c4c(F)cccc4F)c4ccc([nH]4)c(-c4c(F)cccc4F)c4nc(c(-c5c(F)cccc5F)c5ccc2[nH]5)C=C4)C=C3)cc1
REMARK SMILES IDX 4 1 3 2 2 3 1 4 35 5 36 6 88 7 37 8 87 9 38 10 39 11 40 12
REMARK SMILES IDX 81 13 41 14 86 15 80 16 82 17 42 18 85 19 79 20 78 21 43 23
REMARK SMILES IDX 69 24 52 25 68 26 53 27 56 28 67 29 83 30 54 31 55 32 66 34
REMARK SMILES IDX 84 35 57 36 44 37 45 38 50 39 46 40 47 41 49 42 51 43 48 44
REMARK SMILES IDX 70 45 71 46 76 47 72 48 73 49 75 50 77 51 74 52 58 53 59 54
REMARK SMILES IDX 64 55 60 56 61 57 63 58 65 59 62 60 5 61 6 62 7 63 8 64 9 65
REMARK SMILES IDX 10 66 11 67 12 68 16 69 13 70 15 71 14 72 17 73 18 74 33 75
REMARK SMILES IDX 19 76 20 77 32 78 34 79 21 80 22 81 23 82 31 83 24 84 30 85
REMARK SMILES IDX 25 86 29 87 26 88 28 89 27 90
REMARK H PARENT 82 22 56 33
REMARK Flexibility Score: inf
ROOT
ATOM      1  C   UNL A   1      37.854  22.466  25.192  1.00  0.00     0.275 C 
ENDROOT
BRANCH   1   2
ATOM      2  O   UNL A   1      38.909  22.017  26.027  1.00  0.00    -0.458 OA
BRANCH   2   3
ATOM      3  C   UNL A   1      40.079  22.642  26.184  1.00  0.00     0.338 C 
ATOM      4  O   UNL A   1      41.108  22.026  25.910  1.00  0.00    -0.246 OA
BRANCH   3   5
ATOM      5  C   UNL A   1      40.259  24.051  26.679  1.00  0.00     0.060 A 
ATOM      6  C   UNL A   1      41.008  25.624  25.997  1.00  0.00     0.016 A 
ATOM      7  C   UNL A   1      39.290  24.156  28.205  1.00  0.00     0.016 A 
ATOM      8  C   UNL A   1      40.827  27.195  26.966  1.00  0.00     0.010 A 
ATOM      9  C   UNL A   1      38.992  25.735  28.997  1.00  0.00     0.010 A 
ATOM     10  C   UNL A   1      39.848  27.228  28.505  1.00  0.00    -0.014 A 
BRANCH  10  11
ATOM     11  C   UNL A   1      39.840  28.398  29.496  1.00  0.00     0.031 A 
ATOM     12  C   UNL A   1      38.903  29.590  29.427  1.00  0.00     0.074 A 
ATOM     13  C   UNL A   1      40.750  28.472  30.477  1.00  0.00     0.049 A 
ATOM     14  N   UNL A   1      38.396  30.300  30.409  1.00  0.00    -0.248 NA
ATOM     15  C   UNL A   1      38.501  30.091  28.110  1.00  0.00     0.031 C 
ATOM     16  C   UNL A   1      41.941  27.674  30.468  1.00  0.00     0.029 A 
ATOM     17  N   UNL A   1      40.883  29.229  31.613  1.00  0.00    -0.354 N 
ATOM     18  C   UNL A   1      37.519  31.205  29.814  1.00  0.00     0.074 A 
ATOM     19  C   UNL A   1      37.553  30.967  28.396  1.00  0.00     0.031 C 
ATOM     20  C   UNL A   1      42.611  27.818  31.615  1.00  0.00     0.029 A 
ATOM     21  C   UNL A   1      41.911  28.792  32.429  1.00  0.00     0.049 A 
ATOM     22  H   UNL A   1      40.309  29.999  31.825  1.00  0.00     0.167 HD
ATOM     23  C   UNL A   1      36.831  32.239  30.353  1.00  0.00     0.037 A 
ATOM     24  C   UNL A   1      42.237  29.122  33.693  1.00  0.00     0.037 A 
ATOM     25  C   UNL A   1      37.142  32.786  31.641  1.00  0.00     0.049 A 
ATOM     26  C   UNL A   1      41.456  30.242  34.314  1.00  0.00     0.074 A 
ATOM     27  C   UNL A   1      36.679  33.951  32.223  1.00  0.00     0.029 A 
ATOM     28  N   UNL A   1      38.116  32.269  32.486  1.00  0.00    -0.354 N 
ATOM     29  N   UNL A   1      40.437  30.900  33.814  1.00  0.00    -0.248 NA
ATOM     30  C   UNL A   1      41.895  30.711  35.632  1.00  0.00     0.031 C 
ATOM     31  C   UNL A   1      37.447  34.189  33.369  1.00  0.00     0.029 A 
ATOM     32  C   UNL A   1      38.318  33.124  33.551  1.00  0.00     0.049 A 
ATOM     33  H   UNL A   1      38.592  31.418  32.345  1.00  0.00     0.167 HD
ATOM     34  C   UNL A   1      40.143  31.895  34.730  1.00  0.00     0.074 A 
ATOM     35  C   UNL A   1      41.039  31.701  35.854  1.00  0.00     0.031 C 
ATOM     36  C   UNL A   1      39.247  32.906  34.632  1.00  0.00     0.037 A 
BRANCH  23  37
ATOM     37  C   UNL A   1      35.848  32.927  29.444  1.00  0.00     0.057 A 
ATOM     38  C   UNL A   1      36.123  34.195  28.907  1.00  0.00     0.134 A 
ATOM     39  C   UNL A   1      34.577  32.391  29.201  1.00  0.00     0.134 A 
ATOM     40  F   UNL A   1      37.309  34.784  29.129  1.00  0.00    -0.206 F 
ATOM     41  C   UNL A   1      35.162  34.912  28.189  1.00  0.00     0.040 A 
ATOM     42  C   UNL A   1      33.612  33.094  28.474  1.00  0.00     0.040 A 
ATOM     43  F   UNL A   1      34.233  31.198  29.708  1.00  0.00    -0.206 F 
ATOM     44  C   UNL A   1      33.899  34.364  27.976  1.00  0.00     0.006 A 
ENDBRANCH  23  37
BRANCH  24  45
ATOM     45  C   UNL A   1      43.284  28.364  34.441  1.00  0.00     0.057 A 
ATOM     46  C   UNL A   1      42.966  27.168  35.098  1.00  0.00     0.134 A 
ATOM     47  C   UNL A   1      44.629  28.759  34.474  1.00  0.00     0.134 A 
ATOM     48  F   UNL A   1      41.700  26.725  35.118  1.00  0.00    -0.206 F 
ATOM     49  C   UNL A   1      43.936  26.401  35.752  1.00  0.00     0.040 A 
ATOM     50  C   UNL A   1      45.618  27.976  35.077  1.00  0.00     0.040 A 
ATOM     51  F   UNL A   1      45.017  29.896  33.877  1.00  0.00    -0.206 F 
ATOM     52  C   UNL A   1      45.270  26.795  35.724  1.00  0.00     0.006 A 
ENDBRANCH  24  45
BRANCH  36  53
ATOM     53  C   UNL A   1      39.235  33.898  35.750  1.00  0.00     0.057 A 
ATOM     54  C   UNL A   1      38.545  33.644  36.943  1.00  0.00     0.134 A 
ATOM     55  C   UNL A   1      39.976  35.079  35.657  1.00  0.00     0.134 A 
ATOM     56  F   UNL A   1      37.813  32.529  37.084  1.00  0.00    -0.206 F 
ATOM     57  C   UNL A   1      38.581  34.547  38.003  1.00  0.00     0.040 A 
ATOM     58  C   UNL A   1      40.041  35.976  36.720  1.00  0.00     0.040 A 
ATOM     59  F   UNL A   1      40.663  35.366  34.541  1.00  0.00    -0.206 F 
ATOM     60  C   UNL A   1      39.339  35.713  37.896  1.00  0.00     0.006 A 
ENDBRANCH  36  53
ENDBRANCH  10  11
ENDBRANCH   3   5
ENDBRANCH   2   3
ENDBRANCH   1   2
BRANCH   1  61
ATOM     61  C   UNL A   1      36.554  22.589  25.982  1.00  0.00     0.274 C 
BRANCH  61  62
ATOM     62  O   UNL A   1      35.404  22.413  25.128  1.00  0.00    -0.461 OA
BRANCH  62  63
ATOM     63  C   UNL A   1      34.140  22.309  25.651  1.00  0.00     0.329 C 
ATOM     64  O   UNL A   1      33.890  22.294  26.846  1.00  0.00    -0.250 OA
BRANCH  63  65
ATOM     65  C   UNL A   1      33.057  22.373  24.516  1.00  0.00     0.206 C 
BRANCH  65  66
ATOM     66  C   UNL A   1      32.153  20.731  24.080  1.00  0.00     0.073 C 
BRANCH  66  67
ATOM     67  C   UNL A   1      32.615  18.630  24.227  1.00  0.00    -0.045 A 
ATOM     68  C   UNL A   1      33.252  17.695  23.152  1.00  0.00     0.004 A 
ATOM     69  C   UNL A   1      32.578  17.663  25.343  1.00  0.00     0.004 A 
ATOM     70  C   UNL A   1      34.122  16.597  23.318  1.00  0.00     0.000 A 
ATOM     71  C   UNL A   1      33.454  16.542  25.540  1.00  0.00     0.000 A 
ATOM     72  C   UNL A   1      34.324  16.099  24.568  1.00  0.00     0.000 A 
ENDBRANCH  66  67
ENDBRANCH  65  66
BRANCH  65  73
ATOM     73  N   UNL A   1      32.199  23.625  24.685  1.00  0.00    -0.278 N 
ATOM     74  C   UNL A   1      32.809  24.818  24.437  1.00  0.00     0.267 C 
ATOM     75  C   UNL A   1      31.203  23.877  25.622  1.00  0.00     0.149 C 
ATOM     76  O   UNL A   1      33.999  25.015  24.640  1.00  0.00    -0.268 OA
ATOM     77  C   UNL A   1      31.827  25.918  24.342  1.00  0.00     0.081 C 
ATOM     78  S   UNL A   1      30.565  25.532  25.418  1.00  0.00    -0.054 SA
ATOM     79  S   UNL A   1      30.596  22.954  26.875  1.00  0.00    -0.052 S 
ATOM     80  C   UNL A   1      31.975  26.979  23.543  1.00  0.00     0.029 C 
BRANCH  80  81
ATOM     81  C   UNL A   1      31.235  28.241  23.607  1.00  0.00    -0.024 A 
ATOM     82  C   UNL A   1      31.430  29.158  24.638  1.00  0.00     0.010 A 
ATOM     83  C   UNL A   1      30.208  28.466  22.687  1.00  0.00     0.018 A 
ATOM     84  C   UNL A   1      30.655  30.327  24.687  1.00  0.00     0.029 A 
ATOM     85  C   UNL A   1      29.446  29.638  22.734  1.00  0.00     0.001 A 
ATOM     86  C   UNL A   1      29.674  30.598  23.738  1.00  0.00     0.070 A 
ATOM     87  C   UNL A   1      28.451  29.883  21.782  1.00  0.00     0.012 A 
ATOM     88  N   UNL A   1      28.967  31.741  23.798  1.00  0.00    -0.256 NA
ATOM     89  C   UNL A   1      27.742  31.073  21.824  1.00  0.00     0.021 A 
ATOM     90  C   UNL A   1      28.039  31.964  22.838  1.00  0.00     0.112 A 
ENDBRANCH  80  81
ENDBRANCH  65  73
ENDBRANCH  63  65
ENDBRANCH  62  63
ENDBRANCH  61  62
ENDBRANCH   1  61
TORSDOF 15
ENDMDL
MODEL 3
REMARK VINA RESULT:     -14.1      3.940      7.125
REMARK SMILES O=C(OCCOC(=O)[C@@H](Cc1ccccc1)N1C(=O)/C(=C/c2ccc3ncccc3c2)SC1=S)c1ccc(-c2c3nc(c(-c4c(F)cccc4F)c4ccc([nH]4)c(-c4c(F)cccc4F)c4nc(c(-c5c(F)cccc5F)c5ccc2[nH]5)C=C4)C=C3)cc1
REMARK SMILES IDX 4 1 3 2 2 3 1 4 35 5 36 6 88 7 37 8 87 9 38 10 39 11 40 12
REMARK SMILES IDX 81 13 41 14 86 15 80 16 82 17 42 18 85 19 79 20 78 21 43 23
REMARK SMILES IDX 69 24 52 25 68 26 53 27 56 28 67 29 83 30 54 31 55 32 66 34
REMARK SMILES IDX 84 35 57 36 44 37 45 38 50 39 46 40 47 41 49 42 51 43 48 44
REMARK SMILES IDX 70 45 71 46 76 47 72 48 73 49 75 50 77 51 74 52 58 53 59 54
REMARK SMILES IDX 64 55 60 56 61 57 63 58 65 59 62 60 5 61 6 62 7 63 8 64 9 65
REMARK SMILES IDX 10 66 11 67 12 68 16 69 13 70 15 71 14 72 17 73 18 74 33 75
REMARK SMILES IDX 19 76 20 77 32 78 34 79 21 80 22 81 23 82 31 83 24 84 30 85
REMARK SMILES IDX 25 86 29 87 26 88 28 89 27 90
REMARK H PARENT 82 22 56 33
REMARK Flexibility Score: inf
ROOT
ATOM      1  C   UNL A   1      31.010  31.532  26.516  1.00  0.00     0.275 C 
ENDROOT
BRANCH   1   2
ATOM      2  O   UNL A   1      31.717  32.761  26.552  1.00  0.00    -0.458 OA
BRANCH   2   3
ATOM      3  C   UNL A   1      32.625  33.095  27.473  1.00  0.00     0.338 C 
ATOM      4  O   UNL A   1      32.562  34.219  27.970  1.00  0.00    -0.246 OA
BRANCH   3   5
ATOM      5  C   UNL A   1      33.740  32.212  27.963  1.00  0.00     0.060 A 
ATOM      6  C   UNL A   1      34.123  30.382  27.905  1.00  0.00     0.016 A 
ATOM      7  C   UNL A   1      35.039  33.342  28.525  1.00  0.00     0.016 A 
ATOM      8  C   UNL A   1      35.765  29.791  28.531  1.00  0.00     0.010 A 
ATOM      9  C   UNL A   1      36.672  32.730  28.939  1.00  0.00     0.010 A 
ATOM     10  C   UNL A   1      37.026  30.983  29.097  1.00  0.00    -0.014 A 
BRANCH  10  11
ATOM     11  C   UNL A   1      38.303  30.592  29.851  1.00  0.00     0.031 A 
ATOM     12  C   UNL A   1      38.643  31.023  31.266  1.00  0.00     0.074 A 
ATOM     13  C   UNL A   1      39.264  29.879  29.249  1.00  0.00     0.049 A 
ATOM     14  N   UNL A   1      39.315  30.373  32.189  1.00  0.00    -0.248 NA
ATOM     15  C   UNL A   1      38.226  32.354  31.714  1.00  0.00     0.031 C 
ATOM     16  C   UNL A   1      39.312  29.721  27.824  1.00  0.00     0.029 A 
ATOM     17  N   UNL A   1      40.377  29.203  29.680  1.00  0.00    -0.354 N 
ATOM     18  C   UNL A   1      39.251  31.161  33.336  1.00  0.00     0.074 A 
ATOM     19  C   UNL A   1      38.483  32.332  33.010  1.00  0.00     0.031 C 
ATOM     20  C   UNL A   1      40.269  28.854  27.480  1.00  0.00     0.029 A 
ATOM     21  C   UNL A   1      40.957  28.438  28.686  1.00  0.00     0.049 A 
ATOM     22  H   UNL A   1      40.725  29.258  30.600  1.00  0.00     0.167 HD
ATOM     23  C   UNL A   1      39.872  31.018  34.531  1.00  0.00     0.037 A 
ATOM     24  C   UNL A   1      41.918  27.496  28.743  1.00  0.00     0.037 A 
ATOM     25  C   UNL A   1      40.992  30.144  34.719  1.00  0.00     0.049 A 
ATOM     26  C   UNL A   1      42.587  27.302  30.071  1.00  0.00     0.074 A 
ATOM     27  C   UNL A   1      41.845  30.051  35.802  1.00  0.00     0.029 A 
ATOM     28  N   UNL A   1      41.498  29.311  33.730  1.00  0.00    -0.354 N 
ATOM     29  N   UNL A   1      42.309  27.880  31.216  1.00  0.00    -0.248 NA
ATOM     30  C   UNL A   1      43.731  26.386  30.115  1.00  0.00     0.031 C 
ATOM     31  C   UNL A   1      42.923  29.238  35.426  1.00  0.00     0.029 A 
ATOM     32  C   UNL A   1      42.689  28.751  34.148  1.00  0.00     0.049 A 
ATOM     33  H   UNL A   1      41.070  29.145  32.858  1.00  0.00     0.167 HD
ATOM     34  C   UNL A   1      43.273  27.441  32.106  1.00  0.00     0.074 A 
ATOM     35  C   UNL A   1      44.093  26.483  31.388  1.00  0.00     0.031 C 
ATOM     36  C   UNL A   1      43.491  27.827  33.386  1.00  0.00     0.037 A 
BRANCH  23  37
ATOM     37  C   UNL A   1      39.458  31.980  35.612  1.00  0.00     0.057 A 
ATOM     38  C   UNL A   1      40.115  33.210  35.778  1.00  0.00     0.134 A 
ATOM     39  C   UNL A   1      38.493  31.636  36.567  1.00  0.00     0.134 A 
ATOM     40  F   UNL A   1      41.075  33.588  34.919  1.00  0.00    -0.206 F 
ATOM     41  C   UNL A   1      39.847  34.043  36.867  1.00  0.00     0.040 A 
ATOM     42  C   UNL A   1      38.209  32.467  37.654  1.00  0.00     0.040 A 
ATOM     43  F   UNL A   1      37.847  30.463  36.490  1.00  0.00    -0.206 F 
ATOM     44  C   UNL A   1      38.896  33.669  37.813  1.00  0.00     0.006 A 
ENDBRANCH  23  37
BRANCH  24  45
ATOM     45  C   UNL A   1      42.245  26.657  27.551  1.00  0.00     0.057 A 
ATOM     46  C   UNL A   1      41.602  25.429  27.344  1.00  0.00     0.134 A 
ATOM     47  C   UNL A   1      43.144  27.070  26.556  1.00  0.00     0.134 A 
ATOM     48  F   UNL A   1      40.733  24.961  28.252  1.00  0.00    -0.206 F 
ATOM     49  C   UNL A   1      41.839  24.652  26.206  1.00  0.00     0.040 A 
ATOM     50  C   UNL A   1      43.349  26.330  25.389  1.00  0.00     0.040 A 
ATOM     51  F   UNL A   1      43.808  28.229  26.681  1.00  0.00    -0.206 F 
ATOM     52  C   UNL A   1      42.699  25.112  25.214  1.00  0.00     0.006 A 
ENDBRANCH  24  45
BRANCH  36  53
ATOM     53  C   UNL A   1      44.690  27.246  34.063  1.00  0.00     0.057 A 
ATOM     54  C   UNL A   1      44.616  26.038  34.768  1.00  0.00     0.134 A 
ATOM     55  C   UNL A   1      45.938  27.865  33.946  1.00  0.00     0.134 A 
ATOM     56  F   UNL A   1      43.443  25.405  34.917  1.00  0.00    -0.206 F 
ATOM     57  C   UNL A   1      45.747  25.473  35.353  1.00  0.00     0.040 A 
ATOM     58  C   UNL A   1      47.080  27.295  34.503  1.00  0.00     0.040 A 
ATOM     59  F   UNL A   1      46.066  29.018  33.272  1.00  0.00    -0.206 F 
ATOM     60  C   UNL A   1      46.986  26.099  35.211  1.00  0.00     0.006 A 
ENDBRANCH  36  53
ENDBRANCH  10  11
ENDBRANCH   3   5
ENDBRANCH   2   3
ENDBRANCH   1   2
BRANCH   1  61
ATOM     61  C   UNL A   1      31.474  30.676  25.339  1.00  0.00     0.274 C 
BRANCH  61  62
ATOM     62  O   UNL A   1      31.395  29.270  25.652  1.00  0.00    -0.461 OA
BRANCH  62  63
ATOM     63  C   UNL A   1      32.046  28.335  24.888  1.00  0.00     0.329 C 
ATOM     64  O   UNL A   1      33.255  28.309  24.715  1.00  0.00    -0.250 OA
BRANCH  63  65
ATOM     65  C   UNL A   1      31.054  27.219  24.402  1.00  0.00     0.206 C 
BRANCH  65  66
ATOM     66  C   UNL A   1      29.656  27.759  23.195  1.00  0.00     0.073 C 
BRANCH  66  67
ATOM     67  C   UNL A   1      28.692  29.619  22.686  1.00  0.00    -0.045 A 
ATOM     68  C   UNL A   1      28.457  30.873  23.586  1.00  0.00     0.004 A 
ATOM     69  C   UNL A   1      28.181  30.178  21.419  1.00  0.00     0.004 A 
ATOM     70  C   UNL A   1      28.444  32.239  23.237  1.00  0.00     0.000 A 
ATOM     71  C   UNL A   1      28.161  31.563  21.035  1.00  0.00     0.000 A 
ATOM     72  C   UNL A   1      28.429  32.583  21.920  1.00  0.00     0.000 A 
ENDBRANCH  66  67
ENDBRANCH  65  66
BRANCH  65  73
ATOM     73  N   UNL A   1      31.828  25.948  24.059  1.00  0.00    -0.278 N 
ATOM     74  C   UNL A   1      32.229  25.177  25.109  1.00  0.00     0.267 C 
ATOM     75  C   UNL A   1      32.752  25.741  23.040  1.00  0.00     0.149 C 
ATOM     76  O   UNL A   1      32.518  25.639  26.204  1.00  0.00    -0.268 OA
ATOM     77  C   UNL A   1      32.697  23.851  24.659  1.00  0.00     0.081 C 
ATOM     78  S   UNL A   1      33.413  24.085  23.131  1.00  0.00    -0.054 SA
ATOM     79  S   UNL A   1      33.353  26.759  21.860  1.00  0.00    -0.052 S 
ATOM     80  C   UNL A   1      32.553  22.730  25.372  1.00  0.00     0.029 C 
BRANCH  80  81
ATOM     81  C   UNL A   1      33.243  21.456  25.162  1.00  0.00    -0.024 A 
ATOM     82  C   UNL A   1      34.623  21.331  25.315  1.00  0.00     0.010 A 
ATOM     83  C   UNL A   1      32.517  20.372  24.662  1.00  0.00     0.018 A 
ATOM     84  C   UNL A   1      35.246  20.102  25.046  1.00  0.00     0.029 A 
ATOM     85  C   UNL A   1      33.142  19.146  24.407  1.00  0.00     0.001 A 
ATOM     86  C   UNL A   1      34.526  18.994  24.612  1.00  0.00     0.070 A 
ATOM     87  C   UNL A   1      32.403  18.049  23.953  1.00  0.00     0.012 A 
ATOM     88  N   UNL A   1      35.149  17.822  24.390  1.00  0.00    -0.256 NA
ATOM     89  C   UNL A   1      33.038  16.834  23.752  1.00  0.00     0.021 A 
ATOM     90  C   UNL A   1      34.398  16.770  23.988  1.00  0.00     0.112 A 
ENDBRANCH  80  81
ENDBRANCH  65  73
ENDBRANCH  63  65
ENDBRANCH  62  63
ENDBRANCH  61  62
ENDBRANCH   1  61
TORSDOF 15
ENDMDL
