MODEL 1
REMARK VINA RESULT:     -11.7      0.000      0.000
REMARK SMILES CCSc1cccc(-c2ccc([C@@H](C)C(=O)OCCOC(=O)c3ccc(-c4c5nc(c(-c6c(F)cccc6F)c6ccc([nH]6)c(-c6c(F)cccc6F)c6nc(c(-c7c(F)cccc7F)c7ccc4[nH]7)C=C6)C=C5)cc3)cc2)c1
REMARK SMILES IDX 18 1 17 2 15 3 16 4 13 5 14 6 12 7 9 8 10 9 78 10 11 11
REMARK SMILES IDX 77 12 8 13 4 14 5 15 79 16 6 17 7 18 3 19 2 20 1 21 19 22
REMARK SMILES IDX 20 23 21 24 22 25 23 26 24 27 76 28 25 29 75 30 26 31 27 32
REMARK SMILES IDX 28 33 69 34 29 35 74 36 68 37 70 38 30 39 73 40 67 41 66 42
REMARK SMILES IDX 31 44 57 45 40 46 56 47 41 48 44 49 55 50 71 51 42 52 43 53
REMARK SMILES IDX 54 55 72 56 45 57 32 58 33 59 38 60 34 61 35 62 37 63 39 64
REMARK SMILES IDX 36 65 58 66 59 67 64 68 60 69 61 70 63 71 65 72 62 73 46 74
REMARK SMILES IDX 47 75 52 76 48 77 49 78 51 79 53 80 50 81
REMARK H PARENT 70 43 44 54
REMARK Flexibility Score: inf
ROOT
ATOM      1  C   UNL A   1      44.057  21.220  25.353  1.00  0.00     0.274 C 
ENDROOT
BRANCH   1   2
ATOM      2  O   UNL A   1      43.604  19.960  24.822  1.00  0.00    -0.462 OA
BRANCH   2   3
ATOM      3  C   UNL A   1      42.843  19.187  25.638  1.00  0.00     0.313 C 
ATOM      4  O   UNL A   1      42.764  17.964  25.555  1.00  0.00    -0.252 OA
BRANCH   3   5
ATOM      5  C   UNL A   1      42.025  19.981  26.650  1.00  0.00     0.126 C 
ATOM      6  C   UNL A   1      42.046  19.266  28.001  1.00  0.00     0.025 C 
BRANCH   5   7
ATOM      7  C   UNL A   1      40.616  20.362  26.217  1.00  0.00    -0.034 A 
ATOM      8  C   UNL A   1      38.008  21.057  25.313  1.00  0.00    -0.018 A 
ATOM      9  C   UNL A   1      38.846  22.001  25.930  1.00  0.00     0.009 A 
ATOM     10  C   UNL A   1      38.485  19.748  25.185  1.00  0.00     0.009 A 
ATOM     11  C   UNL A   1      40.127  21.663  26.371  1.00  0.00     0.005 A 
ATOM     12  C   UNL A   1      39.773  19.407  25.622  1.00  0.00     0.005 A 
BRANCH   8  13
ATOM     13  C   UNL A   1      36.700  21.469  24.779  1.00  0.00    -0.017 A 
ATOM     14  C   UNL A   1      34.271  21.240  24.614  1.00  0.00     0.008 A 
ATOM     15  C   UNL A   1      34.219  22.410  23.852  1.00  0.00     0.015 A 
ATOM     16  C   UNL A   1      35.512  20.782  25.085  1.00  0.00     0.023 A 
ATOM     17  C   UNL A   1      35.387  23.081  23.506  1.00  0.00     0.002 A 
ATOM     18  C   UNL A   1      36.615  22.609  23.961  1.00  0.00     0.009 A 
BRANCH  14  19
ATOM     19  S   UNL A   1      32.772  20.400  25.092  1.00  0.00    -0.126 SA
BRANCH  19  20
ATOM     20  C   UNL A   1      33.092  18.706  24.482  1.00  0.00     0.071 C 
ATOM     21  C   UNL A   1      32.516  18.442  23.100  1.00  0.00     0.016 C 
ENDBRANCH  19  20
ENDBRANCH  14  19
ENDBRANCH   8  13
ENDBRANCH   5   7
ENDBRANCH   3   5
ENDBRANCH   2   3
ENDBRANCH   1   2
BRANCH   1  22
ATOM     22  C   UNL A   1      44.078  22.305  24.273  1.00  0.00     0.275 C 
BRANCH  22  23
ATOM     23  O   UNL A   1      43.345  23.467  24.699  1.00  0.00    -0.458 OA
BRANCH  23  24
ATOM     24  C   UNL A   1      44.108  24.515  25.084  1.00  0.00     0.338 C 
ATOM     25  O   UNL A   1      45.180  24.866  24.626  1.00  0.00    -0.246 OA
BRANCH  24  26
ATOM     26  C   UNL A   1      43.389  25.298  26.100  1.00  0.00     0.060 A 
ATOM     27  C   UNL A   1      43.803  26.612  26.316  1.00  0.00     0.016 A 
ATOM     28  C   UNL A   1      42.397  24.725  26.896  1.00  0.00     0.016 A 
ATOM     29  C   UNL A   1      43.251  27.359  27.350  1.00  0.00     0.010 A 
ATOM     30  C   UNL A   1      41.831  25.481  27.930  1.00  0.00     0.010 A 
ATOM     31  C   UNL A   1      42.270  26.794  28.176  1.00  0.00    -0.014 A 
BRANCH  31  32
ATOM     32  C   UNL A   1      41.766  27.578  29.327  1.00  0.00     0.031 A 
ATOM     33  C   UNL A   1      42.488  27.529  30.642  1.00  0.00     0.074 A 
ATOM     34  C   UNL A   1      40.701  28.385  29.170  1.00  0.00     0.049 A 
ATOM     35  N   UNL A   1      42.214  28.153  31.761  1.00  0.00    -0.248 NA
ATOM     36  C   UNL A   1      43.680  26.669  30.708  1.00  0.00     0.031 C 
ATOM     37  C   UNL A   1      39.939  28.545  27.932  1.00  0.00     0.029 A 
ATOM     38  N   UNL A   1      40.084  29.231  30.056  1.00  0.00    -0.354 N 
ATOM     39  C   UNL A   1      43.187  27.750  32.666  1.00  0.00     0.074 A 
ATOM     40  C   UNL A   1      44.048  26.816  31.973  1.00  0.00     0.031 C 
ATOM     41  C   UNL A   1      38.966  29.449  28.133  1.00  0.00     0.029 A 
ATOM     42  C   UNL A   1      39.016  29.905  29.519  1.00  0.00     0.049 A 
ATOM     43  H   UNL A   1      40.380  29.343  30.989  1.00  0.00     0.167 HD
ATOM     44  C   UNL A   1      43.350  28.131  33.955  1.00  0.00     0.037 A 
ATOM     45  C   UNL A   1      38.169  30.784  30.085  1.00  0.00     0.037 A 
ATOM     46  C   UNL A   1      42.503  29.071  34.641  1.00  0.00     0.049 A 
ATOM     47  C   UNL A   1      38.354  31.166  31.526  1.00  0.00     0.074 A 
ATOM     48  C   UNL A   1      42.592  29.521  35.948  1.00  0.00     0.029 A 
ATOM     49  N   UNL A   1      41.411  29.708  34.073  1.00  0.00    -0.354 N 
ATOM     50  N   UNL A   1      39.276  30.775  32.373  1.00  0.00    -0.248 NA
ATOM     51  C   UNL A   1      37.380  32.110  32.091  1.00  0.00     0.031 C 
ATOM     52  C   UNL A   1      41.535  30.410  36.178  1.00  0.00     0.029 A 
ATOM     53  C   UNL A   1      40.809  30.538  35.005  1.00  0.00     0.049 A 
ATOM     54  H   UNL A   1      41.107  29.589  33.144  1.00  0.00     0.167 HD
ATOM     55  C   UNL A   1      39.002  31.435  33.563  1.00  0.00     0.074 A 
ATOM     56  C   UNL A   1      37.840  32.266  33.325  1.00  0.00     0.031 C 
ATOM     57  C   UNL A   1      39.652  31.357  34.750  1.00  0.00     0.037 A 
BRANCH  44  58
ATOM     58  C   UNL A   1      44.481  27.507  34.716  1.00  0.00     0.057 A 
ATOM     59  C   UNL A   1      44.331  26.294  35.398  1.00  0.00     0.134 A 
ATOM     60  C   UNL A   1      45.741  28.117  34.746  1.00  0.00     0.134 A 
ATOM     61  F   UNL A   1      43.144  25.668  35.420  1.00  0.00    -0.206 F 
ATOM     62  C   UNL A   1      45.391  25.717  36.100  1.00  0.00     0.040 A 
ATOM     63  C   UNL A   1      46.814  27.541  35.427  1.00  0.00     0.040 A 
ATOM     64  F   UNL A   1      45.950  29.280  34.111  1.00  0.00    -0.206 F 
ATOM     65  C   UNL A   1      46.638  26.338  36.110  1.00  0.00     0.006 A 
ENDBRANCH  44  58
BRANCH  45  66
ATOM     66  C   UNL A   1      37.064  31.365  29.285  1.00  0.00     0.057 A 
ATOM     67  C   UNL A   1      35.894  30.642  29.033  1.00  0.00     0.134 A 
ATOM     68  C   UNL A   1      37.157  32.655  28.748  1.00  0.00     0.134 A 
ATOM     69  F   UNL A   1      35.758  29.392  29.503  1.00  0.00    -0.206 F 
ATOM     70  C   UNL A   1      34.858  31.175  28.265  1.00  0.00     0.040 A 
ATOM     71  C   UNL A   1      36.120  33.208  27.997  1.00  0.00     0.040 A 
ATOM     72  F   UNL A   1      38.255  33.396  28.955  1.00  0.00    -0.206 F 
ATOM     73  C   UNL A   1      34.968  32.465  27.749  1.00  0.00     0.006 A 
ENDBRANCH  45  66
BRANCH  57  74
ATOM     74  C   UNL A   1      39.127  32.205  35.869  1.00  0.00     0.057 A 
ATOM     75  C   UNL A   1      38.225  31.700  36.813  1.00  0.00     0.134 A 
ATOM     76  C   UNL A   1      39.540  33.536  36.012  1.00  0.00     0.134 A 
ATOM     77  F   UNL A   1      37.781  30.437  36.722  1.00  0.00    -0.206 F 
ATOM     78  C   UNL A   1      37.733  32.496  37.849  1.00  0.00     0.040 A 
ATOM     79  C   UNL A   1      39.071  34.335  37.054  1.00  0.00     0.040 A 
ATOM     80  F   UNL A   1      40.407  34.077  35.142  1.00  0.00    -0.206 F 
ATOM     81  C   UNL A   1      38.160  33.817  37.973  1.00  0.00     0.006 A 
ENDBRANCH  57  74
ENDBRANCH  31  32
ENDBRANCH  24  26
ENDBRANCH  23  24
ENDBRANCH  22  23
ENDBRANCH   1  22
TORSDOF 15
ENDMDL
MODEL 2
REMARK VINA RESULT:     -11.4      1.369      2.194
REMARK SMILES CCSc1cccc(-c2ccc([C@@H](C)C(=O)OCCOC(=O)c3ccc(-c4c5nc(c(-c6c(F)cccc6F)c6ccc([nH]6)c(-c6c(F)cccc6F)c6nc(c(-c7c(F)cccc7F)c7ccc4[nH]7)C=C6)C=C5)cc3)cc2)c1
REMARK SMILES IDX 18 1 17 2 15 3 16 4 13 5 14 6 12 7 9 8 10 9 78 10 11 11
REMARK SMILES IDX 77 12 8 13 4 14 5 15 79 16 6 17 7 18 3 19 2 20 1 21 19 22
REMARK SMILES IDX 20 23 21 24 22 25 23 26 24 27 76 28 25 29 75 30 26 31 27 32
REMARK SMILES IDX 28 33 69 34 29 35 74 36 68 37 70 38 30 39 73 40 67 41 66 42
REMARK SMILES IDX 31 44 57 45 40 46 56 47 41 48 44 49 55 50 71 51 42 52 43 53
REMARK SMILES IDX 54 55 72 56 45 57 32 58 33 59 38 60 34 61 35 62 37 63 39 64
REMARK SMILES IDX 36 65 58 66 59 67 64 68 60 69 61 70 63 71 65 72 62 73 46 74
REMARK SMILES IDX 47 75 52 76 48 77 49 78 51 79 53 80 50 81
REMARK H PARENT 70 43 44 54
REMARK Flexibility Score: inf
ROOT
ATOM      1  C   UNL A   1      43.684  21.539  25.788  1.00  0.00     0.274 C 
ENDROOT
BRANCH   1   2
ATOM      2  O   UNL A   1      42.613  20.664  25.384  1.00  0.00    -0.462 OA
BRANCH   2   3
ATOM      3  C   UNL A   1      41.585  20.506  26.258  1.00  0.00     0.313 C 
ATOM      4  O   UNL A   1      41.071  19.426  26.532  1.00  0.00    -0.252 OA
BRANCH   3   5
ATOM      5  C   UNL A   1      41.064  21.817  26.836  1.00  0.00     0.126 C 
ATOM      6  C   UNL A   1      41.175  21.786  28.360  1.00  0.00     0.025 C 
BRANCH   5   7
ATOM      7  C   UNL A   1      39.683  22.253  26.364  1.00  0.00    -0.034 A 
ATOM      8  C   UNL A   1      37.136  23.065  25.389  1.00  0.00    -0.018 A 
ATOM      9  C   UNL A   1      37.915  23.911  26.196  1.00  0.00     0.009 A 
ATOM     10  C   UNL A   1      37.639  21.791  25.104  1.00  0.00     0.009 A 
ATOM     11  C   UNL A   1      39.167  23.516  26.673  1.00  0.00     0.005 A 
ATOM     12  C   UNL A   1      38.898  21.394  25.576  1.00  0.00     0.005 A 
BRANCH   8  13
ATOM     13  C   UNL A   1      35.863  23.546  24.829  1.00  0.00    -0.017 A 
ATOM     14  C   UNL A   1      34.005  25.135  24.755  1.00  0.00     0.008 A 
ATOM     15  C   UNL A   1      33.520  24.505  23.606  1.00  0.00     0.015 A 
ATOM     16  C   UNL A   1      35.183  24.659  25.354  1.00  0.00     0.023 A 
ATOM     17  C   UNL A   1      34.157  23.378  23.095  1.00  0.00     0.002 A 
ATOM     18  C   UNL A   1      35.313  22.902  23.706  1.00  0.00     0.009 A 
BRANCH  14  19
ATOM     19  S   UNL A   1      33.213  26.602  25.389  1.00  0.00    -0.126 SA
BRANCH  19  20
ATOM     20  C   UNL A   1      32.565  27.360  23.856  1.00  0.00     0.071 C 
ATOM     21  C   UNL A   1      33.472  28.438  23.285  1.00  0.00     0.016 C 
ENDBRANCH  19  20
ENDBRANCH  14  19
ENDBRANCH   8  13
ENDBRANCH   5   7
ENDBRANCH   3   5
ENDBRANCH   2   3
ENDBRANCH   1   2
BRANCH   1  22
ATOM     22  C   UNL A   1      44.164  22.406  24.621  1.00  0.00     0.275 C 
BRANCH  22  23
ATOM     23  O   UNL A   1      43.504  23.685  24.627  1.00  0.00    -0.458 OA
BRANCH  23  24
ATOM     24  C   UNL A   1      44.264  24.719  25.052  1.00  0.00     0.338 C 
ATOM     25  O   UNL A   1      45.349  25.073  24.628  1.00  0.00    -0.246 OA
BRANCH  24  26
ATOM     26  C   UNL A   1      43.526  25.484  26.068  1.00  0.00     0.060 A 
ATOM     27  C   UNL A   1      43.936  26.794  26.316  1.00  0.00     0.016 A 
ATOM     28  C   UNL A   1      42.519  24.898  26.834  1.00  0.00     0.016 A 
ATOM     29  C   UNL A   1      43.365  27.523  27.351  1.00  0.00     0.010 A 
ATOM     30  C   UNL A   1      41.933  25.636  27.870  1.00  0.00     0.010 A 
ATOM     31  C   UNL A   1      42.368  26.944  28.148  1.00  0.00    -0.014 A 
BRANCH  31  32
ATOM     32  C   UNL A   1      41.841  27.708  29.303  1.00  0.00     0.031 A 
ATOM     33  C   UNL A   1      42.561  27.667  30.620  1.00  0.00     0.074 A 
ATOM     34  C   UNL A   1      40.758  28.491  29.148  1.00  0.00     0.049 A 
ATOM     35  N   UNL A   1      42.268  28.276  31.742  1.00  0.00    -0.248 NA
ATOM     36  C   UNL A   1      43.772  26.834  30.684  1.00  0.00     0.031 C 
ATOM     37  C   UNL A   1      39.997  28.643  27.908  1.00  0.00     0.029 A 
ATOM     38  N   UNL A   1      40.120  29.316  30.038  1.00  0.00    -0.354 N 
ATOM     39  C   UNL A   1      43.247  27.890  32.647  1.00  0.00     0.074 A 
ATOM     40  C   UNL A   1      44.132  26.980  31.951  1.00  0.00     0.031 C 
ATOM     41  C   UNL A   1      39.003  29.522  28.112  1.00  0.00     0.029 A 
ATOM     42  C   UNL A   1      39.038  29.969  29.501  1.00  0.00     0.049 A 
ATOM     43  H   UNL A   1      40.409  29.429  30.972  1.00  0.00     0.167 HD
ATOM     44  C   UNL A   1      43.397  28.265  33.940  1.00  0.00     0.037 A 
ATOM     45  C   UNL A   1      38.169  30.825  30.071  1.00  0.00     0.037 A 
ATOM     46  C   UNL A   1      42.526  29.181  34.629  1.00  0.00     0.049 A 
ATOM     47  C   UNL A   1      38.341  31.201  31.515  1.00  0.00     0.074 A 
ATOM     48  C   UNL A   1      42.600  29.623  35.940  1.00  0.00     0.029 A 
ATOM     49  N   UNL A   1      41.421  29.796  34.062  1.00  0.00    -0.354 N 
ATOM     50  N   UNL A   1      39.268  30.825  32.362  1.00  0.00    -0.248 NA
ATOM     51  C   UNL A   1      37.342  32.118  32.083  1.00  0.00     0.031 C 
ATOM     52  C   UNL A   1      41.522  30.485  36.172  1.00  0.00     0.029 A 
ATOM     53  C   UNL A   1      40.798  30.605  34.997  1.00  0.00     0.049 A 
ATOM     54  H   UNL A   1      41.124  29.677  33.131  1.00  0.00     0.167 HD
ATOM     55  C   UNL A   1      38.975  31.470  33.556  1.00  0.00     0.074 A 
ATOM     56  C   UNL A   1      37.794  32.275  33.319  1.00  0.00     0.031 C 
ATOM     57  C   UNL A   1      39.622  31.398  34.745  1.00  0.00     0.037 A 
BRANCH  44  58
ATOM     58  C   UNL A   1      44.539  27.662  34.700  1.00  0.00     0.057 A 
ATOM     59  C   UNL A   1      45.782  28.300  34.795  1.00  0.00     0.134 A 
ATOM     60  C   UNL A   1      44.385  26.439  35.365  1.00  0.00     0.134 A 
ATOM     61  F   UNL A   1      45.996  29.466  34.167  1.00  0.00    -0.206 F 
ATOM     62  C   UNL A   1      46.839  27.734  35.510  1.00  0.00     0.040 A 
ATOM     63  C   UNL A   1      45.428  25.872  36.099  1.00  0.00     0.040 A 
ATOM     64  F   UNL A   1      43.219  25.779  35.315  1.00  0.00    -0.206 F 
ATOM     65  C   UNL A   1      46.661  26.519  36.169  1.00  0.00     0.006 A 
ENDBRANCH  44  58
BRANCH  45  66
ATOM     66  C   UNL A   1      37.053  31.385  29.270  1.00  0.00     0.057 A 
ATOM     67  C   UNL A   1      35.905  30.634  29.002  1.00  0.00     0.134 A 
ATOM     68  C   UNL A   1      37.115  32.684  28.751  1.00  0.00     0.134 A 
ATOM     69  F   UNL A   1      35.800  29.375  29.454  1.00  0.00    -0.206 F 
ATOM     70  C   UNL A   1      34.860  31.148  28.233  1.00  0.00     0.040 A 
ATOM     71  C   UNL A   1      36.067  33.219  28.000  1.00  0.00     0.040 A 
ATOM     72  F   UNL A   1      38.190  33.453  28.975  1.00  0.00    -0.206 F 
ATOM     73  C   UNL A   1      34.938  32.447  27.735  1.00  0.00     0.006 A 
ENDBRANCH  45  66
BRANCH  57  74
ATOM     74  C   UNL A   1      39.074  32.227  35.867  1.00  0.00     0.057 A 
ATOM     75  C   UNL A   1      38.184  31.693  36.807  1.00  0.00     0.134 A 
ATOM     76  C   UNL A   1      39.453  33.567  36.018  1.00  0.00     0.134 A 
ATOM     77  F   UNL A   1      37.774  30.420  36.708  1.00  0.00    -0.206 F 
ATOM     78  C   UNL A   1      37.671  32.470  37.847  1.00  0.00     0.040 A 
ATOM     79  C   UNL A   1      38.961  34.347  37.065  1.00  0.00     0.040 A 
ATOM     80  F   UNL A   1      40.306  34.136  35.153  1.00  0.00    -0.206 F 
ATOM     81  C   UNL A   1      38.063  33.801  37.979  1.00  0.00     0.006 A 
ENDBRANCH  57  74
ENDBRANCH  31  32
ENDBRANCH  24  26
ENDBRANCH  23  24
ENDBRANCH  22  23
ENDBRANCH   1  22
TORSDOF 15
ENDMDL
MODEL 3
REMARK VINA RESULT:     -11.3      5.379     10.836
REMARK SMILES CCSc1cccc(-c2ccc([C@@H](C)C(=O)OCCOC(=O)c3ccc(-c4c5nc(c(-c6c(F)cccc6F)c6ccc([nH]6)c(-c6c(F)cccc6F)c6nc(c(-c7c(F)cccc7F)c7ccc4[nH]7)C=C6)C=C5)cc3)cc2)c1
REMARK SMILES IDX 18 1 17 2 15 3 16 4 13 5 14 6 12 7 9 8 10 9 78 10 11 11
REMARK SMILES IDX 77 12 8 13 4 14 5 15 79 16 6 17 7 18 3 19 2 20 1 21 19 22
REMARK SMILES IDX 20 23 21 24 22 25 23 26 24 27 76 28 25 29 75 30 26 31 27 32
REMARK SMILES IDX 28 33 69 34 29 35 74 36 68 37 70 38 30 39 73 40 67 41 66 42
REMARK SMILES IDX 31 44 57 45 40 46 56 47 41 48 44 49 55 50 71 51 42 52 43 53
REMARK SMILES IDX 54 55 72 56 45 57 32 58 33 59 38 60 34 61 35 62 37 63 39 64
REMARK SMILES IDX 36 65 58 66 59 67 64 68 60 69 61 70 63 71 65 72 62 73 46 74
REMARK SMILES IDX 47 75 52 76 48 77 49 78 51 79 53 80 50 81
REMARK H PARENT 70 43 44 54
REMARK Flexibility Score: inf
ROOT
ATOM      1  C   UNL A   1      34.735  34.208  31.374  1.00  0.00     0.274 C 
ENDROOT
BRANCH   1   2
ATOM      2  O   UNL A   1      33.699  33.906  30.418  1.00  0.00    -0.462 OA
BRANCH   2   3
ATOM      3  C   UNL A   1      34.057  33.888  29.109  1.00  0.00     0.313 C 
ATOM      4  O   UNL A   1      33.562  34.609  28.247  1.00  0.00    -0.252 OA
BRANCH   3   5
ATOM      5  C   UNL A   1      35.102  32.830  28.772  1.00  0.00     0.126 C 
ATOM      6  C   UNL A   1      36.240  33.468  27.974  1.00  0.00     0.025 C 
BRANCH   5   7
ATOM      7  C   UNL A   1      34.579  31.558  28.120  1.00  0.00    -0.034 A 
ATOM      8  C   UNL A   1      33.537  29.169  26.977  1.00  0.00    -0.018 A 
ATOM      9  C   UNL A   1      34.867  29.249  27.422  1.00  0.00     0.009 A 
ATOM     10  C   UNL A   1      32.745  30.317  27.083  1.00  0.00     0.009 A 
ATOM     11  C   UNL A   1      35.380  30.419  27.986  1.00  0.00     0.005 A 
ATOM     12  C   UNL A   1      33.254  31.491  27.654  1.00  0.00     0.005 A 
BRANCH   8  13
ATOM     13  C   UNL A   1      33.003  27.895  26.470  1.00  0.00    -0.017 A 
ATOM     14  C   UNL A   1      33.251  25.783  25.262  1.00  0.00     0.008 A 
ATOM     15  C   UNL A   1      31.972  25.403  25.676  1.00  0.00     0.015 A 
ATOM     16  C   UNL A   1      33.766  27.023  25.673  1.00  0.00     0.023 A 
ATOM     17  C   UNL A   1      31.187  26.268  26.432  1.00  0.00     0.002 A 
ATOM     18  C   UNL A   1      31.698  27.503  26.819  1.00  0.00     0.009 A 
BRANCH  14  19
ATOM     19  S   UNL A   1      34.273  24.661  24.325  1.00  0.00    -0.126 SA
BRANCH  19  20
ATOM     20  C   UNL A   1      34.958  23.599  25.647  1.00  0.00     0.071 C 
ATOM     21  C   UNL A   1      36.477  23.536  25.646  1.00  0.00     0.016 C 
ENDBRANCH  19  20
ENDBRANCH  14  19
ENDBRANCH   8  13
ENDBRANCH   5   7
ENDBRANCH   3   5
ENDBRANCH   2   3
ENDBRANCH   1   2
BRANCH   1  22
ATOM     22  C   UNL A   1      34.574  33.378  32.650  1.00  0.00     0.275 C 
BRANCH  22  23
ATOM     23  O   UNL A   1      35.227  32.102  32.517  1.00  0.00    -0.458 OA
BRANCH  23  24
ATOM     24  C   UNL A   1      36.399  31.987  33.182  1.00  0.00     0.338 C 
ATOM     25  O   UNL A   1      36.623  32.248  34.350  1.00  0.00    -0.246 OA
BRANCH  24  26
ATOM     26  C   UNL A   1      37.399  31.359  32.307  1.00  0.00     0.060 A 
ATOM     27  C   UNL A   1      38.515  30.781  32.911  1.00  0.00     0.016 A 
ATOM     28  C   UNL A   1      37.297  31.424  30.917  1.00  0.00     0.016 A 
ATOM     29  C   UNL A   1      39.556  30.288  32.134  1.00  0.00     0.010 A 
ATOM     30  C   UNL A   1      38.340  30.916  30.132  1.00  0.00     0.010 A 
ATOM     31  C   UNL A   1      39.484  30.365  30.737  1.00  0.00    -0.014 A 
BRANCH  31  32
ATOM     32  C   UNL A   1      40.647  29.918  29.934  1.00  0.00     0.031 A 
ATOM     33  C   UNL A   1      41.790  30.857  29.683  1.00  0.00     0.074 A 
ATOM     34  C   UNL A   1      40.704  28.649  29.492  1.00  0.00     0.049 A 
ATOM     35  N   UNL A   1      42.900  30.651  29.020  1.00  0.00    -0.248 NA
ATOM     36  C   UNL A   1      41.673  32.207  30.256  1.00  0.00     0.031 C 
ATOM     37  C   UNL A   1      39.673  27.633  29.705  1.00  0.00     0.029 A 
ATOM     38  N   UNL A   1      41.678  27.995  28.782  1.00  0.00    -0.354 N 
ATOM     39  C   UNL A   1      43.605  31.845  29.082  1.00  0.00     0.074 A 
ATOM     40  C   UNL A   1      42.792  32.778  29.832  1.00  0.00     0.031 C 
ATOM     41  C   UNL A   1      40.078  26.478  29.151  1.00  0.00     0.029 A 
ATOM     42  C   UNL A   1      41.377  26.682  28.519  1.00  0.00     0.049 A 
ATOM     43  H   UNL A   1      42.514  28.427  28.489  1.00  0.00     0.167 HD
ATOM     44  C   UNL A   1      44.824  32.134  28.566  1.00  0.00     0.037 A 
ATOM     45  C   UNL A   1      42.070  25.751  27.836  1.00  0.00     0.037 A 
ATOM     46  C   UNL A   1      45.641  31.202  27.833  1.00  0.00     0.049 A 
ATOM     47  C   UNL A   1      43.405  26.107  27.249  1.00  0.00     0.074 A 
ATOM     48  C   UNL A   1      46.892  31.404  27.274  1.00  0.00     0.029 A 
ATOM     49  N   UNL A   1      45.287  29.891  27.558  1.00  0.00    -0.354 N 
ATOM     50  N   UNL A   1      44.060  27.242  27.311  1.00  0.00    -0.248 NA
ATOM     51  C   UNL A   1      44.098  25.054  26.493  1.00  0.00     0.031 C 
ATOM     52  C   UNL A   1      47.282  30.221  26.636  1.00  0.00     0.029 A 
ATOM     53  C   UNL A   1      46.289  29.274  26.827  1.00  0.00     0.049 A 
ATOM     54  H   UNL A   1      44.448  29.460  27.841  1.00  0.00     0.167 HD
ATOM     55  C   UNL A   1      45.245  27.035  26.617  1.00  0.00     0.074 A 
ATOM     56  C   UNL A   1      45.228  25.661  26.158  1.00  0.00     0.031 C 
ATOM     57  C   UNL A   1      46.255  27.906  26.377  1.00  0.00     0.037 A 
BRANCH  44  58
ATOM     58  C   UNL A   1      45.337  33.529  28.761  1.00  0.00     0.057 A 
ATOM     59  C   UNL A   1      44.988  34.571  27.893  1.00  0.00     0.134 A 
ATOM     60  C   UNL A   1      46.170  33.836  29.843  1.00  0.00     0.134 A 
ATOM     61  F   UNL A   1      44.205  34.337  26.829  1.00  0.00    -0.206 F 
ATOM     62  C   UNL A   1      45.466  35.869  28.084  1.00  0.00     0.040 A 
ATOM     63  C   UNL A   1      46.639  35.134  30.056  1.00  0.00     0.040 A 
ATOM     64  F   UNL A   1      46.539  32.883  30.711  1.00  0.00    -0.206 F 
ATOM     65  C   UNL A   1      46.289  36.154  29.172  1.00  0.00     0.006 A 
ENDBRANCH  44  58
BRANCH  45  66
ATOM     66  C   UNL A   1      41.510  24.388  27.671  1.00  0.00     0.057 A 
ATOM     67  C   UNL A   1      41.976  23.315  28.436  1.00  0.00     0.134 A 
ATOM     68  C   UNL A   1      40.500  24.128  26.736  1.00  0.00     0.134 A 
ATOM     69  F   UNL A   1      42.958  23.499  29.331  1.00  0.00    -0.206 F 
ATOM     70  C   UNL A   1      41.466  22.026  28.272  1.00  0.00     0.040 A 
ATOM     71  C   UNL A   1      39.966  22.849  26.577  1.00  0.00     0.040 A 
ATOM     72  F   UNL A   1      40.013  25.117  25.973  1.00  0.00    -0.206 F 
ATOM     73  C   UNL A   1      40.454  21.792  27.343  1.00  0.00     0.006 A 
ENDBRANCH  45  66
BRANCH  57  74
ATOM     74  C   UNL A   1      47.427  27.388  25.600  1.00  0.00     0.057 A 
ATOM     75  C   UNL A   1      47.491  27.500  24.205  1.00  0.00     0.134 A 
ATOM     76  C   UNL A   1      48.510  26.787  26.254  1.00  0.00     0.134 A 
ATOM     77  F   UNL A   1      46.479  28.055  23.521  1.00  0.00    -0.206 F 
ATOM     78  C   UNL A   1      48.581  27.011  23.484  1.00  0.00     0.040 A 
ATOM     79  C   UNL A   1      49.614  26.311  25.545  1.00  0.00     0.040 A 
ATOM     80  F   UNL A   1      48.511  26.654  27.589  1.00  0.00    -0.206 F 
ATOM     81  C   UNL A   1      49.649  26.418  24.156  1.00  0.00     0.006 A 
ENDBRANCH  57  74
ENDBRANCH  31  32
ENDBRANCH  24  26
ENDBRANCH  23  24
ENDBRANCH  22  23
ENDBRANCH   1  22
TORSDOF 15
ENDMDL
