MODEL 1
REMARK VINA RESULT:     -12.2      0.000      0.000
REMARK SMILES CC(C)(C)c1cc2c(cc1Cl)C=C(C(=O)OCCOC(=O)c1ccc(-c3c4nc(c(-c5c(F)cccc5F)c5ccc([nH]5)c(-c5c(F)cccc5F)c5nc(c(-c6c(F)cccc6F)c6ccc3[nH]6)C=C5)C=C4)cc1)[C@@H](C(F)(F)F)O2
REMARK SMILES IDX 18 1 17 2 16 3 14 4 15 5 13 6 5 7 6 8 10 9 7 10 9 11 11 12
REMARK SMILES IDX 8 13 81 14 12 15 76 16 2 17 1 18 3 19 4 20 77 21 78 22 79 23
REMARK SMILES IDX 80 24 19 25 20 26 21 27 22 28 23 29 75 30 24 31 74 32 25 33
REMARK SMILES IDX 26 34 27 35 68 36 28 37 73 38 67 39 69 40 29 41 72 42 66 43
REMARK SMILES IDX 65 44 30 46 56 47 39 48 55 49 40 50 43 51 54 52 70 53 41 54
REMARK SMILES IDX 42 55 53 57 71 58 44 59 31 60 32 61 37 62 33 63 34 64 36 65
REMARK SMILES IDX 38 66 35 67 57 68 58 69 63 70 59 71 60 72 62 73 64 74 61 75
REMARK SMILES IDX 45 76 46 77 51 78 47 79 48 80 50 81 52 82 49 83
REMARK H PARENT 69 45 43 56
REMARK Flexibility Score: inf
ROOT
ATOM      1  C   UNL A   1      37.514  20.009  24.803  1.00  0.00     0.275 C 
ENDROOT
BRANCH   1   2
ATOM      2  C   UNL A   1      35.991  20.001  24.948  1.00  0.00     0.275 C 
BRANCH   2   3
ATOM      3  O   UNL A   1      35.404  21.253  24.528  1.00  0.00    -0.459 OA
BRANCH   3   4
ATOM      4  C   UNL A   1      34.052  21.276  24.492  1.00  0.00     0.338 C 
ATOM      5  O   UNL A   1      33.318  20.353  24.172  1.00  0.00    -0.246 OA
BRANCH   4   6
ATOM      6  C   UNL A   1      33.537  22.575  24.964  1.00  0.00     0.087 C 
ATOM      7  C   UNL A   1      32.859  27.553  25.694  1.00  0.00    -0.020 A 
ATOM      8  C   UNL A   1      32.423  26.358  26.344  1.00  0.00     0.053 A 
ATOM      9  C   UNL A   1      33.587  27.380  24.500  1.00  0.00     0.045 A 
ATOM     10  C   UNL A   1      32.753  25.079  25.885  1.00  0.00     0.128 A 
ATOM     11  C   UNL A   1      33.918  26.096  24.046  1.00  0.00     0.032 A 
ATOM     12  Cl  UNL A   1      34.121  28.637  23.443  1.00  0.00    -0.084 Cl
ATOM     13  C   UNL A   1      33.524  24.958  24.746  1.00  0.00     0.019 A 
ATOM     14  O   UNL A   1      32.279  24.007  26.590  1.00  0.00    -0.475 OA
ATOM     15  C   UNL A   1      33.927  23.655  24.281  1.00  0.00     0.027 C 
ATOM     16  C   UNL A   1      32.734  22.664  26.232  1.00  0.00     0.316 C 
BRANCH   7  17
ATOM     17  C   UNL A   1      32.456  28.903  26.340  1.00  0.00    -0.012 C 
ATOM     18  C   UNL A   1      31.661  29.898  25.466  1.00  0.00     0.016 C 
ATOM     19  C   UNL A   1      33.721  29.691  26.775  1.00  0.00     0.016 C 
ATOM     20  C   UNL A   1      31.597  28.598  27.584  1.00  0.00     0.016 C 
ENDBRANCH   7  17
BRANCH  16  21
ATOM     21  C   UNL A   1      33.522  22.081  27.417  1.00  0.00     0.430 C 
ATOM     22  F   UNL A   1      32.910  22.342  28.596  1.00  0.00    -0.167 F 
ATOM     23  F   UNL A   1      33.633  20.734  27.328  1.00  0.00    -0.167 F 
ATOM     24  F   UNL A   1      34.777  22.584  27.490  1.00  0.00    -0.167 F 
ENDBRANCH  16  21
ENDBRANCH   4   6
ENDBRANCH   3   4
ENDBRANCH   2   3
ENDBRANCH   1   2
BRANCH   1  25
ATOM     25  O   UNL A   1      38.082  21.162  25.454  1.00  0.00    -0.458 OA
BRANCH  25  26
ATOM     26  C   UNL A   1      39.263  20.952  26.076  1.00  0.00     0.338 C 
ATOM     27  O   UNL A   1      39.927  19.930  26.090  1.00  0.00    -0.246 OA
BRANCH  26  28
ATOM     28  C   UNL A   1      39.728  22.199  26.702  1.00  0.00     0.060 A 
ATOM     29  C   UNL A   1      40.782  22.209  27.607  1.00  0.00     0.016 A 
ATOM     30  C   UNL A   1      39.208  23.397  26.230  1.00  0.00     0.016 A 
ATOM     31  C   UNL A   1      41.302  23.440  28.034  1.00  0.00     0.010 A 
ATOM     32  C   UNL A   1      39.830  24.606  26.528  1.00  0.00     0.010 A 
ATOM     33  C   UNL A   1      40.866  24.656  27.466  1.00  0.00    -0.014 A 
BRANCH  33  34
ATOM     34  C   UNL A   1      41.478  25.962  27.858  1.00  0.00     0.031 A 
ATOM     35  C   UNL A   1      42.871  26.345  27.407  1.00  0.00     0.074 A 
ATOM     36  C   UNL A   1      40.795  26.809  28.658  1.00  0.00     0.049 A 
ATOM     37  N   UNL A   1      43.536  27.455  27.626  1.00  0.00    -0.248 NA
ATOM     38  C   UNL A   1      43.640  25.341  26.655  1.00  0.00     0.031 C 
ATOM     39  C   UNL A   1      39.495  26.533  29.274  1.00  0.00     0.029 A 
ATOM     40  N   UNL A   1      41.088  28.086  29.074  1.00  0.00    -0.354 N 
ATOM     41  C   UNL A   1      44.797  27.263  27.070  1.00  0.00     0.074 A 
ATOM     42  C   UNL A   1      44.834  25.906  26.575  1.00  0.00     0.031 C 
ATOM     43  C   UNL A   1      39.065  27.633  29.911  1.00  0.00     0.029 A 
ATOM     44  C   UNL A   1      40.072  28.680  29.783  1.00  0.00     0.049 A 
ATOM     45  H   UNL A   1      41.946  28.531  28.882  1.00  0.00     0.167 HD
ATOM     46  C   UNL A   1      45.820  28.142  26.933  1.00  0.00     0.037 A 
ATOM     47  C   UNL A   1      39.951  29.936  30.255  1.00  0.00     0.037 A 
ATOM     48  C   UNL A   1      45.767  29.514  27.358  1.00  0.00     0.049 A 
ATOM     49  C   UNL A   1      41.062  30.922  30.023  1.00  0.00     0.074 A 
ATOM     50  C   UNL A   1      46.710  30.512  27.180  1.00  0.00     0.029 A 
ATOM     51  N   UNL A   1      44.703  30.086  28.038  1.00  0.00    -0.354 N 
ATOM     52  N   UNL A   1      42.204  30.750  29.403  1.00  0.00    -0.248 NA
ATOM     53  C   UNL A   1      40.862  32.278  30.552  1.00  0.00     0.031 C 
ATOM     54  C   UNL A   1      46.225  31.683  27.774  1.00  0.00     0.029 A 
ATOM     55  C   UNL A   1      44.967  31.420  28.293  1.00  0.00     0.049 A 
ATOM     56  H   UNL A   1      43.881  29.612  28.300  1.00  0.00     0.167 HD
ATOM     57  C   UNL A   1      42.848  31.978  29.450  1.00  0.00     0.074 A 
ATOM     58  C   UNL A   1      41.961  32.892  30.138  1.00  0.00     0.031 C 
ATOM     59  C   UNL A   1      44.070  32.318  28.973  1.00  0.00     0.037 A 
BRANCH  46  60
ATOM     60  C   UNL A   1      47.070  27.649  26.260  1.00  0.00     0.057 A 
ATOM     61  C   UNL A   1      47.192  27.661  24.865  1.00  0.00     0.134 A 
ATOM     62  C   UNL A   1      48.154  27.147  26.996  1.00  0.00     0.134 A 
ATOM     63  F   UNL A   1      46.191  28.115  24.097  1.00  0.00    -0.206 F 
ATOM     64  C   UNL A   1      48.349  27.205  24.228  1.00  0.00     0.040 A 
ATOM     65  C   UNL A   1      49.326  26.718  26.373  1.00  0.00     0.040 A 
ATOM     66  F   UNL A   1      48.108  27.115  28.336  1.00  0.00    -0.206 F 
ATOM     67  C   UNL A   1      49.424  26.741  24.983  1.00  0.00     0.006 A 
ENDBRANCH  46  60
BRANCH  47  68
ATOM     68  C   UNL A   1      38.700  30.360  30.934  1.00  0.00     0.057 A 
ATOM     69  C   UNL A   1      37.619  30.889  30.223  1.00  0.00     0.134 A 
ATOM     70  C   UNL A   1      38.559  30.230  32.322  1.00  0.00     0.134 A 
ATOM     71  F   UNL A   1      37.694  31.047  28.894  1.00  0.00    -0.206 F 
ATOM     72  C   UNL A   1      36.442  31.278  30.867  1.00  0.00     0.040 A 
ATOM     73  C   UNL A   1      37.380  30.592  32.975  1.00  0.00     0.040 A 
ATOM     74  F   UNL A   1      39.556  29.713  33.056  1.00  0.00    -0.206 F 
ATOM     75  C   UNL A   1      36.318  31.122  32.246  1.00  0.00     0.006 A 
ENDBRANCH  47  68
BRANCH  59  76
ATOM     76  C   UNL A   1      44.504  33.740  29.158  1.00  0.00     0.057 A 
ATOM     77  C   UNL A   1      44.205  34.709  28.192  1.00  0.00     0.134 A 
ATOM     78  C   UNL A   1      45.238  34.145  30.278  1.00  0.00     0.134 A 
ATOM     79  F   UNL A   1      43.509  34.383  27.091  1.00  0.00    -0.206 F 
ATOM     80  C   UNL A   1      44.622  36.033  28.336  1.00  0.00     0.040 A 
ATOM     81  C   UNL A   1      45.641  35.470  30.444  1.00  0.00     0.040 A 
ATOM     82  F   UNL A   1      45.544  33.266  31.245  1.00  0.00    -0.206 F 
ATOM     83  C   UNL A   1      45.337  36.418  29.469  1.00  0.00     0.006 A 
ENDBRANCH  59  76
ENDBRANCH  33  34
ENDBRANCH  26  28
ENDBRANCH  25  26
ENDBRANCH   1  25
TORSDOF 13
ENDMDL
MODEL 2
REMARK VINA RESULT:     -12.1      4.238      9.100
REMARK SMILES CC(C)(C)c1cc2c(cc1Cl)C=C(C(=O)OCCOC(=O)c1ccc(-c3c4nc(c(-c5c(F)cccc5F)c5ccc([nH]5)c(-c5c(F)cccc5F)c5nc(c(-c6c(F)cccc6F)c6ccc3[nH]6)C=C5)C=C4)cc1)[C@@H](C(F)(F)F)O2
REMARK SMILES IDX 18 1 17 2 16 3 14 4 15 5 13 6 5 7 6 8 10 9 7 10 9 11 11 12
REMARK SMILES IDX 8 13 81 14 12 15 76 16 2 17 1 18 3 19 4 20 77 21 78 22 79 23
REMARK SMILES IDX 80 24 19 25 20 26 21 27 22 28 23 29 75 30 24 31 74 32 25 33
REMARK SMILES IDX 26 34 27 35 68 36 28 37 73 38 67 39 69 40 29 41 72 42 66 43
REMARK SMILES IDX 65 44 30 46 56 47 39 48 55 49 40 50 43 51 54 52 70 53 41 54
REMARK SMILES IDX 42 55 53 57 71 58 44 59 31 60 32 61 37 62 33 63 34 64 36 65
REMARK SMILES IDX 38 66 35 67 57 68 58 69 63 70 59 71 60 72 62 73 64 74 61 75
REMARK SMILES IDX 45 76 46 77 51 78 47 79 48 80 50 81 52 82 49 83
REMARK H PARENT 69 45 43 56
REMARK Flexibility Score: inf
ROOT
ATOM      1  C   UNL A   1      31.312  31.277  26.278  1.00  0.00     0.275 C 
ENDROOT
BRANCH   1   2
ATOM      2  C   UNL A   1      31.066  30.425  25.031  1.00  0.00     0.275 C 
BRANCH   2   3
ATOM      3  O   UNL A   1      31.142  29.011  25.322  1.00  0.00    -0.459 OA
BRANCH   3   4
ATOM      4  C   UNL A   1      30.790  28.191  24.307  1.00  0.00     0.338 C 
ATOM      5  O   UNL A   1      29.812  28.309  23.583  1.00  0.00    -0.246 OA
BRANCH   4   6
ATOM      6  C   UNL A   1      31.796  27.129  24.118  1.00  0.00     0.087 C 
ATOM      7  C   UNL A   1      35.148  23.412  24.966  1.00  0.00    -0.020 A 
ATOM      8  C   UNL A   1      34.824  24.263  23.865  1.00  0.00     0.053 A 
ATOM      9  C   UNL A   1      34.313  23.517  26.096  1.00  0.00     0.045 A 
ATOM     10  C   UNL A   1      33.795  25.208  23.910  1.00  0.00     0.128 A 
ATOM     11  C   UNL A   1      33.285  24.467  26.139  1.00  0.00     0.032 A 
ATOM     12  Cl  UNL A   1      34.387  22.528  27.510  1.00  0.00    -0.084 Cl
ATOM     13  C   UNL A   1      33.044  25.319  25.064  1.00  0.00     0.019 A 
ATOM     14  O   UNL A   1      33.577  25.967  22.794  1.00  0.00    -0.475 OA
ATOM     15  C   UNL A   1      32.014  26.322  25.161  1.00  0.00     0.027 C 
ATOM     16  C   UNL A   1      32.617  27.068  22.861  1.00  0.00     0.316 C 
BRANCH   7  17
ATOM     17  C   UNL A   1      36.344  22.443  24.790  1.00  0.00    -0.012 C 
ATOM     18  C   UNL A   1      36.087  20.943  25.055  1.00  0.00     0.016 C 
ATOM     19  C   UNL A   1      37.491  22.820  25.768  1.00  0.00     0.016 C 
ATOM     20  C   UNL A   1      36.852  22.571  23.340  1.00  0.00     0.016 C 
ENDBRANCH   7  17
BRANCH  16  21
ATOM     21  C   UNL A   1      33.372  28.390  22.640  1.00  0.00     0.430 C 
ATOM     22  F   UNL A   1      32.542  29.371  22.217  1.00  0.00    -0.167 F 
ATOM     23  F   UNL A   1      33.945  28.834  23.785  1.00  0.00    -0.167 F 
ATOM     24  F   UNL A   1      34.357  28.265  21.719  1.00  0.00    -0.167 F 
ENDBRANCH  16  21
ENDBRANCH   4   6
ENDBRANCH   3   4
ENDBRANCH   2   3
ENDBRANCH   1   2
BRANCH   1  25
ATOM     25  O   UNL A   1      32.604  30.990  26.847  1.00  0.00    -0.458 OA
BRANCH  25  26
ATOM     26  C   UNL A   1      33.262  32.055  27.355  1.00  0.00     0.338 C 
ATOM     27  O   UNL A   1      32.837  33.186  27.516  1.00  0.00    -0.246 OA
BRANCH  26  28
ATOM     28  C   UNL A   1      34.605  31.649  27.797  1.00  0.00     0.060 A 
ATOM     29  C   UNL A   1      35.587  32.586  28.094  1.00  0.00     0.016 A 
ATOM     30  C   UNL A   1      34.816  30.309  28.089  1.00  0.00     0.016 A 
ATOM     31  C   UNL A   1      36.785  32.156  28.681  1.00  0.00     0.010 A 
ATOM     32  C   UNL A   1      35.932  29.909  28.819  1.00  0.00     0.010 A 
ATOM     33  C   UNL A   1      36.957  30.818  29.096  1.00  0.00    -0.014 A 
BRANCH  33  34
ATOM     34  C   UNL A   1      38.199  30.375  29.800  1.00  0.00     0.031 A 
ATOM     35  C   UNL A   1      38.470  30.763  31.238  1.00  0.00     0.074 A 
ATOM     36  C   UNL A   1      39.120  29.642  29.138  1.00  0.00     0.049 A 
ATOM     37  N   UNL A   1      39.479  30.432  32.010  1.00  0.00    -0.248 NA
ATOM     38  C   UNL A   1      37.515  31.678  31.885  1.00  0.00     0.031 C 
ATOM     39  C   UNL A   1      39.064  29.290  27.717  1.00  0.00     0.029 A 
ATOM     40  N   UNL A   1      40.275  29.040  29.578  1.00  0.00    -0.354 N 
ATOM     41  C   UNL A   1      39.291  31.121  33.204  1.00  0.00     0.074 A 
ATOM     42  C   UNL A   1      38.119  31.949  33.030  1.00  0.00     0.031 C 
ATOM     43  C   UNL A   1      40.082  28.466  27.425  1.00  0.00     0.029 A 
ATOM     44  C   UNL A   1      40.885  28.260  28.625  1.00  0.00     0.049 A 
ATOM     45  H   UNL A   1      40.631  29.158  30.488  1.00  0.00     0.167 HD
ATOM     46  C   UNL A   1      39.992  31.042  34.361  1.00  0.00     0.037 A 
ATOM     47  C   UNL A   1      41.956  27.448  28.712  1.00  0.00     0.037 A 
ATOM     48  C   UNL A   1      41.116  30.169  34.567  1.00  0.00     0.049 A 
ATOM     49  C   UNL A   1      42.673  27.311  30.026  1.00  0.00     0.074 A 
ATOM     50  C   UNL A   1      41.835  29.943  35.728  1.00  0.00     0.029 A 
ATOM     51  N   UNL A   1      41.677  29.367  33.586  1.00  0.00    -0.354 N 
ATOM     52  N   UNL A   1      42.417  27.892  31.172  1.00  0.00    -0.248 NA
ATOM     53  C   UNL A   1      43.825  26.399  30.057  1.00  0.00     0.031 C 
ATOM     54  C   UNL A   1      42.848  29.020  35.443  1.00  0.00     0.029 A 
ATOM     55  C   UNL A   1      42.737  28.649  34.112  1.00  0.00     0.049 A 
ATOM     56  H   UNL A   1      41.367  29.316  32.653  1.00  0.00     0.167 HD
ATOM     57  C   UNL A   1      43.361  27.402  32.064  1.00  0.00     0.074 A 
ATOM     58  C   UNL A   1      44.181  26.459  31.332  1.00  0.00     0.031 C 
ATOM     59  C   UNL A   1      43.539  27.711  33.371  1.00  0.00     0.037 A 
BRANCH  46  60
ATOM     60  C   UNL A   1      39.534  31.901  35.507  1.00  0.00     0.057 A 
ATOM     61  C   UNL A   1      40.073  33.177  35.713  1.00  0.00     0.134 A 
ATOM     62  C   UNL A   1      38.564  31.457  36.418  1.00  0.00     0.134 A 
ATOM     63  F   UNL A   1      41.013  33.662  34.889  1.00  0.00    -0.206 F 
ATOM     64  C   UNL A   1      39.655  33.984  36.775  1.00  0.00     0.040 A 
ATOM     65  C   UNL A   1      38.117  32.265  37.464  1.00  0.00     0.040 A 
ATOM     66  F   UNL A   1      38.000  30.248  36.274  1.00  0.00    -0.206 F 
ATOM     67  C   UNL A   1      38.667  33.532  37.648  1.00  0.00     0.006 A 
ENDBRANCH  46  60
BRANCH  47  68
ATOM     68  C   UNL A   1      42.378  26.641  27.538  1.00  0.00     0.057 A 
ATOM     69  C   UNL A   1      41.903  25.343  27.327  1.00  0.00     0.134 A 
ATOM     70  C   UNL A   1      43.264  27.167  26.589  1.00  0.00     0.134 A 
ATOM     71  F   UNL A   1      41.059  24.780  28.204  1.00  0.00    -0.206 F 
ATOM     72  C   UNL A   1      42.297  24.593  26.217  1.00  0.00     0.040 A 
ATOM     73  C   UNL A   1      43.648  26.438  25.462  1.00  0.00     0.040 A 
ATOM     74  F   UNL A   1      43.740  28.413  26.728  1.00  0.00    -0.206 F 
ATOM     75  C   UNL A   1      43.165  25.144  25.277  1.00  0.00     0.006 A 
ENDBRANCH  47  68
BRANCH  59  76
ATOM     76  C   UNL A   1      44.644  27.004  34.095  1.00  0.00     0.057 A 
ATOM     77  C   UNL A   1      45.929  27.557  34.151  1.00  0.00     0.134 A 
ATOM     78  C   UNL A   1      44.443  25.765  34.714  1.00  0.00     0.134 A 
ATOM     79  F   UNL A   1      46.189  28.739  33.571  1.00  0.00    -0.206 F 
ATOM     80  C   UNL A   1      46.977  26.901  34.800  1.00  0.00     0.040 A 
ATOM     81  C   UNL A   1      45.476  25.110  35.385  1.00  0.00     0.040 A 
ATOM     82  F   UNL A   1      43.230  25.190  34.707  1.00  0.00    -0.206 F 
ATOM     83  C   UNL A   1      46.749  25.676  35.425  1.00  0.00     0.006 A 
ENDBRANCH  59  76
ENDBRANCH  33  34
ENDBRANCH  26  28
ENDBRANCH  25  26
ENDBRANCH   1  25
TORSDOF 13
ENDMDL
MODEL 3
REMARK VINA RESULT:     -11.8      1.222      2.034
REMARK SMILES CC(C)(C)c1cc2c(cc1Cl)C=C(C(=O)OCCOC(=O)c1ccc(-c3c4nc(c(-c5c(F)cccc5F)c5ccc([nH]5)c(-c5c(F)cccc5F)c5nc(c(-c6c(F)cccc6F)c6ccc3[nH]6)C=C5)C=C4)cc1)[C@@H](C(F)(F)F)O2
REMARK SMILES IDX 18 1 17 2 16 3 14 4 15 5 13 6 5 7 6 8 10 9 7 10 9 11 11 12
REMARK SMILES IDX 8 13 81 14 12 15 76 16 2 17 1 18 3 19 4 20 77 21 78 22 79 23
REMARK SMILES IDX 80 24 19 25 20 26 21 27 22 28 23 29 75 30 24 31 74 32 25 33
REMARK SMILES IDX 26 34 27 35 68 36 28 37 73 38 67 39 69 40 29 41 72 42 66 43
REMARK SMILES IDX 65 44 30 46 56 47 39 48 55 49 40 50 43 51 54 52 70 53 41 54
REMARK SMILES IDX 42 55 53 57 71 58 44 59 31 60 32 61 37 62 33 63 34 64 36 65
REMARK SMILES IDX 38 66 35 67 57 68 58 69 63 70 59 71 60 72 62 73 64 74 61 75
REMARK SMILES IDX 45 76 46 77 51 78 47 79 48 80 50 81 52 82 49 83
REMARK H PARENT 69 45 43 56
REMARK Flexibility Score: inf
ROOT
ATOM      1  C   UNL A   1      37.775  21.122  25.006  1.00  0.00     0.275 C 
ENDROOT
BRANCH   1   2
ATOM      2  C   UNL A   1      36.308  20.705  25.125  1.00  0.00     0.275 C 
BRANCH   2   3
ATOM      3  O   UNL A   1      35.460  21.461  24.232  1.00  0.00    -0.459 OA
BRANCH   3   4
ATOM      4  C   UNL A   1      34.133  21.369  24.475  1.00  0.00     0.338 C 
ATOM      5  O   UNL A   1      33.447  20.361  24.388  1.00  0.00    -0.246 OA
BRANCH   4   6
ATOM      6  C   UNL A   1      33.595  22.660  24.942  1.00  0.00     0.087 C 
ATOM      7  C   UNL A   1      32.817  27.629  25.639  1.00  0.00    -0.020 A 
ATOM      8  C   UNL A   1      32.413  26.429  26.302  1.00  0.00     0.053 A 
ATOM      9  C   UNL A   1      33.537  27.461  24.439  1.00  0.00     0.045 A 
ATOM     10  C   UNL A   1      32.766  25.154  25.851  1.00  0.00     0.128 A 
ATOM     11  C   UNL A   1      33.892  26.181  23.992  1.00  0.00     0.032 A 
ATOM     12  Cl  UNL A   1      34.035  28.720  23.367  1.00  0.00    -0.084 Cl
ATOM     13  C   UNL A   1      33.528  25.041  24.705  1.00  0.00     0.019 A 
ATOM     14  O   UNL A   1      32.322  24.079  26.568  1.00  0.00    -0.475 OA
ATOM     15  C   UNL A   1      33.956  23.743  24.247  1.00  0.00     0.027 C 
ATOM     16  C   UNL A   1      32.802  22.742  26.216  1.00  0.00     0.316 C 
BRANCH   7  17
ATOM     17  C   UNL A   1      32.391  28.975  26.277  1.00  0.00    -0.012 C 
ATOM     18  C   UNL A   1      33.515  29.942  26.708  1.00  0.00     0.016 C 
ATOM     19  C   UNL A   1      31.576  28.721  27.574  1.00  0.00     0.016 C 
ATOM     20  C   UNL A   1      31.506  29.724  25.261  1.00  0.00     0.016 C 
ENDBRANCH   7  17
BRANCH  16  21
ATOM     21  C   UNL A   1      33.613  22.187  27.399  1.00  0.00     0.430 C 
ATOM     22  F   UNL A   1      33.033  22.489  28.584  1.00  0.00    -0.167 F 
ATOM     23  F   UNL A   1      33.707  20.836  27.347  1.00  0.00    -0.167 F 
ATOM     24  F   UNL A   1      34.874  22.677  27.426  1.00  0.00    -0.167 F 
ENDBRANCH  16  21
ENDBRANCH   4   6
ENDBRANCH   3   4
ENDBRANCH   2   3
ENDBRANCH   1   2
BRANCH   1  25
ATOM     25  O   UNL A   1      38.151  21.984  26.098  1.00  0.00    -0.458 OA
BRANCH  25  26
ATOM     26  C   UNL A   1      39.477  22.050  26.353  1.00  0.00     0.338 C 
ATOM     27  O   UNL A   1      40.341  21.258  26.018  1.00  0.00    -0.246 OA
BRANCH  26  28
ATOM     28  C   UNL A   1      39.790  23.308  27.047  1.00  0.00     0.060 A 
ATOM     29  C   UNL A   1      40.767  23.370  28.034  1.00  0.00     0.016 A 
ATOM     30  C   UNL A   1      39.216  24.477  26.567  1.00  0.00     0.016 A 
ATOM     31  C   UNL A   1      41.151  24.622  28.535  1.00  0.00     0.010 A 
ATOM     32  C   UNL A   1      39.714  25.720  26.946  1.00  0.00     0.010 A 
ATOM     33  C   UNL A   1      40.666  25.819  27.966  1.00  0.00    -0.014 A 
BRANCH  33  34
ATOM     34  C   UNL A   1      41.139  27.155  28.441  1.00  0.00     0.031 A 
ATOM     35  C   UNL A   1      42.579  27.587  28.265  1.00  0.00     0.074 A 
ATOM     36  C   UNL A   1      40.281  27.985  29.070  1.00  0.00     0.049 A 
ATOM     37  N   UNL A   1      43.146  28.727  28.585  1.00  0.00    -0.248 NA
ATOM     38  C   UNL A   1      43.519  26.603  27.703  1.00  0.00     0.031 C 
ATOM     39  C   UNL A   1      38.895  27.666  29.424  1.00  0.00     0.029 A 
ATOM     40  N   UNL A   1      40.438  29.279  29.507  1.00  0.00    -0.354 N 
ATOM     41  C   UNL A   1      44.498  28.578  28.294  1.00  0.00     0.074 A 
ATOM     42  C   UNL A   1      44.683  27.216  27.848  1.00  0.00     0.031 C 
ATOM     43  C   UNL A   1      38.307  28.757  29.938  1.00  0.00     0.029 A 
ATOM     44  C   UNL A   1      39.281  29.842  29.988  1.00  0.00     0.049 A 
ATOM     45  H   UNL A   1      41.300  29.756  29.478  1.00  0.00     0.167 HD
ATOM     46  C   UNL A   1      45.495  29.495  28.342  1.00  0.00     0.037 A 
ATOM     47  C   UNL A   1      39.022  31.099  30.397  1.00  0.00     0.037 A 
ATOM     48  C   UNL A   1      45.308  30.871  28.716  1.00  0.00     0.049 A 
ATOM     49  C   UNL A   1      40.119  32.125  30.366  1.00  0.00     0.074 A 
ATOM     50  C   UNL A   1      46.230  31.904  28.704  1.00  0.00     0.029 A 
ATOM     51  N   UNL A   1      44.110  31.409  29.159  1.00  0.00    -0.354 N 
ATOM     52  N   UNL A   1      41.367  31.991  29.989  1.00  0.00    -0.248 NA
ATOM     53  C   UNL A   1      39.768  33.480  30.814  1.00  0.00     0.031 C 
ATOM     54  C   UNL A   1      45.594  33.063  29.164  1.00  0.00     0.029 A 
ATOM     55  C   UNL A   1      44.269  32.756  29.431  1.00  0.00     0.049 A 
ATOM     56  H   UNL A   1      43.270  30.906  29.265  1.00  0.00     0.167 HD
ATOM     57  C   UNL A   1      41.944  33.244  30.134  1.00  0.00     0.074 A 
ATOM     58  C   UNL A   1      40.905  34.133  30.612  1.00  0.00     0.031 C 
ATOM     59  C   UNL A   1      43.223  33.627  29.900  1.00  0.00     0.037 A 
BRANCH  46  60
ATOM     60  C   UNL A   1      46.872  29.043  27.940  1.00  0.00     0.057 A 
ATOM     61  C   UNL A   1      47.785  28.578  28.894  1.00  0.00     0.134 A 
ATOM     62  C   UNL A   1      47.299  29.081  26.605  1.00  0.00     0.134 A 
ATOM     63  F   UNL A   1      47.449  28.526  30.192  1.00  0.00    -0.206 F 
ATOM     64  C   UNL A   1      49.067  28.156  28.534  1.00  0.00     0.040 A 
ATOM     65  C   UNL A   1      48.566  28.634  26.229  1.00  0.00     0.040 A 
ATOM     66  F   UNL A   1      46.471  29.508  25.639  1.00  0.00    -0.206 F 
ATOM     67  C   UNL A   1      49.457  28.174  27.196  1.00  0.00     0.006 A 
ENDBRANCH  46  60
BRANCH  47  68
ATOM     68  C   UNL A   1      37.646  31.482  30.806  1.00  0.00     0.057 A 
ATOM     69  C   UNL A   1      37.248  31.478  32.147  1.00  0.00     0.134 A 
ATOM     70  C   UNL A   1      36.699  31.873  29.852  1.00  0.00     0.134 A 
ATOM     71  F   UNL A   1      38.107  31.105  33.107  1.00  0.00    -0.206 F 
ATOM     72  C   UNL A   1      35.956  31.848  32.525  1.00  0.00     0.040 A 
ATOM     73  C   UNL A   1      35.410  32.267  30.218  1.00  0.00     0.040 A 
ATOM     74  F   UNL A   1      37.026  31.913  28.552  1.00  0.00    -0.206 F 
ATOM     75  C   UNL A   1      35.036  32.251  31.560  1.00  0.00     0.006 A 
ENDBRANCH  47  68
BRANCH  59  76
ATOM     76  C   UNL A   1      43.558  35.068  30.133  1.00  0.00     0.057 A 
ATOM     77  C   UNL A   1      43.419  36.010  29.106  1.00  0.00     0.134 A 
ATOM     78  C   UNL A   1      44.042  35.520  31.366  1.00  0.00     0.134 A 
ATOM     79  F   UNL A   1      42.966  35.639  27.898  1.00  0.00    -0.206 F 
ATOM     80  C   UNL A   1      43.750  37.352  29.299  1.00  0.00     0.040 A 
ATOM     81  C   UNL A   1      44.355  36.863  31.579  1.00  0.00     0.040 A 
ATOM     82  F   UNL A   1      44.184  34.668  32.394  1.00  0.00    -0.206 F 
ATOM     83  C   UNL A   1      44.213  37.782  30.541  1.00  0.00     0.006 A 
ENDBRANCH  59  76
ENDBRANCH  33  34
ENDBRANCH  26  28
ENDBRANCH  25  26
ENDBRANCH   1  25
TORSDOF 13
ENDMDL
