MODEL 1
REMARK VINA RESULT:     -12.2      0.000      0.000
REMARK SMILES C[C@H](NC(=O)CCN1C(=O)C(=Cc2ccc([N+](=O)[O-])cc2)SC1=S)C(=O)OCCOC(=O)c1ccc(-c2c3nc(c(-c4c(F)cccc4F)c4ccc([nH]4)c(-c4c(F)cccc4F)c4nc(c(-c5c(F)cccc5F)c5ccc2[nH]5)C=C4)C=C3)cc1
REMARK SMILES IDX 25 1 26 2 2 3 1 4 3 5 4 6 5 8 6 9 7 10 8 11 9 12 23 13 10 14
REMARK SMILES IDX 11 15 22 16 24 17 12 18 13 19 14 20 21 21 15 22 20 23 16 24
REMARK SMILES IDX 17 25 18 26 19 27 27 28 28 29 29 30 30 31 31 32 32 33 33 34
REMARK SMILES IDX 34 35 86 36 35 37 85 38 36 39 37 40 38 41 79 42 39 43 84 44
REMARK SMILES IDX 78 45 80 46 40 47 83 48 77 49 76 50 41 52 67 53 50 54 66 55
REMARK SMILES IDX 51 56 54 57 65 58 81 59 52 60 53 61 64 63 82 64 55 65 42 66
REMARK SMILES IDX 43 67 48 68 44 69 45 70 47 71 49 72 46 73 68 74 69 75 74 76
REMARK SMILES IDX 70 77 71 78 73 79 75 80 72 81 56 82 57 83 62 84 58 85 59 86
REMARK SMILES IDX 61 87 63 88 60 89
REMARK H PARENT 3 7 80 51 54 62
REMARK Flexibility Score: inf
ROOT
ATOM      1  C   UNL A   1      32.669  29.968  26.132  1.00  0.00     0.328 C 
ATOM      2  O   UNL A   1      33.408  30.032  27.107  1.00  0.00    -0.250 OA
ENDROOT
BRANCH   1   3
ATOM      3  C   UNL A   1      32.551  28.697  25.278  1.00  0.00     0.189 C 
ATOM      4  C   UNL A   1      33.861  28.387  24.558  1.00  0.00     0.043 C 
BRANCH   3   5
ATOM      5  N   UNL A   1      31.335  28.614  24.468  1.00  0.00    -0.343 N 
ATOM      6  C   UNL A   1      30.491  27.616  24.114  1.00  0.00     0.222 C 
ATOM      7  H   UNL A   1      31.069  29.485  24.095  1.00  0.00     0.164 HD
ATOM      8  O   UNL A   1      29.659  27.866  23.237  1.00  0.00    -0.275 OA
BRANCH   6   9
ATOM      9  C   UNL A   1      30.509  26.246  24.754  1.00  0.00     0.122 C 
BRANCH   9  10
ATOM     10  C   UNL A   1      30.276  25.136  23.726  1.00  0.00     0.137 C 
BRANCH  10  11
ATOM     11  N   UNL A   1      31.404  24.194  23.608  1.00  0.00    -0.292 N 
ATOM     12  C   UNL A   1      31.445  23.108  24.449  1.00  0.00     0.266 C 
ATOM     13  C   UNL A   1      32.498  24.341  22.786  1.00  0.00     0.148 C 
ATOM     14  O   UNL A   1      30.684  22.909  25.381  1.00  0.00    -0.268 OA
ATOM     15  C   UNL A   1      32.564  22.167  24.121  1.00  0.00     0.081 C 
ATOM     16  S   UNL A   1      33.668  23.049  23.101  1.00  0.00    -0.054 SA
ATOM     17  S   UNL A   1      32.754  25.519  21.635  1.00  0.00    -0.052 S 
ATOM     18  C   UNL A   1      32.141  20.963  23.696  1.00  0.00     0.029 C 
BRANCH  18  19
ATOM     19  C   UNL A   1      32.635  19.632  24.092  1.00  0.00    -0.024 A 
ATOM     20  C   UNL A   1      32.647  18.640  23.097  1.00  0.00     0.015 A 
ATOM     21  C   UNL A   1      32.910  19.260  25.413  1.00  0.00     0.015 A 
ATOM     22  C   UNL A   1      32.941  17.309  23.402  1.00  0.00     0.086 A 
ATOM     23  C   UNL A   1      33.206  17.924  25.730  1.00  0.00     0.086 A 
ATOM     24  C   UNL A   1      33.221  16.954  24.720  1.00  0.00     0.269 A 
BRANCH  24  25
ATOM     25  N   UNL A   1      33.507  15.550  25.041  1.00  0.00     0.062 N 
ATOM     26  O   UNL A   1      34.687  15.236  25.253  1.00  0.00    -0.258 OA
ATOM     27  O   UNL A   1      32.551  14.762  25.075  1.00  0.00    -0.258 OA
ENDBRANCH  24  25
ENDBRANCH  18  19
ENDBRANCH  10  11
ENDBRANCH   9  10
ENDBRANCH   6   9
ENDBRANCH   3   5
ENDBRANCH   1   3
BRANCH   1  28
ATOM     28  O   UNL A   1      31.774  30.934  25.792  1.00  0.00    -0.461 OA
BRANCH  28  29
ATOM     29  C   UNL A   1      31.353  31.794  26.876  1.00  0.00     0.274 C 
BRANCH  29  30
ATOM     30  C   UNL A   1      32.097  33.136  26.920  1.00  0.00     0.275 C 
BRANCH  30  31
ATOM     31  O   UNL A   1      32.238  33.629  28.269  1.00  0.00    -0.458 OA
BRANCH  31  32
ATOM     32  C   UNL A   1      33.320  34.417  28.474  1.00  0.00     0.338 C 
ATOM     33  O   UNL A   1      33.318  35.631  28.616  1.00  0.00    -0.246 OA
BRANCH  32  34
ATOM     34  C   UNL A   1      34.524  33.595  28.732  1.00  0.00     0.060 A 
ATOM     35  C   UNL A   1      34.346  32.449  29.520  1.00  0.00     0.016 A 
ATOM     36  C   UNL A   1      35.792  33.921  28.246  1.00  0.00     0.016 A 
ATOM     37  C   UNL A   1      35.425  31.637  29.843  1.00  0.00     0.010 A 
ATOM     38  C   UNL A   1      36.888  33.127  28.604  1.00  0.00     0.010 A 
ATOM     39  C   UNL A   1      36.708  31.998  29.426  1.00  0.00    -0.014 A 
BRANCH  39  40
ATOM     40  C   UNL A   1      37.861  31.314  30.050  1.00  0.00     0.031 A 
ATOM     41  C   UNL A   1      38.215  31.679  31.462  1.00  0.00     0.074 A 
ATOM     42  C   UNL A   1      38.528  30.337  29.413  1.00  0.00     0.049 A 
ATOM     43  N   UNL A   1      39.129  31.166  32.242  1.00  0.00    -0.248 NA
ATOM     44  C   UNL A   1      37.399  32.731  32.091  1.00  0.00     0.031 C 
ATOM     45  C   UNL A   1      38.211  29.824  28.087  1.00  0.00     0.029 A 
ATOM     46  N   UNL A   1      39.625  29.611  29.797  1.00  0.00    -0.354 N 
ATOM     47  C   UNL A   1      38.956  31.787  33.471  1.00  0.00     0.074 A 
ATOM     48  C   UNL A   1      37.897  32.759  33.318  1.00  0.00     0.031 C 
ATOM     49  C   UNL A   1      39.151  28.937  27.717  1.00  0.00     0.029 A 
ATOM     50  C   UNL A   1      40.115  28.798  28.805  1.00  0.00     0.049 A 
ATOM     51  H   UNL A   1      40.023  29.668  30.695  1.00  0.00     0.167 HD
ATOM     52  C   UNL A   1      39.604  31.543  34.632  1.00  0.00     0.037 A 
ATOM     53  C   UNL A   1      41.221  28.034  28.780  1.00  0.00     0.037 A 
ATOM     54  C   UNL A   1      40.702  30.625  34.763  1.00  0.00     0.049 A 
ATOM     55  C   UNL A   1      42.039  27.908  30.033  1.00  0.00     0.074 A 
ATOM     56  C   UNL A   1      41.463  30.338  35.881  1.00  0.00     0.029 A 
ATOM     57  N   UNL A   1      41.211  29.862  33.722  1.00  0.00    -0.354 N 
ATOM     58  N   UNL A   1      41.846  28.468  31.203  1.00  0.00    -0.248 NA
ATOM     59  C   UNL A   1      43.202  27.013  29.977  1.00  0.00     0.031 C 
ATOM     60  C   UNL A   1      42.457  29.426  35.507  1.00  0.00     0.029 A 
ATOM     61  C   UNL A   1      42.290  29.118  34.165  1.00  0.00     0.049 A 
ATOM     62  H   UNL A   1      40.857  29.851  32.804  1.00  0.00     0.167 HD
ATOM     63  C   UNL A   1      42.836  27.962  32.035  1.00  0.00     0.074 A 
ATOM     64  C   UNL A   1      43.628  27.051  31.232  1.00  0.00     0.031 C 
ATOM     65  C   UNL A   1      43.060  28.217  33.347  1.00  0.00     0.037 A 
BRANCH  52  66
ATOM     66  C   UNL A   1      39.131  32.298  35.835  1.00  0.00     0.057 A 
ATOM     67  C   UNL A   1      38.224  31.726  36.739  1.00  0.00     0.134 A 
ATOM     68  C   UNL A   1      39.557  33.606  36.083  1.00  0.00     0.134 A 
ATOM     69  F   UNL A   1      37.756  30.484  36.541  1.00  0.00    -0.206 F 
ATOM     70  C   UNL A   1      37.744  32.439  37.838  1.00  0.00     0.040 A 
ATOM     71  C   UNL A   1      39.097  34.322  37.188  1.00  0.00     0.040 A 
ATOM     72  F   UNL A   1      40.416  34.211  35.250  1.00  0.00    -0.206 F 
ATOM     73  C   UNL A   1      38.184  33.741  38.067  1.00  0.00     0.006 A 
ENDBRANCH  52  66
BRANCH  53  74
ATOM     74  C   UNL A   1      41.615  27.338  27.532  1.00  0.00     0.057 A 
ATOM     75  C   UNL A   1      41.284  25.999  27.300  1.00  0.00     0.134 A 
ATOM     76  C   UNL A   1      42.352  28.002  26.543  1.00  0.00     0.134 A 
ATOM     77  F   UNL A   1      40.592  25.307  28.217  1.00  0.00    -0.206 F 
ATOM     78  C   UNL A   1      41.689  25.337  26.139  1.00  0.00     0.040 A 
ATOM     79  C   UNL A   1      42.748  27.359  25.369  1.00  0.00     0.040 A 
ATOM     80  F   UNL A   1      42.696  29.287  26.705  1.00  0.00    -0.206 F 
ATOM     81  C   UNL A   1      42.423  26.019  25.169  1.00  0.00     0.006 A 
ENDBRANCH  53  74
BRANCH  65  82
ATOM     82  C   UNL A   1      44.183  27.466  33.996  1.00  0.00     0.057 A 
ATOM     83  C   UNL A   1      43.985  26.220  34.601  1.00  0.00     0.134 A 
ATOM     84  C   UNL A   1      45.480  27.993  34.002  1.00  0.00     0.134 A 
ATOM     85  F   UNL A   1      42.761  25.670  34.641  1.00  0.00    -0.206 F 
ATOM     86  C   UNL A   1      45.035  25.533  35.213  1.00  0.00     0.040 A 
ATOM     87  C   UNL A   1      46.542  27.307  34.589  1.00  0.00     0.040 A 
ATOM     88  F   UNL A   1      45.735  29.182  33.433  1.00  0.00    -0.206 F 
ATOM     89  C   UNL A   1      46.319  26.076  35.204  1.00  0.00     0.006 A 
ENDBRANCH  65  82
ENDBRANCH  39  40
ENDBRANCH  32  34
ENDBRANCH  31  32
ENDBRANCH  30  31
ENDBRANCH  29  30
ENDBRANCH  28  29
ENDBRANCH   1  28
TORSDOF 17
ENDMDL
MODEL 2
REMARK VINA RESULT:     -11.9      4.426     10.357
REMARK SMILES C[C@H](NC(=O)CCN1C(=O)C(=Cc2ccc([N+](=O)[O-])cc2)SC1=S)C(=O)OCCOC(=O)c1ccc(-c2c3nc(c(-c4c(F)cccc4F)c4ccc([nH]4)c(-c4c(F)cccc4F)c4nc(c(-c5c(F)cccc5F)c5ccc2[nH]5)C=C4)C=C3)cc1
REMARK SMILES IDX 25 1 26 2 2 3 1 4 3 5 4 6 5 8 6 9 7 10 8 11 9 12 23 13 10 14
REMARK SMILES IDX 11 15 22 16 24 17 12 18 13 19 14 20 21 21 15 22 20 23 16 24
REMARK SMILES IDX 17 25 18 26 19 27 27 28 28 29 29 30 30 31 31 32 32 33 33 34
REMARK SMILES IDX 34 35 86 36 35 37 85 38 36 39 37 40 38 41 79 42 39 43 84 44
REMARK SMILES IDX 78 45 80 46 40 47 83 48 77 49 76 50 41 52 67 53 50 54 66 55
REMARK SMILES IDX 51 56 54 57 65 58 81 59 52 60 53 61 64 63 82 64 55 65 42 66
REMARK SMILES IDX 43 67 48 68 44 69 45 70 47 71 49 72 46 73 68 74 69 75 74 76
REMARK SMILES IDX 70 77 71 78 73 79 75 80 72 81 56 82 57 83 62 84 58 85 59 86
REMARK SMILES IDX 61 87 63 88 60 89
REMARK H PARENT 3 7 80 51 54 62
REMARK Flexibility Score: inf
ROOT
ATOM      1  C   UNL A   1      37.311  22.240  24.770  1.00  0.00     0.328 C 
ATOM      2  O   UNL A   1      36.987  22.168  23.591  1.00  0.00    -0.250 OA
ENDROOT
BRANCH   1   3
ATOM      3  C   UNL A   1      36.541  23.107  25.778  1.00  0.00     0.189 C 
ATOM      4  C   UNL A   1      37.475  24.054  26.526  1.00  0.00     0.043 C 
BRANCH   3   5
ATOM      5  N   UNL A   1      35.571  22.377  26.596  1.00  0.00    -0.343 N 
ATOM      6  C   UNL A   1      34.375  22.680  27.154  1.00  0.00     0.222 C 
ATOM      7  H   UNL A   1      35.853  21.453  26.783  1.00  0.00     0.164 HD
ATOM      8  O   UNL A   1      33.913  21.874  27.967  1.00  0.00    -0.275 OA
BRANCH   6   9
ATOM      9  C   UNL A   1      33.589  23.925  26.812  1.00  0.00     0.122 C 
BRANCH   9  10
ATOM     10  C   UNL A   1      32.085  23.649  26.752  1.00  0.00     0.137 C 
BRANCH  10  11
ATOM     11  N   UNL A   1      31.457  24.067  25.484  1.00  0.00    -0.292 N 
ATOM     12  C   UNL A   1      30.599  25.141  25.497  1.00  0.00     0.266 C 
ATOM     13  C   UNL A   1      31.568  23.420  24.274  1.00  0.00     0.148 C 
ATOM     14  O   UNL A   1      30.210  25.720  26.498  1.00  0.00    -0.268 OA
ATOM     15  C   UNL A   1      30.151  25.537  24.124  1.00  0.00     0.081 C 
ATOM     16  S   UNL A   1      30.514  24.190  23.078  1.00  0.00    -0.054 SA
ATOM     17  S   UNL A   1      32.534  22.113  23.906  1.00  0.00    -0.052 S 
ATOM     18  C   UNL A   1      30.584  26.755  23.753  1.00  0.00     0.029 C 
BRANCH  18  19
ATOM     19  C   UNL A   1      29.822  27.830  23.092  1.00  0.00    -0.024 A 
ATOM     20  C   UNL A   1      30.570  28.834  22.453  1.00  0.00     0.015 A 
ATOM     21  C   UNL A   1      28.439  28.003  23.220  1.00  0.00     0.015 A 
ATOM     22  C   UNL A   1      29.957  29.979  21.938  1.00  0.00     0.086 A 
ATOM     23  C   UNL A   1      27.814  29.151  22.707  1.00  0.00     0.086 A 
ATOM     24  C   UNL A   1      28.578  30.134  22.065  1.00  0.00     0.269 A 
BRANCH  24  25
ATOM     25  N   UNL A   1      27.940  31.349  21.544  1.00  0.00     0.062 N 
ATOM     26  O   UNL A   1      27.808  32.309  22.317  1.00  0.00    -0.258 OA
ATOM     27  O   UNL A   1      27.565  31.340  20.363  1.00  0.00    -0.258 OA
ENDBRANCH  24  25
ENDBRANCH  18  19
ENDBRANCH  10  11
ENDBRANCH   9  10
ENDBRANCH   6   9
ENDBRANCH   3   5
ENDBRANCH   1   3
BRANCH   1  28
ATOM     28  O   UNL A   1      38.269  21.464  25.344  1.00  0.00    -0.461 OA
BRANCH  28  29
ATOM     29  C   UNL A   1      38.123  20.042  25.126  1.00  0.00     0.274 C 
BRANCH  29  30
ATOM     30  C   UNL A   1      39.385  19.236  25.459  1.00  0.00     0.275 C 
BRANCH  30  31
ATOM     31  O   UNL A   1      40.005  19.687  26.681  1.00  0.00    -0.458 OA
BRANCH  31  32
ATOM     32  C   UNL A   1      41.274  20.139  26.540  1.00  0.00     0.338 C 
ATOM     33  O   UNL A   1      42.179  19.586  25.931  1.00  0.00    -0.246 OA
BRANCH  32  34
ATOM     34  C   UNL A   1      41.394  21.528  27.038  1.00  0.00     0.060 A 
ATOM     35  C   UNL A   1      41.016  22.548  26.153  1.00  0.00     0.016 A 
ATOM     36  C   UNL A   1      41.870  21.846  28.312  1.00  0.00     0.016 A 
ATOM     37  C   UNL A   1      41.127  23.883  26.521  1.00  0.00     0.010 A 
ATOM     38  C   UNL A   1      42.021  23.191  28.670  1.00  0.00     0.010 A 
ATOM     39  C   UNL A   1      41.675  24.210  27.763  1.00  0.00    -0.014 A 
BRANCH  39  40
ATOM     40  C   UNL A   1      42.084  25.612  27.995  1.00  0.00     0.031 A 
ATOM     41  C   UNL A   1      43.458  26.025  27.552  1.00  0.00     0.074 A 
ATOM     42  C   UNL A   1      41.235  26.518  28.508  1.00  0.00     0.049 A 
ATOM     43  N   UNL A   1      44.012  27.208  27.579  1.00  0.00    -0.248 NA
ATOM     44  C   UNL A   1      44.300  24.972  26.961  1.00  0.00     0.031 C 
ATOM     45  C   UNL A   1      39.848  26.262  28.875  1.00  0.00     0.029 A 
ATOM     46  N   UNL A   1      41.425  27.838  28.825  1.00  0.00    -0.354 N 
ATOM     47  C   UNL A   1      45.240  27.054  26.952  1.00  0.00     0.074 A 
ATOM     48  C   UNL A   1      45.380  25.656  26.614  1.00  0.00     0.031 C 
ATOM     49  C   UNL A   1      39.335  27.357  29.462  1.00  0.00     0.029 A 
ATOM     50  C   UNL A   1      40.355  28.400  29.476  1.00  0.00     0.049 A 
ATOM     51  H   UNL A   1      42.247  28.332  28.607  1.00  0.00     0.167 HD
ATOM     52  C   UNL A   1      46.155  28.005  26.656  1.00  0.00     0.037 A 
ATOM     53  C   UNL A   1      40.222  29.620  30.026  1.00  0.00     0.037 A 
ATOM     54  C   UNL A   1      46.043  29.381  27.054  1.00  0.00     0.049 A 
ATOM     55  C   UNL A   1      41.328  30.620  29.842  1.00  0.00     0.074 A 
ATOM     56  C   UNL A   1      46.935  30.418  26.850  1.00  0.00     0.029 A 
ATOM     57  N   UNL A   1      44.973  29.904  27.765  1.00  0.00    -0.354 N 
ATOM     58  N   UNL A   1      42.469  30.479  29.213  1.00  0.00    -0.248 NA
ATOM     59  C   UNL A   1      41.110  31.959  30.405  1.00  0.00     0.031 C 
ATOM     60  C   UNL A   1      46.420  31.562  27.471  1.00  0.00     0.029 A 
ATOM     61  C   UNL A   1      45.190  31.245  28.028  1.00  0.00     0.049 A 
ATOM     62  H   UNL A   1      44.176  29.397  28.042  1.00  0.00     0.167 HD
ATOM     63  C   UNL A   1      43.089  31.719  29.266  1.00  0.00     0.074 A 
ATOM     64  C   UNL A   1      42.194  32.600  29.992  1.00  0.00     0.031 C 
ATOM     65  C   UNL A   1      44.283  32.100  28.750  1.00  0.00     0.037 A 
BRANCH  52  66
ATOM     66  C   UNL A   1      47.351  27.562  25.872  1.00  0.00     0.057 A 
ATOM     67  C   UNL A   1      48.515  27.118  26.515  1.00  0.00     0.134 A 
ATOM     68  C   UNL A   1      47.356  27.601  24.474  1.00  0.00     0.134 A 
ATOM     69  F   UNL A   1      48.583  27.084  27.854  1.00  0.00    -0.206 F 
ATOM     70  C   UNL A   1      49.650  26.745  25.792  1.00  0.00     0.040 A 
ATOM     71  C   UNL A   1      48.477  27.214  23.740  1.00  0.00     0.040 A 
ATOM     72  F   UNL A   1      46.276  28.025  23.802  1.00  0.00    -0.206 F 
ATOM     73  C   UNL A   1      49.630  26.790  24.399  1.00  0.00     0.006 A 
ENDBRANCH  52  66
BRANCH  53  74
ATOM     74  C   UNL A   1      39.002  29.957  30.799  1.00  0.00     0.057 A 
ATOM     75  C   UNL A   1      37.920  30.622  30.214  1.00  0.00     0.134 A 
ATOM     76  C   UNL A   1      38.903  29.632  32.158  1.00  0.00     0.134 A 
ATOM     77  F   UNL A   1      37.963  30.972  28.920  1.00  0.00    -0.206 F 
ATOM     78  C   UNL A   1      36.789  30.969  30.956  1.00  0.00     0.040 A 
ATOM     79  C   UNL A   1      37.772  29.956  32.908  1.00  0.00     0.040 A 
ATOM     80  F   UNL A   1      39.906  28.991  32.775  1.00  0.00    -0.206 F 
ATOM     81  C   UNL A   1      36.713  30.635  32.307  1.00  0.00     0.006 A 
ENDBRANCH  53  74
BRANCH  65  82
ATOM     82  C   UNL A   1      44.663  33.539  28.920  1.00  0.00     0.057 A 
ATOM     83  C   UNL A   1      45.417  33.979  30.014  1.00  0.00     0.134 A 
ATOM     84  C   UNL A   1      44.281  34.492  27.968  1.00  0.00     0.134 A 
ATOM     85  F   UNL A   1      45.799  33.115  30.968  1.00  0.00    -0.206 F 
ATOM     86  C   UNL A   1      45.756  35.324  30.170  1.00  0.00     0.040 A 
ATOM     87  C   UNL A   1      44.634  35.835  28.100  1.00  0.00     0.040 A 
ATOM     88  F   UNL A   1      43.563  34.132  26.894  1.00  0.00    -0.206 F 
ATOM     89  C   UNL A   1      45.367  36.255  29.208  1.00  0.00     0.006 A 
ENDBRANCH  65  82
ENDBRANCH  39  40
ENDBRANCH  32  34
ENDBRANCH  31  32
ENDBRANCH  30  31
ENDBRANCH  29  30
ENDBRANCH  28  29
ENDBRANCH   1  28
TORSDOF 17
ENDMDL
MODEL 3
REMARK VINA RESULT:     -11.8      4.081      8.660
REMARK SMILES C[C@H](NC(=O)CCN1C(=O)C(=Cc2ccc([N+](=O)[O-])cc2)SC1=S)C(=O)OCCOC(=O)c1ccc(-c2c3nc(c(-c4c(F)cccc4F)c4ccc([nH]4)c(-c4c(F)cccc4F)c4nc(c(-c5c(F)cccc5F)c5ccc2[nH]5)C=C4)C=C3)cc1
REMARK SMILES IDX 25 1 26 2 2 3 1 4 3 5 4 6 5 8 6 9 7 10 8 11 9 12 23 13 10 14
REMARK SMILES IDX 11 15 22 16 24 17 12 18 13 19 14 20 21 21 15 22 20 23 16 24
REMARK SMILES IDX 17 25 18 26 19 27 27 28 28 29 29 30 30 31 31 32 32 33 33 34
REMARK SMILES IDX 34 35 86 36 35 37 85 38 36 39 37 40 38 41 79 42 39 43 84 44
REMARK SMILES IDX 78 45 80 46 40 47 83 48 77 49 76 50 41 52 67 53 50 54 66 55
REMARK SMILES IDX 51 56 54 57 65 58 81 59 52 60 53 61 64 63 82 64 55 65 42 66
REMARK SMILES IDX 43 67 48 68 44 69 45 70 47 71 49 72 46 73 68 74 69 75 74 76
REMARK SMILES IDX 70 77 71 78 73 79 75 80 72 81 56 82 57 83 62 84 58 85 59 86
REMARK SMILES IDX 61 87 63 88 60 89
REMARK H PARENT 3 7 80 51 54 62
REMARK Flexibility Score: inf
ROOT
ATOM      1  C   UNL A   1      35.354  22.400  24.755  1.00  0.00     0.328 C 
ATOM      2  O   UNL A   1      35.506  22.411  23.539  1.00  0.00    -0.250 OA
ENDROOT
BRANCH   1   3
ATOM      3  C   UNL A   1      34.826  23.621  25.523  1.00  0.00     0.189 C 
ATOM      4  C   UNL A   1      35.948  24.604  25.846  1.00  0.00     0.043 C 
BRANCH   3   5
ATOM      5  N   UNL A   1      33.910  23.303  26.620  1.00  0.00    -0.343 N 
ATOM      6  C   UNL A   1      32.593  23.004  26.706  1.00  0.00     0.222 C 
ATOM      7  H   UNL A   1      34.355  23.308  27.498  1.00  0.00     0.164 HD
ATOM      8  O   UNL A   1      32.091  22.989  27.834  1.00  0.00    -0.275 OA
BRANCH   6   9
ATOM      9  C   UNL A   1      31.735  22.671  25.506  1.00  0.00     0.122 C 
BRANCH   9  10
ATOM     10  C   UNL A   1      30.826  23.838  25.115  1.00  0.00     0.137 C 
BRANCH  10  11
ATOM     11  N   UNL A   1      31.553  25.097  24.868  1.00  0.00    -0.292 N 
ATOM     12  C   UNL A   1      31.440  26.113  25.788  1.00  0.00     0.266 C 
ATOM     13  C   UNL A   1      32.274  25.407  23.738  1.00  0.00     0.148 C 
ATOM     14  O   UNL A   1      30.689  26.114  26.749  1.00  0.00    -0.268 OA
ATOM     15  C   UNL A   1      32.340  27.270  25.480  1.00  0.00     0.081 C 
ATOM     16  S   UNL A   1      32.833  27.086  23.818  1.00  0.00    -0.054 SA
ATOM     17  S   UNL A   1      32.627  24.407  22.452  1.00  0.00    -0.052 S 
ATOM     18  C   UNL A   1      33.300  27.459  26.403  1.00  0.00     0.029 C 
BRANCH  18  19
ATOM     19  C   UNL A   1      33.740  28.726  27.014  1.00  0.00    -0.024 A 
ATOM     20  C   UNL A   1      32.814  29.783  27.016  1.00  0.00     0.015 A 
ATOM     21  C   UNL A   1      35.056  28.987  27.416  1.00  0.00     0.015 A 
ATOM     22  C   UNL A   1      33.179  31.068  27.421  1.00  0.00     0.086 A 
ATOM     23  C   UNL A   1      35.433  30.277  27.824  1.00  0.00     0.086 A 
ATOM     24  C   UNL A   1      34.490  31.312  27.825  1.00  0.00     0.269 A 
BRANCH  24  25
ATOM     25  N   UNL A   1      34.877  32.670  28.228  1.00  0.00     0.062 N 
ATOM     26  O   UNL A   1      34.352  33.141  29.248  1.00  0.00    -0.258 OA
ATOM     27  O   UNL A   1      35.701  33.267  27.521  1.00  0.00    -0.258 OA
ENDBRANCH  24  25
ENDBRANCH  18  19
ENDBRANCH  10  11
ENDBRANCH   9  10
ENDBRANCH   6   9
ENDBRANCH   3   5
ENDBRANCH   1   3
BRANCH   1  28
ATOM     28  O   UNL A   1      35.483  21.287  25.526  1.00  0.00    -0.461 OA
BRANCH  28  29
ATOM     29  C   UNL A   1      36.034  20.131  24.855  1.00  0.00     0.274 C 
BRANCH  29  30
ATOM     30  C   UNL A   1      37.546  19.964  25.058  1.00  0.00     0.275 C 
BRANCH  30  31
ATOM     31  O   UNL A   1      38.139  21.131  25.665  1.00  0.00    -0.458 OA
BRANCH  31  32
ATOM     32  C   UNL A   1      39.369  20.930  26.197  1.00  0.00     0.338 C 
ATOM     33  O   UNL A   1      40.047  19.918  26.097  1.00  0.00    -0.246 OA
BRANCH  32  34
ATOM     34  C   UNL A   1      39.912  22.191  26.749  1.00  0.00     0.060 A 
ATOM     35  C   UNL A   1      39.408  23.383  26.208  1.00  0.00     0.016 A 
ATOM     36  C   UNL A   1      40.889  22.232  27.747  1.00  0.00     0.016 A 
ATOM     37  C   UNL A   1      39.884  24.614  26.641  1.00  0.00     0.010 A 
ATOM     38  C   UNL A   1      41.399  23.471  28.155  1.00  0.00     0.010 A 
ATOM     39  C   UNL A   1      40.916  24.662  27.581  1.00  0.00    -0.014 A 
BRANCH  39  40
ATOM     40  C   UNL A   1      41.621  25.947  27.776  1.00  0.00     0.031 A 
ATOM     41  C   UNL A   1      40.883  27.057  28.464  1.00  0.00     0.074 A 
ATOM     42  C   UNL A   1      42.910  26.102  27.426  1.00  0.00     0.049 A 
ATOM     43  N   UNL A   1      41.312  28.240  28.813  1.00  0.00    -0.248 NA
ATOM     44  C   UNL A   1      39.489  26.777  28.849  1.00  0.00     0.031 C 
ATOM     45  C   UNL A   1      43.759  25.067  26.850  1.00  0.00     0.029 A 
ATOM     46  N   UNL A   1      43.724  27.202  27.491  1.00  0.00    -0.354 N 
ATOM     47  C   UNL A   1      40.264  28.821  29.513  1.00  0.00     0.074 A 
ATOM     48  C   UNL A   1      39.158  27.891  29.484  1.00  0.00     0.031 C 
ATOM     49  C   UNL A   1      44.946  25.602  26.517  1.00  0.00     0.029 A 
ATOM     50  C   UNL A   1      44.945  27.012  26.894  1.00  0.00     0.049 A 
ATOM     51  H   UNL A   1      43.458  28.045  27.924  1.00  0.00     0.167 HD
ATOM     52  C   UNL A   1      40.240  30.013  30.151  1.00  0.00     0.037 A 
ATOM     53  C   UNL A   1      45.945  27.883  26.674  1.00  0.00     0.037 A 
ATOM     54  C   UNL A   1      41.317  30.964  30.120  1.00  0.00     0.049 A 
ATOM     55  C   UNL A   1      45.832  29.270  27.239  1.00  0.00     0.074 A 
ATOM     56  C   UNL A   1      41.380  32.222  30.689  1.00  0.00     0.029 A 
ATOM     57  N   UNL A   1      42.518  30.762  29.454  1.00  0.00    -0.354 N 
ATOM     58  N   UNL A   1      44.854  29.799  27.934  1.00  0.00    -0.248 NA
ATOM     59  C   UNL A   1      46.975  30.167  27.028  1.00  0.00     0.031 C 
ATOM     60  C   UNL A   1      42.607  32.797  30.337  1.00  0.00     0.029 A 
ATOM     61  C   UNL A   1      43.322  31.882  29.581  1.00  0.00     0.049 A 
ATOM     62  H   UNL A   1      42.763  29.944  28.965  1.00  0.00     0.167 HD
ATOM     63  C   UNL A   1      45.279  31.074  28.281  1.00  0.00     0.074 A 
ATOM     64  C   UNL A   1      46.605  31.238  27.715  1.00  0.00     0.031 C 
ATOM     65  C   UNL A   1      44.638  32.019  29.011  1.00  0.00     0.037 A 
BRANCH  52  66
ATOM     66  C   UNL A   1      38.998  30.336  30.921  1.00  0.00     0.057 A 
ATOM     67  C   UNL A   1      37.987  31.133  30.366  1.00  0.00     0.134 A 
ATOM     68  C   UNL A   1      38.816  29.875  32.229  1.00  0.00     0.134 A 
ATOM     69  F   UNL A   1      38.115  31.629  29.126  1.00  0.00    -0.206 F 
ATOM     70  C   UNL A   1      36.846  31.475  31.093  1.00  0.00     0.040 A 
ATOM     71  C   UNL A   1      37.671  30.195  32.959  1.00  0.00     0.040 A 
ATOM     72  F   UNL A   1      39.751  29.116  32.819  1.00  0.00    -0.206 F 
ATOM     73  C   UNL A   1      36.685  31.001  32.394  1.00  0.00     0.006 A 
ENDBRANCH  52  66
BRANCH  53  74
ATOM     74  C   UNL A   1      47.130  27.470  25.884  1.00  0.00     0.057 A 
ATOM     75  C   UNL A   1      47.167  27.598  24.492  1.00  0.00     0.134 A 
ATOM     76  C   UNL A   1      48.253  26.920  26.513  1.00  0.00     0.134 A 
ATOM     77  F   UNL A   1      46.115  28.105  23.832  1.00  0.00    -0.206 F 
ATOM     78  C   UNL A   1      48.271  27.173  23.749  1.00  0.00     0.040 A 
ATOM     79  C   UNL A   1      49.371  26.508  25.786  1.00  0.00     0.040 A 
ATOM     80  F   UNL A   1      48.279  26.775  27.845  1.00  0.00    -0.206 F 
ATOM     81  C   UNL A   1      49.378  26.628  24.398  1.00  0.00     0.006 A 
ENDBRANCH  53  74
BRANCH  65  82
ATOM     82  C   UNL A   1      45.384  33.292  29.270  1.00  0.00     0.057 A 
ATOM     83  C   UNL A   1      45.274  34.398  28.420  1.00  0.00     0.134 A 
ATOM     84  C   UNL A   1      46.211  33.414  30.393  1.00  0.00     0.134 A 
ATOM     85  F   UNL A   1      44.508  34.336  27.319  1.00  0.00    -0.206 F 
ATOM     86  C   UNL A   1      45.981  35.576  28.664  1.00  0.00     0.040 A 
ATOM     87  C   UNL A   1      46.905  34.593  30.661  1.00  0.00     0.040 A 
ATOM     88  F   UNL A   1      46.354  32.391  31.249  1.00  0.00    -0.206 F 
ATOM     89  C   UNL A   1      46.797  35.676  29.790  1.00  0.00     0.006 A 
ENDBRANCH  65  82
ENDBRANCH  39  40
ENDBRANCH  32  34
ENDBRANCH  31  32
ENDBRANCH  30  31
ENDBRANCH  29  30
ENDBRANCH  28  29
ENDBRANCH   1  28
TORSDOF 17
ENDMDL
