MODEL 1
REMARK VINA RESULT:     -10.4      0.000      0.000
REMARK SMILES O=C(OCCOC(=O)c1nc(/N=C/c2cccc([N+](=O)[O-])c2)n[nH]1)c1ccc(-c2c3nc(c(-c4c(F)cccc4F)c4ccc([nH]4)c(-c4c(F)cccc4F)c4nc(c(-c5c(F)cccc5F)c5ccc2[nH]5)C=C4)C=C3)cc1
REMARK SMILES IDX 5 1 4 2 3 3 2 4 1 5 25 6 26 7 78 8 27 9 77 10 28 11 29 12
REMARK SMILES IDX 30 13 71 14 31 15 76 16 70 17 72 18 32 19 75 20 69 21 68 22
REMARK SMILES IDX 33 24 59 25 42 26 58 27 43 28 46 29 57 30 73 31 44 32 45 33
REMARK SMILES IDX 56 35 74 36 47 37 34 38 35 39 40 40 36 41 37 42 39 43 41 44
REMARK SMILES IDX 38 45 60 46 61 47 66 48 62 49 63 50 65 51 67 52 64 53 48 54
REMARK SMILES IDX 49 55 54 56 50 57 51 58 53 59 55 60 52 61 6 62 7 63 8 64
REMARK SMILES IDX 9 65 10 66 24 67 11 68 23 69 12 71 13 72 14 73 15 74 22 75
REMARK SMILES IDX 16 76 18 77 17 78 19 79 20 80 21 81
REMARK H PARENT 72 23 46 34 24 70
REMARK Flexibility Score: inf
ROOT
ATOM      1  C   UNL A   1      44.535  18.455  25.394  1.00  0.00     0.275 C 
ENDROOT
BRANCH   1   2
ATOM      2  C   UNL A   1      43.339  18.112  26.285  1.00  0.00     0.275 C 
BRANCH   2   3
ATOM      3  O   UNL A   1      42.050  18.397  25.704  1.00  0.00    -0.458 OA
BRANCH   3   4
ATOM      4  C   UNL A   1      41.147  19.369  25.969  1.00  0.00     0.338 C 
ATOM      5  O   UNL A   1      40.013  19.266  25.500  1.00  0.00    -0.246 OA
BRANCH   4   6
ATOM      6  C   UNL A   1      41.483  20.644  26.670  1.00  0.00     0.060 A 
ATOM      7  C   UNL A   1      41.382  20.862  28.043  1.00  0.00     0.016 A 
ATOM      8  C   UNL A   1      41.897  21.718  25.855  1.00  0.00     0.016 A 
ATOM      9  C   UNL A   1      41.758  22.087  28.601  1.00  0.00     0.010 A 
ATOM     10  C   UNL A   1      42.269  22.948  26.408  1.00  0.00     0.010 A 
ATOM     11  C   UNL A   1      42.199  23.138  27.790  1.00  0.00    -0.014 A 
BRANCH  11  12
ATOM     12  C   UNL A   1      42.424  24.469  28.398  1.00  0.00     0.031 A 
ATOM     13  C   UNL A   1      43.830  24.852  28.765  1.00  0.00     0.074 A 
ATOM     14  C   UNL A   1      41.418  25.359  28.492  1.00  0.00     0.049 A 
ATOM     15  N   UNL A   1      44.300  26.012  29.140  1.00  0.00    -0.248 NA
ATOM     16  C   UNL A   1      44.850  23.795  28.650  1.00  0.00     0.031 C 
ATOM     17  C   UNL A   1      40.039  25.124  28.067  1.00  0.00     0.029 A 
ATOM     18  N   UNL A   1      41.412  26.658  28.937  1.00  0.00    -0.354 N 
ATOM     19  C   UNL A   1      45.674  25.840  29.249  1.00  0.00     0.074 A 
ATOM     20  C   UNL A   1      45.957  24.449  28.969  1.00  0.00     0.031 C 
ATOM     21  C   UNL A   1      39.329  26.254  28.236  1.00  0.00     0.029 A 
ATOM     22  C   UNL A   1      40.191  27.278  28.815  1.00  0.00     0.049 A 
ATOM     23  H   UNL A   1      42.208  27.101  29.309  1.00  0.00     0.167 HD
ATOM     24  C   UNL A   1      46.621  26.768  29.515  1.00  0.00     0.037 A 
ATOM     25  C   UNL A   1      39.828  28.535  29.144  1.00  0.00     0.037 A 
ATOM     26  C   UNL A   1      46.334  28.139  29.833  1.00  0.00     0.049 A 
ATOM     27  C   UNL A   1      40.872  29.436  29.752  1.00  0.00     0.074 A 
ATOM     28  C   UNL A   1      47.209  29.170  30.119  1.00  0.00     0.029 A 
ATOM     29  N   UNL A   1      45.052  28.659  29.932  1.00  0.00    -0.354 N 
ATOM     30  N   UNL A   1      42.174  29.287  29.792  1.00  0.00    -0.248 NA
ATOM     31  C   UNL A   1      40.389  30.673  30.382  1.00  0.00     0.031 C 
ATOM     32  C   UNL A   1      46.453  30.306  30.430  1.00  0.00     0.029 A 
ATOM     33  C   UNL A   1      45.110  29.988  30.310  1.00  0.00     0.049 A 
ATOM     34  H   UNL A   1      44.223  28.157  29.759  1.00  0.00     0.167 HD
ATOM     35  C   UNL A   1      42.671  30.452  30.362  1.00  0.00     0.074 A 
ATOM     36  C   UNL A   1      41.528  31.276  30.694  1.00  0.00     0.031 C 
ATOM     37  C   UNL A   1      43.961  30.818  30.562  1.00  0.00     0.037 A 
BRANCH  24  38
ATOM     38  C   UNL A   1      48.046  26.312  29.466  1.00  0.00     0.057 A 
ATOM     39  C   UNL A   1      48.702  25.855  30.618  1.00  0.00     0.134 A 
ATOM     40  C   UNL A   1      48.778  26.350  28.274  1.00  0.00     0.134 A 
ATOM     41  F   UNL A   1      48.060  25.815  31.795  1.00  0.00    -0.206 F 
ATOM     42  C   UNL A   1      50.045  25.476  30.590  1.00  0.00     0.040 A 
ATOM     43  C   UNL A   1      50.117  25.958  28.231  1.00  0.00     0.040 A 
ATOM     44  F   UNL A   1      48.209  26.780  27.139  1.00  0.00    -0.206 F 
ATOM     45  C   UNL A   1      50.756  25.525  29.393  1.00  0.00     0.006 A 
ENDBRANCH  24  38
BRANCH  25  46
ATOM     46  C   UNL A   1      38.436  29.035  28.959  1.00  0.00     0.057 A 
ATOM     47  C   UNL A   1      38.021  29.643  27.770  1.00  0.00     0.134 A 
ATOM     48  C   UNL A   1      37.514  29.019  30.008  1.00  0.00     0.134 A 
ATOM     49  F   UNL A   1      38.853  29.714  26.722  1.00  0.00    -0.206 F 
ATOM     50  C   UNL A   1      36.761  30.239  27.650  1.00  0.00     0.040 A 
ATOM     51  C   UNL A   1      36.247  29.594  29.905  1.00  0.00     0.040 A 
ATOM     52  F   UNL A   1      37.840  28.441  31.165  1.00  0.00    -0.206 F 
ATOM     53  C   UNL A   1      35.871  30.221  28.722  1.00  0.00     0.006 A 
ENDBRANCH  25  46
BRANCH  37  54
ATOM     54  C   UNL A   1      44.201  32.224  31.016  1.00  0.00     0.057 A 
ATOM     55  C   UNL A   1      44.288  33.296  30.123  1.00  0.00     0.134 A 
ATOM     56  C   UNL A   1      44.328  32.500  32.384  1.00  0.00     0.134 A 
ATOM     57  F   UNL A   1      44.195  33.092  28.801  1.00  0.00    -0.206 F 
ATOM     58  C   UNL A   1      44.514  34.598  30.576  1.00  0.00     0.040 A 
ATOM     59  C   UNL A   1      44.531  33.799  32.848  1.00  0.00     0.040 A 
ATOM     60  F   UNL A   1      44.250  31.513  33.288  1.00  0.00    -0.206 F 
ATOM     61  C   UNL A   1      44.630  34.851  31.942  1.00  0.00     0.006 A 
ENDBRANCH  37  54
ENDBRANCH  11  12
ENDBRANCH   4   6
ENDBRANCH   3   4
ENDBRANCH   2   3
ENDBRANCH   1   2
BRANCH   1  62
ATOM     62  O   UNL A   1      45.365  19.488  25.938  1.00  0.00    -0.456 OA
BRANCH  62  63
ATOM     63  C   UNL A   1      46.239  20.046  25.050  1.00  0.00     0.376 C 
ATOM     64  O   UNL A   1      47.204  19.472  24.560  1.00  0.00    -0.242 OA
BRANCH  63  65
ATOM     65  C   UNL A   1      45.814  21.362  24.666  1.00  0.00     0.237 A 
ATOM     66  N   UNL A   1      46.075  22.518  25.251  1.00  0.00    -0.184 NA
ATOM     67  N   UNL A   1      44.995  21.581  23.597  1.00  0.00    -0.251 N 
ATOM     68  C   UNL A   1      45.354  23.405  24.498  1.00  0.00     0.268 A 
ATOM     69  N   UNL A   1      44.683  22.877  23.476  1.00  0.00    -0.132 NA
ATOM     70  H   UNL A   1      44.673  20.875  22.992  1.00  0.00     0.192 HD
BRANCH  68  71
ATOM     71  N   UNL A   1      45.295  24.778  24.700  1.00  0.00    -0.218 NA
ATOM     72  C   UNL A   1      44.121  25.107  25.129  1.00  0.00     0.123 C 
BRANCH  72  73
ATOM     73  C   UNL A   1      43.785  26.492  25.516  1.00  0.00    -0.000 A 
ATOM     74  C   UNL A   1      42.442  26.883  25.433  1.00  0.00     0.010 A 
ATOM     75  C   UNL A   1      44.762  27.388  25.960  1.00  0.00     0.095 A 
ATOM     76  C   UNL A   1      42.059  28.172  25.805  1.00  0.00     0.008 A 
ATOM     77  C   UNL A   1      44.370  28.688  26.305  1.00  0.00     0.270 A 
ATOM     78  C   UNL A   1      43.022  29.082  26.243  1.00  0.00     0.085 A 
BRANCH  77  79
ATOM     79  N   UNL A   1      45.384  29.681  26.664  1.00  0.00     0.062 N 
ATOM     80  O   UNL A   1      46.571  29.319  26.637  1.00  0.00    -0.258 OA
ATOM     81  O   UNL A   1      44.998  30.819  26.958  1.00  0.00    -0.258 OA
ENDBRANCH  77  79
ENDBRANCH  72  73
ENDBRANCH  68  71
ENDBRANCH  63  65
ENDBRANCH  62  63
ENDBRANCH   1  62
TORSDOF 14
ENDMDL
MODEL 2
REMARK VINA RESULT:     -10.4      0.985      6.487
REMARK SMILES O=C(OCCOC(=O)c1nc(/N=C/c2cccc([N+](=O)[O-])c2)n[nH]1)c1ccc(-c2c3nc(c(-c4c(F)cccc4F)c4ccc([nH]4)c(-c4c(F)cccc4F)c4nc(c(-c5c(F)cccc5F)c5ccc2[nH]5)C=C4)C=C3)cc1
REMARK SMILES IDX 5 1 4 2 3 3 2 4 1 5 25 6 26 7 78 8 27 9 77 10 28 11 29 12
REMARK SMILES IDX 30 13 71 14 31 15 76 16 70 17 72 18 32 19 75 20 69 21 68 22
REMARK SMILES IDX 33 24 59 25 42 26 58 27 43 28 46 29 57 30 73 31 44 32 45 33
REMARK SMILES IDX 56 35 74 36 47 37 34 38 35 39 40 40 36 41 37 42 39 43 41 44
REMARK SMILES IDX 38 45 60 46 61 47 66 48 62 49 63 50 65 51 67 52 64 53 48 54
REMARK SMILES IDX 49 55 54 56 50 57 51 58 53 59 55 60 52 61 6 62 7 63 8 64
REMARK SMILES IDX 9 65 10 66 24 67 11 68 23 69 12 71 13 72 14 73 15 74 22 75
REMARK SMILES IDX 16 76 18 77 17 78 19 79 20 80 21 81
REMARK H PARENT 72 23 46 34 24 70
REMARK Flexibility Score: inf
ROOT
ATOM      1  C   UNL A   1      44.329  18.473  26.001  1.00  0.00     0.275 C 
ENDROOT
BRANCH   1   2
ATOM      2  C   UNL A   1      43.025  18.140  26.729  1.00  0.00     0.275 C 
BRANCH   2   3
ATOM      3  O   UNL A   1      41.824  18.464  25.999  1.00  0.00    -0.458 OA
BRANCH   3   4
ATOM      4  C   UNL A   1      40.951  19.490  26.128  1.00  0.00     0.338 C 
ATOM      5  O   UNL A   1      39.786  19.323  25.768  1.00  0.00    -0.246 OA
BRANCH   4   6
ATOM      6  C   UNL A   1      41.349  20.870  26.538  1.00  0.00     0.060 A 
ATOM      7  C   UNL A   1      41.985  21.803  25.721  1.00  0.00     0.016 A 
ATOM      8  C   UNL A   1      41.088  21.227  27.877  1.00  0.00     0.016 A 
ATOM      9  C   UNL A   1      42.283  23.084  26.197  1.00  0.00     0.010 A 
ATOM     10  C   UNL A   1      41.389  22.505  28.360  1.00  0.00     0.010 A 
ATOM     11  C   UNL A   1      41.991  23.442  27.517  1.00  0.00    -0.014 A 
BRANCH  11  12
ATOM     12  C   UNL A   1      42.474  24.744  28.031  1.00  0.00     0.031 A 
ATOM     13  C   UNL A   1      41.484  25.868  28.156  1.00  0.00     0.074 A 
ATOM     14  C   UNL A   1      43.730  24.873  28.499  1.00  0.00     0.049 A 
ATOM     15  N   UNL A   1      41.621  27.029  28.738  1.00  0.00    -0.248 NA
ATOM     16  C   UNL A   1      40.145  25.631  27.589  1.00  0.00     0.031 C 
ATOM     17  C   UNL A   1      44.737  23.814  28.520  1.00  0.00     0.029 A 
ATOM     18  N   UNL A   1      44.359  25.942  29.087  1.00  0.00    -0.354 N 
ATOM     19  C   UNL A   1      40.374  27.636  28.658  1.00  0.00     0.074 A 
ATOM     20  C   UNL A   1      39.511  26.747  27.912  1.00  0.00     0.031 C 
ATOM     21  C   UNL A   1      45.846  24.275  29.127  1.00  0.00     0.029 A 
ATOM     22  C   UNL A   1      45.641  25.669  29.503  1.00  0.00     0.049 A 
ATOM     23  H   UNL A   1      43.932  26.822  29.199  1.00  0.00     0.167 HD
ATOM     24  C   UNL A   1      39.972  28.810  29.196  1.00  0.00     0.037 A 
ATOM     25  C   UNL A   1      46.537  26.472  30.113  1.00  0.00     0.037 A 
ATOM     26  C   UNL A   1      40.843  29.709  29.901  1.00  0.00     0.049 A 
ATOM     27  C   UNL A   1      46.132  27.895  30.398  1.00  0.00     0.074 A 
ATOM     28  C   UNL A   1      40.548  30.924  30.491  1.00  0.00     0.029 A 
ATOM     29  N   UNL A   1      42.200  29.490  30.084  1.00  0.00    -0.354 N 
ATOM     30  N   UNL A   1      44.939  28.437  30.376  1.00  0.00    -0.248 NA
ATOM     31  C   UNL A   1      47.208  28.824  30.770  1.00  0.00     0.031 C 
ATOM     32  C   UNL A   1      41.739  31.460  30.997  1.00  0.00     0.029 A 
ATOM     33  C   UNL A   1      42.766  30.564  30.746  1.00  0.00     0.049 A 
ATOM     34  H   UNL A   1      42.689  28.689  29.786  1.00  0.00     0.167 HD
ATOM     35  C   UNL A   1      45.107  29.741  30.825  1.00  0.00     0.074 A 
ATOM     36  C   UNL A   1      46.524  29.921  31.066  1.00  0.00     0.031 C 
ATOM     37  C   UNL A   1      44.168  30.692  31.048  1.00  0.00     0.037 A 
BRANCH  24  38
ATOM     38  C   UNL A   1      38.527  29.167  29.035  1.00  0.00     0.057 A 
ATOM     39  C   UNL A   1      38.028  29.636  27.812  1.00  0.00     0.134 A 
ATOM     40  C   UNL A   1      37.632  29.067  30.105  1.00  0.00     0.134 A 
ATOM     41  F   UNL A   1      38.841  29.773  26.753  1.00  0.00    -0.206 F 
ATOM     42  C   UNL A   1      36.694  30.018  27.667  1.00  0.00     0.040 A 
ATOM     43  C   UNL A   1      36.292  29.431  29.968  1.00  0.00     0.040 A 
ATOM     44  F   UNL A   1      38.049  28.628  31.302  1.00  0.00    -0.206 F 
ATOM     45  C   UNL A   1      35.821  29.915  28.748  1.00  0.00     0.006 A 
ENDBRANCH  24  38
BRANCH  25  46
ATOM     46  C   UNL A   1      47.906  26.006  30.475  1.00  0.00     0.057 A 
ATOM     47  C   UNL A   1      48.918  25.871  29.520  1.00  0.00     0.134 A 
ATOM     48  C   UNL A   1      48.207  25.576  31.770  1.00  0.00     0.134 A 
ATOM     49  F   UNL A   1      48.703  26.245  28.251  1.00  0.00    -0.206 F 
ATOM     50  C   UNL A   1      50.155  25.298  29.836  1.00  0.00     0.040 A 
ATOM     51  C   UNL A   1      49.439  25.016  32.110  1.00  0.00     0.040 A 
ATOM     52  F   UNL A   1      47.291  25.691  32.734  1.00  0.00    -0.206 F 
ATOM     53  C   UNL A   1      50.417  24.863  31.133  1.00  0.00     0.006 A 
ENDBRANCH  25  46
BRANCH  37  54
ATOM     54  C   UNL A   1      44.624  31.947  31.725  1.00  0.00     0.057 A 
ATOM     55  C   UNL A   1      44.657  32.079  33.117  1.00  0.00     0.134 A 
ATOM     56  C   UNL A   1      45.057  33.035  30.955  1.00  0.00     0.134 A 
ATOM     57  F   UNL A   1      44.237  31.080  33.906  1.00  0.00    -0.206 F 
ATOM     58  C   UNL A   1      45.087  33.263  33.721  1.00  0.00     0.040 A 
ATOM     59  C   UNL A   1      45.509  34.213  31.548  1.00  0.00     0.040 A 
ATOM     60  F   UNL A   1      45.051  32.965  29.615  1.00  0.00    -0.206 F 
ATOM     61  C   UNL A   1      45.520  34.330  32.935  1.00  0.00     0.006 A 
ENDBRANCH  37  54
ENDBRANCH  11  12
ENDBRANCH   4   6
ENDBRANCH   3   4
ENDBRANCH   2   3
ENDBRANCH   1   2
BRANCH   1  62
ATOM     62  O   UNL A   1      44.123  18.934  24.660  1.00  0.00    -0.456 OA
BRANCH  62  63
ATOM     63  C   UNL A   1      45.243  19.411  24.042  1.00  0.00     0.376 C 
ATOM     64  O   UNL A   1      46.049  18.725  23.424  1.00  0.00    -0.242 OA
BRANCH  63  65
ATOM     65  C   UNL A   1      45.298  20.843  24.104  1.00  0.00     0.237 A 
ATOM     66  N   UNL A   1      45.891  21.609  25.003  1.00  0.00    -0.184 NA
ATOM     67  N   UNL A   1      44.657  21.638  23.199  1.00  0.00    -0.251 N 
ATOM     68  C   UNL A   1      45.546  22.871  24.598  1.00  0.00     0.268 A 
ATOM     69  N   UNL A   1      44.796  22.934  23.500  1.00  0.00    -0.132 NA
ATOM     70  H   UNL A   1      44.154  21.300  22.423  1.00  0.00     0.192 HD
BRANCH  68  71
ATOM     71  N   UNL A   1      45.930  24.053  25.217  1.00  0.00    -0.218 NA
ATOM     72  C   UNL A   1      45.044  24.969  25.001  1.00  0.00     0.123 C 
BRANCH  72  73
ATOM     73  C   UNL A   1      45.138  26.311  25.608  1.00  0.00    -0.000 A 
ATOM     74  C   UNL A   1      46.389  26.722  26.088  1.00  0.00     0.010 A 
ATOM     75  C   UNL A   1      44.027  27.155  25.698  1.00  0.00     0.095 A 
ATOM     76  C   UNL A   1      46.545  27.988  26.653  1.00  0.00     0.008 A 
ATOM     77  C   UNL A   1      44.191  28.414  26.291  1.00  0.00     0.270 A 
ATOM     78  C   UNL A   1      45.446  28.841  26.758  1.00  0.00     0.085 A 
BRANCH  77  79
ATOM     79  N   UNL A   1      43.025  29.274  26.503  1.00  0.00     0.062 N 
ATOM     80  O   UNL A   1      42.000  29.014  25.853  1.00  0.00    -0.258 OA
ATOM     81  O   UNL A   1      43.128  30.195  27.323  1.00  0.00    -0.258 OA
ENDBRANCH  77  79
ENDBRANCH  72  73
ENDBRANCH  68  71
ENDBRANCH  63  65
ENDBRANCH  62  63
ENDBRANCH   1  62
TORSDOF 14
ENDMDL
MODEL 3
REMARK VINA RESULT:      -9.7      1.151      6.504
REMARK SMILES O=C(OCCOC(=O)c1nc(/N=C/c2cccc([N+](=O)[O-])c2)n[nH]1)c1ccc(-c2c3nc(c(-c4c(F)cccc4F)c4ccc([nH]4)c(-c4c(F)cccc4F)c4nc(c(-c5c(F)cccc5F)c5ccc2[nH]5)C=C4)C=C3)cc1
REMARK SMILES IDX 5 1 4 2 3 3 2 4 1 5 25 6 26 7 78 8 27 9 77 10 28 11 29 12
REMARK SMILES IDX 30 13 71 14 31 15 76 16 70 17 72 18 32 19 75 20 69 21 68 22
REMARK SMILES IDX 33 24 59 25 42 26 58 27 43 28 46 29 57 30 73 31 44 32 45 33
REMARK SMILES IDX 56 35 74 36 47 37 34 38 35 39 40 40 36 41 37 42 39 43 41 44
REMARK SMILES IDX 38 45 60 46 61 47 66 48 62 49 63 50 65 51 67 52 64 53 48 54
REMARK SMILES IDX 49 55 54 56 50 57 51 58 53 59 55 60 52 61 6 62 7 63 8 64
REMARK SMILES IDX 9 65 10 66 24 67 11 68 23 69 12 71 13 72 14 73 15 74 22 75
REMARK SMILES IDX 16 76 18 77 17 78 19 79 20 80 21 81
REMARK H PARENT 72 23 46 34 24 70
REMARK Flexibility Score: inf
ROOT
ATOM      1  C   UNL A   1      44.257  17.622  26.282  1.00  0.00     0.275 C 
ENDROOT
BRANCH   1   2
ATOM      2  C   UNL A   1      42.985  18.108  26.980  1.00  0.00     0.275 C 
BRANCH   2   3
ATOM      3  O   UNL A   1      41.911  18.481  26.093  1.00  0.00    -0.458 OA
BRANCH   3   4
ATOM      4  C   UNL A   1      41.056  19.529  26.117  1.00  0.00     0.338 C 
ATOM      5  O   UNL A   1      39.910  19.367  25.701  1.00  0.00    -0.246 OA
BRANCH   4   6
ATOM      6  C   UNL A   1      41.462  20.921  26.477  1.00  0.00     0.060 A 
ATOM      7  C   UNL A   1      42.009  21.856  25.599  1.00  0.00     0.016 A 
ATOM      8  C   UNL A   1      41.310  21.290  27.830  1.00  0.00     0.016 A 
ATOM      9  C   UNL A   1      42.322  23.147  26.035  1.00  0.00     0.010 A 
ATOM     10  C   UNL A   1      41.627  22.578  28.272  1.00  0.00     0.010 A 
ATOM     11  C   UNL A   1      42.138  23.516  27.371  1.00  0.00    -0.014 A 
BRANCH  11  12
ATOM     12  C   UNL A   1      42.639  24.832  27.828  1.00  0.00     0.031 A 
ATOM     13  C   UNL A   1      41.647  25.949  27.995  1.00  0.00     0.074 A 
ATOM     14  C   UNL A   1      43.920  24.983  28.212  1.00  0.00     0.049 A 
ATOM     15  N   UNL A   1      41.808  27.123  28.545  1.00  0.00    -0.248 NA
ATOM     16  C   UNL A   1      40.277  25.688  27.519  1.00  0.00     0.031 C 
ATOM     17  C   UNL A   1      44.938  23.933  28.190  1.00  0.00     0.029 A 
ATOM     18  N   UNL A   1      44.574  26.069  28.738  1.00  0.00    -0.354 N 
ATOM     19  C   UNL A   1      40.552  27.716  28.533  1.00  0.00     0.074 A 
ATOM     20  C   UNL A   1      39.653  26.805  27.860  1.00  0.00     0.031 C 
ATOM     21  C   UNL A   1      46.078  24.416  28.715  1.00  0.00     0.029 A 
ATOM     22  C   UNL A   1      45.883  25.816  29.077  1.00  0.00     0.049 A 
ATOM     23  H   UNL A   1      44.145  26.946  28.861  1.00  0.00     0.167 HD
ATOM     24  C   UNL A   1      40.172  28.897  29.073  1.00  0.00     0.037 A 
ATOM     25  C   UNL A   1      46.807  26.639  29.613  1.00  0.00     0.037 A 
ATOM     26  C   UNL A   1      41.077  29.818  29.703  1.00  0.00     0.049 A 
ATOM     27  C   UNL A   1      46.406  28.064  29.896  1.00  0.00     0.074 A 
ATOM     28  C   UNL A   1      40.808  31.041  30.287  1.00  0.00     0.029 A 
ATOM     29  N   UNL A   1      42.445  29.615  29.803  1.00  0.00    -0.354 N 
ATOM     30  N   UNL A   1      45.208  28.594  29.940  1.00  0.00    -0.248 NA
ATOM     31  C   UNL A   1      47.494  29.010  30.181  1.00  0.00     0.031 C 
ATOM     32  C   UNL A   1      42.022  31.598  30.706  1.00  0.00     0.029 A 
ATOM     33  C   UNL A   1      43.041  30.707  30.407  1.00  0.00     0.049 A 
ATOM     34  H   UNL A   1      42.922  28.813  29.490  1.00  0.00     0.167 HD
ATOM     35  C   UNL A   1      45.391  29.908  30.352  1.00  0.00     0.074 A 
ATOM     36  C   UNL A   1      46.818  30.106  30.499  1.00  0.00     0.031 C 
ATOM     37  C   UNL A   1      44.458  30.855  30.616  1.00  0.00     0.037 A 
BRANCH  24  38
ATOM     38  C   UNL A   1      38.716  29.237  28.997  1.00  0.00     0.057 A 
ATOM     39  C   UNL A   1      37.884  29.112  30.118  1.00  0.00     0.134 A 
ATOM     40  C   UNL A   1      38.134  29.665  27.800  1.00  0.00     0.134 A 
ATOM     41  F   UNL A   1      38.379  28.686  31.290  1.00  0.00    -0.206 F 
ATOM     42  C   UNL A   1      36.516  29.379  30.043  1.00  0.00     0.040 A 
ATOM     43  C   UNL A   1      36.770  29.950  27.717  1.00  0.00     0.040 A 
ATOM     44  F   UNL A   1      38.876  29.801  26.691  1.00  0.00    -0.206 F 
ATOM     45  C   UNL A   1      35.955  29.800  28.839  1.00  0.00     0.006 A 
ENDBRANCH  24  38
BRANCH  25  46
ATOM     46  C   UNL A   1      48.201  26.193  29.896  1.00  0.00     0.057 A 
ATOM     47  C   UNL A   1      48.600  25.775  31.170  1.00  0.00     0.134 A 
ATOM     48  C   UNL A   1      49.201  26.278  28.925  1.00  0.00     0.134 A 
ATOM     49  F   UNL A   1      47.703  25.683  32.162  1.00  0.00    -0.206 F 
ATOM     50  C   UNL A   1      49.938  25.494  31.466  1.00  0.00     0.040 A 
ATOM     51  C   UNL A   1      50.539  25.988  29.194  1.00  0.00     0.040 A 
ATOM     52  F   UNL A   1      48.886  26.654  27.684  1.00  0.00    -0.206 F 
ATOM     53  C   UNL A   1      50.914  25.607  30.478  1.00  0.00     0.006 A 
ENDBRANCH  25  46
BRANCH  37  54
ATOM     54  C   UNL A   1      44.943  32.126  31.239  1.00  0.00     0.057 A 
ATOM     55  C   UNL A   1      45.286  33.250  30.480  1.00  0.00     0.134 A 
ATOM     56  C   UNL A   1      45.048  32.222  32.633  1.00  0.00     0.134 A 
ATOM     57  F   UNL A   1      45.225  33.212  29.141  1.00  0.00    -0.206 F 
ATOM     58  C   UNL A   1      45.736  34.424  31.088  1.00  0.00     0.040 A 
ATOM     59  C   UNL A   1      45.475  33.396  33.252  1.00  0.00     0.040 A 
ATOM     60  F   UNL A   1      44.730  31.178  33.413  1.00  0.00    -0.206 F 
ATOM     61  C   UNL A   1      45.826  34.499  32.478  1.00  0.00     0.006 A 
ENDBRANCH  37  54
ENDBRANCH  11  12
ENDBRANCH   4   6
ENDBRANCH   3   4
ENDBRANCH   2   3
ENDBRANCH   1   2
BRANCH   1  62
ATOM     62  O   UNL A   1      44.551  18.345  25.080  1.00  0.00    -0.456 OA
BRANCH  62  63
ATOM     63  C   UNL A   1      45.712  19.062  25.114  1.00  0.00     0.376 C 
ATOM     64  O   UNL A   1      46.810  18.606  25.412  1.00  0.00    -0.242 OA
BRANCH  63  65
ATOM     65  C   UNL A   1      45.507  20.400  24.637  1.00  0.00     0.237 A 
ATOM     66  N   UNL A   1      45.923  21.538  25.165  1.00  0.00    -0.184 NA
ATOM     67  N   UNL A   1      44.765  20.673  23.525  1.00  0.00    -0.251 N 
ATOM     68  C   UNL A   1      45.372  22.475  24.333  1.00  0.00     0.268 A 
ATOM     69  N   UNL A   1      44.660  21.990  23.317  1.00  0.00    -0.132 NA
ATOM     70  H   UNL A   1      44.358  19.987  22.949  1.00  0.00     0.192 HD
BRANCH  68  71
ATOM     71  N   UNL A   1      45.517  23.850  24.454  1.00  0.00    -0.218 NA
ATOM     72  C   UNL A   1      46.749  24.139  24.718  1.00  0.00     0.123 C 
BRANCH  72  73
ATOM     73  C   UNL A   1      47.225  25.533  24.817  1.00  0.00    -0.000 A 
ATOM     74  C   UNL A   1      48.557  25.792  24.464  1.00  0.00     0.010 A 
ATOM     75  C   UNL A   1      46.385  26.569  25.237  1.00  0.00     0.095 A 
ATOM     76  C   UNL A   1      49.060  27.092  24.516  1.00  0.00     0.008 A 
ATOM     77  C   UNL A   1      46.909  27.866  25.310  1.00  0.00     0.270 A 
ATOM     78  C   UNL A   1      48.237  28.137  24.940  1.00  0.00     0.085 A 
BRANCH  77  79
ATOM     79  N   UNL A   1      46.089  28.950  25.855  1.00  0.00     0.062 N 
ATOM     80  O   UNL A   1      45.183  28.638  26.643  1.00  0.00    -0.258 OA
ATOM     81  O   UNL A   1      46.358  30.107  25.507  1.00  0.00    -0.258 OA
ENDBRANCH  77  79
ENDBRANCH  72  73
ENDBRANCH  68  71
ENDBRANCH  63  65
ENDBRANCH  62  63
ENDBRANCH   1  62
TORSDOF 14
ENDMDL
