MODEL 1
REMARK VINA RESULT:     -10.8      0.000      0.000
REMARK SMILES O=C(Cn1nc(-c2ccco2)ccc1=O)OCCOC(=O)c1ccc(-c2c3nc(c(-c4c(F)cccc4F)c4ccc([nH]4)c(-c4c(F)cccc4F)c4nc(c(-c5c(F)cccc5F)c5ccc2[nH]5)C=C4)C=C3)cc1
REMARK SMILES IDX 17 1 16 2 2 3 1 4 3 5 4 6 5 7 14 8 6 9 13 10 15 11 12 12
REMARK SMILES IDX 7 13 8 14 11 15 9 16 10 17 18 18 19 19 20 20 21 21 22 22
REMARK SMILES IDX 23 23 75 24 24 25 74 26 25 27 26 28 27 29 68 30 28 31 73 32
REMARK SMILES IDX 67 33 69 34 29 35 72 36 66 37 65 38 30 40 56 41 39 42 55 43
REMARK SMILES IDX 40 44 43 45 54 46 70 47 41 48 42 49 53 51 71 52 44 53 31 54
REMARK SMILES IDX 32 55 37 56 33 57 34 58 36 59 38 60 35 61 57 62 58 63 63 64
REMARK SMILES IDX 59 65 60 66 62 67 64 68 61 69 45 70 46 71 51 72 47 73 48 74
REMARK SMILES IDX 50 75 52 76 49 77
REMARK H PARENT 69 39 43 50
REMARK Flexibility Score: inf
ROOT
ATOM      1  C   UNL A   1      43.866  21.938  25.378  1.00  0.00     0.274 C 
ENDROOT
BRANCH   1   2
ATOM      2  O   UNL A   1      42.460  21.612  25.361  1.00  0.00    -0.461 OA
BRANCH   2   3
ATOM      3  C   UNL A   1      41.931  20.435  25.778  1.00  0.00     0.328 C 
ATOM      4  O   UNL A   1      42.396  19.371  25.368  1.00  0.00    -0.250 OA
BRANCH   3   5
ATOM      5  C   UNL A   1      40.770  20.464  26.755  1.00  0.00     0.270 C 
BRANCH   5   6
ATOM      6  N   UNL A   1      39.980  21.677  26.827  1.00  0.00    -0.218 N 
ATOM      7  N   UNL A   1      38.885  21.772  26.013  1.00  0.00    -0.166 NA
ATOM      8  C   UNL A   1      40.414  22.689  27.669  1.00  0.00     0.267 A 
ATOM      9  C   UNL A   1      38.279  22.916  25.940  1.00  0.00     0.126 A 
ATOM     10  C   UNL A   1      39.686  23.968  27.574  1.00  0.00     0.076 A 
ATOM     11  O   UNL A   1      41.357  22.588  28.450  1.00  0.00    -0.268 OA
ATOM     12  C   UNL A   1      38.672  24.110  26.717  1.00  0.00     0.040 A 
BRANCH   9  13
ATOM     13  C   UNL A   1      37.155  23.019  25.051  1.00  0.00     0.154 A 
ATOM     14  C   UNL A   1      36.825  22.300  23.918  1.00  0.00     0.052 A 
ATOM     15  O   UNL A   1      36.249  24.024  25.241  1.00  0.00    -0.463 OA
ATOM     16  C   UNL A   1      35.672  22.913  23.374  1.00  0.00     0.043 A 
ATOM     17  C   UNL A   1      35.381  23.976  24.198  1.00  0.00     0.196 A 
ENDBRANCH   9  13
ENDBRANCH   5   6
ENDBRANCH   3   5
ENDBRANCH   2   3
ENDBRANCH   1   2
BRANCH   1  18
ATOM     18  C   UNL A   1      44.193  22.946  24.273  1.00  0.00     0.275 C 
BRANCH  18  19
ATOM     19  O   UNL A   1      43.775  24.262  24.679  1.00  0.00    -0.458 OA
BRANCH  19  20
ATOM     20  C   UNL A   1      44.731  25.089  25.170  1.00  0.00     0.338 C 
ATOM     21  O   UNL A   1      45.776  25.402  24.628  1.00  0.00    -0.246 OA
BRANCH  20  22
ATOM     22  C   UNL A   1      44.181  25.761  26.374  1.00  0.00     0.060 A 
ATOM     23  C   UNL A   1      43.257  25.122  27.209  1.00  0.00     0.016 A 
ATOM     24  C   UNL A   1      44.508  27.107  26.590  1.00  0.00     0.016 A 
ATOM     25  C   UNL A   1      42.649  25.835  28.245  1.00  0.00     0.010 A 
ATOM     26  C   UNL A   1      43.894  27.818  27.624  1.00  0.00     0.010 A 
ATOM     27  C   UNL A   1      42.958  27.187  28.457  1.00  0.00    -0.014 A 
BRANCH  27  28
ATOM     28  C   UNL A   1      42.383  27.897  29.624  1.00  0.00     0.031 A 
ATOM     29  C   UNL A   1      42.997  27.807  30.988  1.00  0.00     0.074 A 
ATOM     30  C   UNL A   1      41.278  28.640  29.430  1.00  0.00     0.049 A 
ATOM     31  N   UNL A   1      42.658  28.437  32.086  1.00  0.00    -0.248 NA
ATOM     32  C   UNL A   1      44.132  26.890  31.149  1.00  0.00     0.031 C 
ATOM     33  C   UNL A   1      40.578  28.789  28.153  1.00  0.00     0.029 A 
ATOM     34  N   UNL A   1      40.549  29.401  30.305  1.00  0.00    -0.354 N 
ATOM     35  C   UNL A   1      43.551  28.013  33.062  1.00  0.00     0.074 A 
ATOM     36  C   UNL A   1      44.425  27.044  32.435  1.00  0.00     0.031 C 
ATOM     37  C   UNL A   1      39.516  29.589  28.329  1.00  0.00     0.029 A 
ATOM     38  C   UNL A   1      39.456  29.998  29.730  1.00  0.00     0.049 A 
ATOM     39  H   UNL A   1      40.785  29.509  31.255  1.00  0.00     0.167 HD
ATOM     40  C   UNL A   1      43.634  28.407  34.355  1.00  0.00     0.037 A 
ATOM     41  C   UNL A   1      38.508  30.783  30.272  1.00  0.00     0.037 A 
ATOM     42  C   UNL A   1      42.754  29.364  34.978  1.00  0.00     0.049 A 
ATOM     43  C   UNL A   1      38.596  31.156  31.723  1.00  0.00     0.074 A 
ATOM     44  C   UNL A   1      42.815  29.886  36.260  1.00  0.00     0.029 A 
ATOM     45  N   UNL A   1      41.638  29.923  34.375  1.00  0.00    -0.354 N 
ATOM     46  N   UNL A   1      39.514  30.843  32.603  1.00  0.00    -0.248 NA
ATOM     47  C   UNL A   1      37.518  32.004  32.253  1.00  0.00     0.031 C 
ATOM     48  C   UNL A   1      41.706  30.719  36.449  1.00  0.00     0.029 A 
ATOM     49  C   UNL A   1      40.979  30.750  35.271  1.00  0.00     0.049 A 
ATOM     50  H   UNL A   1      41.354  29.756  33.447  1.00  0.00     0.167 HD
ATOM     51  C   UNL A   1      39.142  31.479  33.780  1.00  0.00     0.074 A 
ATOM     52  C   UNL A   1      37.921  32.203  33.499  1.00  0.00     0.031 C 
ATOM     53  C   UNL A   1      39.765  31.468  34.983  1.00  0.00     0.037 A 
BRANCH  40  54
ATOM     54  C   UNL A   1      44.717  27.810  35.204  1.00  0.00     0.057 A 
ATOM     55  C   UNL A   1      44.486  26.643  35.941  1.00  0.00     0.134 A 
ATOM     56  C   UNL A   1      45.951  28.450  35.374  1.00  0.00     0.134 A 
ATOM     57  F   UNL A   1      43.318  25.990  35.834  1.00  0.00    -0.206 F 
ATOM     58  C   UNL A   1      45.439  26.137  36.826  1.00  0.00     0.040 A 
ATOM     59  C   UNL A   1      46.920  27.944  36.244  1.00  0.00     0.040 A 
ATOM     60  F   UNL A   1      46.235  29.573  34.697  1.00  0.00    -0.206 F 
ATOM     61  C   UNL A   1      46.662  26.789  36.980  1.00  0.00     0.006 A 
ENDBRANCH  40  54
BRANCH  41  62
ATOM     62  C   UNL A   1      37.393  31.281  29.432  1.00  0.00     0.057 A 
ATOM     63  C   UNL A   1      36.272  30.485  29.171  1.00  0.00     0.134 A 
ATOM     64  C   UNL A   1      37.413  32.571  28.893  1.00  0.00     0.134 A 
ATOM     65  F   UNL A   1      36.199  29.237  29.658  1.00  0.00    -0.206 F 
ATOM     66  C   UNL A   1      35.208  30.956  28.403  1.00  0.00     0.040 A 
ATOM     67  C   UNL A   1      36.346  33.064  28.143  1.00  0.00     0.040 A 
ATOM     68  F   UNL A   1      38.455  33.383  29.127  1.00  0.00    -0.206 F 
ATOM     69  C   UNL A   1      35.239  32.253  27.894  1.00  0.00     0.006 A 
ENDBRANCH  41  62
BRANCH  53  70
ATOM     70  C   UNL A   1      39.148  32.290  36.076  1.00  0.00     0.057 A 
ATOM     71  C   UNL A   1      38.186  31.734  36.930  1.00  0.00     0.134 A 
ATOM     72  C   UNL A   1      39.494  33.631  36.275  1.00  0.00     0.134 A 
ATOM     73  F   UNL A   1      37.807  30.456  36.789  1.00  0.00    -0.206 F 
ATOM     74  C   UNL A   1      37.592  32.485  37.945  1.00  0.00     0.040 A 
ATOM     75  C   UNL A   1      38.923  34.387  37.301  1.00  0.00     0.040 A 
ATOM     76  F   UNL A   1      40.421  34.216  35.502  1.00  0.00    -0.206 F 
ATOM     77  C   UNL A   1      37.966  33.814  38.136  1.00  0.00     0.006 A 
ENDBRANCH  53  70
ENDBRANCH  27  28
ENDBRANCH  20  22
ENDBRANCH  19  20
ENDBRANCH  18  19
ENDBRANCH   1  18
TORSDOF 13
ENDMDL
MODEL 2
REMARK VINA RESULT:     -10.8      3.958      6.030
REMARK SMILES O=C(Cn1nc(-c2ccco2)ccc1=O)OCCOC(=O)c1ccc(-c2c3nc(c(-c4c(F)cccc4F)c4ccc([nH]4)c(-c4c(F)cccc4F)c4nc(c(-c5c(F)cccc5F)c5ccc2[nH]5)C=C4)C=C3)cc1
REMARK SMILES IDX 17 1 16 2 2 3 1 4 3 5 4 6 5 7 14 8 6 9 13 10 15 11 12 12
REMARK SMILES IDX 7 13 8 14 11 15 9 16 10 17 18 18 19 19 20 20 21 21 22 22
REMARK SMILES IDX 23 23 75 24 24 25 74 26 25 27 26 28 27 29 68 30 28 31 73 32
REMARK SMILES IDX 67 33 69 34 29 35 72 36 66 37 65 38 30 40 56 41 39 42 55 43
REMARK SMILES IDX 40 44 43 45 54 46 70 47 41 48 42 49 53 51 71 52 44 53 31 54
REMARK SMILES IDX 32 55 37 56 33 57 34 58 36 59 38 60 35 61 57 62 58 63 63 64
REMARK SMILES IDX 59 65 60 66 62 67 64 68 61 69 45 70 46 71 51 72 47 73 48 74
REMARK SMILES IDX 50 75 52 76 49 77
REMARK H PARENT 69 39 43 50
REMARK Flexibility Score: inf
ROOT
ATOM      1  C   UNL A   1      41.263  19.420  26.164  1.00  0.00     0.274 C 
ENDROOT
BRANCH   1   2
ATOM      2  O   UNL A   1      42.287  19.505  25.150  1.00  0.00    -0.461 OA
BRANCH   2   3
ATOM      3  C   UNL A   1      43.590  19.181  25.332  1.00  0.00     0.328 C 
ATOM      4  O   UNL A   1      43.891  18.110  25.862  1.00  0.00    -0.250 OA
BRANCH   3   5
ATOM      5  C   UNL A   1      44.655  20.157  24.867  1.00  0.00     0.270 C 
BRANCH   5   6
ATOM      6  N   UNL A   1      44.505  21.548  25.244  1.00  0.00    -0.218 N 
ATOM      7  N   UNL A   1      44.578  21.858  26.575  1.00  0.00    -0.166 NA
ATOM      8  C   UNL A   1      44.237  22.470  24.244  1.00  0.00     0.267 A 
ATOM      9  C   UNL A   1      44.268  23.064  26.936  1.00  0.00     0.126 A 
ATOM     10  C   UNL A   1      43.913  23.838  24.693  1.00  0.00     0.076 A 
ATOM     11  O   UNL A   1      44.235  22.212  23.044  1.00  0.00    -0.268 OA
ATOM     12  C   UNL A   1      43.886  24.137  25.993  1.00  0.00     0.040 A 
BRANCH   9  13
ATOM     13  C   UNL A   1      44.306  23.369  28.340  1.00  0.00     0.154 A 
ATOM     14  C   UNL A   1      43.502  22.949  29.382  1.00  0.00     0.052 A 
ATOM     15  O   UNL A   1      45.213  24.283  28.795  1.00  0.00    -0.463 OA
ATOM     16  C   UNL A   1      43.924  23.663  30.528  1.00  0.00     0.043 A 
ATOM     17  C   UNL A   1      44.946  24.484  30.112  1.00  0.00     0.196 A 
ENDBRANCH   9  13
ENDBRANCH   5   6
ENDBRANCH   3   5
ENDBRANCH   2   3
ENDBRANCH   1   2
BRANCH   1  18
ATOM     18  C   UNL A   1      41.179  20.733  26.947  1.00  0.00     0.275 C 
BRANCH  18  19
ATOM     19  O   UNL A   1      40.924  21.822  26.041  1.00  0.00    -0.458 OA
BRANCH  19  20
ATOM     20  C   UNL A   1      39.828  22.582  26.282  1.00  0.00     0.338 C 
ATOM     21  O   UNL A   1      38.668  22.212  26.284  1.00  0.00    -0.246 OA
BRANCH  20  22
ATOM     22  C   UNL A   1      40.286  23.895  26.803  1.00  0.00     0.060 A 
ATOM     23  C   UNL A   1      40.412  24.132  28.176  1.00  0.00     0.016 A 
ATOM     24  C   UNL A   1      40.469  24.943  25.890  1.00  0.00     0.016 A 
ATOM     25  C   UNL A   1      40.701  25.419  28.635  1.00  0.00     0.010 A 
ATOM     26  C   UNL A   1      40.753  26.231  26.353  1.00  0.00     0.010 A 
ATOM     27  C   UNL A   1      40.868  26.478  27.729  1.00  0.00    -0.014 A 
BRANCH  27  28
ATOM     28  C   UNL A   1      41.278  27.812  28.227  1.00  0.00     0.031 A 
ATOM     29  C   UNL A   1      42.716  28.232  28.278  1.00  0.00     0.074 A 
ATOM     30  C   UNL A   1      40.314  28.655  28.639  1.00  0.00     0.049 A 
ATOM     31  N   UNL A   1      43.222  29.395  28.608  1.00  0.00    -0.248 NA
ATOM     32  C   UNL A   1      43.718  27.222  27.919  1.00  0.00     0.031 C 
ATOM     33  C   UNL A   1      38.883  28.353  28.657  1.00  0.00     0.029 A 
ATOM     34  N   UNL A   1      40.395  29.933  29.128  1.00  0.00    -0.354 N 
ATOM     35  C   UNL A   1      44.598  29.265  28.475  1.00  0.00     0.074 A 
ATOM     36  C   UNL A   1      44.851  27.899  28.068  1.00  0.00     0.031 C 
ATOM     37  C   UNL A   1      38.219  29.415  29.138  1.00  0.00     0.029 A 
ATOM     38  C   UNL A   1      39.178  30.465  29.471  1.00  0.00     0.049 A 
ATOM     39  H   UNL A   1      41.244  30.422  29.225  1.00  0.00     0.167 HD
ATOM     40  C   UNL A   1      45.555  30.205  28.666  1.00  0.00     0.037 A 
ATOM     41  C   UNL A   1      38.869  31.661  30.000  1.00  0.00     0.037 A 
ATOM     42  C   UNL A   1      45.299  31.562  29.082  1.00  0.00     0.049 A 
ATOM     43  C   UNL A   1      39.959  32.662  30.254  1.00  0.00     0.074 A 
ATOM     44  C   UNL A   1      46.198  32.606  29.221  1.00  0.00     0.029 A 
ATOM     45  N   UNL A   1      44.057  32.055  29.453  1.00  0.00    -0.354 N 
ATOM     46  N   UNL A   1      41.242  32.567  30.011  1.00  0.00    -0.248 NA
ATOM     47  C   UNL A   1      39.553  33.944  30.848  1.00  0.00     0.031 C 
ATOM     48  C   UNL A   1      45.510  33.715  29.726  1.00  0.00     0.029 A 
ATOM     49  C   UNL A   1      44.174  33.375  29.860  1.00  0.00     0.049 A 
ATOM     50  H   UNL A   1      43.217  31.543  29.431  1.00  0.00     0.167 HD
ATOM     51  C   UNL A   1      41.791  33.784  30.391  1.00  0.00     0.074 A 
ATOM     52  C   UNL A   1      40.701  34.604  30.874  1.00  0.00     0.031 C 
ATOM     53  C   UNL A   1      43.085  34.185  30.337  1.00  0.00     0.037 A 
BRANCH  40  54
ATOM     54  C   UNL A   1      46.983  29.814  28.428  1.00  0.00     0.057 A 
ATOM     55  C   UNL A   1      47.529  29.851  27.140  1.00  0.00     0.134 A 
ATOM     56  C   UNL A   1      47.784  29.302  29.457  1.00  0.00     0.134 A 
ATOM     57  F   UNL A   1      46.808  30.318  26.108  1.00  0.00    -0.206 F 
ATOM     58  C   UNL A   1      48.818  29.383  26.879  1.00  0.00     0.040 A 
ATOM     59  C   UNL A   1      49.081  28.845  29.211  1.00  0.00     0.040 A 
ATOM     60  F   UNL A   1      47.320  29.239  30.714  1.00  0.00    -0.206 F 
ATOM     61  C   UNL A   1      49.598  28.877  27.917  1.00  0.00     0.006 A 
ENDBRANCH  40  54
BRANCH  41  62
ATOM     62  C   UNL A   1      37.459  31.987  30.317  1.00  0.00     0.057 A 
ATOM     63  C   UNL A   1      36.891  31.625  31.544  1.00  0.00     0.134 A 
ATOM     64  C   UNL A   1      36.657  32.688  29.411  1.00  0.00     0.134 A 
ATOM     65  F   UNL A   1      37.611  30.947  32.450  1.00  0.00    -0.206 F 
ATOM     66  C   UNL A   1      35.572  31.951  31.859  1.00  0.00     0.040 A 
ATOM     67  C   UNL A   1      35.344  33.040  29.722  1.00  0.00     0.040 A 
ATOM     68  F   UNL A   1      37.156  33.076  28.228  1.00  0.00    -0.206 F 
ATOM     69  C   UNL A   1      34.798  32.669  30.950  1.00  0.00     0.006 A 
ENDBRANCH  41  62
BRANCH  53  70
ATOM     70  C   UNL A   1      43.381  35.586  30.785  1.00  0.00     0.057 A 
ATOM     71  C   UNL A   1      43.493  36.624  29.851  1.00  0.00     0.134 A 
ATOM     72  C   UNL A   1      43.567  35.904  32.135  1.00  0.00     0.134 A 
ATOM     73  F   UNL A   1      43.331  36.384  28.542  1.00  0.00    -0.206 F 
ATOM     74  C   UNL A   1      43.780  37.931  30.246  1.00  0.00     0.040 A 
ATOM     75  C   UNL A   1      43.832  37.212  32.545  1.00  0.00     0.040 A 
ATOM     76  F   UNL A   1      43.455  34.957  33.078  1.00  0.00    -0.206 F 
ATOM     77  C   UNL A   1      43.943  38.229  31.599  1.00  0.00     0.006 A 
ENDBRANCH  53  70
ENDBRANCH  27  28
ENDBRANCH  20  22
ENDBRANCH  19  20
ENDBRANCH  18  19
ENDBRANCH   1  18
TORSDOF 13
ENDMDL
MODEL 3
REMARK VINA RESULT:     -10.7      3.955      7.910
REMARK SMILES O=C(Cn1nc(-c2ccco2)ccc1=O)OCCOC(=O)c1ccc(-c2c3nc(c(-c4c(F)cccc4F)c4ccc([nH]4)c(-c4c(F)cccc4F)c4nc(c(-c5c(F)cccc5F)c5ccc2[nH]5)C=C4)C=C3)cc1
REMARK SMILES IDX 17 1 16 2 2 3 1 4 3 5 4 6 5 7 14 8 6 9 13 10 15 11 12 12
REMARK SMILES IDX 7 13 8 14 11 15 9 16 10 17 18 18 19 19 20 20 21 21 22 22
REMARK SMILES IDX 23 23 75 24 24 25 74 26 25 27 26 28 27 29 68 30 28 31 73 32
REMARK SMILES IDX 67 33 69 34 29 35 72 36 66 37 65 38 30 40 56 41 39 42 55 43
REMARK SMILES IDX 40 44 43 45 54 46 70 47 41 48 42 49 53 51 71 52 44 53 31 54
REMARK SMILES IDX 32 55 37 56 33 57 34 58 36 59 38 60 35 61 57 62 58 63 63 64
REMARK SMILES IDX 59 65 60 66 62 67 64 68 61 69 45 70 46 71 51 72 47 73 48 74
REMARK SMILES IDX 50 75 52 76 49 77
REMARK H PARENT 69 39 43 50
REMARK Flexibility Score: inf
ROOT
ATOM      1  C   UNL A   1      41.450  19.448  26.435  1.00  0.00     0.274 C 
ENDROOT
BRANCH   1   2
ATOM      2  O   UNL A   1      42.325  19.642  25.303  1.00  0.00    -0.461 OA
BRANCH   2   3
ATOM      3  C   UNL A   1      43.618  19.238  25.242  1.00  0.00     0.328 C 
ATOM      4  O   UNL A   1      43.916  18.079  25.534  1.00  0.00    -0.250 OA
BRANCH   3   5
ATOM      5  C   UNL A   1      44.673  20.237  24.805  1.00  0.00     0.270 C 
BRANCH   5   6
ATOM      6  N   UNL A   1      44.486  21.624  25.182  1.00  0.00    -0.218 N 
ATOM      7  N   UNL A   1      44.576  21.940  26.510  1.00  0.00    -0.166 NA
ATOM      8  C   UNL A   1      44.168  22.534  24.186  1.00  0.00     0.267 A 
ATOM      9  C   UNL A   1      44.235  23.137  26.875  1.00  0.00     0.126 A 
ATOM     10  C   UNL A   1      43.809  23.892  24.638  1.00  0.00     0.076 A 
ATOM     11  O   UNL A   1      44.150  22.273  22.986  1.00  0.00    -0.268 OA
ATOM     12  C   UNL A   1      43.799  24.193  25.938  1.00  0.00     0.040 A 
BRANCH   9  13
ATOM     13  C   UNL A   1      44.291  23.447  28.277  1.00  0.00     0.154 A 
ATOM     14  C   UNL A   1      43.503  23.029  29.332  1.00  0.00     0.052 A 
ATOM     15  O   UNL A   1      45.203  24.364  28.717  1.00  0.00    -0.463 OA
ATOM     16  C   UNL A   1      43.939  23.747  30.469  1.00  0.00     0.043 A 
ATOM     17  C   UNL A   1      44.953  24.569  30.036  1.00  0.00     0.196 A 
ENDBRANCH   9  13
ENDBRANCH   5   6
ENDBRANCH   3   5
ENDBRANCH   2   3
ENDBRANCH   1   2
BRANCH   1  18
ATOM     18  C   UNL A   1      41.165  20.784  27.124  1.00  0.00     0.275 C 
BRANCH  18  19
ATOM     19  O   UNL A   1      40.891  21.792  26.133  1.00  0.00    -0.458 OA
BRANCH  19  20
ATOM     20  C   UNL A   1      39.777  22.545  26.311  1.00  0.00     0.338 C 
ATOM     21  O   UNL A   1      38.623  22.160  26.279  1.00  0.00    -0.246 OA
BRANCH  20  22
ATOM     22  C   UNL A   1      40.200  23.878  26.810  1.00  0.00     0.060 A 
ATOM     23  C   UNL A   1      40.342  24.133  28.179  1.00  0.00     0.016 A 
ATOM     24  C   UNL A   1      40.330  24.922  25.885  1.00  0.00     0.016 A 
ATOM     25  C   UNL A   1      40.595  25.433  28.620  1.00  0.00     0.010 A 
ATOM     26  C   UNL A   1      40.578  26.223  26.330  1.00  0.00     0.010 A 
ATOM     27  C   UNL A   1      40.709  26.488  27.701  1.00  0.00    -0.014 A 
BRANCH  27  28
ATOM     28  C   UNL A   1      41.082  27.841  28.178  1.00  0.00     0.031 A 
ATOM     29  C   UNL A   1      40.054  28.838  28.619  1.00  0.00     0.074 A 
ATOM     30  C   UNL A   1      42.389  28.161  28.209  1.00  0.00     0.049 A 
ATOM     31  N   UNL A   1      40.231  30.027  29.139  1.00  0.00    -0.248 NA
ATOM     32  C   UNL A   1      38.645  28.460  28.451  1.00  0.00     0.031 C 
ATOM     33  C   UNL A   1      43.481  27.283  27.786  1.00  0.00     0.029 A 
ATOM     34  N   UNL A   1      43.016  29.313  28.607  1.00  0.00    -0.354 N 
ATOM     35  C   UNL A   1      38.960  30.531  29.384  1.00  0.00     0.074 A 
ATOM     36  C   UNL A   1      38.019  29.533  28.921  1.00  0.00     0.031 C 
ATOM     37  C   UNL A   1      44.645  27.931  27.943  1.00  0.00     0.029 A 
ATOM     38  C   UNL A   1      44.380  29.268  28.465  1.00  0.00     0.049 A 
ATOM     39  H   UNL A   1      42.536  30.096  28.960  1.00  0.00     0.167 HD
ATOM     40  C   UNL A   1      38.618  31.713  29.950  1.00  0.00     0.037 A 
ATOM     41  C   UNL A   1      45.312  30.203  28.721  1.00  0.00     0.037 A 
ATOM     42  C   UNL A   1      39.559  32.710  30.399  1.00  0.00     0.049 A 
ATOM     43  C   UNL A   1      44.896  31.526  29.296  1.00  0.00     0.074 A 
ATOM     44  C   UNL A   1      39.306  33.900  31.061  1.00  0.00     0.029 A 
ATOM     45  N   UNL A   1      40.931  32.645  30.208  1.00  0.00    -0.354 N 
ATOM     46  N   UNL A   1      43.700  31.942  29.633  1.00  0.00    -0.248 NA
ATOM     47  C   UNL A   1      45.964  32.506  29.536  1.00  0.00     0.031 C 
ATOM     48  C   UNL A   1      40.518  34.579  31.223  1.00  0.00     0.029 A 
ATOM     49  C   UNL A   1      41.532  33.793  30.701  1.00  0.00     0.049 A 
ATOM     50  H   UNL A   1      41.408  31.896  29.785  1.00  0.00     0.167 HD
ATOM     51  C   UNL A   1      43.876  33.217  30.153  1.00  0.00     0.074 A 
ATOM     52  C   UNL A   1      45.294  33.503  30.095  1.00  0.00     0.031 C 
ATOM     53  C   UNL A   1      42.943  34.070  30.641  1.00  0.00     0.037 A 
BRANCH  40  54
ATOM     54  C   UNL A   1      37.159  32.012  30.128  1.00  0.00     0.057 A 
ATOM     55  C   UNL A   1      36.451  32.724  29.152  1.00  0.00     0.134 A 
ATOM     56  C   UNL A   1      36.483  31.688  31.311  1.00  0.00     0.134 A 
ATOM     57  F   UNL A   1      37.046  33.078  28.002  1.00  0.00    -0.206 F 
ATOM     58  C   UNL A   1      35.125  33.112  29.350  1.00  0.00     0.040 A 
ATOM     59  C   UNL A   1      35.152  32.056  31.514  1.00  0.00     0.040 A 
ATOM     60  F   UNL A   1      37.104  31.007  32.285  1.00  0.00    -0.206 F 
ATOM     61  C   UNL A   1      34.471  32.779  30.535  1.00  0.00     0.006 A 
ENDBRANCH  40  54
BRANCH  41  62
ATOM     62  C   UNL A   1      46.739  29.918  28.445  1.00  0.00     0.057 A 
ATOM     63  C   UNL A   1      47.556  29.316  29.409  1.00  0.00     0.134 A 
ATOM     64  C   UNL A   1      47.310  30.218  27.204  1.00  0.00     0.134 A 
ATOM     65  F   UNL A   1      47.065  29.011  30.618  1.00  0.00    -0.206 F 
ATOM     66  C   UNL A   1      48.894  29.022  29.147  1.00  0.00     0.040 A 
ATOM     67  C   UNL A   1      48.641  29.908  26.921  1.00  0.00     0.040 A 
ATOM     68  F   UNL A   1      46.568  30.778  26.238  1.00  0.00    -0.206 F 
ATOM     69  C   UNL A   1      49.437  29.309  27.896  1.00  0.00     0.006 A 
ENDBRANCH  41  62
BRANCH  53  70
ATOM     70  C   UNL A   1      43.435  35.380  31.180  1.00  0.00     0.057 A 
ATOM     71  C   UNL A   1      43.672  36.461  30.320  1.00  0.00     0.134 A 
ATOM     72  C   UNL A   1      43.687  35.569  32.543  1.00  0.00     0.134 A 
ATOM     73  F   UNL A   1      43.456  36.343  29.002  1.00  0.00    -0.206 F 
ATOM     74  C   UNL A   1      44.141  37.684  30.800  1.00  0.00     0.040 A 
ATOM     75  C   UNL A   1      44.135  36.795  33.038  1.00  0.00     0.040 A 
ATOM     76  F   UNL A   1      43.463  34.578  33.420  1.00  0.00    -0.206 F 
ATOM     77  C   UNL A   1      44.367  37.855  32.165  1.00  0.00     0.006 A 
ENDBRANCH  53  70
ENDBRANCH  27  28
ENDBRANCH  20  22
ENDBRANCH  19  20
ENDBRANCH  18  19
ENDBRANCH   1  18
TORSDOF 13
ENDMDL
