MODEL 1
REMARK VINA RESULT:     -10.7      0.000      0.000
REMARK SMILES COc1nc(-c2ccccc2)nc(C)c1CC(=O)OCCOC(=O)c1ccc(-c2c3nc(c(-c4c(F)cccc4F)c4ccc([nH]4)c(-c4c(F)cccc4F)c4nc(c(-c5c(F)cccc5F)c5ccc2[nH]5)C=C4)C=C3)cc1
REMARK SMILES IDX 20 1 19 2 17 3 18 4 16 5 15 6 3 7 4 8 5 9 13 10 12 11 14 12
REMARK SMILES IDX 2 13 1 14 6 15 7 16 11 17 8 18 10 19 9 20 21 21 22 22 23 23
REMARK SMILES IDX 24 24 25 25 26 26 78 27 27 28 77 29 28 30 29 31 30 32 71 33
REMARK SMILES IDX 31 34 76 35 70 36 72 37 32 38 75 39 69 40 68 41 33 43 59 44
REMARK SMILES IDX 42 45 58 46 43 47 46 48 57 49 73 50 44 51 45 52 56 54 74 55
REMARK SMILES IDX 47 56 34 57 35 58 40 59 36 60 37 61 39 62 41 63 38 64 60 65
REMARK SMILES IDX 61 66 66 67 62 68 63 69 65 70 67 71 64 72 48 73 49 74 54 75
REMARK SMILES IDX 50 76 51 77 53 78 55 79 52 80
REMARK H PARENT 72 42 46 53
REMARK Flexibility Score: inf
ROOT
ATOM      1  C   UNL A   1      31.990  29.794  26.335  1.00  0.00     0.274 C 
ENDROOT
BRANCH   1   2
ATOM      2  O   UNL A   1      31.438  28.658  25.641  1.00  0.00    -0.462 OA
BRANCH   2   3
ATOM      3  C   UNL A   1      31.333  27.518  26.372  1.00  0.00     0.310 C 
ATOM      4  O   UNL A   1      31.287  27.478  27.599  1.00  0.00    -0.252 OA
BRANCH   3   5
ATOM      5  C   UNL A   1      31.239  26.258  25.549  1.00  0.00     0.165 C 
BRANCH   5   6
ATOM      6  C   UNL A   1      32.465  25.396  25.476  1.00  0.00     0.047 A 
ATOM      7  C   UNL A   1      32.656  24.321  26.331  1.00  0.00     0.220 A 
ATOM      8  N   UNL A   1      33.756  23.554  26.341  1.00  0.00    -0.193 NA
ATOM      9  C   UNL A   1      34.716  23.894  25.472  1.00  0.00     0.163 A 
ATOM     10  C   UNL A   1      33.488  25.615  24.565  1.00  0.00     0.049 A 
ATOM     11  N   UNL A   1      34.629  24.896  24.580  1.00  0.00    -0.233 NA
ATOM     12  C   UNL A   1      33.427  26.704  23.534  1.00  0.00     0.067 C 
BRANCH   7  13
ATOM     13  O   UNL A   1      31.657  24.058  27.251  1.00  0.00    -0.481 OA
ATOM     14  C   UNL A   1      30.802  22.982  26.863  1.00  0.00     0.280 C 
ENDBRANCH   7  13
BRANCH   9  15
ATOM     15  C   UNL A   1      35.967  23.140  25.524  1.00  0.00     0.019 A 
ATOM     16  C   UNL A   1      36.045  21.834  25.009  1.00  0.00     0.012 A 
ATOM     17  C   UNL A   1      37.128  23.705  26.078  1.00  0.00     0.012 A 
ATOM     18  C   UNL A   1      37.244  21.119  25.042  1.00  0.00     0.001 A 
ATOM     19  C   UNL A   1      38.323  22.985  26.128  1.00  0.00     0.001 A 
ATOM     20  C   UNL A   1      38.382  21.693  25.606  1.00  0.00     0.000 A 
ENDBRANCH   9  15
ENDBRANCH   5   6
ENDBRANCH   3   5
ENDBRANCH   2   3
ENDBRANCH   1   2
BRANCH   1  21
ATOM     21  C   UNL A   1      33.515  29.750  26.311  1.00  0.00     0.275 C 
BRANCH  21  22
ATOM     22  O   UNL A   1      34.017  29.468  27.629  1.00  0.00    -0.458 OA
BRANCH  22  23
ATOM     23  C   UNL A   1      34.805  30.426  28.167  1.00  0.00     0.338 C 
ATOM     24  O   UNL A   1      34.487  31.571  28.452  1.00  0.00    -0.246 OA
BRANCH  23  25
ATOM     25  C   UNL A   1      36.179  29.918  28.356  1.00  0.00     0.060 A 
ATOM     26  C   UNL A   1      36.607  29.414  29.587  1.00  0.00     0.016 A 
ATOM     27  C   UNL A   1      37.084  30.042  27.299  1.00  0.00     0.016 A 
ATOM     28  C   UNL A   1      37.951  29.090  29.779  1.00  0.00     0.010 A 
ATOM     29  C   UNL A   1      38.410  29.645  27.470  1.00  0.00     0.010 A 
ATOM     30  C   UNL A   1      38.862  29.183  28.716  1.00  0.00    -0.014 A 
BRANCH  30  31
ATOM     31  C   UNL A   1      40.279  28.767  28.881  1.00  0.00     0.031 A 
ATOM     32  C   UNL A   1      41.315  29.743  29.364  1.00  0.00     0.074 A 
ATOM     33  C   UNL A   1      40.644  27.516  28.544  1.00  0.00     0.049 A 
ATOM     34  N   UNL A   1      42.618  29.612  29.406  1.00  0.00    -0.248 NA
ATOM     35  C   UNL A   1      40.827  31.040  29.857  1.00  0.00     0.031 C 
ATOM     36  C   UNL A   1      39.739  26.467  28.072  1.00  0.00     0.029 A 
ATOM     37  N   UNL A   1      41.881  26.920  28.529  1.00  0.00    -0.354 N 
ATOM     38  C   UNL A   1      43.106  30.815  29.898  1.00  0.00     0.074 A 
ATOM     39  C   UNL A   1      41.961  31.670  30.134  1.00  0.00     0.031 C 
ATOM     40  C   UNL A   1      40.447  25.355  27.825  1.00  0.00     0.029 A 
ATOM     41  C   UNL A   1      41.860  25.631  28.058  1.00  0.00     0.049 A 
ATOM     42  H   UNL A   1      42.703  27.373  28.829  1.00  0.00     0.167 HD
ATOM     43  C   UNL A   1      44.393  31.173  30.129  1.00  0.00     0.037 A 
ATOM     44  C   UNL A   1      42.866  24.776  27.800  1.00  0.00     0.037 A 
ATOM     45  C   UNL A   1      45.530  30.314  29.922  1.00  0.00     0.049 A 
ATOM     46  C   UNL A   1      44.283  25.208  28.032  1.00  0.00     0.074 A 
ATOM     47  C   UNL A   1      46.867  30.580  30.164  1.00  0.00     0.029 A 
ATOM     48  N   UNL A   1      45.464  29.021  29.427  1.00  0.00    -0.354 N 
ATOM     49  N   UNL A   1      44.731  26.355  28.479  1.00  0.00    -0.248 NA
ATOM     50  C   UNL A   1      45.332  24.232  27.707  1.00  0.00     0.031 C 
ATOM     51  C   UNL A   1      47.614  29.458  29.787  1.00  0.00     0.029 A 
ATOM     52  C   UNL A   1      46.739  28.482  29.341  1.00  0.00     0.049 A 
ATOM     53  H   UNL A   1      44.635  28.554  29.175  1.00  0.00     0.167 HD
ATOM     54  C   UNL A   1      46.114  26.238  28.497  1.00  0.00     0.074 A 
ATOM     55  C   UNL A   1      46.430  24.904  28.031  1.00  0.00     0.031 C 
ATOM     56  C   UNL A   1      47.039  27.158  28.866  1.00  0.00     0.037 A 
BRANCH  43  57
ATOM     57  C   UNL A   1      44.650  32.565  30.622  1.00  0.00     0.057 A 
ATOM     58  C   UNL A   1      44.853  33.635  29.743  1.00  0.00     0.134 A 
ATOM     59  C   UNL A   1      44.630  32.847  31.994  1.00  0.00     0.134 A 
ATOM     60  F   UNL A   1      44.893  33.426  28.418  1.00  0.00    -0.206 F 
ATOM     61  C   UNL A   1      45.034  34.938  30.211  1.00  0.00     0.040 A 
ATOM     62  C   UNL A   1      44.792  34.148  32.474  1.00  0.00     0.040 A 
ATOM     63  F   UNL A   1      44.435  31.867  32.889  1.00  0.00    -0.206 F 
ATOM     64  C   UNL A   1      44.996  35.199  31.580  1.00  0.00     0.006 A 
ENDBRANCH  43  57
BRANCH  44  65
ATOM     65  C   UNL A   1      42.557  23.429  27.267  1.00  0.00     0.057 A 
ATOM     66  C   UNL A   1      42.568  23.179  25.892  1.00  0.00     0.134 A 
ATOM     67  C   UNL A   1      42.275  22.356  28.121  1.00  0.00     0.134 A 
ATOM     68  F   UNL A   1      42.811  24.174  25.026  1.00  0.00    -0.206 F 
ATOM     69  C   UNL A   1      42.310  21.906  25.381  1.00  0.00     0.040 A 
ATOM     70  C   UNL A   1      42.036  21.074  27.625  1.00  0.00     0.040 A 
ATOM     71  F   UNL A   1      42.254  22.536  29.450  1.00  0.00    -0.206 F 
ATOM     72  C   UNL A   1      42.051  20.848  26.251  1.00  0.00     0.006 A 
ENDBRANCH  44  65
BRANCH  56  73
ATOM     73  C   UNL A   1      48.474  26.740  28.790  1.00  0.00     0.057 A 
ATOM     74  C   UNL A   1      49.261  27.021  27.667  1.00  0.00     0.134 A 
ATOM     75  C   UNL A   1      49.079  26.060  29.855  1.00  0.00     0.134 A 
ATOM     76  F   UNL A   1      48.733  27.655  26.609  1.00  0.00    -0.206 F 
ATOM     77  C   UNL A   1      50.597  26.623  27.596  1.00  0.00     0.040 A 
ATOM     78  C   UNL A   1      50.418  25.672  29.803  1.00  0.00     0.040 A 
ATOM     79  F   UNL A   1      48.378  25.765  30.959  1.00  0.00    -0.206 F 
ATOM     80  C   UNL A   1      51.180  25.950  28.669  1.00  0.00     0.006 A 
ENDBRANCH  56  73
ENDBRANCH  30  31
ENDBRANCH  23  25
ENDBRANCH  22  23
ENDBRANCH  21  22
ENDBRANCH   1  21
TORSDOF 14
ENDMDL
MODEL 2
REMARK VINA RESULT:     -10.4      3.942      7.467
REMARK SMILES COc1nc(-c2ccccc2)nc(C)c1CC(=O)OCCOC(=O)c1ccc(-c2c3nc(c(-c4c(F)cccc4F)c4ccc([nH]4)c(-c4c(F)cccc4F)c4nc(c(-c5c(F)cccc5F)c5ccc2[nH]5)C=C4)C=C3)cc1
REMARK SMILES IDX 20 1 19 2 17 3 18 4 16 5 15 6 3 7 4 8 5 9 13 10 12 11 14 12
REMARK SMILES IDX 2 13 1 14 6 15 7 16 11 17 8 18 10 19 9 20 21 21 22 22 23 23
REMARK SMILES IDX 24 24 25 25 26 26 78 27 27 28 77 29 28 30 29 31 30 32 71 33
REMARK SMILES IDX 31 34 76 35 70 36 72 37 32 38 75 39 69 40 68 41 33 43 59 44
REMARK SMILES IDX 42 45 58 46 43 47 46 48 57 49 73 50 44 51 45 52 56 54 74 55
REMARK SMILES IDX 47 56 34 57 35 58 40 59 36 60 37 61 39 62 41 63 38 64 60 65
REMARK SMILES IDX 61 66 66 67 62 68 63 69 65 70 67 71 64 72 48 73 49 74 54 75
REMARK SMILES IDX 50 76 51 77 53 78 55 79 52 80
REMARK H PARENT 72 42 46 53
REMARK Flexibility Score: inf
ROOT
ATOM      1  C   UNL A   1      31.718  28.191  26.484  1.00  0.00     0.274 C 
ENDROOT
BRANCH   1   2
ATOM      2  O   UNL A   1      30.866  27.144  25.980  1.00  0.00    -0.462 OA
BRANCH   2   3
ATOM      3  C   UNL A   1      31.442  25.918  25.878  1.00  0.00     0.310 C 
ATOM      4  O   UNL A   1      32.479  25.585  26.445  1.00  0.00    -0.252 OA
BRANCH   3   5
ATOM      5  C   UNL A   1      30.679  24.943  25.016  1.00  0.00     0.165 C 
BRANCH   5   6
ATOM      6  C   UNL A   1      31.294  23.590  24.807  1.00  0.00     0.047 A 
ATOM      7  C   UNL A   1      32.165  23.336  23.758  1.00  0.00     0.220 A 
ATOM      8  N   UNL A   1      32.699  22.134  23.497  1.00  0.00    -0.193 NA
ATOM      9  C   UNL A   1      32.325  21.138  24.311  1.00  0.00     0.163 A 
ATOM     10  C   UNL A   1      31.032  22.507  25.633  1.00  0.00     0.049 A 
ATOM     11  N   UNL A   1      31.511  21.273  25.372  1.00  0.00    -0.233 NA
ATOM     12  C   UNL A   1      30.151  22.613  26.843  1.00  0.00     0.067 C 
BRANCH   7  13
ATOM     13  O   UNL A   1      32.464  24.390  22.913  1.00  0.00    -0.481 OA
ATOM     14  C   UNL A   1      33.803  24.864  23.056  1.00  0.00     0.280 C 
ENDBRANCH   7  13
BRANCH   9  15
ATOM     15  C   UNL A   1      32.810  19.796  23.996  1.00  0.00     0.019 A 
ATOM     16  C   UNL A   1      32.152  18.994  23.047  1.00  0.00     0.012 A 
ATOM     17  C   UNL A   1      33.955  19.277  24.622  1.00  0.00     0.012 A 
ATOM     18  C   UNL A   1      32.624  17.719  22.731  1.00  0.00     0.001 A 
ATOM     19  C   UNL A   1      34.419  17.995  24.321  1.00  0.00     0.001 A 
ATOM     20  C   UNL A   1      33.756  17.218  23.372  1.00  0.00     0.000 A 
ENDBRANCH   9  15
ENDBRANCH   5   6
ENDBRANCH   3   5
ENDBRANCH   2   3
ENDBRANCH   1   2
BRANCH   1  21
ATOM     21  C   UNL A   1      31.803  29.343  25.486  1.00  0.00     0.275 C 
BRANCH  21  22
ATOM     22  O   UNL A   1      33.042  30.051  25.662  1.00  0.00    -0.458 OA
BRANCH  22  23
ATOM     23  C   UNL A   1      33.052  30.962  26.661  1.00  0.00     0.338 C 
ATOM     24  O   UNL A   1      32.218  31.828  26.880  1.00  0.00    -0.246 OA
BRANCH  23  25
ATOM     25  C   UNL A   1      34.266  30.806  27.488  1.00  0.00     0.060 A 
ATOM     26  C   UNL A   1      35.092  31.894  27.784  1.00  0.00     0.016 A 
ATOM     27  C   UNL A   1      34.633  29.521  27.893  1.00  0.00     0.016 A 
ATOM     28  C   UNL A   1      36.311  31.689  28.432  1.00  0.00     0.010 A 
ATOM     29  C   UNL A   1      35.815  29.328  28.608  1.00  0.00     0.010 A 
ATOM     30  C   UNL A   1      36.676  30.407  28.868  1.00  0.00    -0.014 A 
BRANCH  30  31
ATOM     31  C   UNL A   1      37.932  30.183  29.629  1.00  0.00     0.031 A 
ATOM     32  C   UNL A   1      39.030  29.324  29.064  1.00  0.00     0.074 A 
ATOM     33  C   UNL A   1      38.065  30.715  30.858  1.00  0.00     0.049 A 
ATOM     34  N   UNL A   1      40.114  28.879  29.649  1.00  0.00    -0.248 NA
ATOM     35  C   UNL A   1      38.887  28.900  27.663  1.00  0.00     0.031 C 
ATOM     36  C   UNL A   1      37.082  31.575  31.519  1.00  0.00     0.029 A 
ATOM     37  N   UNL A   1      39.075  30.594  31.780  1.00  0.00    -0.354 N 
ATOM     38  C   UNL A   1      40.766  28.101  28.702  1.00  0.00     0.074 A 
ATOM     39  C   UNL A   1      39.953  28.126  27.504  1.00  0.00     0.031 C 
ATOM     40  C   UNL A   1      37.542  31.913  32.733  1.00  0.00     0.029 A 
ATOM     41  C   UNL A   1      38.817  31.243  32.961  1.00  0.00     0.049 A 
ATOM     42  H   UNL A   1      39.905  30.091  31.609  1.00  0.00     0.167 HD
ATOM     43  C   UNL A   1      41.936  27.427  28.822  1.00  0.00     0.037 A 
ATOM     44  C   UNL A   1      39.505  31.266  34.117  1.00  0.00     0.037 A 
ATOM     45  C   UNL A   1      42.760  27.425  30.004  1.00  0.00     0.049 A 
ATOM     46  C   UNL A   1      40.778  30.484  34.236  1.00  0.00     0.074 A 
ATOM     47  C   UNL A   1      43.979  26.799  30.203  1.00  0.00     0.029 A 
ATOM     48  N   UNL A   1      42.451  28.082  31.184  1.00  0.00    -0.354 N 
ATOM     49  N   UNL A   1      41.373  29.737  33.339  1.00  0.00    -0.248 NA
ATOM     50  C   UNL A   1      41.465  30.534  35.534  1.00  0.00     0.031 C 
ATOM     51  C   UNL A   1      44.394  27.054  31.515  1.00  0.00     0.029 A 
ATOM     52  C   UNL A   1      43.449  27.865  32.122  1.00  0.00     0.049 A 
ATOM     53  H   UNL A   1      41.644  28.625  31.334  1.00  0.00     0.167 HD
ATOM     54  C   UNL A   1      42.508  29.234  33.959  1.00  0.00     0.074 A 
ATOM     55  C   UNL A   1      42.528  29.773  35.304  1.00  0.00     0.031 C 
ATOM     56  C   UNL A   1      43.450  28.399  33.457  1.00  0.00     0.037 A 
BRANCH  43  57
ATOM     57  C   UNL A   1      42.396  26.616  27.649  1.00  0.00     0.057 A 
ATOM     58  C   UNL A   1      42.029  25.275  27.488  1.00  0.00     0.134 A 
ATOM     59  C   UNL A   1      43.162  27.206  26.635  1.00  0.00     0.134 A 
ATOM     60  F   UNL A   1      41.305  24.652  28.429  1.00  0.00    -0.206 F 
ATOM     61  C   UNL A   1      42.414  24.545  26.362  1.00  0.00     0.040 A 
ATOM     62  C   UNL A   1      43.538  26.491  25.496  1.00  0.00     0.040 A 
ATOM     63  F   UNL A   1      43.542  28.489  26.727  1.00  0.00    -0.206 F 
ATOM     64  C   UNL A   1      43.165  25.155  25.358  1.00  0.00     0.006 A 
ENDBRANCH  43  57
BRANCH  44  65
ATOM     65  C   UNL A   1      38.978  32.045  35.262  1.00  0.00     0.057 A 
ATOM     66  C   UNL A   1      38.244  31.425  36.277  1.00  0.00     0.134 A 
ATOM     67  C   UNL A   1      39.224  33.418  35.381  1.00  0.00     0.134 A 
ATOM     68  F   UNL A   1      37.962  30.116  36.204  1.00  0.00    -0.206 F 
ATOM     69  C   UNL A   1      37.771  32.144  37.376  1.00  0.00     0.040 A 
ATOM     70  C   UNL A   1      38.774  34.145  36.485  1.00  0.00     0.040 A 
ATOM     71  F   UNL A   1      39.925  34.065  34.439  1.00  0.00    -0.206 F 
ATOM     72  C   UNL A   1      38.044  33.507  37.485  1.00  0.00     0.006 A 
ENDBRANCH  44  65
BRANCH  56  73
ATOM     73  C   UNL A   1      44.581  28.032  34.367  1.00  0.00     0.057 A 
ATOM     74  C   UNL A   1      44.521  26.903  35.192  1.00  0.00     0.134 A 
ATOM     75  C   UNL A   1      45.746  28.808  34.409  1.00  0.00     0.134 A 
ATOM     76  F   UNL A   1      43.425  26.130  35.208  1.00  0.00    -0.206 F 
ATOM     77  C   UNL A   1      45.574  26.569  36.045  1.00  0.00     0.040 A 
ATOM     78  C   UNL A   1      46.812  28.474  35.244  1.00  0.00     0.040 A 
ATOM     79  F   UNL A   1      45.864  29.900  33.639  1.00  0.00    -0.206 F 
ATOM     80  C   UNL A   1      46.726  27.354  36.069  1.00  0.00     0.006 A 
ENDBRANCH  56  73
ENDBRANCH  30  31
ENDBRANCH  23  25
ENDBRANCH  22  23
ENDBRANCH  21  22
ENDBRANCH   1  21
TORSDOF 14
ENDMDL
MODEL 3
REMARK VINA RESULT:     -10.3      2.795      6.736
REMARK SMILES COc1nc(-c2ccccc2)nc(C)c1CC(=O)OCCOC(=O)c1ccc(-c2c3nc(c(-c4c(F)cccc4F)c4ccc([nH]4)c(-c4c(F)cccc4F)c4nc(c(-c5c(F)cccc5F)c5ccc2[nH]5)C=C4)C=C3)cc1
REMARK SMILES IDX 20 1 19 2 17 3 18 4 16 5 15 6 3 7 4 8 5 9 13 10 12 11 14 12
REMARK SMILES IDX 2 13 1 14 6 15 7 16 11 17 8 18 10 19 9 20 21 21 22 22 23 23
REMARK SMILES IDX 24 24 25 25 26 26 78 27 27 28 77 29 28 30 29 31 30 32 71 33
REMARK SMILES IDX 31 34 76 35 70 36 72 37 32 38 75 39 69 40 68 41 33 43 59 44
REMARK SMILES IDX 42 45 58 46 43 47 46 48 57 49 73 50 44 51 45 52 56 54 74 55
REMARK SMILES IDX 47 56 34 57 35 58 40 59 36 60 37 61 39 62 41 63 38 64 60 65
REMARK SMILES IDX 61 66 66 67 62 68 63 69 65 70 67 71 64 72 48 73 49 74 54 75
REMARK SMILES IDX 50 76 51 77 53 78 55 79 52 80
REMARK H PARENT 72 42 46 53
REMARK Flexibility Score: inf
ROOT
ATOM      1  C   UNL A   1      34.943  20.531  25.361  1.00  0.00     0.274 C 
ENDROOT
BRANCH   1   2
ATOM      2  O   UNL A   1      34.159  20.145  24.215  1.00  0.00    -0.462 OA
BRANCH   2   3
ATOM      3  C   UNL A   1      32.812  20.207  24.379  1.00  0.00     0.310 C 
ATOM      4  O   UNL A   1      32.149  19.388  25.010  1.00  0.00    -0.252 OA
BRANCH   3   5
ATOM      5  C   UNL A   1      32.163  21.410  23.743  1.00  0.00     0.165 C 
BRANCH   5   6
ATOM      6  C   UNL A   1      32.383  22.737  24.408  1.00  0.00     0.047 A 
ATOM      7  C   UNL A   1      31.619  23.150  25.489  1.00  0.00     0.220 A 
ATOM      8  N   UNL A   1      31.742  24.345  26.084  1.00  0.00    -0.193 NA
ATOM      9  C   UNL A   1      32.655  25.171  25.558  1.00  0.00     0.163 A 
ATOM     10  C   UNL A   1      33.351  23.638  23.990  1.00  0.00     0.049 A 
ATOM     11  N   UNL A   1      33.469  24.868  24.531  1.00  0.00    -0.233 NA
ATOM     12  C   UNL A   1      34.299  23.337  22.866  1.00  0.00     0.067 C 
BRANCH   7  13
ATOM     13  O   UNL A   1      30.648  22.278  25.948  1.00  0.00    -0.481 OA
ATOM     14  C   UNL A   1      29.790  22.858  26.932  1.00  0.00     0.280 C 
ENDBRANCH   7  13
BRANCH   9  15
ATOM     15  C   UNL A   1      32.746  26.517  26.120  1.00  0.00     0.019 A 
ATOM     16  C   UNL A   1      33.885  27.314  25.905  1.00  0.00     0.012 A 
ATOM     17  C   UNL A   1      31.693  27.057  26.877  1.00  0.00     0.012 A 
ATOM     18  C   UNL A   1      33.966  28.607  26.426  1.00  0.00     0.001 A 
ATOM     19  C   UNL A   1      31.780  28.343  27.413  1.00  0.00     0.001 A 
ATOM     20  C   UNL A   1      32.915  29.119  27.184  1.00  0.00     0.000 A 
ENDBRANCH   9  15
ENDBRANCH   5   6
ENDBRANCH   3   5
ENDBRANCH   2   3
ENDBRANCH   1   2
BRANCH   1  21
ATOM     21  C   UNL A   1      36.419  20.646  24.989  1.00  0.00     0.275 C 
BRANCH  21  22
ATOM     22  O   UNL A   1      37.108  21.447  25.966  1.00  0.00    -0.458 OA
BRANCH  22  23
ATOM     23  C   UNL A   1      38.448  21.274  26.017  1.00  0.00     0.338 C 
ATOM     24  O   UNL A   1      39.073  20.260  25.743  1.00  0.00    -0.246 OA
BRANCH  23  25
ATOM     25  C   UNL A   1      39.109  22.505  26.495  1.00  0.00     0.060 A 
ATOM     26  C   UNL A   1      38.650  23.771  26.122  1.00  0.00     0.016 A 
ATOM     27  C   UNL A   1      40.274  22.380  27.255  1.00  0.00     0.016 A 
ATOM     28  C   UNL A   1      39.387  24.907  26.458  1.00  0.00     0.010 A 
ATOM     29  C   UNL A   1      40.968  23.523  27.656  1.00  0.00     0.010 A 
ATOM     30  C   UNL A   1      40.543  24.796  27.246  1.00  0.00    -0.014 A 
BRANCH  30  31
ATOM     31  C   UNL A   1      41.295  26.002  27.680  1.00  0.00     0.031 A 
ATOM     32  C   UNL A   1      40.626  27.072  28.498  1.00  0.00     0.074 A 
ATOM     33  C   UNL A   1      42.573  26.160  27.289  1.00  0.00     0.049 A 
ATOM     34  N   UNL A   1      41.068  28.262  28.820  1.00  0.00    -0.248 NA
ATOM     35  C   UNL A   1      39.283  26.769  29.016  1.00  0.00     0.031 C 
ATOM     36  C   UNL A   1      43.344  25.195  26.503  1.00  0.00     0.029 A 
ATOM     37  N   UNL A   1      43.446  27.201  27.487  1.00  0.00    -0.354 N 
ATOM     38  C   UNL A   1      40.049  28.862  29.549  1.00  0.00     0.074 A 
ATOM     39  C   UNL A   1      38.962  27.908  29.617  1.00  0.00     0.031 C 
ATOM     40  C   UNL A   1      44.575  25.684  26.295  1.00  0.00     0.029 A 
ATOM     41  C   UNL A   1      44.661  27.019  26.875  1.00  0.00     0.049 A 
ATOM     42  H   UNL A   1      43.222  28.000  28.018  1.00  0.00     0.167 HD
ATOM     43  C   UNL A   1      40.024  30.096  30.108  1.00  0.00     0.037 A 
ATOM     44  C   UNL A   1      45.714  27.847  26.755  1.00  0.00     0.037 A 
ATOM     45  C   UNL A   1      41.116  31.035  30.066  1.00  0.00     0.049 A 
ATOM     46  C   UNL A   1      45.649  29.220  27.352  1.00  0.00     0.074 A 
ATOM     47  C   UNL A   1      41.193  32.294  30.636  1.00  0.00     0.029 A 
ATOM     48  N   UNL A   1      42.323  30.815  29.420  1.00  0.00    -0.354 N 
ATOM     49  N   UNL A   1      44.672  29.781  28.022  1.00  0.00    -0.248 NA
ATOM     50  C   UNL A   1      46.825  30.080  27.163  1.00  0.00     0.031 C 
ATOM     51  C   UNL A   1      42.435  32.849  30.310  1.00  0.00     0.029 A 
ATOM     52  C   UNL A   1      43.144  31.922  29.564  1.00  0.00     0.049 A 
ATOM     53  H   UNL A   1      42.561  29.994  28.932  1.00  0.00     0.167 HD
ATOM     54  C   UNL A   1      45.117  31.056  28.341  1.00  0.00     0.074 A 
ATOM     55  C   UNL A   1      46.457  31.181  27.805  1.00  0.00     0.031 C 
ATOM     56  C   UNL A   1      44.470  32.036  29.017  1.00  0.00     0.037 A 
BRANCH  43  57
ATOM     57  C   UNL A   1      38.768  30.518  30.808  1.00  0.00     0.057 A 
ATOM     58  C   UNL A   1      37.735  31.182  30.135  1.00  0.00     0.134 A 
ATOM     59  C   UNL A   1      38.563  30.197  32.156  1.00  0.00     0.134 A 
ATOM     60  F   UNL A   1      37.875  31.526  28.846  1.00  0.00    -0.206 F 
ATOM     61  C   UNL A   1      36.544  31.519  30.781  1.00  0.00     0.040 A 
ATOM     62  C   UNL A   1      37.370  30.513  32.808  1.00  0.00     0.040 A 
ATOM     63  F   UNL A   1      39.512  29.557  32.855  1.00  0.00    -0.206 F 
ATOM     64  C   UNL A   1      36.356  31.178  32.120  1.00  0.00     0.006 A 
ENDBRANCH  43  57
BRANCH  44  65
ATOM     65  C   UNL A   1      46.913  27.396  26.010  1.00  0.00     0.057 A 
ATOM     66  C   UNL A   1      47.971  26.760  26.665  1.00  0.00     0.134 A 
ATOM     67  C   UNL A   1      47.012  27.563  24.623  1.00  0.00     0.134 A 
ATOM     68  F   UNL A   1      47.938  26.592  27.995  1.00  0.00    -0.206 F 
ATOM     69  C   UNL A   1      49.089  26.303  25.967  1.00  0.00     0.040 A 
ATOM     70  C   UNL A   1      48.116  27.093  23.910  1.00  0.00     0.040 A 
ATOM     71  F   UNL A   1      46.026  28.164  23.941  1.00  0.00    -0.206 F 
ATOM     72  C   UNL A   1      49.159  26.462  24.584  1.00  0.00     0.006 A 
ENDBRANCH  44  65
BRANCH  56  73
ATOM     73  C   UNL A   1      45.214  33.320  29.222  1.00  0.00     0.057 A 
ATOM     74  C   UNL A   1      46.053  33.512  30.326  1.00  0.00     0.134 A 
ATOM     75  C   UNL A   1      45.100  34.368  28.300  1.00  0.00     0.134 A 
ATOM     76  F   UNL A   1      46.190  32.550  31.251  1.00  0.00    -0.206 F 
ATOM     77  C   UNL A   1      46.739  34.712  30.518  1.00  0.00     0.040 A 
ATOM     78  C   UNL A   1      45.794  35.566  28.472  1.00  0.00     0.040 A 
ATOM     79  F   UNL A   1      44.314  34.242  27.221  1.00  0.00    -0.206 F 
ATOM     80  C   UNL A   1      46.613  35.742  29.587  1.00  0.00     0.006 A 
ENDBRANCH  56  73
ENDBRANCH  30  31
ENDBRANCH  23  25
ENDBRANCH  22  23
ENDBRANCH  21  22
ENDBRANCH   1  21
TORSDOF 14
ENDMDL
