MODEL 1
REMARK VINA RESULT:     -10.7      0.000      0.000
REMARK SMILES CCCCC(=O)Nc1ccc(C(=O)N2CCC[C@H](C(=O)OCCOC(=O)c3ccc(-c4c5nc(c(-c6c(F)cccc6F)c6ccc([nH]6)c(-c6c(F)cccc6F)c6nc(c(-c7c(F)cccc7F)c7ccc4[nH]7)C=C6)C=C5)cc3)C2)cc1
REMARK SMILES IDX 19 1 20 2 18 3 14 4 15 5 81 6 16 7 17 8 12 9 13 10 11 11
REMARK SMILES IDX 8 12 9 13 83 14 10 15 82 16 7 17 5 18 6 19 4 21 3 22 2 23
REMARK SMILES IDX 1 24 21 25 22 26 23 27 24 28 25 29 26 30 27 31 28 32 80 33
REMARK SMILES IDX 29 34 79 35 30 36 31 37 32 38 73 39 33 40 78 41 72 42 74 43
REMARK SMILES IDX 34 44 77 45 71 46 70 47 35 49 61 50 44 51 60 52 45 53 48 54
REMARK SMILES IDX 59 55 75 56 46 57 47 58 58 60 76 61 49 62 36 63 37 64 42 65
REMARK SMILES IDX 38 66 39 67 41 68 43 69 40 70 62 71 63 72 68 73 64 74 65 75
REMARK SMILES IDX 67 76 69 77 66 78 50 79 51 80 56 81 52 82 53 83 55 84 57 85
REMARK SMILES IDX 54 86
REMARK H PARENT 7 20 74 48 48 59
REMARK Flexibility Score: inf
ROOT
ATOM      1  C   UNL A   1      30.651  26.323  25.677  1.00  0.00     0.310 C 
ATOM      2  O   UNL A   1      30.731  25.433  26.520  1.00  0.00    -0.252 OA
ENDROOT
BRANCH   1   3
ATOM      3  C   UNL A   1      29.813  26.159  24.420  1.00  0.00     0.119 C 
ATOM      4  N   UNL A   1      31.605  25.543  22.849  1.00  0.00    -0.338 N 
ATOM      5  C   UNL A   1      31.365  26.710  22.006  1.00  0.00     0.120 C 
ATOM      6  C   UNL A   1      30.445  25.056  23.581  1.00  0.00     0.135 C 
ATOM      7  C   UNL A   1      30.750  27.871  22.780  1.00  0.00     0.022 C 
ATOM      8  C   UNL A   1      29.544  27.427  23.606  1.00  0.00     0.019 C 
BRANCH   4   9
ATOM      9  C   UNL A   1      32.916  25.251  23.224  1.00  0.00     0.253 C 
ATOM     10  O   UNL A   1      33.868  25.910  22.808  1.00  0.00    -0.269 OA
BRANCH   9  11
ATOM     11  C   UNL A   1      33.183  23.944  23.915  1.00  0.00     0.040 A 
ATOM     12  C   UNL A   1      34.336  21.695  25.116  1.00  0.00     0.041 A 
ATOM     13  C   UNL A   1      34.282  22.888  25.825  1.00  0.00     0.027 A 
ATOM     14  C   UNL A   1      33.678  21.572  23.899  1.00  0.00     0.027 A 
ATOM     15  C   UNL A   1      33.710  24.013  25.218  1.00  0.00     0.016 A 
ATOM     16  C   UNL A   1      33.115  22.694  23.295  1.00  0.00     0.016 A 
BRANCH  12  17
ATOM     17  N   UNL A   1      35.100  20.621  25.581  1.00  0.00    -0.326 N 
ATOM     18  C   UNL A   1      36.302  20.250  25.018  1.00  0.00     0.224 C 
ATOM     19  O   UNL A   1      36.632  19.065  24.988  1.00  0.00    -0.275 OA
ATOM     20  H   UNL A   1      34.763  20.103  26.347  1.00  0.00     0.169 HD
BRANCH  18  21
ATOM     21  C   UNL A   1      37.255  21.362  24.578  1.00  0.00     0.100 C 
BRANCH  21  22
ATOM     22  C   UNL A   1      38.540  21.523  25.396  1.00  0.00     0.010 C 
BRANCH  22  23
ATOM     23  C   UNL A   1      38.652  22.747  26.317  1.00  0.00    -0.003 C 
ATOM     24  C   UNL A   1      37.715  23.904  26.004  1.00  0.00     0.004 C 
ENDBRANCH  22  23
ENDBRANCH  21  22
ENDBRANCH  18  21
ENDBRANCH  12  17
ENDBRANCH   9  11
ENDBRANCH   4   9
ENDBRANCH   1   3
BRANCH   1  25
ATOM     25  O   UNL A   1      31.285  27.515  25.750  1.00  0.00    -0.462 OA
BRANCH  25  26
ATOM     26  C   UNL A   1      31.903  27.847  27.004  1.00  0.00     0.274 C 
BRANCH  26  27
ATOM     27  C   UNL A   1      32.730  29.128  26.882  1.00  0.00     0.275 C 
BRANCH  27  28
ATOM     28  O   UNL A   1      34.007  28.998  27.536  1.00  0.00    -0.458 OA
BRANCH  28  29
ATOM     29  C   UNL A   1      34.586  30.165  27.899  1.00  0.00     0.338 C 
ATOM     30  O   UNL A   1      34.054  31.253  28.035  1.00  0.00    -0.246 OA
BRANCH  29  31
ATOM     31  C   UNL A   1      35.983  29.921  28.283  1.00  0.00     0.060 A 
ATOM     32  C   UNL A   1      36.963  30.104  27.307  1.00  0.00     0.016 A 
ATOM     33  C   UNL A   1      36.323  29.434  29.544  1.00  0.00     0.016 A 
ATOM     34  C   UNL A   1      38.290  29.801  27.572  1.00  0.00     0.010 A 
ATOM     35  C   UNL A   1      37.661  29.126  29.816  1.00  0.00     0.010 A 
ATOM     36  C   UNL A   1      38.647  29.297  28.826  1.00  0.00    -0.014 A 
BRANCH  36  37
ATOM     37  C   UNL A   1      40.048  28.886  29.059  1.00  0.00     0.031 A 
ATOM     38  C   UNL A   1      40.986  29.820  29.763  1.00  0.00     0.074 A 
ATOM     39  C   UNL A   1      40.455  27.656  28.695  1.00  0.00     0.049 A 
ATOM     40  N   UNL A   1      42.264  29.687  29.997  1.00  0.00    -0.248 NA
ATOM     41  C   UNL A   1      40.404  31.072  30.274  1.00  0.00     0.031 C 
ATOM     42  C   UNL A   1      39.608  26.637  28.072  1.00  0.00     0.029 A 
ATOM     43  N   UNL A   1      41.681  27.054  28.806  1.00  0.00    -0.354 N 
ATOM     44  C   UNL A   1      42.649  30.846  30.657  1.00  0.00     0.074 A 
ATOM     45  C   UNL A   1      41.469  31.675  30.782  1.00  0.00     0.031 C 
ATOM     46  C   UNL A   1      40.342  25.533  27.858  1.00  0.00     0.029 A 
ATOM     47  C   UNL A   1      41.716  25.785  28.284  1.00  0.00     0.049 A 
ATOM     48  H   UNL A   1      42.460  27.489  29.219  1.00  0.00     0.167 HD
ATOM     49  C   UNL A   1      43.877  31.185  31.114  1.00  0.00     0.037 A 
ATOM     50  C   UNL A   1      42.750  24.936  28.137  1.00  0.00     0.037 A 
ATOM     51  C   UNL A   1      45.040  30.346  31.004  1.00  0.00     0.049 A 
ATOM     52  C   UNL A   1      44.115  25.361  28.597  1.00  0.00     0.074 A 
ATOM     53  C   UNL A   1      46.332  30.598  31.430  1.00  0.00     0.029 A 
ATOM     54  N   UNL A   1      45.048  29.084  30.427  1.00  0.00    -0.354 N 
ATOM     55  N   UNL A   1      44.478  26.475  29.187  1.00  0.00    -0.248 NA
ATOM     56  C   UNL A   1      45.217  24.418  28.361  1.00  0.00     0.031 C 
ATOM     57  C   UNL A   1      47.129  29.501  31.083  1.00  0.00     0.029 A 
ATOM     58  C   UNL A   1      46.325  28.551  30.472  1.00  0.00     0.049 A 
ATOM     59  H   UNL A   1      44.261  28.635  30.042  1.00  0.00     0.167 HD
ATOM     60  C   UNL A   1      45.845  26.363  29.403  1.00  0.00     0.074 A 
ATOM     61  C   UNL A   1      46.243  25.065  28.897  1.00  0.00     0.031 C 
ATOM     62  C   UNL A   1      46.697  27.257  29.964  1.00  0.00     0.037 A 
BRANCH  49  63
ATOM     63  C   UNL A   1      44.027  32.537  31.742  1.00  0.00     0.057 A 
ATOM     64  C   UNL A   1      44.284  33.684  30.981  1.00  0.00     0.134 A 
ATOM     65  C   UNL A   1      43.895  32.693  33.128  1.00  0.00     0.134 A 
ATOM     66  F   UNL A   1      44.440  33.596  29.652  1.00  0.00    -0.206 F 
ATOM     67  C   UNL A   1      44.422  34.938  31.579  1.00  0.00     0.040 A 
ATOM     68  C   UNL A   1      44.010  33.945  33.734  1.00  0.00     0.040 A 
ATOM     69  F   UNL A   1      43.648  31.634  33.912  1.00  0.00    -0.206 F 
ATOM     70  C   UNL A   1      44.279  35.072  32.960  1.00  0.00     0.006 A 
ENDBRANCH  49  63
BRANCH  50  71
ATOM     71  C   UNL A   1      42.539  23.614  27.497  1.00  0.00     0.057 A 
ATOM     72  C   UNL A   1      42.249  22.478  28.259  1.00  0.00     0.134 A 
ATOM     73  C   UNL A   1      42.629  23.457  26.108  1.00  0.00     0.134 A 
ATOM     74  F   UNL A   1      42.174  22.563  29.595  1.00  0.00    -0.206 F 
ATOM     75  C   UNL A   1      42.065  21.229  27.664  1.00  0.00     0.040 A 
ATOM     76  C   UNL A   1      42.422  22.219  25.498  1.00  0.00     0.040 A 
ATOM     77  F   UNL A   1      42.905  24.509  25.324  1.00  0.00    -0.206 F 
ATOM     78  C   UNL A   1      42.145  21.099  26.278  1.00  0.00     0.006 A 
ENDBRANCH  50  71
BRANCH  62  79
ATOM     79  C   UNL A   1      48.132  26.845  30.078  1.00  0.00     0.057 A 
ATOM     80  C   UNL A   1      48.592  26.078  31.155  1.00  0.00     0.134 A 
ATOM     81  C   UNL A   1      49.056  27.193  29.085  1.00  0.00     0.134 A 
ATOM     82  F   UNL A   1      47.758  25.726  32.145  1.00  0.00    -0.206 F 
ATOM     83  C   UNL A   1      49.928  25.686  31.249  1.00  0.00     0.040 A 
ATOM     84  C   UNL A   1      50.389  26.790  29.158  1.00  0.00     0.040 A 
ATOM     85  F   UNL A   1      48.674  27.922  28.026  1.00  0.00    -0.206 F 
ATOM     86  C   UNL A   1      50.829  26.037  30.245  1.00  0.00     0.006 A 
ENDBRANCH  62  79
ENDBRANCH  36  37
ENDBRANCH  29  31
ENDBRANCH  28  29
ENDBRANCH  27  28
ENDBRANCH  26  27
ENDBRANCH  25  26
ENDBRANCH   1  25
TORSDOF 17
ENDMDL
MODEL 2
REMARK VINA RESULT:     -10.6      2.159      7.326
REMARK SMILES CCCCC(=O)Nc1ccc(C(=O)N2CCC[C@H](C(=O)OCCOC(=O)c3ccc(-c4c5nc(c(-c6c(F)cccc6F)c6ccc([nH]6)c(-c6c(F)cccc6F)c6nc(c(-c7c(F)cccc7F)c7ccc4[nH]7)C=C6)C=C5)cc3)C2)cc1
REMARK SMILES IDX 19 1 20 2 18 3 14 4 15 5 81 6 16 7 17 8 12 9 13 10 11 11
REMARK SMILES IDX 8 12 9 13 83 14 10 15 82 16 7 17 5 18 6 19 4 21 3 22 2 23
REMARK SMILES IDX 1 24 21 25 22 26 23 27 24 28 25 29 26 30 27 31 28 32 80 33
REMARK SMILES IDX 29 34 79 35 30 36 31 37 32 38 73 39 33 40 78 41 72 42 74 43
REMARK SMILES IDX 34 44 77 45 71 46 70 47 35 49 61 50 44 51 60 52 45 53 48 54
REMARK SMILES IDX 59 55 75 56 46 57 47 58 58 60 76 61 49 62 36 63 37 64 42 65
REMARK SMILES IDX 38 66 39 67 41 68 43 69 40 70 62 71 63 72 68 73 64 74 65 75
REMARK SMILES IDX 67 76 69 77 66 78 50 79 51 80 56 81 52 82 53 83 55 84 57 85
REMARK SMILES IDX 54 86
REMARK H PARENT 7 20 74 48 48 59
REMARK Flexibility Score: inf
ROOT
ATOM      1  C   UNL A   1      35.365  21.457  25.806  1.00  0.00     0.310 C 
ATOM      2  O   UNL A   1      34.920  21.454  26.950  1.00  0.00    -0.252 OA
ENDROOT
BRANCH   1   3
ATOM      3  C   UNL A   1      34.510  21.057  24.615  1.00  0.00     0.119 C 
ATOM      4  N   UNL A   1      33.469  23.239  24.148  1.00  0.00    -0.338 N 
ATOM      5  C   UNL A   1      32.123  22.728  24.389  1.00  0.00     0.120 C 
ATOM      6  C   UNL A   1      34.431  22.254  23.676  1.00  0.00     0.135 C 
ATOM      7  C   UNL A   1      32.114  21.537  25.340  1.00  0.00     0.022 C 
ATOM      8  C   UNL A   1      33.130  20.473  24.929  1.00  0.00     0.019 C 
BRANCH   4   9
ATOM      9  C   UNL A   1      33.845  24.437  24.754  1.00  0.00     0.253 C 
ATOM     10  O   UNL A   1      34.098  24.500  25.956  1.00  0.00    -0.269 OA
BRANCH   9  11
ATOM     11  C   UNL A   1      33.660  25.712  23.981  1.00  0.00     0.040 A 
ATOM     12  C   UNL A   1      32.714  28.103  22.877  1.00  0.00     0.041 A 
ATOM     13  C   UNL A   1      33.223  28.109  24.170  1.00  0.00     0.027 A 
ATOM     14  C   UNL A   1      32.828  26.969  22.084  1.00  0.00     0.027 A 
ATOM     15  C   UNL A   1      33.690  26.909  24.721  1.00  0.00     0.016 A 
ATOM     16  C   UNL A   1      33.287  25.775  22.637  1.00  0.00     0.016 A 
BRANCH  12  17
ATOM     17  N   UNL A   1      32.026  29.211  22.374  1.00  0.00    -0.326 N 
ATOM     18  C   UNL A   1      30.651  29.300  22.352  1.00  0.00     0.224 C 
ATOM     19  O   UNL A   1      30.085  29.897  21.437  1.00  0.00    -0.275 OA
ATOM     20  H   UNL A   1      32.550  29.965  22.018  1.00  0.00     0.169 HD
BRANCH  18  21
ATOM     21  C   UNL A   1      29.884  28.768  23.563  1.00  0.00     0.100 C 
BRANCH  21  22
ATOM     22  C   UNL A   1      29.057  27.498  23.343  1.00  0.00     0.010 C 
BRANCH  22  23
ATOM     23  C   UNL A   1      29.652  26.166  23.822  1.00  0.00    -0.003 C 
ATOM     24  C   UNL A   1      30.108  26.124  25.272  1.00  0.00     0.004 C 
ENDBRANCH  22  23
ENDBRANCH  21  22
ENDBRANCH  18  21
ENDBRANCH  12  17
ENDBRANCH   9  11
ENDBRANCH   4   9
ENDBRANCH   1   3
BRANCH   1  25
ATOM     25  O   UNL A   1      36.631  21.792  25.470  1.00  0.00    -0.462 OA
BRANCH  25  26
ATOM     26  C   UNL A   1      37.481  20.733  24.999  1.00  0.00     0.274 C 
BRANCH  26  27
ATOM     27  C   UNL A   1      38.833  20.760  25.714  1.00  0.00     0.275 C 
BRANCH  27  28
ATOM     28  O   UNL A   1      39.601  19.573  25.438  1.00  0.00    -0.458 OA
BRANCH  28  29
ATOM     29  C   UNL A   1      40.837  19.549  25.988  1.00  0.00     0.338 C 
ATOM     30  O   UNL A   1      41.655  18.647  25.947  1.00  0.00    -0.246 OA
BRANCH  29  31
ATOM     31  C   UNL A   1      41.155  20.874  26.538  1.00  0.00     0.060 A 
ATOM     32  C   UNL A   1      41.451  21.895  25.633  1.00  0.00     0.016 A 
ATOM     33  C   UNL A   1      41.253  21.094  27.910  1.00  0.00     0.016 A 
ATOM     34  C   UNL A   1      41.852  23.144  26.085  1.00  0.00     0.010 A 
ATOM     35  C   UNL A   1      41.658  22.353  28.369  1.00  0.00     0.010 A 
ATOM     36  C   UNL A   1      41.970  23.378  27.457  1.00  0.00    -0.014 A 
BRANCH  36  37
ATOM     37  C   UNL A   1      42.493  24.683  27.916  1.00  0.00     0.031 A 
ATOM     38  C   UNL A   1      41.536  25.762  28.323  1.00  0.00     0.074 A 
ATOM     39  C   UNL A   1      43.821  24.870  28.027  1.00  0.00     0.049 A 
ATOM     40  N   UNL A   1      41.782  26.994  28.680  1.00  0.00    -0.248 NA
ATOM     41  C   UNL A   1      40.108  25.404  28.332  1.00  0.00     0.031 C 
ATOM     42  C   UNL A   1      44.844  23.865  27.731  1.00  0.00     0.029 A 
ATOM     43  N   UNL A   1      44.535  25.970  28.425  1.00  0.00    -0.354 N 
ATOM     44  C   UNL A   1      40.544  27.569  28.929  1.00  0.00     0.074 A 
ATOM     45  C   UNL A   1      39.545  26.552  28.677  1.00  0.00     0.031 C 
ATOM     46  C   UNL A   1      46.055  24.396  27.962  1.00  0.00     0.029 A 
ATOM     47  C   UNL A   1      45.895  25.787  28.373  1.00  0.00     0.049 A 
ATOM     48  H   UNL A   1      44.115  26.809  28.719  1.00  0.00     0.167 HD
ATOM     49  C   UNL A   1      40.269  28.832  29.330  1.00  0.00     0.037 A 
ATOM     50  C   UNL A   1      46.896  26.658  28.601  1.00  0.00     0.037 A 
ATOM     51  C   UNL A   1      41.269  29.831  29.597  1.00  0.00     0.049 A 
ATOM     52  C   UNL A   1      46.562  28.071  28.985  1.00  0.00     0.074 A 
ATOM     53  C   UNL A   1      41.095  31.142  30.004  1.00  0.00     0.029 A 
ATOM     54  N   UNL A   1      42.637  29.624  29.490  1.00  0.00    -0.354 N 
ATOM     55  N   UNL A   1      45.386  28.617  29.181  1.00  0.00    -0.248 NA
ATOM     56  C   UNL A   1      47.692  28.992  29.166  1.00  0.00     0.031 C 
ATOM     57  C   UNL A   1      42.357  31.738  30.112  1.00  0.00     0.029 A 
ATOM     58  C   UNL A   1      43.318  30.786  29.807  1.00  0.00     0.049 A 
ATOM     59  H   UNL A   1      43.059  28.774  29.227  1.00  0.00     0.167 HD
ATOM     60  C   UNL A   1      45.634  29.941  29.521  1.00  0.00     0.074 A 
ATOM     61  C   UNL A   1      47.073  30.110  29.520  1.00  0.00     0.031 C 
ATOM     62  C   UNL A   1      44.750  30.930  29.801  1.00  0.00     0.037 A 
BRANCH  49  63
ATOM     63  C   UNL A   1      38.825  29.211  29.465  1.00  0.00     0.057 A 
ATOM     64  C   UNL A   1      38.076  29.678  28.379  1.00  0.00     0.134 A 
ATOM     65  C   UNL A   1      38.174  29.088  30.699  1.00  0.00     0.134 A 
ATOM     66  F   UNL A   1      38.648  29.835  27.176  1.00  0.00    -0.206 F 
ATOM     67  C   UNL A   1      36.732  30.027  28.519  1.00  0.00     0.040 A 
ATOM     68  C   UNL A   1      36.825  29.416  30.847  1.00  0.00     0.040 A 
ATOM     69  F   UNL A   1      38.836  28.647  31.778  1.00  0.00    -0.206 F 
ATOM     70  C   UNL A   1      36.100  29.891  29.756  1.00  0.00     0.006 A 
ENDBRANCH  49  63
BRANCH  50  71
ATOM     71  C   UNL A   1      48.306  26.225  28.439  1.00  0.00     0.057 A 
ATOM     72  C   UNL A   1      49.033  25.706  29.516  1.00  0.00     0.134 A 
ATOM     73  C   UNL A   1      48.960  26.326  27.205  1.00  0.00     0.134 A 
ATOM     74  F   UNL A   1      48.466  25.607  30.727  1.00  0.00    -0.206 F 
ATOM     75  C   UNL A   1      50.364  25.311  29.373  1.00  0.00     0.040 A 
ATOM     76  C   UNL A   1      50.282  25.912  27.043  1.00  0.00     0.040 A 
ATOM     77  F   UNL A   1      48.316  26.816  26.136  1.00  0.00    -0.206 F 
ATOM     78  C   UNL A   1      50.990  25.408  28.131  1.00  0.00     0.006 A 
ENDBRANCH  50  71
BRANCH  62  79
ATOM     79  C   UNL A   1      45.321  32.269  30.152  1.00  0.00     0.057 A 
ATOM     80  C   UNL A   1      45.674  32.594  31.468  1.00  0.00     0.134 A 
ATOM     81  C   UNL A   1      45.549  33.231  29.160  1.00  0.00     0.134 A 
ATOM     82  F   UNL A   1      45.467  31.720  32.463  1.00  0.00    -0.206 F 
ATOM     83  C   UNL A   1      46.219  33.839  31.787  1.00  0.00     0.040 A 
ATOM     84  C   UNL A   1      46.111  34.471  29.464  1.00  0.00     0.040 A 
ATOM     85  F   UNL A   1      45.236  32.976  27.881  1.00  0.00    -0.206 F 
ATOM     86  C   UNL A   1      46.443  34.779  30.782  1.00  0.00     0.006 A 
ENDBRANCH  62  79
ENDBRANCH  36  37
ENDBRANCH  29  31
ENDBRANCH  28  29
ENDBRANCH  27  28
ENDBRANCH  26  27
ENDBRANCH  25  26
ENDBRANCH   1  25
TORSDOF 17
ENDMDL
MODEL 3
REMARK VINA RESULT:     -10.5      3.349      7.040
REMARK SMILES CCCCC(=O)Nc1ccc(C(=O)N2CCC[C@H](C(=O)OCCOC(=O)c3ccc(-c4c5nc(c(-c6c(F)cccc6F)c6ccc([nH]6)c(-c6c(F)cccc6F)c6nc(c(-c7c(F)cccc7F)c7ccc4[nH]7)C=C6)C=C5)cc3)C2)cc1
REMARK SMILES IDX 19 1 20 2 18 3 14 4 15 5 81 6 16 7 17 8 12 9 13 10 11 11
REMARK SMILES IDX 8 12 9 13 83 14 10 15 82 16 7 17 5 18 6 19 4 21 3 22 2 23
REMARK SMILES IDX 1 24 21 25 22 26 23 27 24 28 25 29 26 30 27 31 28 32 80 33
REMARK SMILES IDX 29 34 79 35 30 36 31 37 32 38 73 39 33 40 78 41 72 42 74 43
REMARK SMILES IDX 34 44 77 45 71 46 70 47 35 49 61 50 44 51 60 52 45 53 48 54
REMARK SMILES IDX 59 55 75 56 46 57 47 58 58 60 76 61 49 62 36 63 37 64 42 65
REMARK SMILES IDX 38 66 39 67 41 68 43 69 40 70 62 71 63 72 68 73 64 74 65 75
REMARK SMILES IDX 67 76 69 77 66 78 50 79 51 80 56 81 52 82 53 83 55 84 57 85
REMARK SMILES IDX 54 86
REMARK H PARENT 7 20 74 48 48 59
REMARK Flexibility Score: inf
ROOT
ATOM      1  C   UNL A   1      31.409  28.797  25.385  1.00  0.00     0.310 C 
ATOM      2  O   UNL A   1      31.222  28.299  26.492  1.00  0.00    -0.252 OA
ENDROOT
BRANCH   1   3
ATOM      3  C   UNL A   1      31.201  28.000  24.107  1.00  0.00     0.119 C 
ATOM      4  N   UNL A   1      32.745  26.139  24.567  1.00  0.00    -0.338 N 
ATOM      5  C   UNL A   1      33.572  26.445  23.404  1.00  0.00     0.120 C 
ATOM      6  C   UNL A   1      31.346  26.523  24.452  1.00  0.00     0.135 C 
ATOM      7  C   UNL A   1      33.498  27.914  23.007  1.00  0.00     0.022 C 
ATOM      8  C   UNL A   1      32.054  28.402  22.902  1.00  0.00     0.019 C 
BRANCH   4   9
ATOM      9  C   UNL A   1      33.373  25.921  25.792  1.00  0.00     0.253 C 
ATOM     10  O   UNL A   1      34.054  26.791  26.332  1.00  0.00    -0.269 OA
BRANCH   9  11
ATOM     11  C   UNL A   1      33.449  24.513  26.311  1.00  0.00     0.040 A 
ATOM     12  C   UNL A   1      33.537  21.732  26.611  1.00  0.00     0.041 A 
ATOM     13  C   UNL A   1      34.673  22.402  26.174  1.00  0.00     0.027 A 
ATOM     14  C   UNL A   1      32.430  22.443  27.055  1.00  0.00     0.027 A 
ATOM     15  C   UNL A   1      34.623  23.794  26.020  1.00  0.00     0.016 A 
ATOM     16  C   UNL A   1      32.381  23.827  26.894  1.00  0.00     0.016 A 
BRANCH  12  17
ATOM     17  N   UNL A   1      33.464  20.337  26.555  1.00  0.00    -0.326 N 
ATOM     18  C   UNL A   1      32.950  19.651  25.477  1.00  0.00     0.224 C 
ATOM     19  O   UNL A   1      32.346  18.592  25.648  1.00  0.00    -0.275 OA
ATOM     20  H   UNL A   1      33.796  19.820  27.324  1.00  0.00     0.169 HD
BRANCH  18  21
ATOM     21  C   UNL A   1      33.282  20.170  24.078  1.00  0.00     0.100 C 
BRANCH  21  22
ATOM     22  C   UNL A   1      32.198  20.998  23.381  1.00  0.00     0.010 C 
BRANCH  22  23
ATOM     23  C   UNL A   1      32.483  22.486  23.134  1.00  0.00    -0.003 C 
ATOM     24  C   UNL A   1      31.266  23.368  22.902  1.00  0.00     0.004 C 
ENDBRANCH  22  23
ENDBRANCH  21  22
ENDBRANCH  18  21
ENDBRANCH  12  17
ENDBRANCH   9  11
ENDBRANCH   4   9
ENDBRANCH   1   3
BRANCH   1  25
ATOM     25  O   UNL A   1      31.822  30.065  25.167  1.00  0.00    -0.462 OA
BRANCH  25  26
ATOM     26  C   UNL A   1      30.825  31.097  25.256  1.00  0.00     0.274 C 
BRANCH  26  27
ATOM     27  C   UNL A   1      31.167  32.090  26.368  1.00  0.00     0.275 C 
BRANCH  27  28
ATOM     28  O   UNL A   1      32.410  31.755  27.013  1.00  0.00    -0.458 OA
BRANCH  28  29
ATOM     29  C   UNL A   1      33.081  32.804  27.544  1.00  0.00     0.338 C 
ATOM     30  O   UNL A   1      32.684  33.947  27.691  1.00  0.00    -0.246 OA
BRANCH  29  31
ATOM     31  C   UNL A   1      34.361  32.339  28.094  1.00  0.00     0.060 A 
ATOM     32  C   UNL A   1      34.446  31.005  28.497  1.00  0.00     0.016 A 
ATOM     33  C   UNL A   1      35.430  33.209  28.301  1.00  0.00     0.016 A 
ATOM     34  C   UNL A   1      35.592  30.524  29.113  1.00  0.00     0.010 A 
ATOM     35  C   UNL A   1      36.588  32.728  28.923  1.00  0.00     0.010 A 
ATOM     36  C   UNL A   1      36.668  31.387  29.341  1.00  0.00    -0.014 A 
BRANCH  36  37
ATOM     37  C   UNL A   1      37.841  30.882  30.086  1.00  0.00     0.031 A 
ATOM     38  C   UNL A   1      38.807  29.958  29.408  1.00  0.00     0.074 A 
ATOM     39  C   UNL A   1      38.068  31.305  31.343  1.00  0.00     0.049 A 
ATOM     40  N   UNL A   1      39.850  29.345  29.901  1.00  0.00    -0.248 NA
ATOM     41  C   UNL A   1      38.566  29.689  27.981  1.00  0.00     0.031 C 
ATOM     42  C   UNL A   1      37.237  32.262  32.076  1.00  0.00     0.029 A 
ATOM     43  N   UNL A   1      39.071  30.989  32.222  1.00  0.00    -0.354 N 
ATOM     44  C   UNL A   1      40.376  28.596  28.858  1.00  0.00     0.074 A 
ATOM     45  C   UNL A   1      39.534  28.828  27.703  1.00  0.00     0.031 C 
ATOM     46  C   UNL A   1      37.768  32.457  33.293  1.00  0.00     0.029 A 
ATOM     47  C   UNL A   1      38.944  31.605  33.442  1.00  0.00     0.049 A 
ATOM     48  H   UNL A   1      39.811  30.379  32.000  1.00  0.00     0.167 HD
ATOM     49  C   UNL A   1      41.462  27.790  28.865  1.00  0.00     0.037 A 
ATOM     50  C   UNL A   1      39.677  31.469  34.562  1.00  0.00     0.037 A 
ATOM     51  C   UNL A   1      42.306  27.581  30.012  1.00  0.00     0.049 A 
ATOM     52  C   UNL A   1      40.841  30.520  34.563  1.00  0.00     0.074 A 
ATOM     53  C   UNL A   1      43.428  26.780  30.126  1.00  0.00     0.029 A 
ATOM     54  N   UNL A   1      42.119  28.187  31.247  1.00  0.00    -0.354 N 
ATOM     55  N   UNL A   1      41.310  29.787  33.582  1.00  0.00    -0.248 NA
ATOM     56  C   UNL A   1      41.572  30.369  35.829  1.00  0.00     0.031 C 
ATOM     57  C   UNL A   1      43.903  26.877  31.440  1.00  0.00     0.029 A 
ATOM     58  C   UNL A   1      43.096  27.767  32.132  1.00  0.00     0.049 A 
ATOM     59  H   UNL A   1      41.398  28.823  31.460  1.00  0.00     0.167 HD
ATOM     60  C   UNL A   1      42.395  29.098  34.106  1.00  0.00     0.074 A 
ATOM     61  C   UNL A   1      42.526  29.513  35.488  1.00  0.00     0.031 C 
ATOM     62  C   UNL A   1      43.207  28.196  33.502  1.00  0.00     0.037 A 
BRANCH  49  63
ATOM     63  C   UNL A   1      41.774  27.045  27.603  1.00  0.00     0.057 A 
ATOM     64  C   UNL A   1      42.569  27.599  26.592  1.00  0.00     0.134 A 
ATOM     65  C   UNL A   1      41.284  25.748  27.406  1.00  0.00     0.134 A 
ATOM     66  F   UNL A   1      43.052  28.845  26.713  1.00  0.00    -0.206 F 
ATOM     67  C   UNL A   1      42.852  26.895  25.421  1.00  0.00     0.040 A 
ATOM     68  C   UNL A   1      41.577  25.027  26.248  1.00  0.00     0.040 A 
ATOM     69  F   UNL A   1      40.517  25.162  28.336  1.00  0.00    -0.206 F 
ATOM     70  C   UNL A   1      42.360  25.602  25.248  1.00  0.00     0.006 A 
ENDBRANCH  49  63
BRANCH  50  71
ATOM     71  C   UNL A   1      39.310  32.226  35.785  1.00  0.00     0.057 A 
ATOM     72  C   UNL A   1      39.842  33.495  36.038  1.00  0.00     0.134 A 
ATOM     73  C   UNL A   1      38.424  31.694  36.730  1.00  0.00     0.134 A 
ATOM     74  F   UNL A   1      40.713  34.045  35.180  1.00  0.00    -0.206 F 
ATOM     75  C   UNL A   1      39.512  34.205  37.193  1.00  0.00     0.040 A 
ATOM     76  C   UNL A   1      38.067  32.404  37.877  1.00  0.00     0.040 A 
ATOM     77  F   UNL A   1      37.882  30.482  36.543  1.00  0.00    -0.206 F 
ATOM     78  C   UNL A   1      38.617  33.662  38.113  1.00  0.00     0.006 A 
ENDBRANCH  50  71
BRANCH  62  79
ATOM     79  C   UNL A   1      44.317  27.623  34.328  1.00  0.00     0.057 A 
ATOM     80  C   UNL A   1      44.163  26.422  35.031  1.00  0.00     0.134 A 
ATOM     81  C   UNL A   1      45.562  28.261  34.394  1.00  0.00     0.134 A 
ATOM     82  F   UNL A   1      42.990  25.772  35.018  1.00  0.00    -0.206 F 
ATOM     83  C   UNL A   1      45.205  25.885  35.788  1.00  0.00     0.040 A 
ATOM     84  C   UNL A   1      46.617  27.723  35.131  1.00  0.00     0.040 A 
ATOM     85  F   UNL A   1      45.772  29.411  33.736  1.00  0.00    -0.206 F 
ATOM     86  C   UNL A   1      46.438  26.534  35.834  1.00  0.00     0.006 A 
ENDBRANCH  62  79
ENDBRANCH  36  37
ENDBRANCH  29  31
ENDBRANCH  28  29
ENDBRANCH  27  28
ENDBRANCH  26  27
ENDBRANCH  25  26
ENDBRANCH   1  25
TORSDOF 17
ENDMDL
