MODEL 1
REMARK VINA RESULT:      -9.9      0.000      0.000
REMARK SMILES O=C(CCc1cccnc1)Nc1ccsc1C(=O)OCCOC(=O)c1ccc(-c2c3nc(c(-c4c(F)cccc4F)c4ccc([nH]4)c(-c4c(F)cccc4F)c4nc(c(-c5c(F)cccc5F)c5ccc2[nH]5)C=C4)C=C3)cc1
REMARK SMILES IDX 20 1 19 2 17 3 18 4 16 5 12 6 13 7 14 8 15 9 11 10 1 11 2 12
REMARK SMILES IDX 3 14 4 15 5 16 6 17 10 18 7 19 9 20 8 21 21 22 22 23 23 24
REMARK SMILES IDX 24 25 25 26 26 27 78 28 27 29 77 30 28 31 29 32 30 33 71 34
REMARK SMILES IDX 31 35 76 36 70 37 72 38 32 39 75 40 69 41 68 42 33 44 59 45
REMARK SMILES IDX 42 46 58 47 43 48 46 49 57 50 73 51 44 52 45 53 56 55 74 56
REMARK SMILES IDX 47 57 34 58 35 59 40 60 36 61 37 62 39 63 41 64 38 65 60 66
REMARK SMILES IDX 61 67 66 68 62 69 63 70 65 71 67 72 64 73 48 74 49 75 54 76
REMARK SMILES IDX 50 77 51 78 53 79 55 80 52 81
REMARK H PARENT 11 13 72 43 46 54
REMARK Flexibility Score: inf
ROOT
ATOM      1  C   UNL A   1      33.661  33.415  28.386  1.00  0.00     0.275 C 
ENDROOT
BRANCH   1   2
ATOM      2  O   UNL A   1      34.443  34.195  29.326  1.00  0.00    -0.458 OA
BRANCH   2   3
ATOM      3  C   UNL A   1      34.247  33.933  30.664  1.00  0.00     0.350 C 
ATOM      4  O   UNL A   1      34.224  32.814  31.142  1.00  0.00    -0.245 OA
BRANCH   3   5
ATOM      5  C   UNL A   1      34.080  35.178  31.401  1.00  0.00     0.136 A 
ATOM      6  C   UNL A   1      34.721  35.663  32.533  1.00  0.00     0.066 A 
ATOM      7  C   UNL A   1      34.029  36.782  33.088  1.00  0.00     0.039 A 
ATOM      8  C   UNL A   1      33.027  37.235  32.259  1.00  0.00     0.068 A 
ATOM      9  S   UNL A   1      32.897  36.292  30.843  1.00  0.00    -0.135 S 
BRANCH   6  10
ATOM     10  N   UNL A   1      35.921  35.152  33.010  1.00  0.00    -0.325 N 
ATOM     11  O   UNL A   1      35.135  33.442  34.359  1.00  0.00    -0.275 OA
ATOM     12  C   UNL A   1      36.058  34.088  33.875  1.00  0.00     0.224 C 
ATOM     13  H   UNL A   1      36.748  35.589  32.703  1.00  0.00     0.169 HD
BRANCH  12  14
ATOM     14  C   UNL A   1      37.517  33.719  34.142  1.00  0.00     0.105 C 
BRANCH  14  15
ATOM     15  C   UNL A   1      38.099  32.702  33.142  1.00  0.00     0.047 C 
BRANCH  15  16
ATOM     16  C   UNL A   1      38.279  33.214  31.728  1.00  0.00    -0.029 A 
ATOM     17  C   UNL A   1      37.660  32.606  30.644  1.00  0.00     0.007 A 
ATOM     18  C   UNL A   1      39.109  34.281  31.413  1.00  0.00     0.114 A 
ATOM     19  C   UNL A   1      37.777  33.097  29.349  1.00  0.00     0.020 A 
ATOM     20  N   UNL A   1      39.292  34.766  30.158  1.00  0.00    -0.264 NA
ATOM     21  C   UNL A   1      38.611  34.172  29.155  1.00  0.00     0.111 A 
ENDBRANCH  15  16
ENDBRANCH  14  15
ENDBRANCH  12  14
ENDBRANCH   6  10
ENDBRANCH   3   5
ENDBRANCH   2   3
ENDBRANCH   1   2
BRANCH   1  22
ATOM     22  C   UNL A   1      34.492  32.310  27.730  1.00  0.00     0.275 C 
BRANCH  22  23
ATOM     23  O   UNL A   1      34.522  31.177  28.604  1.00  0.00    -0.458 OA
BRANCH  23  24
ATOM     24  C   UNL A   1      34.858  30.022  27.991  1.00  0.00     0.338 C 
ATOM     25  O   UNL A   1      34.234  29.404  27.149  1.00  0.00    -0.246 OA
BRANCH  24  26
ATOM     26  C   UNL A   1      36.263  29.772  28.311  1.00  0.00     0.060 A 
ATOM     27  C   UNL A   1      37.184  29.979  27.285  1.00  0.00     0.016 A 
ATOM     28  C   UNL A   1      36.663  29.328  29.567  1.00  0.00     0.016 A 
ATOM     29  C   UNL A   1      38.527  29.703  27.490  1.00  0.00     0.010 A 
ATOM     30  C   UNL A   1      38.014  29.057  29.779  1.00  0.00     0.010 A 
ATOM     31  C   UNL A   1      38.945  29.218  28.733  1.00  0.00    -0.014 A 
BRANCH  31  32
ATOM     32  C   UNL A   1      40.341  28.763  28.909  1.00  0.00     0.031 A 
ATOM     33  C   UNL A   1      41.350  29.727  29.460  1.00  0.00     0.074 A 
ATOM     34  C   UNL A   1      40.689  27.504  28.595  1.00  0.00     0.049 A 
ATOM     35  N   UNL A   1      42.648  29.610  29.542  1.00  0.00    -0.248 NA
ATOM     36  C   UNL A   1      40.824  31.004  29.972  1.00  0.00     0.031 C 
ATOM     37  C   UNL A   1      39.774  26.467  28.114  1.00  0.00     0.029 A 
ATOM     38  N   UNL A   1      41.912  26.885  28.625  1.00  0.00    -0.354 N 
ATOM     39  C   UNL A   1      43.099  30.812  30.073  1.00  0.00     0.074 A 
ATOM     40  C   UNL A   1      41.938  31.648  30.288  1.00  0.00     0.031 C 
ATOM     41  C   UNL A   1      40.471  25.342  27.886  1.00  0.00     0.029 A 
ATOM     42  C   UNL A   1      41.884  25.599  28.148  1.00  0.00     0.049 A 
ATOM     43  H   UNL A   1      42.730  27.321  28.955  1.00  0.00     0.167 HD
ATOM     44  C   UNL A   1      44.371  31.179  30.351  1.00  0.00     0.037 A 
ATOM     45  C   UNL A   1      42.894  24.742  27.910  1.00  0.00     0.037 A 
ATOM     46  C   UNL A   1      45.510  30.319  30.165  1.00  0.00     0.049 A 
ATOM     47  C   UNL A   1      44.302  25.186  28.193  1.00  0.00     0.074 A 
ATOM     48  C   UNL A   1      46.841  30.579  30.433  1.00  0.00     0.029 A 
ATOM     49  N   UNL A   1      45.443  29.024  29.672  1.00  0.00    -0.354 N 
ATOM     50  N   UNL A   1      44.727  26.333  28.667  1.00  0.00    -0.248 NA
ATOM     51  C   UNL A   1      45.372  24.224  27.899  1.00  0.00     0.031 C 
ATOM     52  C   UNL A   1      47.586  29.453  30.064  1.00  0.00     0.029 A 
ATOM     53  C   UNL A   1      46.712  28.476  29.611  1.00  0.00     0.049 A 
ATOM     54  H   UNL A   1      44.615  28.563  29.405  1.00  0.00     0.167 HD
ATOM     55  C   UNL A   1      46.109  26.227  28.744  1.00  0.00     0.074 A 
ATOM     56  C   UNL A   1      46.449  24.894  28.284  1.00  0.00     0.031 C 
ATOM     57  C   UNL A   1      47.018  27.146  29.153  1.00  0.00     0.037 A 
BRANCH  44  58
ATOM     58  C   UNL A   1      44.598  32.577  30.845  1.00  0.00     0.057 A 
ATOM     59  C   UNL A   1      44.863  33.643  29.976  1.00  0.00     0.134 A 
ATOM     60  C   UNL A   1      44.527  32.863  32.215  1.00  0.00     0.134 A 
ATOM     61  F   UNL A   1      44.964  33.434  28.655  1.00  0.00    -0.206 F 
ATOM     62  C   UNL A   1      45.068  34.939  30.454  1.00  0.00     0.040 A 
ATOM     63  C   UNL A   1      44.704  34.159  32.702  1.00  0.00     0.040 A 
ATOM     64  F   UNL A   1      44.277  31.888  33.102  1.00  0.00    -0.206 F 
ATOM     65  C   UNL A   1      44.981  35.201  31.820  1.00  0.00     0.006 A 
ENDBRANCH  44  58
BRANCH  45  66
ATOM     66  C   UNL A   1      42.613  23.402  27.337  1.00  0.00     0.057 A 
ATOM     67  C   UNL A   1      42.282  22.316  28.155  1.00  0.00     0.134 A 
ATOM     68  C   UNL A   1      42.669  23.174  25.955  1.00  0.00     0.134 A 
ATOM     69  F   UNL A   1      42.235  22.465  29.486  1.00  0.00    -0.206 F 
ATOM     70  C   UNL A   1      42.031  21.050  27.624  1.00  0.00     0.040 A 
ATOM     71  C   UNL A   1      42.393  21.920  25.408  1.00  0.00     0.040 A 
ATOM     72  F   UNL A   1      42.977  24.173  25.115  1.00  0.00    -0.206 F 
ATOM     73  C   UNL A   1      42.079  20.852  26.244  1.00  0.00     0.006 A 
ENDBRANCH  45  66
BRANCH  57  74
ATOM     74  C   UNL A   1      48.456  26.726  29.147  1.00  0.00     0.057 A 
ATOM     75  C   UNL A   1      49.303  27.009  28.068  1.00  0.00     0.134 A 
ATOM     76  C   UNL A   1      49.008  26.063  30.251  1.00  0.00     0.134 A 
ATOM     77  F   UNL A   1      48.829  27.630  26.977  1.00  0.00    -0.206 F 
ATOM     78  C   UNL A   1      50.644  26.627  28.078  1.00  0.00     0.040 A 
ATOM     79  C   UNL A   1      50.354  25.698  30.282  1.00  0.00     0.040 A 
ATOM     80  F   UNL A   1      48.252  25.770  31.318  1.00  0.00    -0.206 F 
ATOM     81  C   UNL A   1      51.175  25.975  29.190  1.00  0.00     0.006 A 
ENDBRANCH  57  74
ENDBRANCH  31  32
ENDBRANCH  24  26
ENDBRANCH  23  24
ENDBRANCH  22  23
ENDBRANCH   1  22
TORSDOF 15
ENDMDL
MODEL 2
REMARK VINA RESULT:      -9.9      5.220      9.666
REMARK SMILES O=C(CCc1cccnc1)Nc1ccsc1C(=O)OCCOC(=O)c1ccc(-c2c3nc(c(-c4c(F)cccc4F)c4ccc([nH]4)c(-c4c(F)cccc4F)c4nc(c(-c5c(F)cccc5F)c5ccc2[nH]5)C=C4)C=C3)cc1
REMARK SMILES IDX 20 1 19 2 17 3 18 4 16 5 12 6 13 7 14 8 15 9 11 10 1 11 2 12
REMARK SMILES IDX 3 14 4 15 5 16 6 17 10 18 7 19 9 20 8 21 21 22 22 23 23 24
REMARK SMILES IDX 24 25 25 26 26 27 78 28 27 29 77 30 28 31 29 32 30 33 71 34
REMARK SMILES IDX 31 35 76 36 70 37 72 38 32 39 75 40 69 41 68 42 33 44 59 45
REMARK SMILES IDX 42 46 58 47 43 48 46 49 57 50 73 51 44 52 45 53 56 55 74 56
REMARK SMILES IDX 47 57 34 58 35 59 40 60 36 61 37 62 39 63 41 64 38 65 60 66
REMARK SMILES IDX 61 67 66 68 62 69 63 70 65 71 67 72 64 73 48 74 49 75 54 76
REMARK SMILES IDX 50 77 51 78 53 79 55 80 52 81
REMARK H PARENT 11 13 72 43 46 54
REMARK Flexibility Score: inf
ROOT
ATOM      1  C   UNL A   1      31.961  29.330  24.954  1.00  0.00     0.275 C 
ENDROOT
BRANCH   1   2
ATOM      2  O   UNL A   1      32.510  28.222  25.713  1.00  0.00    -0.458 OA
BRANCH   2   3
ATOM      3  C   UNL A   1      31.624  27.245  26.113  1.00  0.00     0.350 C 
ATOM      4  O   UNL A   1      31.032  27.257  27.176  1.00  0.00    -0.245 OA
BRANCH   3   5
ATOM      5  C   UNL A   1      31.508  26.221  25.083  1.00  0.00     0.136 A 
ATOM      6  C   UNL A   1      30.458  25.892  24.237  1.00  0.00     0.066 A 
ATOM      7  C   UNL A   1      30.670  24.629  23.606  1.00  0.00     0.039 A 
ATOM      8  C   UNL A   1      31.942  24.148  23.823  1.00  0.00     0.068 A 
ATOM      9  S   UNL A   1      32.857  25.194  24.814  1.00  0.00    -0.135 S 
BRANCH   6  10
ATOM     10  N   UNL A   1      29.379  26.732  23.995  1.00  0.00    -0.325 N 
ATOM     11  O   UNL A   1      30.198  27.956  22.208  1.00  0.00    -0.275 OA
ATOM     12  C   UNL A   1      29.309  27.694  23.010  1.00  0.00     0.224 C 
ATOM     13  H   UNL A   1      28.593  26.631  24.579  1.00  0.00     0.169 HD
BRANCH  12  14
ATOM     14  C   UNL A   1      27.951  28.392  22.953  1.00  0.00     0.105 C 
BRANCH  14  15
ATOM     15  C   UNL A   1      27.959  29.825  23.519  1.00  0.00     0.047 C 
BRANCH  15  16
ATOM     16  C   UNL A   1      27.941  30.930  22.484  1.00  0.00    -0.029 A 
ATOM     17  C   UNL A   1      27.927  30.658  21.122  1.00  0.00     0.007 A 
ATOM     18  C   UNL A   1      27.995  32.276  22.818  1.00  0.00     0.114 A 
ATOM     19  C   UNL A   1      27.860  31.663  20.164  1.00  0.00     0.020 A 
ATOM     20  N   UNL A   1      27.981  33.291  21.915  1.00  0.00    -0.264 NA
ATOM     21  C   UNL A   1      27.899  32.962  20.609  1.00  0.00     0.111 A 
ENDBRANCH  15  16
ENDBRANCH  14  15
ENDBRANCH  12  14
ENDBRANCH   6  10
ENDBRANCH   3   5
ENDBRANCH   2   3
ENDBRANCH   1   2
BRANCH   1  22
ATOM     22  C   UNL A   1      31.631  30.528  25.847  1.00  0.00     0.275 C 
BRANCH  22  23
ATOM     23  O   UNL A   1      32.517  30.522  26.970  1.00  0.00    -0.458 OA
BRANCH  23  24
ATOM     24  C   UNL A   1      33.074  31.724  27.233  1.00  0.00     0.338 C 
ATOM     25  O   UNL A   1      32.540  32.817  27.244  1.00  0.00    -0.246 OA
BRANCH  24  26
ATOM     26  C   UNL A   1      34.401  31.459  27.786  1.00  0.00     0.060 A 
ATOM     27  C   UNL A   1      34.684  30.136  28.125  1.00  0.00     0.016 A 
ATOM     28  C   UNL A   1      35.331  32.474  27.986  1.00  0.00     0.016 A 
ATOM     29  C   UNL A   1      35.897  29.814  28.714  1.00  0.00     0.010 A 
ATOM     30  C   UNL A   1      36.555  32.151  28.570  1.00  0.00     0.010 A 
ATOM     31  C   UNL A   1      36.830  30.825  28.961  1.00  0.00    -0.014 A 
BRANCH  31  32
ATOM     32  C   UNL A   1      38.051  30.522  29.737  1.00  0.00     0.031 A 
ATOM     33  C   UNL A   1      39.104  29.654  29.114  1.00  0.00     0.074 A 
ATOM     34  C   UNL A   1      38.215  31.029  30.970  1.00  0.00     0.049 A 
ATOM     35  N   UNL A   1      40.166  29.121  29.657  1.00  0.00    -0.248 NA
ATOM     36  C   UNL A   1      38.928  29.331  27.688  1.00  0.00     0.031 C 
ATOM     37  C   UNL A   1      37.283  31.935  31.644  1.00  0.00     0.029 A 
ATOM     38  N   UNL A   1      39.222  30.845  31.881  1.00  0.00    -0.354 N 
ATOM     39  C   UNL A   1      40.759  28.364  28.655  1.00  0.00     0.074 A 
ATOM     40  C   UNL A   1      39.938  28.501  27.472  1.00  0.00     0.031 C 
ATOM     41  C   UNL A   1      37.759  32.221  32.866  1.00  0.00     0.029 A 
ATOM     42  C   UNL A   1      38.995  31.473  33.080  1.00  0.00     0.049 A 
ATOM     43  H   UNL A   1      40.029  30.313  31.694  1.00  0.00     0.167 HD
ATOM     44  C   UNL A   1      41.887  27.622  28.724  1.00  0.00     0.037 A 
ATOM     45  C   UNL A   1      39.686  31.413  34.233  1.00  0.00     0.037 A 
ATOM     46  C   UNL A   1      42.712  27.528  29.899  1.00  0.00     0.049 A 
ATOM     47  C   UNL A   1      40.917  30.552  34.295  1.00  0.00     0.074 A 
ATOM     48  C   UNL A   1      43.888  26.821  30.076  1.00  0.00     0.029 A 
ATOM     49  N   UNL A   1      42.445  28.173  31.098  1.00  0.00    -0.354 N 
ATOM     50  N   UNL A   1      41.459  29.816  33.354  1.00  0.00    -0.248 NA
ATOM     51  C   UNL A   1      41.628  30.505  35.579  1.00  0.00     0.031 C 
ATOM     52  C   UNL A   1      44.313  27.009  31.396  1.00  0.00     0.029 A 
ATOM     53  C   UNL A   1      43.425  27.869  32.026  1.00  0.00     0.049 A 
ATOM     54  H   UNL A   1      41.672  28.760  31.264  1.00  0.00     0.167 HD
ATOM     55  C   UNL A   1      42.580  29.231  33.925  1.00  0.00     0.074 A 
ATOM     56  C   UNL A   1      42.651  29.713  35.291  1.00  0.00     0.031 C 
ATOM     57  C   UNL A   1      43.471  28.368  33.376  1.00  0.00     0.037 A 
BRANCH  44  58
ATOM     58  C   UNL A   1      42.271  26.826  27.511  1.00  0.00     0.057 A 
ATOM     59  C   UNL A   1      43.099  27.346  26.508  1.00  0.00     0.134 A 
ATOM     60  C   UNL A   1      41.822  25.507  27.359  1.00  0.00     0.134 A 
ATOM     61  F   UNL A   1      43.548  28.608  26.582  1.00  0.00    -0.206 F 
ATOM     62  C   UNL A   1      43.450  26.589  25.387  1.00  0.00     0.040 A 
ATOM     63  C   UNL A   1      42.187  24.733  26.257  1.00  0.00     0.040 A 
ATOM     64  F   UNL A   1      41.027  24.949  28.283  1.00  0.00    -0.206 F 
ATOM     65  C   UNL A   1      43.000  25.276  25.264  1.00  0.00     0.006 A 
ENDBRANCH  44  58
BRANCH  45  66
ATOM     66  C   UNL A   1      39.208  32.155  35.426  1.00  0.00     0.057 A 
ATOM     67  C   UNL A   1      39.564  33.490  35.644  1.00  0.00     0.134 A 
ATOM     68  C   UNL A   1      38.381  31.545  36.380  1.00  0.00     0.134 A 
ATOM     69  F   UNL A   1      40.371  34.122  34.780  1.00  0.00    -0.206 F 
ATOM     70  C   UNL A   1      39.129  34.189  36.772  1.00  0.00     0.040 A 
ATOM     71  C   UNL A   1      37.916  32.239  37.497  1.00  0.00     0.040 A 
ATOM     72  F   UNL A   1      38.000  30.268  36.229  1.00  0.00    -0.206 F 
ATOM     73  C   UNL A   1      38.295  33.564  37.699  1.00  0.00     0.006 A 
ENDBRANCH  45  66
BRANCH  57  74
ATOM     74  C   UNL A   1      44.607  27.922  34.245  1.00  0.00     0.057 A 
ATOM     75  C   UNL A   1      44.531  26.755  35.016  1.00  0.00     0.134 A 
ATOM     76  C   UNL A   1      45.804  28.649  34.281  1.00  0.00     0.134 A 
ATOM     77  F   UNL A   1      43.407  26.023  35.033  1.00  0.00    -0.206 F 
ATOM     78  C   UNL A   1      45.600  26.339  35.811  1.00  0.00     0.040 A 
ATOM     79  C   UNL A   1      46.887  28.229  35.053  1.00  0.00     0.040 A 
ATOM     80  F   UNL A   1      45.941  29.770  33.559  1.00  0.00    -0.206 F 
ATOM     81  C   UNL A   1      46.784  27.074  35.825  1.00  0.00     0.006 A 
ENDBRANCH  57  74
ENDBRANCH  31  32
ENDBRANCH  24  26
ENDBRANCH  23  24
ENDBRANCH  22  23
ENDBRANCH   1  22
TORSDOF 15
ENDMDL
MODEL 3
REMARK VINA RESULT:      -9.8      1.350      2.369
REMARK SMILES O=C(CCc1cccnc1)Nc1ccsc1C(=O)OCCOC(=O)c1ccc(-c2c3nc(c(-c4c(F)cccc4F)c4ccc([nH]4)c(-c4c(F)cccc4F)c4nc(c(-c5c(F)cccc5F)c5ccc2[nH]5)C=C4)C=C3)cc1
REMARK SMILES IDX 20 1 19 2 17 3 18 4 16 5 12 6 13 7 14 8 15 9 11 10 1 11 2 12
REMARK SMILES IDX 3 14 4 15 5 16 6 17 10 18 7 19 9 20 8 21 21 22 22 23 23 24
REMARK SMILES IDX 24 25 25 26 26 27 78 28 27 29 77 30 28 31 29 32 30 33 71 34
REMARK SMILES IDX 31 35 76 36 70 37 72 38 32 39 75 40 69 41 68 42 33 44 59 45
REMARK SMILES IDX 42 46 58 47 43 48 46 49 57 50 73 51 44 52 45 53 56 55 74 56
REMARK SMILES IDX 47 57 34 58 35 59 40 60 36 61 37 62 39 63 41 64 38 65 60 66
REMARK SMILES IDX 61 67 66 68 62 69 63 70 65 71 67 72 64 73 48 74 49 75 54 76
REMARK SMILES IDX 50 77 51 78 53 79 55 80 52 81
REMARK H PARENT 11 13 72 43 46 54
REMARK Flexibility Score: inf
ROOT
ATOM      1  C   UNL A   1      33.550  33.903  28.283  1.00  0.00     0.275 C 
ENDROOT
BRANCH   1   2
ATOM      2  O   UNL A   1      33.390  34.236  29.685  1.00  0.00    -0.458 OA
BRANCH   2   3
ATOM      3  C   UNL A   1      33.110  35.551  29.983  1.00  0.00     0.350 C 
ATOM      4  O   UNL A   1      32.505  36.303  29.240  1.00  0.00    -0.245 OA
BRANCH   3   5
ATOM      5  C   UNL A   1      33.634  35.892  31.299  1.00  0.00     0.136 A 
ATOM      6  C   UNL A   1      34.385  35.152  32.202  1.00  0.00     0.066 A 
ATOM      7  C   UNL A   1      34.412  35.770  33.489  1.00  0.00     0.039 A 
ATOM      8  C   UNL A   1      33.874  37.037  33.468  1.00  0.00     0.068 A 
ATOM      9  S   UNL A   1      33.303  37.460  31.916  1.00  0.00    -0.135 S 
BRANCH   6  10
ATOM     10  N   UNL A   1      35.070  33.994  31.860  1.00  0.00    -0.325 N 
ATOM     11  O   UNL A   1      37.249  34.671  32.258  1.00  0.00    -0.275 OA
ATOM     12  C   UNL A   1      36.437  33.821  31.911  1.00  0.00     0.224 C 
ATOM     13  H   UNL A   1      34.533  33.229  31.553  1.00  0.00     0.169 HD
BRANCH  12  14
ATOM     14  C   UNL A   1      36.872  32.402  31.548  1.00  0.00     0.105 C 
BRANCH  14  15
ATOM     15  C   UNL A   1      36.592  31.360  32.648  1.00  0.00     0.047 C 
BRANCH  15  16
ATOM     16  C   UNL A   1      37.710  31.160  33.650  1.00  0.00    -0.029 A 
ATOM     17  C   UNL A   1      38.771  30.299  33.401  1.00  0.00     0.007 A 
ATOM     18  C   UNL A   1      37.724  31.772  34.895  1.00  0.00     0.114 A 
ATOM     19  C   UNL A   1      39.828  30.145  34.291  1.00  0.00     0.020 A 
ATOM     20  N   UNL A   1      38.710  31.615  35.816  1.00  0.00    -0.264 NA
ATOM     21  C   UNL A   1      39.748  30.816  35.488  1.00  0.00     0.111 A 
ENDBRANCH  15  16
ENDBRANCH  14  15
ENDBRANCH  12  14
ENDBRANCH   6  10
ENDBRANCH   3   5
ENDBRANCH   2   3
ENDBRANCH   1   2
BRANCH   1  22
ATOM     22  C   UNL A   1      34.785  33.033  28.037  1.00  0.00     0.275 C 
BRANCH  22  23
ATOM     23  O   UNL A   1      34.716  31.888  28.892  1.00  0.00    -0.458 OA
BRANCH  23  24
ATOM     24  C   UNL A   1      34.693  30.712  28.228  1.00  0.00     0.338 C 
ATOM     25  O   UNL A   1      33.841  30.290  27.469  1.00  0.00    -0.246 OA
BRANCH  24  26
ATOM     26  C   UNL A   1      36.028  30.130  28.360  1.00  0.00     0.060 A 
ATOM     27  C   UNL A   1      36.317  29.498  29.569  1.00  0.00     0.016 A 
ATOM     28  C   UNL A   1      36.972  30.218  27.343  1.00  0.00     0.016 A 
ATOM     29  C   UNL A   1      37.581  28.977  29.796  1.00  0.00     0.010 A 
ATOM     30  C   UNL A   1      38.242  29.687  27.565  1.00  0.00     0.010 A 
ATOM     31  C   UNL A   1      38.558  29.090  28.802  1.00  0.00    -0.014 A 
BRANCH  31  32
ATOM     32  C   UNL A   1      39.951  28.690  29.096  1.00  0.00     0.031 A 
ATOM     33  C   UNL A   1      40.846  29.662  29.806  1.00  0.00     0.074 A 
ATOM     34  C   UNL A   1      40.395  27.471  28.744  1.00  0.00     0.049 A 
ATOM     35  N   UNL A   1      42.134  29.600  30.016  1.00  0.00    -0.248 NA
ATOM     36  C   UNL A   1      40.204  30.876  30.337  1.00  0.00     0.031 C 
ATOM     37  C   UNL A   1      39.591  26.427  28.108  1.00  0.00     0.029 A 
ATOM     38  N   UNL A   1      41.640  26.910  28.864  1.00  0.00    -0.354 N 
ATOM     39  C   UNL A   1      42.464  30.785  30.663  1.00  0.00     0.074 A 
ATOM     40  C   UNL A   1      41.245  31.549  30.805  1.00  0.00     0.031 C 
ATOM     41  C   UNL A   1      40.365  25.353  27.887  1.00  0.00     0.029 A 
ATOM     42  C   UNL A   1      41.729  25.658  28.310  1.00  0.00     0.049 A 
ATOM     43  H   UNL A   1      42.396  27.361  29.304  1.00  0.00     0.167 HD
ATOM     44  C   UNL A   1      43.680  31.191  31.094  1.00  0.00     0.037 A 
ATOM     45  C   UNL A   1      42.802  24.867  28.127  1.00  0.00     0.037 A 
ATOM     46  C   UNL A   1      44.876  30.400  30.977  1.00  0.00     0.049 A 
ATOM     47  C   UNL A   1      44.149  25.357  28.582  1.00  0.00     0.074 A 
ATOM     48  C   UNL A   1      46.158  30.704  31.397  1.00  0.00     0.029 A 
ATOM     49  N   UNL A   1      44.928  29.138  30.402  1.00  0.00    -0.354 N 
ATOM     50  N   UNL A   1      44.462  26.489  29.167  1.00  0.00    -0.248 NA
ATOM     51  C   UNL A   1      45.293  24.467  28.345  1.00  0.00     0.031 C 
ATOM     52  C   UNL A   1      46.995  29.640  31.041  1.00  0.00     0.029 A 
ATOM     53  C   UNL A   1      46.224  28.655  30.441  1.00  0.00     0.049 A 
ATOM     54  H   UNL A   1      44.157  28.657  30.022  1.00  0.00     0.167 HD
ATOM     55  C   UNL A   1      45.832  26.442  29.381  1.00  0.00     0.074 A 
ATOM     56  C   UNL A   1      46.288  25.159  28.880  1.00  0.00     0.031 C 
ATOM     57  C   UNL A   1      46.645  27.373  29.938  1.00  0.00     0.037 A 
BRANCH  44  58
ATOM     58  C   UNL A   1      43.782  32.563  31.693  1.00  0.00     0.057 A 
ATOM     59  C   UNL A   1      44.050  33.698  30.919  1.00  0.00     0.134 A 
ATOM     60  C   UNL A   1      43.582  32.751  33.068  1.00  0.00     0.134 A 
ATOM     61  F   UNL A   1      44.270  33.586  29.600  1.00  0.00    -0.206 F 
ATOM     62  C   UNL A   1      44.137  34.969  31.493  1.00  0.00     0.040 A 
ATOM     63  C   UNL A   1      43.641  34.019  33.649  1.00  0.00     0.040 A 
ATOM     64  F   UNL A   1      43.321  31.706  33.866  1.00  0.00    -0.206 F 
ATOM     65  C   UNL A   1      43.924  35.132  32.860  1.00  0.00     0.006 A 
ENDBRANCH  44  58
BRANCH  45  66
ATOM     66  C   UNL A   1      42.652  23.555  27.448  1.00  0.00     0.057 A 
ATOM     67  C   UNL A   1      42.791  23.435  26.061  1.00  0.00     0.134 A 
ATOM     68  C   UNL A   1      42.366  22.389  28.170  1.00  0.00     0.134 A 
ATOM     69  F   UNL A   1      43.043  24.518  25.312  1.00  0.00    -0.206 F 
ATOM     70  C   UNL A   1      42.638  22.207  25.415  1.00  0.00     0.040 A 
ATOM     71  C   UNL A   1      42.237  21.151  27.541  1.00  0.00     0.040 A 
ATOM     72  F   UNL A   1      42.223  22.436  29.503  1.00  0.00    -0.206 F 
ATOM     73  C   UNL A   1      42.367  21.059  26.157  1.00  0.00     0.006 A 
ENDBRANCH  45  66
BRANCH  57  74
ATOM     74  C   UNL A   1      48.097  27.022  30.057  1.00  0.00     0.057 A 
ATOM     75  C   UNL A   1      48.588  26.272  31.134  1.00  0.00     0.134 A 
ATOM     76  C   UNL A   1      49.007  27.409  29.065  1.00  0.00     0.134 A 
ATOM     77  F   UNL A   1      47.769  25.885  32.122  1.00  0.00    -0.206 F 
ATOM     78  C   UNL A   1      49.939  25.938  31.229  1.00  0.00     0.040 A 
ATOM     79  C   UNL A   1      50.355  27.058  29.137  1.00  0.00     0.040 A 
ATOM     80  F   UNL A   1      48.597  28.121  28.005  1.00  0.00    -0.206 F 
ATOM     81  C   UNL A   1      50.825  26.326  30.226  1.00  0.00     0.006 A 
ENDBRANCH  57  74
ENDBRANCH  31  32
ENDBRANCH  24  26
ENDBRANCH  23  24
ENDBRANCH  22  23
ENDBRANCH   1  22
TORSDOF 15
ENDMDL
