MODEL 1
REMARK VINA RESULT:     -13.1      0.000      0.000
REMARK SMILES Cc1ccc(C(=O)OCCOC(=O)c2ccc(-c3c4nc(c(-c5c(F)cccc5F)c5ccc([nH]5)c(-c5c(F)cccc5F)c5nc(c(-c6c(F)cccc6F)c6ccc3[nH]6)C=C5)C=C4)cc2)cc1N[C@@H]1CC(=O)N(c2ccccc2C)C1=O
REMARK SMILES IDX 9 1 8 2 6 3 7 4 5 5 1 6 2 7 3 8 69 9 4 10 68 11 70 12 71 14
REMARK SMILES IDX 72 15 83 16 73 17 75 18 84 19 74 20 76 21 77 22 81 23 78 24
REMARK SMILES IDX 80 25 82 26 79 27 10 28 11 29 12 30 13 31 14 32 15 33 67 34
REMARK SMILES IDX 16 35 66 36 17 37 18 38 19 39 60 40 20 41 65 42 59 43 61 44
REMARK SMILES IDX 21 45 64 46 58 47 57 48 22 50 48 51 31 52 47 53 32 54 35 55
REMARK SMILES IDX 46 56 62 57 33 58 34 59 45 61 63 62 36 63 23 64 24 65 29 66
REMARK SMILES IDX 25 67 26 68 28 69 30 70 27 71 49 72 50 73 55 74 51 75 52 76
REMARK SMILES IDX 54 77 56 78 53 79 37 80 38 81 43 82 39 83 40 84 42 85 44 86
REMARK SMILES IDX 41 87
REMARK H PARENT 70 13 61 49 35 60
REMARK Flexibility Score: inf
ROOT
ATOM      1  C   UNL A   1      32.693  30.394  27.049  1.00  0.00     0.275 C 
ENDROOT
BRANCH   1   2
ATOM      2  O   UNL A   1      32.994  29.465  25.996  1.00  0.00    -0.458 OA
BRANCH   2   3
ATOM      3  C   UNL A   1      31.987  29.381  25.100  1.00  0.00     0.338 C 
ATOM      4  O   UNL A   1      31.026  30.139  25.016  1.00  0.00    -0.246 OA
BRANCH   3   5
ATOM      5  C   UNL A   1      31.948  28.123  24.353  1.00  0.00     0.062 A 
ATOM      6  C   UNL A   1      30.293  24.361  23.126  1.00  0.00     0.046 C 
ATOM      7  C   UNL A   1      30.936  25.632  23.616  1.00  0.00    -0.028 A 
ATOM      8  C   UNL A   1      31.025  26.696  22.680  1.00  0.00     0.006 A 
ATOM      9  C   UNL A   1      31.392  25.822  24.933  1.00  0.00     0.038 A 
ATOM     10  C   UNL A   1      31.490  27.958  23.058  1.00  0.00     0.016 A 
ATOM     11  C   UNL A   1      31.990  27.042  25.219  1.00  0.00     0.041 A 
BRANCH   9  12
ATOM     12  N   UNL A   1      31.120  24.945  25.972  1.00  0.00    -0.373 N 
ATOM     13  H   UNL A   1      30.293  25.091  26.485  1.00  0.00     0.161 HD
BRANCH  12  14
ATOM     14  C   UNL A   1      31.980  23.805  26.367  1.00  0.00     0.179 C 
ATOM     15  C   UNL A   1      33.418  23.939  25.892  1.00  0.00     0.136 C 
ATOM     16  C   UNL A   1      31.541  22.425  25.881  1.00  0.00     0.256 C 
ATOM     17  C   UNL A   1      33.773  22.565  25.407  1.00  0.00     0.236 C 
ATOM     18  N   UNL A   1      32.657  21.768  25.407  1.00  0.00    -0.248 N 
ATOM     19  O   UNL A   1      30.395  21.995  25.938  1.00  0.00    -0.272 OA
ATOM     20  O   UNL A   1      34.900  22.270  25.035  1.00  0.00    -0.274 OA
BRANCH  18  21
ATOM     21  C   UNL A   1      32.648  20.447  24.888  1.00  0.00     0.055 A 
ATOM     22  C   UNL A   1      32.911  19.368  25.752  1.00  0.00     0.027 A 
ATOM     23  C   UNL A   1      32.372  20.181  23.529  1.00  0.00    -0.027 A 
ATOM     24  C   UNL A   1      32.859  18.049  25.292  1.00  0.00     0.002 A 
ATOM     25  C   UNL A   1      32.328  18.847  23.083  1.00  0.00     0.005 A 
ATOM     26  C   UNL A   1      32.156  21.266  22.509  1.00  0.00     0.046 C 
ATOM     27  C   UNL A   1      32.569  17.790  23.957  1.00  0.00     0.000 A 
ENDBRANCH  18  21
ENDBRANCH  12  14
ENDBRANCH   9  12
ENDBRANCH   3   5
ENDBRANCH   2   3
ENDBRANCH   1   2
BRANCH   1  28
ATOM     28  C   UNL A   1      33.902  31.221  27.487  1.00  0.00     0.275 C 
BRANCH  28  29
ATOM     29  O   UNL A   1      35.186  30.557  27.672  1.00  0.00    -0.458 OA
BRANCH  29  30
ATOM     30  C   UNL A   1      36.304  31.012  28.281  1.00  0.00     0.338 C 
ATOM     31  O   UNL A   1      36.410  32.170  28.681  1.00  0.00    -0.246 OA
BRANCH  30  32
ATOM     32  C   UNL A   1      37.409  30.072  28.481  1.00  0.00     0.060 A 
ATOM     33  C   UNL A   1      37.316  29.130  29.521  1.00  0.00     0.016 A 
ATOM     34  C   UNL A   1      38.486  30.078  27.602  1.00  0.00     0.016 A 
ATOM     35  C   UNL A   1      38.266  28.130  29.640  1.00  0.00     0.010 A 
ATOM     36  C   UNL A   1      39.348  29.016  27.621  1.00  0.00     0.010 A 
ATOM     37  C   UNL A   1      39.277  28.103  28.687  1.00  0.00    -0.014 A 
BRANCH  37  38
ATOM     38  C   UNL A   1      40.562  27.489  28.953  1.00  0.00     0.031 A 
ATOM     39  C   UNL A   1      40.874  26.156  28.435  1.00  0.00     0.074 A 
ATOM     40  C   UNL A   1      41.394  28.430  29.451  1.00  0.00     0.049 A 
ATOM     41  N   UNL A   1      41.798  25.386  28.891  1.00  0.00    -0.248 NA
ATOM     42  C   UNL A   1      40.102  25.528  27.365  1.00  0.00     0.031 C 
ATOM     43  C   UNL A   1      42.834  28.562  29.470  1.00  0.00     0.029 A 
ATOM     44  N   UNL A   1      40.954  29.554  30.177  1.00  0.00    -0.354 N 
ATOM     45  C   UNL A   1      42.020  24.436  27.910  1.00  0.00     0.074 A 
ATOM     46  C   UNL A   1      40.820  24.427  27.121  1.00  0.00     0.031 C 
ATOM     47  C   UNL A   1      43.163  29.471  30.414  1.00  0.00     0.029 A 
ATOM     48  C   UNL A   1      41.936  29.839  31.119  1.00  0.00     0.049 A 
ATOM     49  H   UNL A   1      40.111  30.044  30.044  1.00  0.00     0.167 HD
ATOM     50  C   UNL A   1      43.297  23.995  27.702  1.00  0.00     0.037 A 
ATOM     51  C   UNL A   1      41.635  29.540  32.418  1.00  0.00     0.037 A 
ATOM     52  C   UNL A   1      44.186  24.674  28.645  1.00  0.00     0.049 A 
ATOM     53  C   UNL A   1      42.472  28.367  32.866  1.00  0.00     0.074 A 
ATOM     54  C   UNL A   1      44.961  25.814  28.498  1.00  0.00     0.029 A 
ATOM     55  N   UNL A   1      44.016  24.484  30.011  1.00  0.00    -0.354 N 
ATOM     56  N   UNL A   1      42.819  27.368  32.094  1.00  0.00    -0.248 NA
ATOM     57  C   UNL A   1      43.091  28.313  34.184  1.00  0.00     0.031 C 
ATOM     58  C   UNL A   1      45.186  26.356  29.790  1.00  0.00     0.029 A 
ATOM     59  C   UNL A   1      44.528  25.560  30.713  1.00  0.00     0.049 A 
ATOM     60  H   UNL A   1      43.594  23.695  30.421  1.00  0.00     0.167 HD
ATOM     61  C   UNL A   1      43.766  26.619  32.741  1.00  0.00     0.074 A 
ATOM     62  C   UNL A   1      43.873  27.228  34.057  1.00  0.00     0.031 C 
ATOM     63  C   UNL A   1      44.455  25.591  32.163  1.00  0.00     0.037 A 
BRANCH  50  64
ATOM     64  C   UNL A   1      43.799  23.314  26.439  1.00  0.00     0.057 A 
ATOM     65  C   UNL A   1      43.575  21.933  26.237  1.00  0.00     0.134 A 
ATOM     66  C   UNL A   1      44.521  23.929  25.401  1.00  0.00     0.134 A 
ATOM     67  F   UNL A   1      42.808  21.212  27.066  1.00  0.00    -0.206 F 
ATOM     68  C   UNL A   1      44.114  21.210  25.164  1.00  0.00     0.040 A 
ATOM     69  C   UNL A   1      45.093  23.212  24.335  1.00  0.00     0.040 A 
ATOM     70  F   UNL A   1      44.656  25.258  25.329  1.00  0.00    -0.206 F 
ATOM     71  C   UNL A   1      44.902  21.843  24.219  1.00  0.00     0.006 A 
ENDBRANCH  50  64
BRANCH  51  72
ATOM     72  C   UNL A   1      40.198  29.796  32.786  1.00  0.00     0.057 A 
ATOM     73  C   UNL A   1      39.719  31.128  32.773  1.00  0.00     0.134 A 
ATOM     74  C   UNL A   1      39.221  28.799  32.877  1.00  0.00     0.134 A 
ATOM     75  F   UNL A   1      40.584  32.153  32.694  1.00  0.00    -0.206 F 
ATOM     76  C   UNL A   1      38.355  31.444  32.745  1.00  0.00     0.040 A 
ATOM     77  C   UNL A   1      37.848  29.105  32.874  1.00  0.00     0.040 A 
ATOM     78  F   UNL A   1      39.563  27.504  32.893  1.00  0.00    -0.206 F 
ATOM     79  C   UNL A   1      37.411  30.428  32.779  1.00  0.00     0.006 A 
ENDBRANCH  51  72
BRANCH  63  80
ATOM     80  C   UNL A   1      45.224  24.548  32.922  1.00  0.00     0.057 A 
ATOM     81  C   UNL A   1      46.484  24.784  33.484  1.00  0.00     0.134 A 
ATOM     82  C   UNL A   1      44.615  23.324  33.285  1.00  0.00     0.134 A 
ATOM     83  F   UNL A   1      47.121  25.952  33.320  1.00  0.00    -0.206 F 
ATOM     84  C   UNL A   1      47.125  23.844  34.296  1.00  0.00     0.040 A 
ATOM     85  C   UNL A   1      45.214  22.414  34.154  1.00  0.00     0.040 A 
ATOM     86  F   UNL A   1      43.397  22.976  32.844  1.00  0.00    -0.206 F 
ATOM     87  C   UNL A   1      46.483  22.663  34.648  1.00  0.00     0.006 A 
ENDBRANCH  63  80
ENDBRANCH  37  38
ENDBRANCH  30  32
ENDBRANCH  29  30
ENDBRANCH  28  29
ENDBRANCH   1  28
TORSDOF 14
ENDMDL
MODEL 2
REMARK VINA RESULT:     -13.1      1.696      2.540
REMARK SMILES Cc1ccc(C(=O)OCCOC(=O)c2ccc(-c3c4nc(c(-c5c(F)cccc5F)c5ccc([nH]5)c(-c5c(F)cccc5F)c5nc(c(-c6c(F)cccc6F)c6ccc3[nH]6)C=C5)C=C4)cc2)cc1N[C@@H]1CC(=O)N(c2ccccc2C)C1=O
REMARK SMILES IDX 9 1 8 2 6 3 7 4 5 5 1 6 2 7 3 8 69 9 4 10 68 11 70 12 71 14
REMARK SMILES IDX 72 15 83 16 73 17 75 18 84 19 74 20 76 21 77 22 81 23 78 24
REMARK SMILES IDX 80 25 82 26 79 27 10 28 11 29 12 30 13 31 14 32 15 33 67 34
REMARK SMILES IDX 16 35 66 36 17 37 18 38 19 39 60 40 20 41 65 42 59 43 61 44
REMARK SMILES IDX 21 45 64 46 58 47 57 48 22 50 48 51 31 52 47 53 32 54 35 55
REMARK SMILES IDX 46 56 62 57 33 58 34 59 45 61 63 62 36 63 23 64 24 65 29 66
REMARK SMILES IDX 25 67 26 68 28 69 30 70 27 71 49 72 50 73 55 74 51 75 52 76
REMARK SMILES IDX 54 77 56 78 53 79 37 80 38 81 43 82 39 83 40 84 42 85 44 86
REMARK SMILES IDX 41 87
REMARK H PARENT 70 13 61 49 35 60
REMARK Flexibility Score: inf
ROOT
ATOM      1  C   UNL A   1      32.465  29.191  27.247  1.00  0.00     0.275 C 
ENDROOT
BRANCH   1   2
ATOM      2  O   UNL A   1      31.446  28.825  26.305  1.00  0.00    -0.458 OA
BRANCH   2   3
ATOM      3  C   UNL A   1      31.471  27.502  26.031  1.00  0.00     0.338 C 
ATOM      4  O   UNL A   1      31.138  26.598  26.790  1.00  0.00    -0.246 OA
BRANCH   3   5
ATOM      5  C   UNL A   1      32.199  27.153  24.810  1.00  0.00     0.062 A 
ATOM      6  C   UNL A   1      32.616  25.728  20.787  1.00  0.00     0.046 C 
ATOM      7  C   UNL A   1      32.502  26.141  22.230  1.00  0.00    -0.028 A 
ATOM      8  C   UNL A   1      32.759  27.506  22.519  1.00  0.00     0.006 A 
ATOM      9  C   UNL A   1      32.115  25.270  23.265  1.00  0.00     0.038 A 
ATOM     10  C   UNL A   1      32.566  28.026  23.802  1.00  0.00     0.016 A 
ATOM     11  C   UNL A   1      32.089  25.796  24.550  1.00  0.00     0.041 A 
BRANCH   9  12
ATOM     12  N   UNL A   1      31.603  24.000  23.047  1.00  0.00    -0.373 N 
ATOM     13  H   UNL A   1      30.726  23.933  22.605  1.00  0.00     0.161 HD
BRANCH  12  14
ATOM     14  C   UNL A   1      32.277  22.737  23.428  1.00  0.00     0.179 C 
ATOM     15  C   UNL A   1      31.906  22.248  24.819  1.00  0.00     0.136 C 
ATOM     16  C   UNL A   1      33.805  22.755  23.421  1.00  0.00     0.256 C 
ATOM     17  C   UNL A   1      33.207  21.790  25.405  1.00  0.00     0.236 C 
ATOM     18  N   UNL A   1      34.241  22.130  24.570  1.00  0.00    -0.248 N 
ATOM     19  O   UNL A   1      34.495  23.227  22.525  1.00  0.00    -0.272 OA
ATOM     20  O   UNL A   1      33.280  21.239  26.496  1.00  0.00    -0.274 OA
BRANCH  18  21
ATOM     21  C   UNL A   1      35.606  21.935  24.908  1.00  0.00     0.055 A 
ATOM     22  C   UNL A   1      36.191  20.673  24.700  1.00  0.00     0.027 A 
ATOM     23  C   UNL A   1      36.399  22.977  25.435  1.00  0.00    -0.027 A 
ATOM     24  C   UNL A   1      37.546  20.456  24.969  1.00  0.00     0.002 A 
ATOM     25  C   UNL A   1      37.760  22.738  25.703  1.00  0.00     0.005 A 
ATOM     26  C   UNL A   1      35.850  24.338  25.768  1.00  0.00     0.046 C 
ATOM     27  C   UNL A   1      38.329  21.488  25.472  1.00  0.00     0.000 A 
ENDBRANCH  18  21
ENDBRANCH  12  14
ENDBRANCH   9  12
ENDBRANCH   3   5
ENDBRANCH   2   3
ENDBRANCH   1   2
BRANCH   1  28
ATOM     28  C   UNL A   1      32.955  30.630  27.076  1.00  0.00     0.275 C 
BRANCH  28  29
ATOM     29  O   UNL A   1      34.375  30.919  27.233  1.00  0.00    -0.458 OA
BRANCH  29  30
ATOM     30  C   UNL A   1      35.088  31.112  28.365  1.00  0.00     0.338 C 
ATOM     31  O   UNL A   1      34.729  31.895  29.242  1.00  0.00    -0.246 OA
BRANCH  30  32
ATOM     32  C   UNL A   1      36.317  30.336  28.545  1.00  0.00     0.060 A 
ATOM     33  C   UNL A   1      36.479  29.590  29.726  1.00  0.00     0.016 A 
ATOM     34  C   UNL A   1      37.258  30.290  27.522  1.00  0.00     0.016 A 
ATOM     35  C   UNL A   1      37.552  28.725  29.859  1.00  0.00     0.010 A 
ATOM     36  C   UNL A   1      38.239  29.339  27.582  1.00  0.00     0.010 A 
ATOM     37  C   UNL A   1      38.423  28.628  28.781  1.00  0.00    -0.014 A 
BRANCH  37  38
ATOM     38  C   UNL A   1      39.797  28.200  28.945  1.00  0.00     0.031 A 
ATOM     39  C   UNL A   1      40.192  26.824  28.638  1.00  0.00     0.074 A 
ATOM     40  C   UNL A   1      40.571  29.295  29.118  1.00  0.00     0.049 A 
ATOM     41  N   UNL A   1      41.258  26.250  29.073  1.00  0.00    -0.248 NA
ATOM     42  C   UNL A   1      39.359  25.926  27.842  1.00  0.00     0.031 C 
ATOM     43  C   UNL A   1      41.972  29.559  28.879  1.00  0.00     0.029 A 
ATOM     44  N   UNL A   1      40.104  30.497  29.686  1.00  0.00    -0.354 N 
ATOM     45  C   UNL A   1      41.453  25.146  28.262  1.00  0.00     0.074 A 
ATOM     46  C   UNL A   1      40.164  24.868  27.693  1.00  0.00     0.031 C 
ATOM     47  C   UNL A   1      42.318  30.665  29.573  1.00  0.00     0.029 A 
ATOM     48  C   UNL A   1      41.167  31.054  30.387  1.00  0.00     0.049 A 
ATOM     49  H   UNL A   1      39.198  30.870  29.602  1.00  0.00     0.167 HD
ATOM     50  C   UNL A   1      42.732  24.791  27.935  1.00  0.00     0.037 A 
ATOM     51  C   UNL A   1      41.091  30.997  31.750  1.00  0.00     0.037 A 
ATOM     52  C   UNL A   1      43.656  25.725  28.580  1.00  0.00     0.049 A 
ATOM     53  C   UNL A   1      42.119  30.019  32.266  1.00  0.00     0.074 A 
ATOM     54  C   UNL A   1      44.258  26.878  28.101  1.00  0.00     0.029 A 
ATOM     55  N   UNL A   1      43.705  25.799  29.967  1.00  0.00    -0.354 N 
ATOM     56  N   UNL A   1      42.472  28.921  31.646  1.00  0.00    -0.248 NA
ATOM     57  C   UNL A   1      42.919  30.288  33.454  1.00  0.00     0.031 C 
ATOM     58  C   UNL A   1      44.595  27.687  29.217  1.00  0.00     0.029 A 
ATOM     59  C   UNL A   1      44.176  27.037  30.365  1.00  0.00     0.049 A 
ATOM     60  H   UNL A   1      43.443  25.073  30.579  1.00  0.00     0.167 HD
ATOM     61  C   UNL A   1      43.584  28.408  32.259  1.00  0.00     0.074 A 
ATOM     62  C   UNL A   1      43.801  29.276  33.405  1.00  0.00     0.031 C 
ATOM     63  C   UNL A   1      44.305  27.352  31.777  1.00  0.00     0.037 A 
BRANCH  50  64
ATOM     64  C   UNL A   1      43.129  23.918  26.756  1.00  0.00     0.057 A 
ATOM     65  C   UNL A   1      43.109  22.510  26.873  1.00  0.00     0.134 A 
ATOM     66  C   UNL A   1      43.562  24.377  25.499  1.00  0.00     0.134 A 
ATOM     67  F   UNL A   1      42.617  21.897  27.957  1.00  0.00    -0.206 F 
ATOM     68  C   UNL A   1      43.580  21.644  25.876  1.00  0.00     0.040 A 
ATOM     69  C   UNL A   1      44.066  23.522  24.502  1.00  0.00     0.040 A 
ATOM     70  F   UNL A   1      43.461  25.664  25.146  1.00  0.00    -0.206 F 
ATOM     71  C   UNL A   1      44.089  22.149  24.693  1.00  0.00     0.006 A 
ENDBRANCH  50  64
BRANCH  51  72
ATOM     72  C   UNL A   1      39.699  31.189  32.292  1.00  0.00     0.057 A 
ATOM     73  C   UNL A   1      39.004  32.380  31.975  1.00  0.00     0.134 A 
ATOM     74  C   UNL A   1      38.930  30.168  32.860  1.00  0.00     0.134 A 
ATOM     75  F   UNL A   1      39.661  33.417  31.430  1.00  0.00    -0.206 F 
ATOM     76  C   UNL A   1      37.616  32.509  32.114  1.00  0.00     0.040 A 
ATOM     77  C   UNL A   1      37.539  30.295  33.028  1.00  0.00     0.040 A 
ATOM     78  F   UNL A   1      39.487  28.996  33.196  1.00  0.00    -0.206 F 
ATOM     79  C   UNL A   1      36.874  31.456  32.628  1.00  0.00     0.006 A 
ENDBRANCH  51  72
BRANCH  63  80
ATOM     80  C   UNL A   1      45.294  26.557  32.581  1.00  0.00     0.057 A 
ATOM     81  C   UNL A   1      44.921  25.512  33.434  1.00  0.00     0.134 A 
ATOM     82  C   UNL A   1      46.683  26.695  32.358  1.00  0.00     0.134 A 
ATOM     83  F   UNL A   1      43.636  25.194  33.640  1.00  0.00    -0.206 F 
ATOM     84  C   UNL A   1      45.864  24.701  34.073  1.00  0.00     0.040 A 
ATOM     85  C   UNL A   1      47.626  25.844  32.931  1.00  0.00     0.040 A 
ATOM     86  F   UNL A   1      47.184  27.636  31.543  1.00  0.00    -0.206 F 
ATOM     87  C   UNL A   1      47.219  24.854  33.809  1.00  0.00     0.006 A 
ENDBRANCH  63  80
ENDBRANCH  37  38
ENDBRANCH  30  32
ENDBRANCH  29  30
ENDBRANCH  28  29
ENDBRANCH   1  28
TORSDOF 14
ENDMDL
MODEL 3
REMARK VINA RESULT:     -13.1      3.313      5.821
REMARK SMILES Cc1ccc(C(=O)OCCOC(=O)c2ccc(-c3c4nc(c(-c5c(F)cccc5F)c5ccc([nH]5)c(-c5c(F)cccc5F)c5nc(c(-c6c(F)cccc6F)c6ccc3[nH]6)C=C5)C=C4)cc2)cc1N[C@@H]1CC(=O)N(c2ccccc2C)C1=O
REMARK SMILES IDX 9 1 8 2 6 3 7 4 5 5 1 6 2 7 3 8 69 9 4 10 68 11 70 12 71 14
REMARK SMILES IDX 72 15 83 16 73 17 75 18 84 19 74 20 76 21 77 22 81 23 78 24
REMARK SMILES IDX 80 25 82 26 79 27 10 28 11 29 12 30 13 31 14 32 15 33 67 34
REMARK SMILES IDX 16 35 66 36 17 37 18 38 19 39 60 40 20 41 65 42 59 43 61 44
REMARK SMILES IDX 21 45 64 46 58 47 57 48 22 50 48 51 31 52 47 53 32 54 35 55
REMARK SMILES IDX 46 56 62 57 33 58 34 59 45 61 63 62 36 63 23 64 24 65 29 66
REMARK SMILES IDX 25 67 26 68 28 69 30 70 27 71 49 72 50 73 55 74 51 75 52 76
REMARK SMILES IDX 54 77 56 78 53 79 37 80 38 81 43 82 39 83 40 84 42 85 44 86
REMARK SMILES IDX 41 87
REMARK H PARENT 70 13 61 49 35 60
REMARK Flexibility Score: inf
ROOT
ATOM      1  C   UNL A   1      32.878  36.038  30.106  1.00  0.00     0.275 C 
ENDROOT
BRANCH   1   2
ATOM      2  O   UNL A   1      32.920  34.869  29.274  1.00  0.00    -0.458 OA
BRANCH   2   3
ATOM      3  C   UNL A   1      34.055  34.816  28.543  1.00  0.00     0.338 C 
ATOM      4  O   UNL A   1      34.369  35.577  27.635  1.00  0.00    -0.246 OA
BRANCH   3   5
ATOM      5  C   UNL A   1      34.825  33.582  28.715  1.00  0.00     0.062 A 
ATOM      6  C   UNL A   1      36.476  29.812  27.509  1.00  0.00     0.046 C 
ATOM      7  C   UNL A   1      35.827  31.086  27.982  1.00  0.00    -0.028 A 
ATOM      8  C   UNL A   1      36.693  32.183  28.229  1.00  0.00     0.006 A 
ATOM      9  C   UNL A   1      34.437  31.247  28.136  1.00  0.00     0.038 A 
ATOM     10  C   UNL A   1      36.192  33.446  28.553  1.00  0.00     0.016 A 
ATOM     11  C   UNL A   1      33.998  32.475  28.612  1.00  0.00     0.041 A 
BRANCH   9  12
ATOM     12  N   UNL A   1      33.505  30.328  27.682  1.00  0.00    -0.373 N 
ATOM     13  H   UNL A   1      32.981  29.840  28.357  1.00  0.00     0.161 HD
BRANCH  12  14
ATOM     14  C   UNL A   1      33.238  30.024  26.257  1.00  0.00     0.179 C 
ATOM     15  C   UNL A   1      31.936  30.621  25.744  1.00  0.00     0.136 C 
ATOM     16  C   UNL A   1      33.155  28.545  25.883  1.00  0.00     0.256 C 
ATOM     17  C   UNL A   1      31.335  29.529  24.911  1.00  0.00     0.236 C 
ATOM     18  N   UNL A   1      32.064  28.377  25.056  1.00  0.00    -0.248 N 
ATOM     19  O   UNL A   1      33.948  27.686  26.249  1.00  0.00    -0.272 OA
ATOM     20  O   UNL A   1      30.314  29.688  24.255  1.00  0.00    -0.274 OA
BRANCH  18  21
ATOM     21  C   UNL A   1      31.675  27.136  24.486  1.00  0.00     0.055 A 
ATOM     22  C   UNL A   1      30.737  26.334  25.162  1.00  0.00     0.027 A 
ATOM     23  C   UNL A   1      32.194  26.687  23.253  1.00  0.00    -0.027 A 
ATOM     24  C   UNL A   1      30.288  25.132  24.607  1.00  0.00     0.002 A 
ATOM     25  C   UNL A   1      31.734  25.472  22.712  1.00  0.00     0.005 A 
ATOM     26  C   UNL A   1      33.259  27.430  22.492  1.00  0.00     0.046 C 
ATOM     27  C   UNL A   1      30.788  24.701  23.384  1.00  0.00     0.000 A 
ENDBRANCH  18  21
ENDBRANCH  12  14
ENDBRANCH   9  12
ENDBRANCH   3   5
ENDBRANCH   2   3
ENDBRANCH   1   2
BRANCH   1  28
ATOM     28  C   UNL A   1      33.033  35.725  31.595  1.00  0.00     0.275 C 
BRANCH  28  29
ATOM     29  O   UNL A   1      34.237  35.045  32.056  1.00  0.00    -0.458 OA
BRANCH  29  30
ATOM     30  C   UNL A   1      34.370  33.814  32.598  1.00  0.00     0.338 C 
ATOM     31  O   UNL A   1      33.420  33.207  33.089  1.00  0.00    -0.246 OA
BRANCH  30  32
ATOM     32  C   UNL A   1      35.694  33.190  32.572  1.00  0.00     0.060 A 
ATOM     33  C   UNL A   1      36.746  33.863  31.924  1.00  0.00     0.016 A 
ATOM     34  C   UNL A   1      35.905  31.993  33.247  1.00  0.00     0.016 A 
ATOM     35  C   UNL A   1      38.040  33.380  32.014  1.00  0.00     0.010 A 
ATOM     36  C   UNL A   1      37.193  31.585  33.463  1.00  0.00     0.010 A 
ATOM     37  C   UNL A   1      38.234  32.234  32.777  1.00  0.00    -0.014 A 
BRANCH  37  38
ATOM     38  C   UNL A   1      39.362  31.353  32.558  1.00  0.00     0.031 A 
ATOM     39  C   UNL A   1      39.233  30.172  31.703  1.00  0.00     0.074 A 
ATOM     40  C   UNL A   1      40.481  31.964  33.010  1.00  0.00     0.049 A 
ATOM     41  N   UNL A   1      40.023  29.157  31.724  1.00  0.00    -0.248 NA
ATOM     42  C   UNL A   1      38.127  29.999  30.765  1.00  0.00     0.031 C 
ATOM     43  C   UNL A   1      41.881  31.828  32.678  1.00  0.00     0.029 A 
ATOM     44  N   UNL A   1      40.483  32.914  34.050  1.00  0.00    -0.354 N 
ATOM     45  C   UNL A   1      39.800  28.477  30.539  1.00  0.00     0.074 A 
ATOM     46  C   UNL A   1      38.494  28.892  30.110  1.00  0.00     0.031 C 
ATOM     47  C   UNL A   1      42.607  32.379  33.674  1.00  0.00     0.029 A 
ATOM     48  C   UNL A   1      41.680  32.759  34.738  1.00  0.00     0.049 A 
ATOM     49  H   UNL A   1      39.771  33.564  34.250  1.00  0.00     0.167 HD
ATOM     50  C   UNL A   1      40.863  27.888  29.913  1.00  0.00     0.037 A 
ATOM     51  C   UNL A   1      41.598  32.185  35.976  1.00  0.00     0.037 A 
ATOM     52  C   UNL A   1      42.066  28.122  30.713  1.00  0.00     0.049 A 
ATOM     53  C   UNL A   1      42.207  30.804  35.925  1.00  0.00     0.074 A 
ATOM     54  C   UNL A   1      43.041  29.103  30.615  1.00  0.00     0.029 A 
ATOM     55  N   UNL A   1      42.148  27.609  32.002  1.00  0.00    -0.354 N 
ATOM     56  N   UNL A   1      42.136  30.002  34.894  1.00  0.00    -0.248 NA
ATOM     57  C   UNL A   1      43.058  30.293  36.992  1.00  0.00     0.031 C 
ATOM     58  C   UNL A   1      43.655  29.233  31.887  1.00  0.00     0.029 A 
ATOM     59  C   UNL A   1      43.036  28.351  32.758  1.00  0.00     0.049 A 
ATOM     60  H   UNL A   1      41.647  26.827  32.329  1.00  0.00     0.167 HD
ATOM     61  C   UNL A   1      42.993  28.951  35.094  1.00  0.00     0.074 A 
ATOM     62  C   UNL A   1      43.516  29.159  36.434  1.00  0.00     0.031 C 
ATOM     63  C   UNL A   1      43.281  28.009  34.148  1.00  0.00     0.037 A 
BRANCH  50  64
ATOM     64  C   UNL A   1      40.911  27.488  28.448  1.00  0.00     0.057 A 
ATOM     65  C   UNL A   1      40.332  26.271  28.021  1.00  0.00     0.134 A 
ATOM     66  C   UNL A   1      41.521  28.220  27.413  1.00  0.00     0.134 A 
ATOM     67  F   UNL A   1      39.612  25.503  28.848  1.00  0.00    -0.206 F 
ATOM     68  C   UNL A   1      40.446  25.776  26.714  1.00  0.00     0.040 A 
ATOM     69  C   UNL A   1      41.668  27.722  26.105  1.00  0.00     0.040 A 
ATOM     70  F   UNL A   1      41.946  29.476  27.594  1.00  0.00    -0.206 F 
ATOM     71  C   UNL A   1      41.142  26.488  25.754  1.00  0.00     0.006 A 
ENDBRANCH  50  64
BRANCH  51  72
ATOM     72  C   UNL A   1      40.372  32.585  36.755  1.00  0.00     0.057 A 
ATOM     73  C   UNL A   1      40.366  33.837  37.415  1.00  0.00     0.134 A 
ATOM     74  C   UNL A   1      39.135  31.943  36.655  1.00  0.00     0.134 A 
ATOM     75  F   UNL A   1      41.510  34.525  37.563  1.00  0.00    -0.206 F 
ATOM     76  C   UNL A   1      39.190  34.458  37.854  1.00  0.00     0.040 A 
ATOM     77  C   UNL A   1      37.948  32.545  37.115  1.00  0.00     0.040 A 
ATOM     78  F   UNL A   1      39.025  30.754  36.045  1.00  0.00    -0.206 F 
ATOM     79  C   UNL A   1      37.970  33.817  37.689  1.00  0.00     0.006 A 
ENDBRANCH  51  72
BRANCH  63  80
ATOM     80  C   UNL A   1      43.922  26.681  34.437  1.00  0.00     0.057 A 
ATOM     81  C   UNL A   1      43.192  25.539  34.786  1.00  0.00     0.134 A 
ATOM     82  C   UNL A   1      45.294  26.468  34.167  1.00  0.00     0.134 A 
ATOM     83  F   UNL A   1      41.862  25.576  34.953  1.00  0.00    -0.206 F 
ATOM     84  C   UNL A   1      43.793  24.285  34.923  1.00  0.00     0.040 A 
ATOM     85  C   UNL A   1      45.886  25.208  34.228  1.00  0.00     0.040 A 
ATOM     86  F   UNL A   1      46.110  27.465  33.795  1.00  0.00    -0.206 F 
ATOM     87  C   UNL A   1      45.139  24.113  34.627  1.00  0.00     0.006 A 
ENDBRANCH  63  80
ENDBRANCH  37  38
ENDBRANCH  30  32
ENDBRANCH  29  30
ENDBRANCH  28  29
ENDBRANCH   1  28
TORSDOF 14
ENDMDL
