MODEL 1
REMARK VINA RESULT:      -9.6      0.000      0.000
REMARK SMILES C[C@@H](CNC(=O)Cc1ccc(F)cc1F)C(=O)OCCOC(=O)c1ccc(-c2c3nc(c(-c4c(F)cccc4F)c4ccc([nH]4)c(-c4c(F)cccc4F)c4nc(c(-c5c(F)cccc5F)c5ccc2[nH]5)C=C4)C=C3)cc1
REMARK SMILES IDX 19 1 18 2 16 3 17 4 2 5 1 6 3 7 4 8 5 9 6 11 7 12 8 13 9 14
REMARK SMILES IDX 14 15 10 16 13 17 15 18 11 19 12 20 20 21 21 22 22 23 23 24
REMARK SMILES IDX 24 25 25 26 77 27 26 28 76 29 27 30 28 31 29 32 70 33 30 34
REMARK SMILES IDX 75 35 69 36 71 37 31 38 74 39 68 40 67 41 32 43 58 44 41 45
REMARK SMILES IDX 57 46 42 47 45 48 56 49 72 50 43 51 44 52 55 54 73 55 46 56
REMARK SMILES IDX 33 57 34 58 39 59 35 60 36 61 38 62 40 63 37 64 59 65 60 66
REMARK SMILES IDX 65 67 61 68 62 69 64 70 66 71 63 72 47 73 48 74 53 75 49 76
REMARK SMILES IDX 50 77 52 78 54 79 51 80
REMARK H PARENT 4 10 71 42 45 53
REMARK Flexibility Score: inf
ROOT
ATOM      1  C   UNL A   1      33.753  35.032  28.844  1.00  0.00     0.274 C 
ENDROOT
BRANCH   1   2
ATOM      2  O   UNL A   1      33.112  34.676  30.085  1.00  0.00    -0.462 OA
BRANCH   2   3
ATOM      3  C   UNL A   1      32.971  35.668  31.002  1.00  0.00     0.310 C 
ATOM      4  O   UNL A   1      32.153  36.579  30.932  1.00  0.00    -0.252 OA
BRANCH   3   5
ATOM      5  C   UNL A   1      33.973  35.582  32.132  1.00  0.00     0.115 C 
ATOM      6  C   UNL A   1      34.188  36.895  32.878  1.00  0.00     0.022 C 
BRANCH   5   7
ATOM      7  C   UNL A   1      33.604  34.415  33.050  1.00  0.00     0.130 C 
BRANCH   7   8
ATOM      8  N   UNL A   1      34.083  33.131  32.567  1.00  0.00    -0.355 N 
ATOM      9  C   UNL A   1      35.364  32.684  32.410  1.00  0.00     0.224 C 
ATOM     10  H   UNL A   1      33.381  32.489  32.316  1.00  0.00     0.163 HD
ATOM     11  O   UNL A   1      35.526  31.556  31.940  1.00  0.00    -0.275 OA
BRANCH   9  12
ATOM     12  C   UNL A   1      36.539  33.527  32.879  1.00  0.00     0.138 C 
BRANCH  12  13
ATOM     13  C   UNL A   1      37.572  33.870  31.833  1.00  0.00    -0.003 A 
ATOM     14  C   UNL A   1      37.222  33.877  30.472  1.00  0.00     0.010 A 
ATOM     15  C   UNL A   1      38.874  34.245  32.182  1.00  0.00     0.129 A 
ATOM     16  C   UNL A   1      38.168  34.203  29.498  1.00  0.00     0.040 A 
ATOM     17  C   UNL A   1      39.821  34.578  31.218  1.00  0.00     0.078 A 
ATOM     18  F   UNL A   1      39.243  34.274  33.470  1.00  0.00    -0.207 F 
ATOM     19  C   UNL A   1      39.461  34.543  29.880  1.00  0.00     0.126 A 
ATOM     20  F   UNL A   1      40.367  34.847  28.942  1.00  0.00    -0.207 F 
ENDBRANCH  12  13
ENDBRANCH   9  12
ENDBRANCH   7   8
ENDBRANCH   5   7
ENDBRANCH   3   5
ENDBRANCH   2   3
ENDBRANCH   1   2
BRANCH   1  21
ATOM     21  C   UNL A   1      34.259  33.823  28.050  1.00  0.00     0.275 C 
BRANCH  21  22
ATOM     22  O   UNL A   1      34.541  32.693  28.897  1.00  0.00    -0.458 OA
BRANCH  22  23
ATOM     23  C   UNL A   1      34.401  31.495  28.286  1.00  0.00     0.338 C 
ATOM     24  O   UNL A   1      33.427  31.100  27.663  1.00  0.00    -0.246 OA
BRANCH  23  25
ATOM     25  C   UNL A   1      35.655  30.724  28.333  1.00  0.00     0.060 A 
ATOM     26  C   UNL A   1      35.704  29.658  29.237  1.00  0.00     0.016 A 
ATOM     27  C   UNL A   1      36.796  31.110  27.626  1.00  0.00     0.016 A 
ATOM     28  C   UNL A   1      36.904  29.009  29.489  1.00  0.00     0.010 A 
ATOM     29  C   UNL A   1      38.011  30.465  27.890  1.00  0.00     0.010 A 
ATOM     30  C   UNL A   1      38.074  29.446  28.857  1.00  0.00    -0.014 A 
BRANCH  30  31
ATOM     31  C   UNL A   1      39.368  28.953  29.382  1.00  0.00     0.031 A 
ATOM     32  C   UNL A   1      39.901  29.549  30.655  1.00  0.00     0.074 A 
ATOM     33  C   UNL A   1      39.985  27.907  28.809  1.00  0.00     0.049 A 
ATOM     34  N   UNL A   1      40.975  29.233  31.333  1.00  0.00    -0.248 NA
ATOM     35  C   UNL A   1      39.112  30.639  31.253  1.00  0.00     0.031 C 
ATOM     36  C   UNL A   1      39.518  27.202  27.617  1.00  0.00     0.029 A 
ATOM     37  N   UNL A   1      41.126  27.239  29.173  1.00  0.00    -0.354 N 
ATOM     38  C   UNL A   1      40.992  30.086  32.429  1.00  0.00     0.074 A 
ATOM     39  C   UNL A   1      39.835  30.947  32.318  1.00  0.00     0.031 C 
ATOM     40  C   UNL A   1      40.359  26.186  27.357  1.00  0.00     0.029 A 
ATOM     41  C   UNL A   1      41.433  26.186  28.348  1.00  0.00     0.049 A 
ATOM     42  H   UNL A   1      41.672  27.491  29.953  1.00  0.00     0.167 HD
ATOM     43  C   UNL A   1      41.888  30.142  33.443  1.00  0.00     0.037 A 
ATOM     44  C   UNL A   1      42.466  25.324  28.391  1.00  0.00     0.037 A 
ATOM     45  C   UNL A   1      43.035  29.283  33.555  1.00  0.00     0.049 A 
ATOM     46  C   UNL A   1      43.479  25.441  29.496  1.00  0.00     0.074 A 
ATOM     47  C   UNL A   1      44.022  29.283  34.523  1.00  0.00     0.029 A 
ATOM     48  N   UNL A   1      43.341  28.263  32.666  1.00  0.00    -0.354 N 
ATOM     49  N   UNL A   1      43.505  26.272  30.509  1.00  0.00    -0.248 NA
ATOM     50  C   UNL A   1      44.607  24.499  29.465  1.00  0.00     0.031 C 
ATOM     51  C   UNL A   1      44.944  28.278  34.207  1.00  0.00     0.029 A 
ATOM     52  C   UNL A   1      44.508  27.630  33.062  1.00  0.00     0.049 A 
ATOM     53  H   UNL A   1      42.809  28.024  31.874  1.00  0.00     0.167 HD
ATOM     54  C   UNL A   1      44.635  25.944  31.245  1.00  0.00     0.074 A 
ATOM     55  C   UNL A   1      45.264  24.828  30.568  1.00  0.00     0.031 C 
ATOM     56  C   UNL A   1      45.110  26.515  32.379  1.00  0.00     0.037 A 
BRANCH  43  57
ATOM     57  C   UNL A   1      41.670  31.188  34.492  1.00  0.00     0.057 A 
ATOM     58  C   UNL A   1      40.928  30.900  35.643  1.00  0.00     0.134 A 
ATOM     59  C   UNL A   1      42.180  32.485  34.357  1.00  0.00     0.134 A 
ATOM     60  F   UNL A   1      40.413  29.675  35.832  1.00  0.00    -0.206 F 
ATOM     61  C   UNL A   1      40.696  31.866  36.622  1.00  0.00     0.040 A 
ATOM     62  C   UNL A   1      41.973  33.456  35.338  1.00  0.00     0.040 A 
ATOM     63  F   UNL A   1      42.916  32.818  33.285  1.00  0.00    -0.206 F 
ATOM     64  C   UNL A   1      41.224  33.147  36.473  1.00  0.00     0.006 A 
ENDBRANCH  43  57
BRANCH  44  65
ATOM     65  C   UNL A   1      42.586  24.269  27.356  1.00  0.00     0.057 A 
ATOM     66  C   UNL A   1      43.186  24.530  26.118  1.00  0.00     0.134 A 
ATOM     67  C   UNL A   1      42.095  22.978  27.577  1.00  0.00     0.134 A 
ATOM     68  F   UNL A   1      43.677  25.748  25.847  1.00  0.00    -0.206 F 
ATOM     69  C   UNL A   1      43.280  23.549  25.131  1.00  0.00     0.040 A 
ATOM     70  C   UNL A   1      42.199  21.981  26.607  1.00  0.00     0.040 A 
ATOM     71  F   UNL A   1      41.528  22.663  28.752  1.00  0.00    -0.206 F 
ATOM     72  C   UNL A   1      42.788  22.268  25.376  1.00  0.00     0.006 A 
ENDBRANCH  44  65
BRANCH  56  73
ATOM     73  C   UNL A   1      46.354  25.928  32.976  1.00  0.00     0.057 A 
ATOM     74  C   UNL A   1      47.617  26.386  32.579  1.00  0.00     0.134 A 
ATOM     75  C   UNL A   1      46.302  24.874  33.895  1.00  0.00     0.134 A 
ATOM     76  F   UNL A   1      47.732  27.386  31.693  1.00  0.00    -0.206 F 
ATOM     77  C   UNL A   1      48.787  25.809  33.073  1.00  0.00     0.040 A 
ATOM     78  C   UNL A   1      47.467  24.303  34.411  1.00  0.00     0.040 A 
ATOM     79  F   UNL A   1      45.122  24.400  34.319  1.00  0.00    -0.206 F 
ATOM     80  C   UNL A   1      48.714  24.766  33.993  1.00  0.00     0.006 A 
ENDBRANCH  56  73
ENDBRANCH  30  31
ENDBRANCH  23  25
ENDBRANCH  22  23
ENDBRANCH  21  22
ENDBRANCH   1  21
TORSDOF 15
ENDMDL
MODEL 2
REMARK VINA RESULT:      -9.4      5.920      9.327
REMARK SMILES C[C@@H](CNC(=O)Cc1ccc(F)cc1F)C(=O)OCCOC(=O)c1ccc(-c2c3nc(c(-c4c(F)cccc4F)c4ccc([nH]4)c(-c4c(F)cccc4F)c4nc(c(-c5c(F)cccc5F)c5ccc2[nH]5)C=C4)C=C3)cc1
REMARK SMILES IDX 19 1 18 2 16 3 17 4 2 5 1 6 3 7 4 8 5 9 6 11 7 12 8 13 9 14
REMARK SMILES IDX 14 15 10 16 13 17 15 18 11 19 12 20 20 21 21 22 22 23 23 24
REMARK SMILES IDX 24 25 25 26 77 27 26 28 76 29 27 30 28 31 29 32 70 33 30 34
REMARK SMILES IDX 75 35 69 36 71 37 31 38 74 39 68 40 67 41 32 43 58 44 41 45
REMARK SMILES IDX 57 46 42 47 45 48 56 49 72 50 43 51 44 52 55 54 73 55 46 56
REMARK SMILES IDX 33 57 34 58 39 59 35 60 36 61 38 62 40 63 37 64 59 65 60 66
REMARK SMILES IDX 65 67 61 68 62 69 64 70 66 71 63 72 47 73 48 74 53 75 49 76
REMARK SMILES IDX 50 77 52 78 54 79 51 80
REMARK H PARENT 4 10 71 42 45 53
REMARK Flexibility Score: inf
ROOT
ATOM      1  C   UNL A   1      35.417  20.460  24.980  1.00  0.00     0.274 C 
ENDROOT
BRANCH   1   2
ATOM      2  O   UNL A   1      34.586  19.314  24.710  1.00  0.00    -0.462 OA
BRANCH   2   3
ATOM      3  C   UNL A   1      33.245  19.496  24.826  1.00  0.00     0.310 C 
ATOM      4  O   UNL A   1      32.481  18.740  25.416  1.00  0.00    -0.252 OA
BRANCH   3   5
ATOM      5  C   UNL A   1      32.746  20.725  24.097  1.00  0.00     0.115 C 
ATOM      6  C   UNL A   1      32.153  20.438  22.721  1.00  0.00     0.022 C 
BRANCH   5   7
ATOM      7  C   UNL A   1      31.804  21.509  25.012  1.00  0.00     0.130 C 
BRANCH   7   8
ATOM      8  N   UNL A   1      32.301  21.638  26.372  1.00  0.00    -0.355 N 
ATOM      9  C   UNL A   1      32.198  22.688  27.239  1.00  0.00     0.224 C 
ATOM     10  H   UNL A   1      32.782  20.853  26.718  1.00  0.00     0.163 HD
ATOM     11  O   UNL A   1      32.739  22.579  28.341  1.00  0.00    -0.275 OA
BRANCH   9  12
ATOM     12  C   UNL A   1      31.371  23.911  26.877  1.00  0.00     0.138 C 
BRANCH  12  13
ATOM     13  C   UNL A   1      32.118  25.050  26.227  1.00  0.00    -0.003 A 
ATOM     14  C   UNL A   1      33.418  24.850  25.732  1.00  0.00     0.010 A 
ATOM     15  C   UNL A   1      31.527  26.306  26.043  1.00  0.00     0.129 A 
ATOM     16  C   UNL A   1      34.113  25.896  25.119  1.00  0.00     0.040 A 
ATOM     17  C   UNL A   1      32.210  27.351  25.427  1.00  0.00     0.078 A 
ATOM     18  F   UNL A   1      30.281  26.533  26.479  1.00  0.00    -0.207 F 
ATOM     19  C   UNL A   1      33.504  27.138  24.980  1.00  0.00     0.126 A 
ATOM     20  F   UNL A   1      34.177  28.140  24.399  1.00  0.00    -0.207 F 
ENDBRANCH  12  13
ENDBRANCH   9  12
ENDBRANCH   7   8
ENDBRANCH   5   7
ENDBRANCH   3   5
ENDBRANCH   2   3
ENDBRANCH   1   2
BRANCH   1  21
ATOM     21  C   UNL A   1      36.915  20.135  25.001  1.00  0.00     0.275 C 
BRANCH  21  22
ATOM     22  O   UNL A   1      37.725  21.310  25.192  1.00  0.00    -0.458 OA
BRANCH  22  23
ATOM     23  C   UNL A   1      38.898  21.077  25.823  1.00  0.00     0.338 C 
ATOM     24  O   UNL A   1      39.565  20.054  25.776  1.00  0.00    -0.246 OA
BRANCH  23  25
ATOM     25  C   UNL A   1      39.388  22.289  26.501  1.00  0.00     0.060 A 
ATOM     26  C   UNL A   1      38.799  23.501  26.126  1.00  0.00     0.016 A 
ATOM     27  C   UNL A   1      40.482  22.269  27.370  1.00  0.00     0.016 A 
ATOM     28  C   UNL A   1      39.336  24.704  26.564  1.00  0.00     0.010 A 
ATOM     29  C   UNL A   1      41.032  23.482  27.800  1.00  0.00     0.010 A 
ATOM     30  C   UNL A   1      40.487  24.701  27.359  1.00  0.00    -0.014 A 
BRANCH  30  31
ATOM     31  C   UNL A   1      41.207  25.983  27.537  1.00  0.00     0.031 A 
ATOM     32  C   UNL A   1      40.553  27.069  28.345  1.00  0.00     0.074 A 
ATOM     33  C   UNL A   1      42.469  26.125  27.101  1.00  0.00     0.049 A 
ATOM     34  N   UNL A   1      41.017  28.244  28.685  1.00  0.00    -0.248 NA
ATOM     35  C   UNL A   1      39.198  26.789  28.848  1.00  0.00     0.031 C 
ATOM     36  C   UNL A   1      43.229  25.110  26.373  1.00  0.00     0.029 A 
ATOM     37  N   UNL A   1      43.342  27.174  27.232  1.00  0.00    -0.354 N 
ATOM     38  C   UNL A   1      40.012  28.842  29.435  1.00  0.00     0.074 A 
ATOM     39  C   UNL A   1      38.905  27.913  29.484  1.00  0.00     0.031 C 
ATOM     40  C   UNL A   1      44.466  25.582  26.137  1.00  0.00     0.029 A 
ATOM     41  C   UNL A   1      44.574  26.937  26.674  1.00  0.00     0.049 A 
ATOM     42  H   UNL A   1      43.108  28.017  27.685  1.00  0.00     0.167 HD
ATOM     43  C   UNL A   1      40.015  30.055  30.036  1.00  0.00     0.037 A 
ATOM     44  C   UNL A   1      45.661  27.727  26.605  1.00  0.00     0.037 A 
ATOM     45  C   UNL A   1      41.117  30.976  29.991  1.00  0.00     0.049 A 
ATOM     46  C   UNL A   1      45.621  29.094  27.233  1.00  0.00     0.074 A 
ATOM     47  C   UNL A   1      41.206  32.244  30.536  1.00  0.00     0.029 A 
ATOM     48  N   UNL A   1      42.329  30.720  29.366  1.00  0.00    -0.354 N 
ATOM     49  N   UNL A   1      44.654  29.664  27.911  1.00  0.00    -0.248 NA
ATOM     50  C   UNL A   1      46.823  29.927  27.087  1.00  0.00     0.031 C 
ATOM     51  C   UNL A   1      42.464  32.769  30.219  1.00  0.00     0.029 A 
ATOM     52  C   UNL A   1      43.170  31.811  29.508  1.00  0.00     0.049 A 
ATOM     53  H   UNL A   1      42.557  29.888  28.894  1.00  0.00     0.167 HD
ATOM     54  C   UNL A   1      45.135  30.910  28.288  1.00  0.00     0.074 A 
ATOM     55  C   UNL A   1      46.485  31.010  27.774  1.00  0.00     0.031 C 
ATOM     56  C   UNL A   1      44.514  31.884  28.997  1.00  0.00     0.037 A 
BRANCH  43  57
ATOM     57  C   UNL A   1      38.772  30.459  30.769  1.00  0.00     0.057 A 
ATOM     58  C   UNL A   1      37.746  31.144  30.108  1.00  0.00     0.134 A 
ATOM     59  C   UNL A   1      38.598  30.186  32.131  1.00  0.00     0.134 A 
ATOM     60  F   UNL A   1      37.853  31.435  28.802  1.00  0.00    -0.206 F 
ATOM     61  C   UNL A   1      36.591  31.548  30.777  1.00  0.00     0.040 A 
ATOM     62  C   UNL A   1      37.438  30.566  32.807  1.00  0.00     0.040 A 
ATOM     63  F   UNL A   1      39.537  29.515  32.815  1.00  0.00    -0.206 F 
ATOM     64  C   UNL A   1      36.432  31.255  32.130  1.00  0.00     0.006 A 
ENDBRANCH  43  57
BRANCH  44  65
ATOM     65  C   UNL A   1      46.882  27.240  25.920  1.00  0.00     0.057 A 
ATOM     66  C   UNL A   1      47.883  26.555  26.618  1.00  0.00     0.134 A 
ATOM     67  C   UNL A   1      47.081  27.458  24.552  1.00  0.00     0.134 A 
ATOM     68  F   UNL A   1      47.750  26.315  27.931  1.00  0.00    -0.206 F 
ATOM     69  C   UNL A   1      49.046  26.117  25.984  1.00  0.00     0.040 A 
ATOM     70  C   UNL A   1      48.229  27.008  23.900  1.00  0.00     0.040 A 
ATOM     71  F   UNL A   1      46.146  28.092  23.826  1.00  0.00    -0.206 F 
ATOM     72  C   UNL A   1      49.220  26.340  24.619  1.00  0.00     0.006 A 
ENDBRANCH  44  65
BRANCH  56  73
ATOM     73  C   UNL A   1      45.295  33.132  29.282  1.00  0.00     0.057 A 
ATOM     74  C   UNL A   1      46.029  33.256  30.469  1.00  0.00     0.134 A 
ATOM     75  C   UNL A   1      45.273  34.228  28.413  1.00  0.00     0.134 A 
ATOM     76  F   UNL A   1      46.080  32.243  31.347  1.00  0.00    -0.206 F 
ATOM     77  C   UNL A   1      46.708  34.433  30.784  1.00  0.00     0.040 A 
ATOM     78  C   UNL A   1      45.965  35.404  28.708  1.00  0.00     0.040 A 
ATOM     79  F   UNL A   1      44.596  34.166  27.257  1.00  0.00    -0.206 F 
ATOM     80  C   UNL A   1      46.680  35.510  29.901  1.00  0.00     0.006 A 
ENDBRANCH  56  73
ENDBRANCH  30  31
ENDBRANCH  23  25
ENDBRANCH  22  23
ENDBRANCH  21  22
ENDBRANCH   1  21
TORSDOF 15
ENDMDL
MODEL 3
REMARK VINA RESULT:      -9.4      5.747     10.597
REMARK SMILES C[C@@H](CNC(=O)Cc1ccc(F)cc1F)C(=O)OCCOC(=O)c1ccc(-c2c3nc(c(-c4c(F)cccc4F)c4ccc([nH]4)c(-c4c(F)cccc4F)c4nc(c(-c5c(F)cccc5F)c5ccc2[nH]5)C=C4)C=C3)cc1
REMARK SMILES IDX 19 1 18 2 16 3 17 4 2 5 1 6 3 7 4 8 5 9 6 11 7 12 8 13 9 14
REMARK SMILES IDX 14 15 10 16 13 17 15 18 11 19 12 20 20 21 21 22 22 23 23 24
REMARK SMILES IDX 24 25 25 26 77 27 26 28 76 29 27 30 28 31 29 32 70 33 30 34
REMARK SMILES IDX 75 35 69 36 71 37 31 38 74 39 68 40 67 41 32 43 58 44 41 45
REMARK SMILES IDX 57 46 42 47 45 48 56 49 72 50 43 51 44 52 55 54 73 55 46 56
REMARK SMILES IDX 33 57 34 58 39 59 35 60 36 61 38 62 40 63 37 64 59 65 60 66
REMARK SMILES IDX 65 67 61 68 62 69 64 70 66 71 63 72 47 73 48 74 53 75 49 76
REMARK SMILES IDX 50 77 52 78 54 79 51 80
REMARK H PARENT 4 10 71 42 45 53
REMARK Flexibility Score: inf
ROOT
ATOM      1  C   UNL A   1      36.052  20.752  25.361  1.00  0.00     0.274 C 
ENDROOT
BRANCH   1   2
ATOM      2  O   UNL A   1      35.246  21.190  24.249  1.00  0.00    -0.462 OA
BRANCH   2   3
ATOM      3  C   UNL A   1      35.350  22.500  23.904  1.00  0.00     0.310 C 
ATOM      4  O   UNL A   1      35.968  22.925  22.934  1.00  0.00    -0.252 OA
BRANCH   3   5
ATOM      5  C   UNL A   1      34.656  23.429  24.876  1.00  0.00     0.115 C 
ATOM      6  C   UNL A   1      35.565  24.493  25.482  1.00  0.00     0.022 C 
BRANCH   5   7
ATOM      7  C   UNL A   1      33.400  24.006  24.219  1.00  0.00     0.130 C 
BRANCH   7   8
ATOM      8  N   UNL A   1      33.670  24.681  22.961  1.00  0.00    -0.355 N 
ATOM      9  C   UNL A   1      33.446  25.980  22.606  1.00  0.00     0.224 C 
ATOM     10  H   UNL A   1      34.074  24.118  22.262  1.00  0.00     0.163 HD
ATOM     11  O   UNL A   1      33.725  26.318  21.454  1.00  0.00    -0.275 OA
BRANCH   9  12
ATOM     12  C   UNL A   1      32.945  26.985  23.631  1.00  0.00     0.138 C 
BRANCH  12  13
ATOM     13  C   UNL A   1      31.552  27.524  23.409  1.00  0.00    -0.003 A 
ATOM     14  C   UNL A   1      31.370  28.781  22.805  1.00  0.00     0.010 A 
ATOM     15  C   UNL A   1      30.415  26.777  23.734  1.00  0.00     0.129 A 
ATOM     16  C   UNL A   1      30.085  29.283  22.585  1.00  0.00     0.040 A 
ATOM     17  C   UNL A   1      29.131  27.267  23.512  1.00  0.00     0.078 A 
ATOM     18  F   UNL A   1      30.543  25.565  24.290  1.00  0.00    -0.207 F 
ATOM     19  C   UNL A   1      28.978  28.524  22.949  1.00  0.00     0.126 A 
ATOM     20  F   UNL A   1      27.749  29.013  22.743  1.00  0.00    -0.207 F 
ENDBRANCH  12  13
ENDBRANCH   9  12
ENDBRANCH   7   8
ENDBRANCH   5   7
ENDBRANCH   3   5
ENDBRANCH   2   3
ENDBRANCH   1   2
BRANCH   1  21
ATOM     21  C   UNL A   1      37.454  20.287  24.952  1.00  0.00     0.275 C 
BRANCH  21  22
ATOM     22  O   UNL A   1      38.443  21.319  25.126  1.00  0.00    -0.458 OA
BRANCH  22  23
ATOM     23  C   UNL A   1      39.417  21.008  26.011  1.00  0.00     0.338 C 
ATOM     24  O   UNL A   1      40.007  19.942  26.107  1.00  0.00    -0.246 OA
BRANCH  23  25
ATOM     25  C   UNL A   1      39.812  22.185  26.803  1.00  0.00     0.060 A 
ATOM     26  C   UNL A   1      39.148  23.383  26.523  1.00  0.00     0.016 A 
ATOM     27  C   UNL A   1      40.892  22.161  27.689  1.00  0.00     0.016 A 
ATOM     28  C   UNL A   1      39.594  24.576  27.076  1.00  0.00     0.010 A 
ATOM     29  C   UNL A   1      41.351  23.365  28.236  1.00  0.00     0.010 A 
ATOM     30  C   UNL A   1      40.731  24.579  27.891  1.00  0.00    -0.014 A 
BRANCH  30  31
ATOM     31  C   UNL A   1      41.359  25.886  28.196  1.00  0.00     0.031 A 
ATOM     32  C   UNL A   1      42.734  26.166  27.657  1.00  0.00     0.074 A 
ATOM     33  C   UNL A   1      40.664  26.848  28.825  1.00  0.00     0.049 A 
ATOM     34  N   UNL A   1      43.451  27.257  27.742  1.00  0.00    -0.248 NA
ATOM     35  C   UNL A   1      43.383  25.075  26.911  1.00  0.00     0.031 C 
ATOM     36  C   UNL A   1      39.297  26.712  29.323  1.00  0.00     0.029 A 
ATOM     37  N   UNL A   1      41.010  28.140  29.127  1.00  0.00    -0.354 N 
ATOM     38  C   UNL A   1      44.634  26.981  27.067  1.00  0.00     0.074 A 
ATOM     39  C   UNL A   1      44.549  25.617  26.596  1.00  0.00     0.031 C 
ATOM     40  C   UNL A   1      38.911  27.886  29.855  1.00  0.00     0.029 A 
ATOM     41  C   UNL A   1      40.012  28.842  29.757  1.00  0.00     0.049 A 
ATOM     42  H   UNL A   1      41.889  28.527  28.912  1.00  0.00     0.167 HD
ATOM     43  C   UNL A   1      45.693  27.796  26.851  1.00  0.00     0.037 A 
ATOM     44  C   UNL A   1      39.995  30.112  30.203  1.00  0.00     0.037 A 
ATOM     45  C   UNL A   1      45.775  29.154  27.316  1.00  0.00     0.049 A 
ATOM     46  C   UNL A   1      41.205  30.981  30.001  1.00  0.00     0.074 A 
ATOM     47  C   UNL A   1      46.819  30.052  27.181  1.00  0.00     0.029 A 
ATOM     48  N   UNL A   1      44.764  29.812  28.000  1.00  0.00    -0.354 N 
ATOM     49  N   UNL A   1      42.332  30.701  29.391  1.00  0.00    -0.248 NA
ATOM     50  C   UNL A   1      41.142  32.344  30.549  1.00  0.00     0.031 C 
ATOM     51  C   UNL A   1      46.450  31.247  27.808  1.00  0.00     0.029 A 
ATOM     52  C   UNL A   1      45.162  31.104  28.300  1.00  0.00     0.049 A 
ATOM     53  H   UNL A   1      43.892  29.420  28.236  1.00  0.00     0.167 HD
ATOM     54  C   UNL A   1      43.103  31.854  29.464  1.00  0.00     0.074 A 
ATOM     55  C   UNL A   1      42.310  32.842  30.167  1.00  0.00     0.031 C 
ATOM     56  C   UNL A   1      44.353  32.074  28.991  1.00  0.00     0.037 A 
BRANCH  43  57
ATOM     57  C   UNL A   1      46.858  27.223  26.104  1.00  0.00     0.057 A 
ATOM     58  C   UNL A   1      46.977  27.407  24.721  1.00  0.00     0.134 A 
ATOM     59  C   UNL A   1      47.851  26.475  26.747  1.00  0.00     0.134 A 
ATOM     60  F   UNL A   1      46.058  28.115  24.047  1.00  0.00    -0.206 F 
ATOM     61  C   UNL A   1      48.042  26.864  24.002  1.00  0.00     0.040 A 
ATOM     62  C   UNL A   1      48.933  25.943  26.043  1.00  0.00     0.040 A 
ATOM     63  F   UNL A   1      47.803  26.280  28.073  1.00  0.00    -0.206 F 
ATOM     64  C   UNL A   1      49.027  26.133  24.665  1.00  0.00     0.006 A 
ENDBRANCH  43  57
BRANCH  44  65
ATOM     65  C   UNL A   1      38.784  30.637  30.879  1.00  0.00     0.057 A 
ATOM     66  C   UNL A   1      37.801  31.337  30.169  1.00  0.00     0.134 A 
ATOM     67  C   UNL A   1      38.587  30.460  32.252  1.00  0.00     0.134 A 
ATOM     68  F   UNL A   1      37.933  31.539  28.850  1.00  0.00    -0.206 F 
ATOM     69  C   UNL A   1      36.673  31.856  30.804  1.00  0.00     0.040 A 
ATOM     70  C   UNL A   1      37.454  30.956  32.898  1.00  0.00     0.040 A 
ATOM     71  F   UNL A   1      39.485  29.779  32.981  1.00  0.00    -0.206 F 
ATOM     72  C   UNL A   1      36.495  31.662  32.173  1.00  0.00     0.006 A 
ENDBRANCH  44  65
BRANCH  56  73
ATOM     73  C   UNL A   1      44.935  33.441  29.193  1.00  0.00     0.057 A 
ATOM     74  C   UNL A   1      45.666  33.739  30.350  1.00  0.00     0.134 A 
ATOM     75  C   UNL A   1      44.720  34.474  28.274  1.00  0.00     0.134 A 
ATOM     76  F   UNL A   1      45.896  32.793  31.273  1.00  0.00    -0.206 F 
ATOM     77  C   UNL A   1      46.159  35.022  30.588  1.00  0.00     0.040 A 
ATOM     78  C   UNL A   1      45.226  35.757  28.492  1.00  0.00     0.040 A 
ATOM     79  F   UNL A   1      44.035  34.247  27.144  1.00  0.00    -0.206 F 
ATOM     80  C   UNL A   1      45.941  36.035  29.656  1.00  0.00     0.006 A 
ENDBRANCH  56  73
ENDBRANCH  30  31
ENDBRANCH  23  25
ENDBRANCH  22  23
ENDBRANCH  21  22
ENDBRANCH   1  21
TORSDOF 15
ENDMDL
