MODEL 1
REMARK VINA RESULT:     -12.0      0.000      0.000
REMARK SMILES COc1ccc(-c2cccc(Cl)c2C(=O)OCCOC(=O)c2ccc(-c3c4nc(c(-c5c(F)cccc5F)c5ccc([nH]5)c(-c5c(F)cccc5F)c5nc(c(-c6c(F)cccc6F)c6ccc3[nH]6)C=C5)C=C4)cc2)c(F)c1
REMARK SMILES IDX 17 1 16 2 14 3 15 4 13 5 7 6 8 7 9 8 11 9 10 10 12 11 6 12
REMARK SMILES IDX 3 13 4 14 78 15 5 16 76 17 77 18 2 19 1 20 18 21 19 22 20 23
REMARK SMILES IDX 21 24 22 25 23 26 75 27 24 28 74 29 25 30 26 31 27 32 68 33
REMARK SMILES IDX 28 34 73 35 67 36 69 37 29 38 72 39 66 40 65 41 30 43 56 44
REMARK SMILES IDX 39 45 55 46 40 47 43 48 54 49 70 50 41 51 42 52 53 54 71 55
REMARK SMILES IDX 44 56 31 57 32 58 37 59 33 60 34 61 36 62 38 63 35 64 57 65
REMARK SMILES IDX 58 66 63 67 59 68 60 69 62 70 64 71 61 72 45 73 46 74 51 75
REMARK SMILES IDX 47 76 48 77 50 78 52 79 49 80
REMARK H PARENT 69 42 43 53
REMARK Flexibility Score: inf
ROOT
ATOM      1  C   UNL A   1      32.270  28.614  24.274  1.00  0.00     0.275 C 
ENDROOT
BRANCH   1   2
ATOM      2  O   UNL A   1      31.618  28.952  23.028  1.00  0.00    -0.458 OA
BRANCH   2   3
ATOM      3  C   UNL A   1      30.905  27.954  22.451  1.00  0.00     0.340 C 
ATOM      4  O   UNL A   1      31.276  27.241  21.534  1.00  0.00    -0.246 OA
BRANCH   3   5
ATOM      5  C   UNL A   1      29.559  27.846  23.058  1.00  0.00     0.086 A 
ATOM      6  C   UNL A   1      29.195  26.733  23.867  1.00  0.00     0.001 A 
ATOM      7  C   UNL A   1      27.849  26.591  24.235  1.00  0.00     0.010 A 
ATOM      8  C   UNL A   1      26.892  27.523  23.822  1.00  0.00     0.002 A 
ATOM      9  C   UNL A   1      28.595  28.789  22.667  1.00  0.00     0.056 A 
ATOM     10  C   UNL A   1      27.266  28.624  23.053  1.00  0.00     0.021 A 
ATOM     11  Cl  UNL A   1      28.959  30.146  21.654  1.00  0.00    -0.083 Cl
BRANCH   6  12
ATOM     12  C   UNL A   1      30.153  25.680  24.232  1.00  0.00     0.019 A 
ATOM     13  C   UNL A   1      31.889  22.777  25.795  1.00  0.00     0.121 A 
ATOM     14  C   UNL A   1      31.384  22.637  24.089  1.00  0.00     0.047 A 
ATOM     15  C   UNL A   1      31.549  24.263  26.649  1.00  0.00     0.086 A 
ATOM     16  C   UNL A   1      30.480  24.219  23.204  1.00  0.00     0.015 A 
ATOM     17  C   UNL A   1      30.727  25.644  25.908  1.00  0.00     0.134 A 
ATOM     18  F   UNL A   1      30.566  26.745  26.660  1.00  0.00    -0.206 F 
BRANCH  13  19
ATOM     19  O   UNL A   1      32.687  21.862  26.422  1.00  0.00    -0.497 OA
ATOM     20  C   UNL A   1      34.073  22.014  26.114  1.00  0.00     0.278 C 
ENDBRANCH  13  19
ENDBRANCH   6  12
ENDBRANCH   3   5
ENDBRANCH   2   3
ENDBRANCH   1   2
BRANCH   1  21
ATOM     21  C   UNL A   1      31.725  29.486  25.397  1.00  0.00     0.275 C 
BRANCH  21  22
ATOM     22  O   UNL A   1      32.622  30.596  25.572  1.00  0.00    -0.458 OA
BRANCH  22  23
ATOM     23  C   UNL A   1      32.410  31.299  26.700  1.00  0.00     0.338 C 
ATOM     24  O   UNL A   1      31.384  31.853  27.062  1.00  0.00    -0.246 OA
BRANCH  23  25
ATOM     25  C   UNL A   1      33.577  31.222  27.572  1.00  0.00     0.060 A 
ATOM     26  C   UNL A   1      34.557  32.682  27.934  1.00  0.00     0.016 A 
ATOM     27  C   UNL A   1      34.339  29.650  27.738  1.00  0.00     0.016 A 
ATOM     28  C   UNL A   1      36.496  32.420  28.455  1.00  0.00     0.010 A 
ATOM     29  C   UNL A   1      36.019  29.431  28.274  1.00  0.00     0.010 A 
ATOM     30  C   UNL A   1      37.144  30.751  28.663  1.00  0.00    -0.014 A 
BRANCH  30  31
ATOM     31  C   UNL A   1      38.420  30.478  29.486  1.00  0.00     0.031 A 
ATOM     32  C   UNL A   1      39.479  29.503  28.984  1.00  0.00     0.074 A 
ATOM     33  C   UNL A   1      38.601  30.929  30.759  1.00  0.00     0.049 A 
ATOM     34  N   UNL A   1      40.389  28.834  29.657  1.00  0.00    -0.248 NA
ATOM     35  C   UNL A   1      39.471  29.179  27.551  1.00  0.00     0.031 C 
ATOM     36  C   UNL A   1      37.712  31.797  31.517  1.00  0.00     0.029 A 
ATOM     37  N   UNL A   1      39.600  30.676  31.691  1.00  0.00    -0.354 N 
ATOM     38  C   UNL A   1      40.975  27.953  28.751  1.00  0.00     0.074 A 
ATOM     39  C   UNL A   1      40.244  28.103  27.511  1.00  0.00     0.031 C 
ATOM     40  C   UNL A   1      38.186  32.049  32.734  1.00  0.00     0.029 A 
ATOM     41  C   UNL A   1      39.387  31.274  32.920  1.00  0.00     0.049 A 
ATOM     42  H   UNL A   1      40.389  30.121  31.493  1.00  0.00     0.167 HD
ATOM     43  C   UNL A   1      42.061  27.150  28.895  1.00  0.00     0.037 A 
ATOM     44  C   UNL A   1      40.009  31.216  34.112  1.00  0.00     0.037 A 
ATOM     45  C   UNL A   1      42.907  27.127  30.063  1.00  0.00     0.049 A 
ATOM     46  C   UNL A   1      41.232  30.383  34.246  1.00  0.00     0.074 A 
ATOM     47  C   UNL A   1      44.113  26.465  30.237  1.00  0.00     0.029 A 
ATOM     48  N   UNL A   1      42.668  27.826  31.236  1.00  0.00    -0.354 N 
ATOM     49  N   UNL A   1      41.758  29.573  33.366  1.00  0.00    -0.248 NA
ATOM     50  C   UNL A   1      41.958  30.467  35.518  1.00  0.00     0.031 C 
ATOM     51  C   UNL A   1      44.593  26.749  31.518  1.00  0.00     0.029 A 
ATOM     52  C   UNL A   1      43.708  27.618  32.131  1.00  0.00     0.049 A 
ATOM     53  H   UNL A   1      41.878  28.387  31.408  1.00  0.00     0.167 HD
ATOM     54  C   UNL A   1      42.906  29.080  33.958  1.00  0.00     0.074 A 
ATOM     55  C   UNL A   1      42.997  29.679  35.275  1.00  0.00     0.031 C 
ATOM     56  C   UNL A   1      43.806  28.215  33.438  1.00  0.00     0.037 A 
BRANCH  43  57
ATOM     57  C   UNL A   1      42.461  26.280  27.726  1.00  0.00     0.057 A 
ATOM     58  C   UNL A   1      43.296  26.770  26.711  1.00  0.00     0.134 A 
ATOM     59  C   UNL A   1      41.977  24.973  27.574  1.00  0.00     0.134 A 
ATOM     60  F   UNL A   1      43.775  28.022  26.765  1.00  0.00    -0.206 F 
ATOM     61  C   UNL A   1      43.645  25.989  25.605  1.00  0.00     0.040 A 
ATOM     62  C   UNL A   1      42.352  24.167  26.496  1.00  0.00     0.040 A 
ATOM     63  F   UNL A   1      41.164  24.437  28.498  1.00  0.00    -0.206 F 
ATOM     64  C   UNL A   1      43.185  24.678  25.503  1.00  0.00     0.006 A 
ENDBRANCH  43  57
BRANCH  44  65
ATOM     65  C   UNL A   1      39.490  32.027  35.250  1.00  0.00     0.057 A 
ATOM     66  C   UNL A   1      38.547  31.516  36.153  1.00  0.00     0.134 A 
ATOM     67  C   UNL A   1      39.848  33.373  35.388  1.00  0.00     0.134 A 
ATOM     68  F   UNL A   1      38.136  30.242  36.055  1.00  0.00    -0.206 F 
ATOM     69  C   UNL A   1      37.962  32.320  37.134  1.00  0.00     0.040 A 
ATOM     70  C   UNL A   1      39.291  34.181  36.380  1.00  0.00     0.040 A 
ATOM     71  F   UNL A   1      40.747  33.919  34.556  1.00  0.00    -0.206 F 
ATOM     72  C   UNL A   1      38.335  33.658  37.250  1.00  0.00     0.006 A 
ENDBRANCH  44  65
BRANCH  56  73
ATOM     73  C   UNL A   1      45.004  27.899  34.275  1.00  0.00     0.057 A 
ATOM     74  C   UNL A   1      44.986  26.806  35.150  1.00  0.00     0.134 A 
ATOM     75  C   UNL A   1      46.157  28.692  34.242  1.00  0.00     0.134 A 
ATOM     76  F   UNL A   1      43.911  26.007  35.221  1.00  0.00    -0.206 F 
ATOM     77  C   UNL A   1      46.069  26.523  35.980  1.00  0.00     0.040 A 
ATOM     78  C   UNL A   1      47.257  28.402  35.049  1.00  0.00     0.040 A 
ATOM     79  F   UNL A   1      46.242  29.736  33.404  1.00  0.00    -0.206 F 
ATOM     80  C   UNL A   1      47.210  27.321  35.929  1.00  0.00     0.006 A 
ENDBRANCH  56  73
ENDBRANCH  30  31
ENDBRANCH  23  25
ENDBRANCH  22  23
ENDBRANCH  21  22
ENDBRANCH   1  21
TORSDOF 13
ENDMDL
MODEL 2
REMARK VINA RESULT:     -11.8      6.940     11.089
REMARK SMILES COc1ccc(-c2cccc(Cl)c2C(=O)OCCOC(=O)c2ccc(-c3c4nc(c(-c5c(F)cccc5F)c5ccc([nH]5)c(-c5c(F)cccc5F)c5nc(c(-c6c(F)cccc6F)c6ccc3[nH]6)C=C5)C=C4)cc2)c(F)c1
REMARK SMILES IDX 17 1 16 2 14 3 15 4 13 5 7 6 8 7 9 8 11 9 10 10 12 11 6 12
REMARK SMILES IDX 3 13 4 14 78 15 5 16 76 17 77 18 2 19 1 20 18 21 19 22 20 23
REMARK SMILES IDX 21 24 22 25 23 26 75 27 24 28 74 29 25 30 26 31 27 32 68 33
REMARK SMILES IDX 28 34 73 35 67 36 69 37 29 38 72 39 66 40 65 41 30 43 56 44
REMARK SMILES IDX 39 45 55 46 40 47 43 48 54 49 70 50 41 51 42 52 53 54 71 55
REMARK SMILES IDX 44 56 31 57 32 58 37 59 33 60 34 61 36 62 38 63 35 64 57 65
REMARK SMILES IDX 58 66 63 67 59 68 60 69 62 70 64 71 61 72 45 73 46 74 51 75
REMARK SMILES IDX 47 76 48 77 50 78 52 79 49 80
REMARK H PARENT 69 42 43 53
REMARK Flexibility Score: inf
ROOT
ATOM      1  C   UNL A   1      38.030  23.562  26.069  1.00  0.00     0.275 C 
ENDROOT
BRANCH   1   2
ATOM      2  O   UNL A   1      36.758  22.903  25.877  1.00  0.00    -0.458 OA
BRANCH   2   3
ATOM      3  C   UNL A   1      36.417  22.655  24.589  1.00  0.00     0.340 C 
ATOM      4  O   UNL A   1      37.028  23.018  23.598  1.00  0.00    -0.246 OA
BRANCH   3   5
ATOM      5  C   UNL A   1      35.149  21.895  24.514  1.00  0.00     0.086 A 
ATOM      6  C   UNL A   1      33.895  22.551  24.366  1.00  0.00     0.001 A 
ATOM      7  C   UNL A   1      32.725  21.791  24.511  1.00  0.00     0.010 A 
ATOM      8  C   UNL A   1      32.791  20.423  24.787  1.00  0.00     0.002 A 
ATOM      9  C   UNL A   1      35.206  20.515  24.769  1.00  0.00     0.056 A 
ATOM     10  C   UNL A   1      34.025  19.785  24.902  1.00  0.00     0.021 A 
ATOM     11  Cl  UNL A   1      36.693  19.658  24.997  1.00  0.00    -0.083 Cl
BRANCH   6  12
ATOM     12  C   UNL A   1      33.786  24.005  24.178  1.00  0.00     0.019 A 
ATOM     13  C   UNL A   1      32.591  27.468  23.501  1.00  0.00     0.121 A 
ATOM     14  C   UNL A   1      33.087  27.060  25.166  1.00  0.00     0.047 A 
ATOM     15  C   UNL A   1      32.689  26.231  22.272  1.00  0.00     0.086 A 
ATOM     16  C   UNL A   1      33.785  25.197  25.549  1.00  0.00     0.015 A 
ATOM     17  C   UNL A   1      33.259  24.587  22.590  1.00  0.00     0.134 A 
ATOM     18  F   UNL A   1      33.330  23.743  21.548  1.00  0.00    -0.206 F 
BRANCH  13  19
ATOM     19  O   UNL A   1      32.309  28.741  23.090  1.00  0.00    -0.497 OA
ATOM     20  C   UNL A   1      30.921  28.960  22.838  1.00  0.00     0.278 C 
ENDBRANCH  13  19
ENDBRANCH   6  12
ENDBRANCH   3   5
ENDBRANCH   2   3
ENDBRANCH   1   2
BRANCH   1  21
ATOM     21  C   UNL A   1      39.124  22.525  26.287  1.00  0.00     0.275 C 
BRANCH  21  22
ATOM     22  O   UNL A   1      40.314  23.215  26.706  1.00  0.00    -0.458 OA
BRANCH  22  23
ATOM     23  C   UNL A   1      41.457  22.602  26.347  1.00  0.00     0.338 C 
ATOM     24  O   UNL A   1      41.594  21.516  25.809  1.00  0.00    -0.246 OA
BRANCH  23  25
ATOM     25  C   UNL A   1      42.597  23.488  26.567  1.00  0.00     0.060 A 
ATOM     26  C   UNL A   1      43.109  23.938  28.228  1.00  0.00     0.016 A 
ATOM     27  C   UNL A   1      43.034  24.556  25.246  1.00  0.00     0.016 A 
ATOM     28  C   UNL A   1      44.111  25.679  28.474  1.00  0.00     0.010 A 
ATOM     29  C   UNL A   1      43.985  26.042  25.466  1.00  0.00     0.010 A 
ATOM     30  C   UNL A   1      44.568  26.656  27.029  1.00  0.00    -0.014 A 
BRANCH  30  31
ATOM     31  C   UNL A   1      45.697  27.704  27.089  1.00  0.00     0.031 A 
ATOM     32  C   UNL A   1      45.377  29.195  27.124  1.00  0.00     0.074 A 
ATOM     33  C   UNL A   1      47.015  27.396  26.933  1.00  0.00     0.049 A 
ATOM     34  N   UNL A   1      46.123  30.221  26.777  1.00  0.00    -0.248 NA
ATOM     35  C   UNL A   1      44.020  29.583  27.531  1.00  0.00     0.031 C 
ATOM     36  C   UNL A   1      47.594  26.069  26.787  1.00  0.00     0.029 A 
ATOM     37  N   UNL A   1      48.141  28.202  26.821  1.00  0.00    -0.354 N 
ATOM     38  C   UNL A   1      45.294  31.340  26.830  1.00  0.00     0.074 A 
ATOM     39  C   UNL A   1      43.969  30.849  27.140  1.00  0.00     0.031 C 
ATOM     40  C   UNL A   1      48.917  26.119  26.656  1.00  0.00     0.029 A 
ATOM     41  C   UNL A   1      49.313  27.503  26.598  1.00  0.00     0.049 A 
ATOM     42  H   UNL A   1      48.107  29.184  26.893  1.00  0.00     0.167 HD
ATOM     43  C   UNL A   1      45.602  32.657  26.712  1.00  0.00     0.037 A 
ATOM     44  C   UNL A   1      50.582  27.861  26.323  1.00  0.00     0.037 A 
ATOM     45  C   UNL A   1      46.944  33.172  26.585  1.00  0.00     0.049 A 
ATOM     46  C   UNL A   1      50.924  29.304  26.255  1.00  0.00     0.074 A 
ATOM     47  C   UNL A   1      47.365  34.493  26.618  1.00  0.00     0.029 A 
ATOM     48  N   UNL A   1      48.086  32.398  26.450  1.00  0.00    -0.354 N 
ATOM     49  N   UNL A   1      50.117  30.330  26.320  1.00  0.00    -0.248 NA
ATOM     50  C   UNL A   1      52.343  29.645  26.102  1.00  0.00     0.031 C 
ATOM     51  C   UNL A   1      48.755  34.518  26.485  1.00  0.00     0.029 A 
ATOM     52  C   UNL A   1      49.209  33.213  26.407  1.00  0.00     0.049 A 
ATOM     53  H   UNL A   1      48.099  31.415  26.393  1.00  0.00     0.167 HD
ATOM     54  C   UNL A   1      50.931  31.445  26.258  1.00  0.00     0.074 A 
ATOM     55  C   UNL A   1      52.296  30.970  26.148  1.00  0.00     0.031 C 
ATOM     56  C   UNL A   1      50.566  32.746  26.304  1.00  0.00     0.037 A 
BRANCH  43  57
ATOM     57  C   UNL A   1      44.476  33.661  26.800  1.00  0.00     0.057 A 
ATOM     58  C   UNL A   1      43.805  34.098  25.648  1.00  0.00     0.134 A 
ATOM     59  C   UNL A   1      44.088  34.237  28.018  1.00  0.00     0.134 A 
ATOM     60  F   UNL A   1      44.139  33.621  24.439  1.00  0.00    -0.206 F 
ATOM     61  C   UNL A   1      42.786  35.053  25.709  1.00  0.00     0.040 A 
ATOM     62  C   UNL A   1      43.042  35.160  28.098  1.00  0.00     0.040 A 
ATOM     63  F   UNL A   1      44.689  33.877  29.162  1.00  0.00    -0.206 F 
ATOM     64  C   UNL A   1      42.391  35.576  26.939  1.00  0.00     0.006 A 
ENDBRANCH  43  57
BRANCH  44  65
ATOM     65  C   UNL A   1      51.619  26.804  26.147  1.00  0.00     0.057 A 
ATOM     66  C   UNL A   1      52.406  26.354  27.216  1.00  0.00     0.134 A 
ATOM     67  C   UNL A   1      51.918  26.304  24.874  1.00  0.00     0.134 A 
ATOM     68  F   UNL A   1      52.194  26.820  28.457  1.00  0.00    -0.206 F 
ATOM     69  C   UNL A   1      53.468  25.466  27.021  1.00  0.00     0.040 A 
ATOM     70  C   UNL A   1      52.958  25.396  24.669  1.00  0.00     0.040 A 
ATOM     71  F   UNL A   1      51.199  26.695  23.811  1.00  0.00    -0.206 F 
ATOM     72  C   UNL A   1      53.745  24.984  25.744  1.00  0.00     0.006 A 
ENDBRANCH  44  65
BRANCH  56  73
ATOM     73  C   UNL A   1      51.667  33.759  26.287  1.00  0.00     0.057 A 
ATOM     74  C   UNL A   1      52.214  34.227  27.487  1.00  0.00     0.134 A 
ATOM     75  C   UNL A   1      52.158  34.294  25.091  1.00  0.00     0.134 A 
ATOM     76  F   UNL A   1      51.788  33.747  28.665  1.00  0.00    -0.206 F 
ATOM     77  C   UNL A   1      53.203  35.209  27.500  1.00  0.00     0.040 A 
ATOM     78  C   UNL A   1      53.166  35.259  25.090  1.00  0.00     0.040 A 
ATOM     79  F   UNL A   1      51.690  33.865  23.909  1.00  0.00    -0.206 F 
ATOM     80  C   UNL A   1      53.683  35.727  26.298  1.00  0.00     0.006 A 
ENDBRANCH  56  73
ENDBRANCH  30  31
ENDBRANCH  23  25
ENDBRANCH  22  23
ENDBRANCH  21  22
ENDBRANCH   1  21
TORSDOF 13
ENDMDL
MODEL 3
REMARK VINA RESULT:     -11.8      1.645      3.318
REMARK SMILES COc1ccc(-c2cccc(Cl)c2C(=O)OCCOC(=O)c2ccc(-c3c4nc(c(-c5c(F)cccc5F)c5ccc([nH]5)c(-c5c(F)cccc5F)c5nc(c(-c6c(F)cccc6F)c6ccc3[nH]6)C=C5)C=C4)cc2)c(F)c1
REMARK SMILES IDX 17 1 16 2 14 3 15 4 13 5 7 6 8 7 9 8 11 9 10 10 12 11 6 12
REMARK SMILES IDX 3 13 4 14 78 15 5 16 76 17 77 18 2 19 1 20 18 21 19 22 20 23
REMARK SMILES IDX 21 24 22 25 23 26 75 27 24 28 74 29 25 30 26 31 27 32 68 33
REMARK SMILES IDX 28 34 73 35 67 36 69 37 29 38 72 39 66 40 65 41 30 43 56 44
REMARK SMILES IDX 39 45 55 46 40 47 43 48 54 49 70 50 41 51 42 52 53 54 71 55
REMARK SMILES IDX 44 56 31 57 32 58 37 59 33 60 34 61 36 62 38 63 35 64 57 65
REMARK SMILES IDX 58 66 63 67 59 68 60 69 62 70 64 71 61 72 45 73 46 74 51 75
REMARK SMILES IDX 47 76 48 77 50 78 52 79 49 80
REMARK H PARENT 69 42 43 53
REMARK Flexibility Score: inf
ROOT
ATOM      1  C   UNL A   1      31.602  28.287  26.785  1.00  0.00     0.275 C 
ENDROOT
BRANCH   1   2
ATOM      2  O   UNL A   1      32.399  27.182  26.300  1.00  0.00    -0.458 OA
BRANCH   2   3
ATOM      3  C   UNL A   1      31.723  26.032  26.064  1.00  0.00     0.340 C 
ATOM      4  O   UNL A   1      30.899  25.516  26.802  1.00  0.00    -0.246 OA
BRANCH   3   5
ATOM      5  C   UNL A   1      32.138  25.427  24.779  1.00  0.00     0.086 A 
ATOM      6  C   UNL A   1      31.576  25.850  23.541  1.00  0.00     0.001 A 
ATOM      7  C   UNL A   1      31.857  25.098  22.391  1.00  0.00     0.010 A 
ATOM      8  C   UNL A   1      32.675  23.966  22.460  1.00  0.00     0.002 A 
ATOM      9  C   UNL A   1      32.976  24.302  24.833  1.00  0.00     0.056 A 
ATOM     10  C   UNL A   1      33.242  23.578  23.672  1.00  0.00     0.021 A 
ATOM     11  Cl  UNL A   1      33.664  23.709  26.308  1.00  0.00    -0.083 Cl
BRANCH   6  12
ATOM     12  C   UNL A   1      30.631  26.972  23.450  1.00  0.00     0.019 A 
ATOM     13  C   UNL A   1      28.355  29.675  22.268  1.00  0.00     0.121 A 
ATOM     14  C   UNL A   1      27.636  28.284  23.125  1.00  0.00     0.047 A 
ATOM     15  C   UNL A   1      30.085  29.705  22.026  1.00  0.00     0.086 A 
ATOM     16  C   UNL A   1      28.858  26.825  23.818  1.00  0.00     0.015 A 
ATOM     17  C   UNL A   1      31.168  28.424  22.588  1.00  0.00     0.134 A 
ATOM     18  F   UNL A   1      32.484  28.590  22.379  1.00  0.00    -0.206 F 
BRANCH  13  19
ATOM     19  O   UNL A   1      27.656  30.805  21.949  1.00  0.00    -0.497 OA
ATOM     20  C   UNL A   1      27.653  31.781  22.991  1.00  0.00     0.278 C 
ENDBRANCH  13  19
ENDBRANCH   6  12
ENDBRANCH   3   5
ENDBRANCH   2   3
ENDBRANCH   1   2
BRANCH   1  21
ATOM     21  C   UNL A   1      31.519  29.372  25.719  1.00  0.00     0.275 C 
BRANCH  21  22
ATOM     22  O   UNL A   1      32.715  30.165  25.799  1.00  0.00    -0.458 OA
BRANCH  22  23
ATOM     23  C   UNL A   1      32.654  31.160  26.703  1.00  0.00     0.338 C 
ATOM     24  O   UNL A   1      31.756  31.967  26.876  1.00  0.00    -0.246 OA
BRANCH  23  25
ATOM     25  C   UNL A   1      33.798  31.094  27.607  1.00  0.00     0.060 A 
ATOM     26  C   UNL A   1      34.750  32.566  27.998  1.00  0.00     0.016 A 
ATOM     27  C   UNL A   1      34.573  29.532  27.790  1.00  0.00     0.016 A 
ATOM     28  C   UNL A   1      36.677  32.325  28.571  1.00  0.00     0.010 A 
ATOM     29  C   UNL A   1      36.241  29.331  28.371  1.00  0.00     0.010 A 
ATOM     30  C   UNL A   1      37.340  30.663  28.793  1.00  0.00    -0.014 A 
BRANCH  30  31
ATOM     31  C   UNL A   1      38.595  30.404  29.651  1.00  0.00     0.031 A 
ATOM     32  C   UNL A   1      39.671  29.430  29.183  1.00  0.00     0.074 A 
ATOM     33  C   UNL A   1      38.742  30.867  30.924  1.00  0.00     0.049 A 
ATOM     34  N   UNL A   1      40.567  28.771  29.886  1.00  0.00    -0.248 NA
ATOM     35  C   UNL A   1      39.700  29.093  27.754  1.00  0.00     0.031 C 
ATOM     36  C   UNL A   1      37.831  31.737  31.651  1.00  0.00     0.029 A 
ATOM     37  N   UNL A   1      39.719  30.627  31.882  1.00  0.00    -0.354 N 
ATOM     38  C   UNL A   1      41.179  27.885  29.002  1.00  0.00     0.074 A 
ATOM     39  C   UNL A   1      40.479  28.020  27.743  1.00  0.00     0.031 C 
ATOM     40  C   UNL A   1      38.273  32.002  32.878  1.00  0.00     0.029 A 
ATOM     41  C   UNL A   1      39.472  31.235  33.100  1.00  0.00     0.049 A 
ATOM     42  H   UNL A   1      40.515  30.074  31.710  1.00  0.00     0.167 HD
ATOM     43  C   UNL A   1      42.265  27.088  29.180  1.00  0.00     0.037 A 
ATOM     44  C   UNL A   1      40.065  31.190  34.308  1.00  0.00     0.037 A 
ATOM     45  C   UNL A   1      43.082  27.079  30.369  1.00  0.00     0.049 A 
ATOM     46  C   UNL A   1      41.287  30.364  34.480  1.00  0.00     0.074 A 
ATOM     47  C   UNL A   1      44.286  26.425  30.579  1.00  0.00     0.029 A 
ATOM     48  N   UNL A   1      42.810  27.787  31.530  1.00  0.00    -0.354 N 
ATOM     49  N   UNL A   1      41.840  29.549  33.620  1.00  0.00    -0.248 NA
ATOM     50  C   UNL A   1      41.981  30.463  35.769  1.00  0.00     0.031 C 
ATOM     51  C   UNL A   1      44.732  26.723  31.869  1.00  0.00     0.029 A 
ATOM     52  C   UNL A   1      43.828  27.592  32.453  1.00  0.00     0.049 A 
ATOM     53  H   UNL A   1      42.013  28.347  31.677  1.00  0.00     0.167 HD
ATOM     54  C   UNL A   1      42.974  29.067  34.245  1.00  0.00     0.074 A 
ATOM     55  C   UNL A   1      43.029  29.678  35.558  1.00  0.00     0.031 C 
ATOM     56  C   UNL A   1      43.891  28.201  33.755  1.00  0.00     0.037 A 
BRANCH  43  57
ATOM     57  C   UNL A   1      42.698  26.210  28.029  1.00  0.00     0.057 A 
ATOM     58  C   UNL A   1      43.576  26.687  27.045  1.00  0.00     0.134 A 
ATOM     59  C   UNL A   1      42.205  24.908  27.863  1.00  0.00     0.134 A 
ATOM     60  F   UNL A   1      44.067  27.934  27.113  1.00  0.00    -0.206 F 
ATOM     61  C   UNL A   1      43.957  25.899  25.955  1.00  0.00     0.040 A 
ATOM     62  C   UNL A   1      42.611  24.095  26.802  1.00  0.00     0.040 A 
ATOM     63  F   UNL A   1      41.353  24.384  28.758  1.00  0.00    -0.206 F 
ATOM     64  C   UNL A   1      43.486  24.593  25.840  1.00  0.00     0.006 A 
ENDBRANCH  43  57
BRANCH  44  65
ATOM     65  C   UNL A   1      39.514  32.008  35.426  1.00  0.00     0.057 A 
ATOM     66  C   UNL A   1      38.553  31.500  36.311  1.00  0.00     0.134 A 
ATOM     67  C   UNL A   1      39.860  33.358  35.559  1.00  0.00     0.134 A 
ATOM     68  F   UNL A   1      38.152  30.223  36.215  1.00  0.00    -0.206 F 
ATOM     69  C   UNL A   1      37.939  32.310  37.270  1.00  0.00     0.040 A 
ATOM     70  C   UNL A   1      39.274  34.172  36.530  1.00  0.00     0.040 A 
ATOM     71  F   UNL A   1      40.775  33.902  34.743  1.00  0.00    -0.206 F 
ATOM     72  C   UNL A   1      38.301  33.651  37.382  1.00  0.00     0.006 A 
ENDBRANCH  44  65
BRANCH  56  73
ATOM     73  C   UNL A   1      45.069  27.899  34.625  1.00  0.00     0.057 A 
ATOM     74  C   UNL A   1      45.028  26.823  35.520  1.00  0.00     0.134 A 
ATOM     75  C   UNL A   1      46.224  28.687  34.603  1.00  0.00     0.134 A 
ATOM     76  F   UNL A   1      43.950  26.028  35.583  1.00  0.00    -0.206 F 
ATOM     77  C   UNL A   1      46.092  26.552  36.379  1.00  0.00     0.040 A 
ATOM     78  C   UNL A   1      47.306  28.410  35.440  1.00  0.00     0.040 A 
ATOM     79  F   UNL A   1      46.331  29.715  33.747  1.00  0.00    -0.206 F 
ATOM     80  C   UNL A   1      47.236  27.347  36.339  1.00  0.00     0.006 A 
ENDBRANCH  56  73
ENDBRANCH  30  31
ENDBRANCH  23  25
ENDBRANCH  22  23
ENDBRANCH  21  22
ENDBRANCH   1  21
TORSDOF 13
ENDMDL
