MODEL 1
REMARK VINA RESULT:     -12.1      0.000      0.000
REMARK SMILES Cc1ccc(C(=O)Nc2cccc(F)c2C(=O)OCCOC(=O)c2ccc(-c3c4nc(c(-c5c(F)cccc5F)c5ccc([nH]5)c(-c5c(F)cccc5F)c5nc(c(-c6c(F)cccc6F)c6ccc3[nH]6)C=C5)C=C4)cc2)c(F)c1
REMARK SMILES IDX 19 1 18 2 16 3 17 4 15 5 9 6 10 7 11 8 13 9 12 10 14 11 8 12
REMARK SMILES IDX 6 13 7 14 5 16 1 17 2 18 3 19 80 20 4 21 78 22 79 23 20 24
REMARK SMILES IDX 21 25 22 26 23 27 24 28 25 29 77 30 26 31 76 32 27 33 28 34
REMARK SMILES IDX 29 35 70 36 30 37 75 38 69 39 71 40 31 41 74 42 68 43 67 44
REMARK SMILES IDX 32 46 58 47 41 48 57 49 42 50 45 51 56 52 72 53 43 54 44 55
REMARK SMILES IDX 55 57 73 58 46 59 33 60 34 61 39 62 35 63 36 64 38 65 40 66
REMARK SMILES IDX 37 67 59 68 60 69 65 70 61 71 62 72 64 73 66 74 63 75 47 76
REMARK SMILES IDX 48 77 53 78 49 79 50 80 52 81 54 82 51 83
REMARK H PARENT 8 15 71 45 45 56
REMARK Flexibility Score: inf
ROOT
ATOM      1  C   UNL A   1      31.640  29.355  25.040  1.00  0.00     0.275 C 
ENDROOT
BRANCH   1   2
ATOM      2  O   UNL A   1      31.887  28.208  25.882  1.00  0.00    -0.458 OA
BRANCH   2   3
ATOM      3  C   UNL A   1      32.935  27.433  25.520  1.00  0.00     0.343 C 
ATOM      4  O   UNL A   1      33.897  27.173  26.221  1.00  0.00    -0.246 OA
BRANCH   3   5
ATOM      5  C   UNL A   1      32.725  26.804  24.193  1.00  0.00     0.119 A 
ATOM      6  C   UNL A   1      31.962  25.617  24.079  1.00  0.00     0.059 A 
ATOM      7  C   UNL A   1      31.752  25.037  22.826  1.00  0.00     0.027 A 
ATOM      8  C   UNL A   1      32.394  25.564  21.704  1.00  0.00     0.005 A 
ATOM      9  C   UNL A   1      33.392  27.288  23.074  1.00  0.00     0.139 A 
ATOM     10  C   UNL A   1      33.240  26.668  21.835  1.00  0.00     0.040 A 
ATOM     11  F   UNL A   1      34.250  28.315  23.172  1.00  0.00    -0.206 F 
BRANCH   6  12
ATOM     12  N   UNL A   1      31.435  25.069  25.254  1.00  0.00    -0.321 N 
ATOM     13  C   UNL A   1      31.904  24.160  26.169  1.00  0.00     0.258 C 
ATOM     14  O   UNL A   1      31.365  24.154  27.279  1.00  0.00    -0.269 OA
ATOM     15  H   UNL A   1      30.537  25.408  25.471  1.00  0.00     0.170 HD
BRANCH  13  16
ATOM     16  C   UNL A   1      33.040  23.265  25.947  1.00  0.00     0.075 A 
ATOM     17  C   UNL A   1      36.214  20.494  25.127  1.00  0.00     0.044 C 
ATOM     18  C   UNL A   1      35.112  21.455  25.444  1.00  0.00    -0.048 A 
ATOM     19  C   UNL A   1      35.396  22.740  25.923  1.00  0.00     0.004 A 
ATOM     20  C   UNL A   1      33.780  21.055  25.301  1.00  0.00     0.043 A 
ATOM     21  C   UNL A   1      34.361  23.631  26.205  1.00  0.00     0.017 A 
ATOM     22  C   UNL A   1      32.756  21.959  25.543  1.00  0.00     0.136 A 
ATOM     23  F   UNL A   1      31.497  21.538  25.367  1.00  0.00    -0.206 F 
ENDBRANCH  13  16
ENDBRANCH   6  12
ENDBRANCH   3   5
ENDBRANCH   2   3
ENDBRANCH   1   2
BRANCH   1  24
ATOM     24  C   UNL A   1      31.447  30.620  25.875  1.00  0.00     0.275 C 
BRANCH  24  25
ATOM     25  O   UNL A   1      32.279  30.578  27.053  1.00  0.00    -0.458 OA
BRANCH  25  26
ATOM     26  C   UNL A   1      33.001  31.692  27.305  1.00  0.00     0.338 C 
ATOM     27  O   UNL A   1      32.576  32.831  27.451  1.00  0.00    -0.246 OA
BRANCH  26  28
ATOM     28  C   UNL A   1      34.422  31.368  27.531  1.00  0.00     0.060 A 
ATOM     29  C   UNL A   1      34.745  30.038  27.702  1.00  0.00     0.016 A 
ATOM     30  C   UNL A   1      35.357  32.344  27.876  1.00  0.00     0.016 A 
ATOM     31  C   UNL A   1      35.859  29.702  28.468  1.00  0.00     0.010 A 
ATOM     32  C   UNL A   1      36.591  31.969  28.444  1.00  0.00     0.010 A 
ATOM     33  C   UNL A   1      36.830  30.642  28.841  1.00  0.00    -0.014 A 
BRANCH  33  34
ATOM     34  C   UNL A   1      38.009  30.211  29.685  1.00  0.00     0.031 A 
ATOM     35  C   UNL A   1      39.160  29.421  29.092  1.00  0.00     0.074 A 
ATOM     36  C   UNL A   1      38.129  30.598  30.978  1.00  0.00     0.049 A 
ATOM     37  N   UNL A   1      40.185  28.863  29.696  1.00  0.00    -0.248 NA
ATOM     38  C   UNL A   1      39.159  29.214  27.636  1.00  0.00     0.031 C 
ATOM     39  C   UNL A   1      37.159  31.407  31.718  1.00  0.00     0.029 A 
ATOM     40  N   UNL A   1      39.149  30.418  31.890  1.00  0.00    -0.354 N 
ATOM     41  C   UNL A   1      40.882  28.164  28.716  1.00  0.00     0.074 A 
ATOM     42  C   UNL A   1      40.173  28.374  27.474  1.00  0.00     0.031 C 
ATOM     43  C   UNL A   1      37.687  31.779  32.888  1.00  0.00     0.029 A 
ATOM     44  C   UNL A   1      38.958  31.095  33.074  1.00  0.00     0.049 A 
ATOM     45  H   UNL A   1      39.939  29.858  31.711  1.00  0.00     0.167 HD
ATOM     46  C   UNL A   1      42.005  27.412  28.838  1.00  0.00     0.037 A 
ATOM     47  C   UNL A   1      39.679  31.141  34.212  1.00  0.00     0.037 A 
ATOM     48  C   UNL A   1      42.771  27.271  30.052  1.00  0.00     0.049 A 
ATOM     49  C   UNL A   1      40.907  30.290  34.338  1.00  0.00     0.074 A 
ATOM     50  C   UNL A   1      43.922  26.529  30.262  1.00  0.00     0.029 A 
ATOM     51  N   UNL A   1      42.481  27.900  31.253  1.00  0.00    -0.354 N 
ATOM     52  N   UNL A   1      41.486  29.541  33.433  1.00  0.00    -0.248 NA
ATOM     53  C   UNL A   1      41.555  30.250  35.657  1.00  0.00     0.031 C 
ATOM     54  C   UNL A   1      44.296  26.664  31.602  1.00  0.00     0.029 A 
ATOM     55  C   UNL A   1      43.419  27.543  32.214  1.00  0.00     0.049 A 
ATOM     56  H   UNL A   1      41.724  28.511  31.404  1.00  0.00     0.167 HD
ATOM     57  C   UNL A   1      42.555  28.930  34.073  1.00  0.00     0.074 A 
ATOM     58  C   UNL A   1      42.569  29.426  35.433  1.00  0.00     0.031 C 
ATOM     59  C   UNL A   1      43.431  28.025  33.574  1.00  0.00     0.037 A 
BRANCH  46  60
ATOM     60  C   UNL A   1      42.445  26.619  27.635  1.00  0.00     0.057 A 
ATOM     61  C   UNL A   1      41.968  25.312  27.448  1.00  0.00     0.134 A 
ATOM     62  C   UNL A   1      43.346  27.113  26.684  1.00  0.00     0.134 A 
ATOM     63  F   UNL A   1      41.113  24.767  28.326  1.00  0.00    -0.206 F 
ATOM     64  C   UNL A   1      42.367  24.532  26.362  1.00  0.00     0.040 A 
ATOM     65  C   UNL A   1      43.727  26.353  25.573  1.00  0.00     0.040 A 
ATOM     66  F   UNL A   1      43.836  28.356  26.793  1.00  0.00    -0.206 F 
ATOM     67  C   UNL A   1      43.243  25.056  25.415  1.00  0.00     0.006 A 
ENDBRANCH  46  60
BRANCH  47  68
ATOM     68  C   UNL A   1      39.209  31.982  35.347  1.00  0.00     0.057 A 
ATOM     69  C   UNL A   1      39.608  33.320  35.482  1.00  0.00     0.134 A 
ATOM     70  C   UNL A   1      38.393  31.453  36.353  1.00  0.00     0.134 A 
ATOM     71  F   UNL A   1      40.379  33.893  34.547  1.00  0.00    -0.206 F 
ATOM     72  C   UNL A   1      39.267  34.080  36.602  1.00  0.00     0.040 A 
ATOM     73  C   UNL A   1      38.011  32.215  37.461  1.00  0.00     0.040 A 
ATOM     74  F   UNL A   1      37.942  30.193  36.269  1.00  0.00    -0.206 F 
ATOM     75  C   UNL A   1      38.465  33.527  37.596  1.00  0.00     0.006 A 
ENDBRANCH  47  68
BRANCH  59  76
ATOM     76  C   UNL A   1      44.494  27.506  34.499  1.00  0.00     0.057 A 
ATOM     77  C   UNL A   1      44.275  26.355  35.267  1.00  0.00     0.134 A 
ATOM     78  C   UNL A   1      45.716  28.171  34.667  1.00  0.00     0.134 A 
ATOM     79  F   UNL A   1      43.124  25.673  35.162  1.00  0.00    -0.206 F 
ATOM     80  C   UNL A   1      45.228  25.891  36.177  1.00  0.00     0.040 A 
ATOM     81  C   UNL A   1      46.688  27.700  35.551  1.00  0.00     0.040 A 
ATOM     82  F   UNL A   1      45.996  29.271  33.953  1.00  0.00    -0.206 F 
ATOM     83  C   UNL A   1      46.441  26.561  36.316  1.00  0.00     0.006 A 
ENDBRANCH  59  76
ENDBRANCH  33  34
ENDBRANCH  26  28
ENDBRANCH  25  26
ENDBRANCH  24  25
ENDBRANCH   1  24
TORSDOF 13
ENDMDL
MODEL 2
REMARK VINA RESULT:     -12.0      3.880      8.876
REMARK SMILES Cc1ccc(C(=O)Nc2cccc(F)c2C(=O)OCCOC(=O)c2ccc(-c3c4nc(c(-c5c(F)cccc5F)c5ccc([nH]5)c(-c5c(F)cccc5F)c5nc(c(-c6c(F)cccc6F)c6ccc3[nH]6)C=C5)C=C4)cc2)c(F)c1
REMARK SMILES IDX 19 1 18 2 16 3 17 4 15 5 9 6 10 7 11 8 13 9 12 10 14 11 8 12
REMARK SMILES IDX 6 13 7 14 5 16 1 17 2 18 3 19 80 20 4 21 78 22 79 23 20 24
REMARK SMILES IDX 21 25 22 26 23 27 24 28 25 29 77 30 26 31 76 32 27 33 28 34
REMARK SMILES IDX 29 35 70 36 30 37 75 38 69 39 71 40 31 41 74 42 68 43 67 44
REMARK SMILES IDX 32 46 58 47 41 48 57 49 42 50 45 51 56 52 72 53 43 54 44 55
REMARK SMILES IDX 55 57 73 58 46 59 33 60 34 61 39 62 35 63 36 64 38 65 40 66
REMARK SMILES IDX 37 67 59 68 60 69 65 70 61 71 62 72 64 73 66 74 63 75 47 76
REMARK SMILES IDX 48 77 53 78 49 79 50 80 52 81 54 82 51 83
REMARK H PARENT 8 15 71 45 45 56
REMARK Flexibility Score: inf
ROOT
ATOM      1  C   UNL A   1      35.464  21.105  25.431  1.00  0.00     0.275 C 
ENDROOT
BRANCH   1   2
ATOM      2  O   UNL A   1      35.225  22.257  24.593  1.00  0.00    -0.458 OA
BRANCH   2   3
ATOM      3  C   UNL A   1      34.818  23.374  25.239  1.00  0.00     0.343 C 
ATOM      4  O   UNL A   1      35.502  24.362  25.442  1.00  0.00    -0.246 OA
BRANCH   3   5
ATOM      5  C   UNL A   1      33.371  23.328  25.566  1.00  0.00     0.119 A 
ATOM      6  C   UNL A   1      32.416  23.805  24.638  1.00  0.00     0.059 A 
ATOM      7  C   UNL A   1      31.053  23.744  24.941  1.00  0.00     0.027 A 
ATOM      8  C   UNL A   1      30.646  23.321  26.208  1.00  0.00     0.005 A 
ATOM      9  C   UNL A   1      32.951  22.952  26.836  1.00  0.00     0.139 A 
ATOM     10  C   UNL A   1      31.597  22.958  27.165  1.00  0.00     0.040 A 
ATOM     11  F   UNL A   1      33.839  22.645  27.794  1.00  0.00    -0.206 F 
BRANCH   6  12
ATOM     12  N   UNL A   1      32.888  24.324  23.427  1.00  0.00    -0.321 N 
ATOM     13  C   UNL A   1      33.242  25.582  23.008  1.00  0.00     0.258 C 
ATOM     14  O   UNL A   1      33.958  25.657  22.006  1.00  0.00    -0.269 OA
ATOM     15  H   UNL A   1      32.988  23.641  22.726  1.00  0.00     0.170 HD
BRANCH  13  16
ATOM     16  C   UNL A   1      32.901  26.819  23.710  1.00  0.00     0.075 A 
ATOM     17  C   UNL A   1      31.640  30.416  25.685  1.00  0.00     0.044 C 
ATOM     18  C   UNL A   1      32.103  29.179  24.982  1.00  0.00    -0.048 A 
ATOM     19  C   UNL A   1      33.275  28.523  25.379  1.00  0.00     0.004 A 
ATOM     20  C   UNL A   1      31.381  28.692  23.888  1.00  0.00     0.043 A 
ATOM     21  C   UNL A   1      33.690  27.364  24.724  1.00  0.00     0.017 A 
ATOM     22  C   UNL A   1      31.776  27.517  23.266  1.00  0.00     0.136 A 
ATOM     23  F   UNL A   1      31.037  27.075  22.239  1.00  0.00    -0.206 F 
ENDBRANCH  13  16
ENDBRANCH   6  12
ENDBRANCH   3   5
ENDBRANCH   2   3
ENDBRANCH   1   2
BRANCH   1  24
ATOM     24  C   UNL A   1      36.715  20.349  24.984  1.00  0.00     0.275 C 
BRANCH  24  25
ATOM     25  O   UNL A   1      37.843  21.245  24.903  1.00  0.00    -0.458 OA
BRANCH  25  26
ATOM     26  C   UNL A   1      38.896  20.940  25.694  1.00  0.00     0.338 C 
ATOM     27  O   UNL A   1      39.552  19.907  25.685  1.00  0.00    -0.246 OA
BRANCH  26  28
ATOM     28  C   UNL A   1      39.285  22.090  26.532  1.00  0.00     0.060 A 
ATOM     29  C   UNL A   1      38.692  23.304  26.250  1.00  0.00     0.016 A 
ATOM     30  C   UNL A   1      40.413  22.059  27.351  1.00  0.00     0.016 A 
ATOM     31  C   UNL A   1      39.378  24.479  26.542  1.00  0.00     0.010 A 
ATOM     32  C   UNL A   1      40.966  23.262  27.835  1.00  0.00     0.010 A 
ATOM     33  C   UNL A   1      40.516  24.506  27.362  1.00  0.00    -0.014 A 
BRANCH  33  34
ATOM     34  C   UNL A   1      41.221  25.818  27.627  1.00  0.00     0.031 A 
ATOM     35  C   UNL A   1      40.622  26.867  28.545  1.00  0.00     0.074 A 
ATOM     36  C   UNL A   1      42.459  26.065  27.134  1.00  0.00     0.049 A 
ATOM     37  N   UNL A   1      41.027  28.093  28.783  1.00  0.00    -0.248 NA
ATOM     38  C   UNL A   1      39.401  26.504  29.280  1.00  0.00     0.031 C 
ATOM     39  C   UNL A   1      43.230  25.162  26.279  1.00  0.00     0.029 A 
ATOM     40  N   UNL A   1      43.320  27.125  27.331  1.00  0.00    -0.354 N 
ATOM     41  C   UNL A   1      40.065  28.670  29.606  1.00  0.00     0.074 A 
ATOM     42  C   UNL A   1      39.059  27.657  29.837  1.00  0.00     0.031 C 
ATOM     43  C   UNL A   1      44.480  25.621  26.156  1.00  0.00     0.029 A 
ATOM     44  C   UNL A   1      44.564  26.939  26.768  1.00  0.00     0.049 A 
ATOM     45  H   UNL A   1      43.071  27.937  27.828  1.00  0.00     0.167 HD
ATOM     46  C   UNL A   1      40.019  29.925  30.118  1.00  0.00     0.037 A 
ATOM     47  C   UNL A   1      45.647  27.737  26.694  1.00  0.00     0.037 A 
ATOM     48  C   UNL A   1      41.061  30.911  29.970  1.00  0.00     0.049 A 
ATOM     49  C   UNL A   1      45.575  29.128  27.248  1.00  0.00     0.074 A 
ATOM     50  C   UNL A   1      41.095  32.207  30.457  1.00  0.00     0.029 A 
ATOM     51  N   UNL A   1      42.261  30.707  29.305  1.00  0.00    -0.354 N 
ATOM     52  N   UNL A   1      44.606  29.695  27.923  1.00  0.00    -0.248 NA
ATOM     53  C   UNL A   1      46.723  30.007  26.988  1.00  0.00     0.031 C 
ATOM     54  C   UNL A   1      42.289  32.805  30.041  1.00  0.00     0.029 A 
ATOM     55  C   UNL A   1      43.031  31.862  29.351  1.00  0.00     0.049 A 
ATOM     56  H   UNL A   1      42.529  29.867  28.867  1.00  0.00     0.167 HD
ATOM     57  C   UNL A   1      45.020  31.000  28.156  1.00  0.00     0.074 A 
ATOM     58  C   UNL A   1      46.344  31.129  27.585  1.00  0.00     0.031 C 
ATOM     59  C   UNL A   1      44.346  32.000  28.773  1.00  0.00     0.037 A 
BRANCH  46  60
ATOM     60  C   UNL A   1      38.762  30.337  30.839  1.00  0.00     0.057 A 
ATOM     61  C   UNL A   1      37.693  30.890  30.117  1.00  0.00     0.134 A 
ATOM     62  C   UNL A   1      38.605  30.221  32.225  1.00  0.00     0.134 A 
ATOM     63  F   UNL A   1      37.777  31.045  28.787  1.00  0.00    -0.206 F 
ATOM     64  C   UNL A   1      36.519  31.309  30.745  1.00  0.00     0.040 A 
ATOM     65  C   UNL A   1      37.420  30.605  32.862  1.00  0.00     0.040 A 
ATOM     66  F   UNL A   1      39.581  29.693  32.978  1.00  0.00    -0.206 F 
ATOM     67  C   UNL A   1      36.376  31.157  32.122  1.00  0.00     0.006 A 
ENDBRANCH  46  60
BRANCH  47  68
ATOM     68  C   UNL A   1      46.874  27.248  26.005  1.00  0.00     0.057 A 
ATOM     69  C   UNL A   1      47.072  27.450  24.631  1.00  0.00     0.134 A 
ATOM     70  C   UNL A   1      47.852  26.521  26.693  1.00  0.00     0.134 A 
ATOM     71  F   UNL A   1      46.181  28.150  23.915  1.00  0.00    -0.206 F 
ATOM     72  C   UNL A   1      48.161  26.896  23.957  1.00  0.00     0.040 A 
ATOM     73  C   UNL A   1      48.968  25.994  26.037  1.00  0.00     0.040 A 
ATOM     74  F   UNL A   1      47.746  26.325  28.015  1.00  0.00    -0.206 F 
ATOM     75  C   UNL A   1      49.114  26.165  24.661  1.00  0.00     0.006 A 
ENDBRANCH  47  68
BRANCH  59  76
ATOM     76  C   UNL A   1      45.027  33.335  28.876  1.00  0.00     0.057 A 
ATOM     77  C   UNL A   1      44.893  34.287  27.858  1.00  0.00     0.134 A 
ATOM     78  C   UNL A   1      45.856  33.660  29.958  1.00  0.00     0.134 A 
ATOM     79  F   UNL A   1      44.120  34.039  26.789  1.00  0.00    -0.206 F 
ATOM     80  C   UNL A   1      45.566  35.510  27.907  1.00  0.00     0.040 A 
ATOM     81  C   UNL A   1      46.511  34.890  30.032  1.00  0.00     0.040 A 
ATOM     82  F   UNL A   1      46.019  32.799  30.973  1.00  0.00    -0.206 F 
ATOM     83  C   UNL A   1      46.373  35.816  28.999  1.00  0.00     0.006 A 
ENDBRANCH  59  76
ENDBRANCH  33  34
ENDBRANCH  26  28
ENDBRANCH  25  26
ENDBRANCH  24  25
ENDBRANCH   1  24
TORSDOF 13
ENDMDL
MODEL 3
REMARK VINA RESULT:     -11.8      0.651      6.243
REMARK SMILES Cc1ccc(C(=O)Nc2cccc(F)c2C(=O)OCCOC(=O)c2ccc(-c3c4nc(c(-c5c(F)cccc5F)c5ccc([nH]5)c(-c5c(F)cccc5F)c5nc(c(-c6c(F)cccc6F)c6ccc3[nH]6)C=C5)C=C4)cc2)c(F)c1
REMARK SMILES IDX 19 1 18 2 16 3 17 4 15 5 9 6 10 7 11 8 13 9 12 10 14 11 8 12
REMARK SMILES IDX 6 13 7 14 5 16 1 17 2 18 3 19 80 20 4 21 78 22 79 23 20 24
REMARK SMILES IDX 21 25 22 26 23 27 24 28 25 29 77 30 26 31 76 32 27 33 28 34
REMARK SMILES IDX 29 35 70 36 30 37 75 38 69 39 71 40 31 41 74 42 68 43 67 44
REMARK SMILES IDX 32 46 58 47 41 48 57 49 42 50 45 51 56 52 72 53 43 54 44 55
REMARK SMILES IDX 55 57 73 58 46 59 33 60 34 61 39 62 35 63 36 64 38 65 40 66
REMARK SMILES IDX 37 67 59 68 60 69 65 70 61 71 62 72 64 73 66 74 63 75 47 76
REMARK SMILES IDX 48 77 53 78 49 79 50 80 52 81 54 82 51 83
REMARK H PARENT 8 15 71 45 45 56
REMARK Flexibility Score: inf
ROOT
ATOM      1  C   UNL A   1      31.806  29.696  25.119  1.00  0.00     0.275 C 
ENDROOT
BRANCH   1   2
ATOM      2  O   UNL A   1      31.692  28.403  25.754  1.00  0.00    -0.458 OA
BRANCH   2   3
ATOM      3  C   UNL A   1      32.726  27.556  25.544  1.00  0.00     0.343 C 
ATOM      4  O   UNL A   1      33.601  27.295  26.351  1.00  0.00    -0.246 OA
BRANCH   3   5
ATOM      5  C   UNL A   1      32.608  26.853  24.243  1.00  0.00     0.119 A 
ATOM      6  C   UNL A   1      31.861  25.655  24.145  1.00  0.00     0.059 A 
ATOM      7  C   UNL A   1      31.738  25.005  22.915  1.00  0.00     0.027 A 
ATOM      8  C   UNL A   1      32.451  25.475  21.810  1.00  0.00     0.005 A 
ATOM      9  C   UNL A   1      33.345  27.281  23.145  1.00  0.00     0.139 A 
ATOM     10  C   UNL A   1      33.280  26.593  21.935  1.00  0.00     0.040 A 
ATOM     11  F   UNL A   1      34.189  28.320  23.243  1.00  0.00    -0.206 F 
BRANCH   6  12
ATOM     12  N   UNL A   1      31.261  25.167  25.311  1.00  0.00    -0.321 N 
ATOM     13  C   UNL A   1      31.479  24.066  26.101  1.00  0.00     0.258 C 
ATOM     14  O   UNL A   1      31.030  24.104  27.249  1.00  0.00    -0.269 OA
ATOM     15  H   UNL A   1      30.524  25.735  25.634  1.00  0.00     0.170 HD
BRANCH  13  16
ATOM     16  C   UNL A   1      32.270  22.901  25.704  1.00  0.00     0.075 A 
ATOM     17  C   UNL A   1      34.784  19.565  24.717  1.00  0.00     0.044 C 
ATOM     18  C   UNL A   1      33.906  20.735  25.030  1.00  0.00    -0.048 A 
ATOM     19  C   UNL A   1      32.529  20.687  24.778  1.00  0.00     0.004 A 
ATOM     20  C   UNL A   1      34.469  21.907  25.541  1.00  0.00     0.043 A 
ATOM     21  C   UNL A   1      31.718  21.780  25.084  1.00  0.00     0.017 A 
ATOM     22  C   UNL A   1      33.653  22.976  25.883  1.00  0.00     0.136 A 
ATOM     23  F   UNL A   1      34.236  24.068  26.395  1.00  0.00    -0.206 F 
ENDBRANCH  13  16
ENDBRANCH   6  12
ENDBRANCH   3   5
ENDBRANCH   2   3
ENDBRANCH   1   2
BRANCH   1  24
ATOM     24  C   UNL A   1      31.472  30.821  26.098  1.00  0.00     0.275 C 
BRANCH  24  25
ATOM     25  O   UNL A   1      32.355  30.776  27.238  1.00  0.00    -0.458 OA
BRANCH  25  26
ATOM     26  C   UNL A   1      33.109  31.879  27.445  1.00  0.00     0.338 C 
ATOM     27  O   UNL A   1      32.712  33.030  27.578  1.00  0.00    -0.246 OA
BRANCH  26  28
ATOM     28  C   UNL A   1      34.528  31.528  27.636  1.00  0.00     0.060 A 
ATOM     29  C   UNL A   1      34.835  30.188  27.758  1.00  0.00     0.016 A 
ATOM     30  C   UNL A   1      35.482  32.479  27.998  1.00  0.00     0.016 A 
ATOM     31  C   UNL A   1      35.955  29.812  28.494  1.00  0.00     0.010 A 
ATOM     32  C   UNL A   1      36.720  32.068  28.533  1.00  0.00     0.010 A 
ATOM     33  C   UNL A   1      36.946  30.726  28.882  1.00  0.00    -0.014 A 
BRANCH  33  34
ATOM     34  C   UNL A   1      38.131  30.251  29.692  1.00  0.00     0.031 A 
ATOM     35  C   UNL A   1      38.261  30.575  31.169  1.00  0.00     0.074 A 
ATOM     36  C   UNL A   1      39.071  29.435  29.156  1.00  0.00     0.049 A 
ATOM     37  N   UNL A   1      39.269  30.358  31.983  1.00  0.00    -0.248 NA
ATOM     38  C   UNL A   1      37.123  31.246  31.816  1.00  0.00     0.031 C 
ATOM     39  C   UNL A   1      39.096  28.961  27.772  1.00  0.00     0.029 A 
ATOM     40  N   UNL A   1      40.158  28.803  29.726  1.00  0.00    -0.354 N 
ATOM     41  C   UNL A   1      38.926  30.949  33.195  1.00  0.00     0.074 A 
ATOM     42  C   UNL A   1      37.613  31.527  33.016  1.00  0.00     0.031 C 
ATOM     43  C   UNL A   1      40.030  28.012  27.641  1.00  0.00     0.029 A 
ATOM     44  C   UNL A   1      40.797  27.928  28.875  1.00  0.00     0.049 A 
ATOM     45  H   UNL A   1      40.449  28.962  30.652  1.00  0.00     0.167 HD
ATOM     46  C   UNL A   1      39.638  31.011  34.348  1.00  0.00     0.037 A 
ATOM     47  C   UNL A   1      41.902  27.171  29.025  1.00  0.00     0.037 A 
ATOM     48  C   UNL A   1      40.907  30.359  34.565  1.00  0.00     0.049 A 
ATOM     49  C   UNL A   1      42.688  27.264  30.298  1.00  0.00     0.074 A 
ATOM     50  C   UNL A   1      41.696  30.369  35.703  1.00  0.00     0.029 A 
ATOM     51  N   UNL A   1      41.562  29.563  33.637  1.00  0.00    -0.354 N 
ATOM     52  N   UNL A   1      42.406  27.924  31.393  1.00  0.00    -0.248 NA
ATOM     53  C   UNL A   1      43.972  26.548  30.339  1.00  0.00     0.031 C 
ATOM     54  C   UNL A   1      42.853  29.628  35.446  1.00  0.00     0.029 A 
ATOM     55  C   UNL A   1      42.757  29.098  34.171  1.00  0.00     0.049 A 
ATOM     56  H   UNL A   1      41.229  29.357  32.734  1.00  0.00     0.167 HD
ATOM     57  C   UNL A   1      43.481  27.717  32.249  1.00  0.00     0.074 A 
ATOM     58  C   UNL A   1      44.401  26.837  31.560  1.00  0.00     0.031 C 
ATOM     59  C   UNL A   1      43.684  28.231  33.486  1.00  0.00     0.037 A 
BRANCH  46  60
ATOM     60  C   UNL A   1      39.094  31.872  35.457  1.00  0.00     0.057 A 
ATOM     61  C   UNL A   1      39.427  33.235  35.509  1.00  0.00     0.134 A 
ATOM     62  C   UNL A   1      38.277  31.374  36.478  1.00  0.00     0.134 A 
ATOM     63  F   UNL A   1      40.218  33.780  34.572  1.00  0.00    -0.206 F 
ATOM     64  C   UNL A   1      38.966  34.066  36.531  1.00  0.00     0.040 A 
ATOM     65  C   UNL A   1      37.781  32.204  37.489  1.00  0.00     0.040 A 
ATOM     66  F   UNL A   1      37.910  30.084  36.488  1.00  0.00    -0.206 F 
ATOM     67  C   UNL A   1      38.132  33.553  37.521  1.00  0.00     0.006 A 
ENDBRANCH  46  60
BRANCH  47  68
ATOM     68  C   UNL A   1      42.359  26.306  27.902  1.00  0.00     0.057 A 
ATOM     69  C   UNL A   1      43.205  26.797  26.897  1.00  0.00     0.134 A 
ATOM     70  C   UNL A   1      41.917  24.985  27.777  1.00  0.00     0.134 A 
ATOM     71  F   UNL A   1      43.676  28.051  26.962  1.00  0.00    -0.206 F 
ATOM     72  C   UNL A   1      43.544  26.031  25.782  1.00  0.00     0.040 A 
ATOM     73  C   UNL A   1      42.281  24.192  26.685  1.00  0.00     0.040 A 
ATOM     74  F   UNL A   1      41.138  24.438  28.722  1.00  0.00    -0.206 F 
ATOM     75  C   UNL A   1      43.080  24.722  25.674  1.00  0.00     0.006 A 
ENDBRANCH  47  68
BRANCH  59  76
ATOM     76  C   UNL A   1      44.954  27.853  34.192  1.00  0.00     0.057 A 
ATOM     77  C   UNL A   1      45.007  26.718  35.012  1.00  0.00     0.134 A 
ATOM     78  C   UNL A   1      46.112  28.637  34.101  1.00  0.00     0.134 A 
ATOM     79  F   UNL A   1      43.933  25.926  35.151  1.00  0.00    -0.206 F 
ATOM     80  C   UNL A   1      46.161  26.383  35.724  1.00  0.00     0.040 A 
ATOM     81  C   UNL A   1      47.280  28.297  34.785  1.00  0.00     0.040 A 
ATOM     82  F   UNL A   1      46.134  29.730  33.324  1.00  0.00    -0.206 F 
ATOM     83  C   UNL A   1      47.303  27.171  35.607  1.00  0.00     0.006 A 
ENDBRANCH  59  76
ENDBRANCH  33  34
ENDBRANCH  26  28
ENDBRANCH  25  26
ENDBRANCH  24  25
ENDBRANCH   1  24
TORSDOF 13
ENDMDL
