MODEL 1
REMARK VINA RESULT:      -9.4      0.000      0.000
REMARK SMILES Cc1cscc1C(=O)NC1(C(=O)OCCOC(=O)c2ccc(-c3c4nc(c(-c5c(F)cccc5F)c5ccc([nH]5)c(-c5c(F)cccc5F)c5nc(c(-c6c(F)cccc6F)c6ccc3[nH]6)C=C5)C=C4)cc2)CCCC1
REMARK SMILES IDX 14 1 13 2 11 3 12 4 10 5 73 6 76 7 74 8 75 9 9 10 7 11 8 12
REMARK SMILES IDX 6 14 1 15 2 16 3 17 4 18 5 19 15 20 16 21 17 22 18 23 19 24
REMARK SMILES IDX 20 25 72 26 21 27 71 28 22 29 23 30 24 31 65 32 25 33 70 34
REMARK SMILES IDX 64 35 66 36 26 37 69 38 63 39 62 40 27 42 53 43 36 44 52 45
REMARK SMILES IDX 37 46 40 47 51 48 67 49 38 50 39 51 50 53 68 54 41 55 28 56
REMARK SMILES IDX 29 57 34 58 30 59 31 60 33 61 35 62 32 63 54 64 55 65 60 66
REMARK SMILES IDX 56 67 57 68 59 69 61 70 58 71 42 72 43 73 48 74 44 75 45 76
REMARK SMILES IDX 47 77 49 78 46 79
REMARK H PARENT 9 13 66 41 40 52
REMARK Flexibility Score: inf
ROOT
ATOM      1  C   UNL A   1      35.747  33.814  34.869  1.00  0.00     0.274 C 
ENDROOT
BRANCH   1   2
ATOM      2  O   UNL A   1      36.811  32.856  35.043  1.00  0.00    -0.460 OA
BRANCH   2   3
ATOM      3  C   UNL A   1      37.882  33.240  35.793  1.00  0.00     0.331 C 
ATOM      4  O   UNL A   1      37.801  33.857  36.848  1.00  0.00    -0.249 OA
BRANCH   3   5
ATOM      5  C   UNL A   1      39.232  32.846  35.126  1.00  0.00     0.138 C 
ATOM      6  C   UNL A   1      40.317  33.863  35.439  1.00  0.00     0.040 C 
ATOM      7  C   UNL A   1      39.145  32.913  33.569  1.00  0.00     0.040 C 
ATOM      8  C   UNL A   1      40.176  34.948  34.379  1.00  0.00     0.003 C 
ATOM      9  C   UNL A   1      39.814  34.207  33.114  1.00  0.00     0.003 C 
BRANCH   5  10
ATOM     10  N   UNL A   1      39.478  31.417  35.446  1.00  0.00    -0.336 N 
ATOM     11  C   UNL A   1      40.282  30.335  35.295  1.00  0.00     0.253 C 
ATOM     12  O   UNL A   1      40.032  29.518  36.198  1.00  0.00    -0.269 OA
ATOM     13  H   UNL A   1      38.731  31.130  36.019  1.00  0.00     0.165 HD
BRANCH  11  14
ATOM     14  C   UNL A   1      41.276  29.963  34.270  1.00  0.00     0.053 A 
ATOM     15  C   UNL A   1      42.905  31.966  33.667  1.00  0.00     0.046 C 
ATOM     16  C   UNL A   1      42.355  30.600  33.534  1.00  0.00    -0.028 A 
ATOM     17  C   UNL A   1      42.915  29.749  32.588  1.00  0.00     0.069 A 
ATOM     18  S   UNL A   1      42.270  28.186  32.609  1.00  0.00    -0.151 S 
ATOM     19  C   UNL A   1      41.208  28.628  33.853  1.00  0.00     0.079 A 
ENDBRANCH  11  14
ENDBRANCH   5  10
ENDBRANCH   3   5
ENDBRANCH   2   3
ENDBRANCH   1   2
BRANCH   1  20
ATOM     20  C   UNL A   1      34.921  33.457  33.637  1.00  0.00     0.275 C 
BRANCH  20  21
ATOM     21  O   UNL A   1      35.439  32.246  33.062  1.00  0.00    -0.458 OA
BRANCH  21  22
ATOM     22  C   UNL A   1      35.288  32.115  31.724  1.00  0.00     0.338 C 
ATOM     23  O   UNL A   1      34.362  32.496  31.033  1.00  0.00    -0.246 OA
BRANCH  22  24
ATOM     24  C   UNL A   1      36.470  31.434  31.179  1.00  0.00     0.060 A 
ATOM     25  C   UNL A   1      37.250  30.636  32.017  1.00  0.00     0.016 A 
ATOM     26  C   UNL A   1      36.855  31.671  29.861  1.00  0.00     0.016 A 
ATOM     27  C   UNL A   1      38.459  30.121  31.555  1.00  0.00     0.010 A 
ATOM     28  C   UNL A   1      38.031  31.093  29.379  1.00  0.00     0.010 A 
ATOM     29  C   UNL A   1      38.860  30.337  30.229  1.00  0.00    -0.014 A 
BRANCH  29  30
ATOM     30  C   UNL A   1      40.156  29.811  29.725  1.00  0.00     0.031 A 
ATOM     31  C   UNL A   1      41.346  30.725  29.617  1.00  0.00     0.074 A 
ATOM     32  C   UNL A   1      40.269  28.525  29.342  1.00  0.00     0.049 A 
ATOM     33  N   UNL A   1      42.493  30.528  29.019  1.00  0.00    -0.248 NA
ATOM     34  C   UNL A   1      41.222  32.045  30.257  1.00  0.00     0.031 C 
ATOM     35  C   UNL A   1      39.212  27.517  29.431  1.00  0.00     0.029 A 
ATOM     36  N   UNL A   1      41.330  27.848  28.793  1.00  0.00    -0.354 N 
ATOM     37  C   UNL A   1      43.206  31.712  29.166  1.00  0.00     0.074 A 
ATOM     38  C   UNL A   1      42.364  32.623  29.912  1.00  0.00     0.031 C 
ATOM     39  C   UNL A   1      39.682  26.347  28.969  1.00  0.00     0.029 A 
ATOM     40  C   UNL A   1      41.047  26.538  28.491  1.00  0.00     0.049 A 
ATOM     41  H   UNL A   1      42.209  28.261  28.633  1.00  0.00     0.167 HD
ATOM     42  C   UNL A   1      44.448  32.010  28.717  1.00  0.00     0.037 A 
ATOM     43  C   UNL A   1      41.788  25.606  27.863  1.00  0.00     0.037 A 
ATOM     44  C   UNL A   1      45.306  31.087  28.022  1.00  0.00     0.049 A 
ATOM     45  C   UNL A   1      43.159  25.965  27.365  1.00  0.00     0.074 A 
ATOM     46  C   UNL A   1      46.586  31.295  27.535  1.00  0.00     0.029 A 
ATOM     47  N   UNL A   1      44.978  29.771  27.734  1.00  0.00    -0.354 N 
ATOM     48  N   UNL A   1      43.799  27.104  27.456  1.00  0.00    -0.248 NA
ATOM     49  C   UNL A   1      43.902  24.911  26.658  1.00  0.00     0.031 C 
ATOM     50  C   UNL A   1      47.023  30.110  26.933  1.00  0.00     0.029 A 
ATOM     51  C   UNL A   1      46.027  29.157  27.071  1.00  0.00     0.049 A 
ATOM     52  H   UNL A   1      44.124  29.338  27.967  1.00  0.00     0.167 HD
ATOM     53  C   UNL A   1      45.019  26.906  26.825  1.00  0.00     0.074 A 
ATOM     54  C   UNL A   1      45.040  25.530  26.373  1.00  0.00     0.031 C 
ATOM     55  C   UNL A   1      46.029  27.788  26.631  1.00  0.00     0.037 A 
BRANCH  42  56
ATOM     56  C   UNL A   1      44.946  33.407  28.937  1.00  0.00     0.057 A 
ATOM     57  C   UNL A   1      44.703  34.436  28.020  1.00  0.00     0.134 A 
ATOM     58  C   UNL A   1      45.647  33.732  30.106  1.00  0.00     0.134 A 
ATOM     59  F   UNL A   1      44.052  34.185  26.874  1.00  0.00    -0.206 F 
ATOM     60  C   UNL A   1      45.152  35.738  28.251  1.00  0.00     0.040 A 
ATOM     61  C   UNL A   1      46.083  35.033  30.357  1.00  0.00     0.040 A 
ATOM     62  F   UNL A   1      45.908  32.792  31.026  1.00  0.00    -0.206 F 
ATOM     63  C   UNL A   1      45.839  36.040  29.426  1.00  0.00     0.006 A 
ENDBRANCH  42  56
BRANCH  43  64
ATOM     64  C   UNL A   1      41.230  24.251  27.635  1.00  0.00     0.057 A 
ATOM     65  C   UNL A   1      41.686  23.149  28.365  1.00  0.00     0.134 A 
ATOM     66  C   UNL A   1      40.228  24.027  26.684  1.00  0.00     0.134 A 
ATOM     67  F   UNL A   1      42.664  23.298  29.272  1.00  0.00    -0.206 F 
ATOM     68  C   UNL A   1      41.172  21.869  28.154  1.00  0.00     0.040 A 
ATOM     69  C   UNL A   1      39.688  22.757  26.477  1.00  0.00     0.040 A 
ATOM     70  F   UNL A   1      39.749  25.044  25.951  1.00  0.00    -0.206 F 
ATOM     71  C   UNL A   1      40.163  21.672  27.211  1.00  0.00     0.006 A 
ENDBRANCH  43  64
BRANCH  55  72
ATOM     72  C   UNL A   1      47.242  27.283  25.913  1.00  0.00     0.057 A 
ATOM     73  C   UNL A   1      47.382  27.419  24.527  1.00  0.00     0.134 A 
ATOM     74  C   UNL A   1      48.291  26.680  26.618  1.00  0.00     0.134 A 
ATOM     75  F   UNL A   1      46.405  27.976  23.796  1.00  0.00    -0.206 F 
ATOM     76  C   UNL A   1      48.520  26.959  23.863  1.00  0.00     0.040 A 
ATOM     77  C   UNL A   1      49.441  26.232  25.968  1.00  0.00     0.040 A 
ATOM     78  F   UNL A   1      48.216  26.525  27.949  1.00  0.00    -0.206 F 
ATOM     79  C   UNL A   1      49.555  26.367  24.585  1.00  0.00     0.006 A 
ENDBRANCH  55  72
ENDBRANCH  29  30
ENDBRANCH  22  24
ENDBRANCH  21  22
ENDBRANCH  20  21
ENDBRANCH   1  20
TORSDOF 13
ENDMDL
MODEL 2
REMARK VINA RESULT:      -9.3      5.207     10.362
REMARK SMILES Cc1cscc1C(=O)NC1(C(=O)OCCOC(=O)c2ccc(-c3c4nc(c(-c5c(F)cccc5F)c5ccc([nH]5)c(-c5c(F)cccc5F)c5nc(c(-c6c(F)cccc6F)c6ccc3[nH]6)C=C5)C=C4)cc2)CCCC1
REMARK SMILES IDX 14 1 13 2 11 3 12 4 10 5 73 6 76 7 74 8 75 9 9 10 7 11 8 12
REMARK SMILES IDX 6 14 1 15 2 16 3 17 4 18 5 19 15 20 16 21 17 22 18 23 19 24
REMARK SMILES IDX 20 25 72 26 21 27 71 28 22 29 23 30 24 31 65 32 25 33 70 34
REMARK SMILES IDX 64 35 66 36 26 37 69 38 63 39 62 40 27 42 53 43 36 44 52 45
REMARK SMILES IDX 37 46 40 47 51 48 67 49 38 50 39 51 50 53 68 54 41 55 28 56
REMARK SMILES IDX 29 57 34 58 30 59 31 60 33 61 35 62 32 63 54 64 55 65 60 66
REMARK SMILES IDX 56 67 57 68 59 69 61 70 58 71 42 72 43 73 48 74 44 75 45 76
REMARK SMILES IDX 47 77 49 78 46 79
REMARK H PARENT 9 13 66 41 40 52
REMARK Flexibility Score: inf
ROOT
ATOM      1  C   UNL A   1      31.311  29.348  23.896  1.00  0.00     0.274 C 
ENDROOT
BRANCH   1   2
ATOM      2  O   UNL A   1      32.210  28.264  23.584  1.00  0.00    -0.460 OA
BRANCH   2   3
ATOM      3  C   UNL A   1      31.670  27.147  23.016  1.00  0.00     0.331 C 
ATOM      4  O   UNL A   1      30.963  27.154  22.016  1.00  0.00    -0.249 OA
BRANCH   3   5
ATOM      5  C   UNL A   1      32.017  25.860  23.818  1.00  0.00     0.138 C 
ATOM      6  C   UNL A   1      30.783  25.282  24.489  1.00  0.00     0.040 C 
ATOM      7  C   UNL A   1      32.946  26.173  25.034  1.00  0.00     0.040 C 
ATOM      8  C   UNL A   1      30.662  26.010  25.822  1.00  0.00     0.003 C 
ATOM      9  C   UNL A   1      32.086  26.186  26.294  1.00  0.00     0.003 C 
BRANCH   5  10
ATOM     10  N   UNL A   1      32.819  24.989  22.924  1.00  0.00    -0.336 N 
ATOM     11  C   UNL A   1      33.459  23.804  22.756  1.00  0.00     0.253 C 
ATOM     12  O   UNL A   1      33.623  23.604  21.539  1.00  0.00    -0.269 OA
ATOM     13  H   UNL A   1      32.938  25.489  22.084  1.00  0.00     0.165 HD
BRANCH  11  14
ATOM     14  C   UNL A   1      34.018  22.826  23.708  1.00  0.00     0.053 A 
ATOM     15  C   UNL A   1      36.653  22.613  23.510  1.00  0.00     0.046 C 
ATOM     16  C   UNL A   1      35.316  22.266  24.040  1.00  0.00    -0.028 A 
ATOM     17  C   UNL A   1      35.225  21.270  25.005  1.00  0.00     0.069 A 
ATOM     18  S   UNL A   1      33.660  21.042  25.605  1.00  0.00    -0.151 S 
ATOM     19  C   UNL A   1      33.073  22.241  24.561  1.00  0.00     0.079 A 
ENDBRANCH  11  14
ENDBRANCH   5  10
ENDBRANCH   3   5
ENDBRANCH   2   3
ENDBRANCH   1   2
BRANCH   1  20
ATOM     20  C   UNL A   1      31.419  29.702  25.376  1.00  0.00     0.275 C 
BRANCH  20  21
ATOM     21  O   UNL A   1      32.776  30.073  25.671  1.00  0.00    -0.458 OA
BRANCH  21  22
ATOM     22  C   UNL A   1      32.941  30.961  26.677  1.00  0.00     0.338 C 
ATOM     23  O   UNL A   1      32.159  31.808  27.066  1.00  0.00    -0.246 OA
BRANCH  22  24
ATOM     24  C   UNL A   1      34.256  30.738  27.293  1.00  0.00     0.060 A 
ATOM     25  C   UNL A   1      34.647  29.440  27.626  1.00  0.00     0.016 A 
ATOM     26  C   UNL A   1      35.055  31.830  27.627  1.00  0.00     0.016 A 
ATOM     27  C   UNL A   1      35.816  29.235  28.357  1.00  0.00     0.010 A 
ATOM     28  C   UNL A   1      36.262  31.614  28.294  1.00  0.00     0.010 A 
ATOM     29  C   UNL A   1      36.640  30.319  28.693  1.00  0.00    -0.014 A 
BRANCH  29  30
ATOM     30  C   UNL A   1      37.880  30.120  29.489  1.00  0.00     0.031 A 
ATOM     31  C   UNL A   1      39.007  29.294  28.930  1.00  0.00     0.074 A 
ATOM     32  C   UNL A   1      37.996  30.656  30.719  1.00  0.00     0.049 A 
ATOM     33  N   UNL A   1      40.073  28.830  29.530  1.00  0.00    -0.248 NA
ATOM     34  C   UNL A   1      38.912  28.930  27.507  1.00  0.00     0.031 C 
ATOM     35  C   UNL A   1      37.002  31.513  31.368  1.00  0.00     0.029 A 
ATOM     36  N   UNL A   1      39.003  30.552  31.646  1.00  0.00    -0.354 N 
ATOM     37  C   UNL A   1      40.749  28.080  28.576  1.00  0.00     0.074 A 
ATOM     38  C   UNL A   1      39.974  28.151  27.355  1.00  0.00     0.031 C 
ATOM     39  C   UNL A   1      37.456  31.869  32.581  1.00  0.00     0.029 A 
ATOM     40  C   UNL A   1      38.737  31.214  32.821  1.00  0.00     0.049 A 
ATOM     41  H   UNL A   1      39.835  30.053  31.485  1.00  0.00     0.167 HD
ATOM     42  C   UNL A   1      41.908  27.392  28.709  1.00  0.00     0.037 A 
ATOM     43  C   UNL A   1      39.428  31.257  33.975  1.00  0.00     0.037 A 
ATOM     44  C   UNL A   1      42.705  27.364  29.907  1.00  0.00     0.049 A 
ATOM     45  C   UNL A   1      40.705  30.477  34.101  1.00  0.00     0.074 A 
ATOM     46  C   UNL A   1      43.900  26.703  30.135  1.00  0.00     0.029 A 
ATOM     47  N   UNL A   1      42.397  28.046  31.074  1.00  0.00    -0.354 N 
ATOM     48  N   UNL A   1      41.304  29.723  33.212  1.00  0.00    -0.248 NA
ATOM     49  C   UNL A   1      41.393  30.540  35.400  1.00  0.00     0.031 C 
ATOM     50  C   UNL A   1      44.303  26.968  31.448  1.00  0.00     0.029 A 
ATOM     51  C   UNL A   1      43.375  27.817  32.026  1.00  0.00     0.049 A 
ATOM     52  H   UNL A   1      41.600  28.610  31.204  1.00  0.00     0.167 HD
ATOM     53  C   UNL A   1      42.438  29.226  33.838  1.00  0.00     0.074 A 
ATOM     54  C   UNL A   1      42.457  29.780  35.177  1.00  0.00     0.031 C 
ATOM     55  C   UNL A   1      43.376  28.378  33.351  1.00  0.00     0.037 A 
BRANCH  42  56
ATOM     56  C   UNL A   1      42.372  26.584  27.534  1.00  0.00     0.057 A 
ATOM     57  C   UNL A   1      41.996  25.248  27.356  1.00  0.00     0.134 A 
ATOM     58  C   UNL A   1      43.176  27.170  26.547  1.00  0.00     0.134 A 
ATOM     59  F   UNL A   1      41.240  24.626  28.273  1.00  0.00    -0.206 F 
ATOM     60  C   UNL A   1      42.416  24.517  26.243  1.00  0.00     0.040 A 
ATOM     61  C   UNL A   1      43.586  26.455  25.421  1.00  0.00     0.040 A 
ATOM     62  F   UNL A   1      43.567  28.448  26.657  1.00  0.00    -0.206 F 
ATOM     63  C   UNL A   1      43.208  25.123  25.268  1.00  0.00     0.006 A 
ENDBRANCH  42  56
BRANCH  43  64
ATOM     64  C   UNL A   1      38.902  32.038  35.120  1.00  0.00     0.057 A 
ATOM     65  C   UNL A   1      38.243  31.410  36.183  1.00  0.00     0.134 A 
ATOM     66  C   UNL A   1      39.045  33.429  35.181  1.00  0.00     0.134 A 
ATOM     67  F   UNL A   1      38.053  30.081  36.167  1.00  0.00    -0.206 F 
ATOM     68  C   UNL A   1      37.739  32.136  37.262  1.00  0.00     0.040 A 
ATOM     69  C   UNL A   1      38.565  34.167  36.264  1.00  0.00     0.040 A 
ATOM     70  F   UNL A   1      39.666  34.090  34.192  1.00  0.00    -0.206 F 
ATOM     71  C   UNL A   1      37.906  33.520  37.307  1.00  0.00     0.006 A 
ENDBRANCH  43  64
BRANCH  55  72
ATOM     72  C   UNL A   1      44.505  28.017  34.266  1.00  0.00     0.057 A 
ATOM     73  C   UNL A   1      44.451  26.880  35.082  1.00  0.00     0.134 A 
ATOM     74  C   UNL A   1      45.667  28.796  34.310  1.00  0.00     0.134 A 
ATOM     75  F   UNL A   1      43.358  26.102  35.092  1.00  0.00    -0.206 F 
ATOM     76  C   UNL A   1      45.509  26.538  35.923  1.00  0.00     0.040 A 
ATOM     77  C   UNL A   1      46.739  28.456  35.135  1.00  0.00     0.040 A 
ATOM     78  F   UNL A   1      45.780  29.895  33.549  1.00  0.00    -0.206 F 
ATOM     79  C   UNL A   1      46.661  27.326  35.948  1.00  0.00     0.006 A 
ENDBRANCH  55  72
ENDBRANCH  29  30
ENDBRANCH  22  24
ENDBRANCH  21  22
ENDBRANCH  20  21
ENDBRANCH   1  20
TORSDOF 13
ENDMDL
MODEL 3
REMARK VINA RESULT:      -9.3      5.091      9.983
REMARK SMILES Cc1cscc1C(=O)NC1(C(=O)OCCOC(=O)c2ccc(-c3c4nc(c(-c5c(F)cccc5F)c5ccc([nH]5)c(-c5c(F)cccc5F)c5nc(c(-c6c(F)cccc6F)c6ccc3[nH]6)C=C5)C=C4)cc2)CCCC1
REMARK SMILES IDX 14 1 13 2 11 3 12 4 10 5 73 6 76 7 74 8 75 9 9 10 7 11 8 12
REMARK SMILES IDX 6 14 1 15 2 16 3 17 4 18 5 19 15 20 16 21 17 22 18 23 19 24
REMARK SMILES IDX 20 25 72 26 21 27 71 28 22 29 23 30 24 31 65 32 25 33 70 34
REMARK SMILES IDX 64 35 66 36 26 37 69 38 63 39 62 40 27 42 53 43 36 44 52 45
REMARK SMILES IDX 37 46 40 47 51 48 67 49 38 50 39 51 50 53 68 54 41 55 28 56
REMARK SMILES IDX 29 57 34 58 30 59 31 60 33 61 35 62 32 63 54 64 55 65 60 66
REMARK SMILES IDX 56 67 57 68 59 69 61 70 58 71 42 72 43 73 48 74 44 75 45 76
REMARK SMILES IDX 47 77 49 78 46 79
REMARK H PARENT 9 13 66 41 40 52
REMARK Flexibility Score: inf
ROOT
ATOM      1  C   UNL A   1      34.437  20.557  25.423  1.00  0.00     0.274 C 
ENDROOT
BRANCH   1   2
ATOM      2  O   UNL A   1      33.819  21.757  25.930  1.00  0.00    -0.460 OA
BRANCH   2   3
ATOM      3  C   UNL A   1      32.609  22.107  25.408  1.00  0.00     0.331 C 
ATOM      4  O   UNL A   1      31.657  21.343  25.300  1.00  0.00    -0.249 OA
BRANCH   3   5
ATOM      5  C   UNL A   1      32.591  23.583  24.917  1.00  0.00     0.138 C 
ATOM      6  C   UNL A   1      32.571  23.657  23.400  1.00  0.00     0.040 C 
ATOM      7  C   UNL A   1      33.918  24.324  25.274  1.00  0.00     0.040 C 
ATOM      8  C   UNL A   1      34.030  23.592  22.968  1.00  0.00     0.003 C 
ATOM      9  C   UNL A   1      34.776  24.387  24.013  1.00  0.00     0.003 C 
BRANCH   5  10
ATOM     10  N   UNL A   1      31.530  24.286  25.681  1.00  0.00    -0.336 N 
ATOM     11  C   UNL A   1      30.800  25.417  25.845  1.00  0.00     0.253 C 
ATOM     12  O   UNL A   1      29.780  25.146  26.504  1.00  0.00    -0.269 OA
ATOM     13  H   UNL A   1      31.220  23.654  26.370  1.00  0.00     0.165 HD
BRANCH  11  14
ATOM     14  C   UNL A   1      31.035  26.823  25.466  1.00  0.00     0.053 A 
ATOM     15  C   UNL A   1      31.894  28.290  27.501  1.00  0.00     0.046 C 
ATOM     16  C   UNL A   1      31.448  28.058  26.109  1.00  0.00    -0.028 A 
ATOM     17  C   UNL A   1      31.404  29.141  25.239  1.00  0.00     0.069 A 
ATOM     18  S   UNL A   1      30.982  28.727  23.654  1.00  0.00    -0.151 S 
ATOM     19  C   UNL A   1      30.815  27.103  24.111  1.00  0.00     0.079 A 
ENDBRANCH  11  14
ENDBRANCH   5  10
ENDBRANCH   3   5
ENDBRANCH   2   3
ENDBRANCH   1   2
BRANCH   1  20
ATOM     20  C   UNL A   1      35.790  20.891  24.803  1.00  0.00     0.275 C 
BRANCH  20  21
ATOM     21  O   UNL A   1      36.618  21.519  25.797  1.00  0.00    -0.458 OA
BRANCH  21  22
ATOM     22  C   UNL A   1      37.947  21.296  25.686  1.00  0.00     0.338 C 
ATOM     23  O   UNL A   1      38.508  20.344  25.179  1.00  0.00    -0.246 OA
BRANCH  22  24
ATOM     24  C   UNL A   1      38.667  22.435  26.272  1.00  0.00     0.060 A 
ATOM     25  C   UNL A   1      38.174  23.728  26.087  1.00  0.00     0.016 A 
ATOM     26  C   UNL A   1      39.883  22.223  26.919  1.00  0.00     0.016 A 
ATOM     27  C   UNL A   1      38.933  24.823  26.494  1.00  0.00     0.010 A 
ATOM     28  C   UNL A   1      40.605  23.320  27.392  1.00  0.00     0.010 A 
ATOM     29  C   UNL A   1      40.153  24.632  27.158  1.00  0.00    -0.014 A 
BRANCH  29  30
ATOM     30  C   UNL A   1      40.984  25.789  27.582  1.00  0.00     0.031 A 
ATOM     31  C   UNL A   1      40.382  26.877  28.428  1.00  0.00     0.074 A 
ATOM     32  C   UNL A   1      42.271  25.885  27.195  1.00  0.00     0.049 A 
ATOM     33  N   UNL A   1      40.861  28.056  28.731  1.00  0.00    -0.248 NA
ATOM     34  C   UNL A   1      39.052  26.605  29.000  1.00  0.00     0.031 C 
ATOM     35  C   UNL A   1      42.998  24.885  26.410  1.00  0.00     0.029 A 
ATOM     36  N   UNL A   1      43.195  26.878  27.407  1.00  0.00    -0.354 N 
ATOM     37  C   UNL A   1      39.876  28.685  29.483  1.00  0.00     0.074 A 
ATOM     38  C   UNL A   1      38.771  27.756  29.594  1.00  0.00     0.031 C 
ATOM     39  C   UNL A   1      44.258  25.309  26.221  1.00  0.00     0.029 A 
ATOM     40  C   UNL A   1      44.409  26.634  26.811  1.00  0.00     0.049 A 
ATOM     41  H   UNL A   1      43.006  27.686  27.936  1.00  0.00     0.167 HD
ATOM     42  C   UNL A   1      39.892  29.925  30.027  1.00  0.00     0.037 A 
ATOM     43  C   UNL A   1      45.506  27.408  26.716  1.00  0.00     0.037 A 
ATOM     44  C   UNL A   1      41.011  30.828  29.962  1.00  0.00     0.049 A 
ATOM     45  C   UNL A   1      45.496  28.783  27.319  1.00  0.00     0.074 A 
ATOM     46  C   UNL A   1      41.125  32.102  30.491  1.00  0.00     0.029 A 
ATOM     47  N   UNL A   1      42.219  30.541  29.345  1.00  0.00    -0.354 N 
ATOM     48  N   UNL A   1      44.538  29.390  27.975  1.00  0.00    -0.248 NA
ATOM     49  C   UNL A   1      46.715  29.588  27.149  1.00  0.00     0.031 C 
ATOM     50  C   UNL A   1      42.396  32.595  30.175  1.00  0.00     0.029 A 
ATOM     51  C   UNL A   1      43.082  31.616  29.475  1.00  0.00     0.049 A 
ATOM     52  H   UNL A   1      42.431  29.698  28.883  1.00  0.00     0.167 HD
ATOM     53  C   UNL A   1      45.037  30.643  28.302  1.00  0.00     0.074 A 
ATOM     54  C   UNL A   1      46.390  30.704  27.790  1.00  0.00     0.031 C 
ATOM     55  C   UNL A   1      44.425  31.656  28.960  1.00  0.00     0.037 A 
BRANCH  42  56
ATOM     56  C   UNL A   1      38.647  30.393  30.719  1.00  0.00     0.057 A 
ATOM     57  C   UNL A   1      37.633  31.077  30.041  1.00  0.00     0.134 A 
ATOM     58  C   UNL A   1      38.448  30.117  32.079  1.00  0.00     0.134 A 
ATOM     59  F   UNL A   1      37.771  31.384  28.742  1.00  0.00    -0.206 F 
ATOM     60  C   UNL A   1      36.468  31.484  30.694  1.00  0.00     0.040 A 
ATOM     61  C   UNL A   1      37.280  30.502  32.737  1.00  0.00     0.040 A 
ATOM     62  F   UNL A   1      39.381  29.461  32.784  1.00  0.00    -0.206 F 
ATOM     63  C   UNL A   1      36.286  31.191  32.044  1.00  0.00     0.006 A 
ENDBRANCH  42  56
BRANCH  43  64
ATOM     64  C   UNL A   1      46.696  26.911  25.983  1.00  0.00     0.057 A 
ATOM     65  C   UNL A   1      47.646  26.100  26.613  1.00  0.00     0.134 A 
ATOM     66  C   UNL A   1      46.911  27.233  24.638  1.00  0.00     0.134 A 
ATOM     67  F   UNL A   1      47.507  25.779  27.908  1.00  0.00    -0.206 F 
ATOM     68  C   UNL A   1      48.772  25.632  25.934  1.00  0.00     0.040 A 
ATOM     69  C   UNL A   1      48.021  26.755  23.941  1.00  0.00     0.040 A 
ATOM     70  F   UNL A   1      46.037  28.008  23.979  1.00  0.00    -0.206 F 
ATOM     71  C   UNL A   1      48.958  25.954  24.591  1.00  0.00     0.006 A 
ENDBRANCH  43  64
BRANCH  55  72
ATOM     72  C   UNL A   1      45.222  32.905  29.175  1.00  0.00     0.057 A 
ATOM     73  C   UNL A   1      46.072  33.051  30.278  1.00  0.00     0.134 A 
ATOM     74  C   UNL A   1      45.161  33.960  28.256  1.00  0.00     0.134 A 
ATOM     75  F   UNL A   1      46.163  32.079  31.199  1.00  0.00    -0.206 F 
ATOM     76  C   UNL A   1      46.824  34.210  30.468  1.00  0.00     0.040 A 
ATOM     77  C   UNL A   1      45.921  35.117  28.426  1.00  0.00     0.040 A 
ATOM     78  F   UNL A   1      44.368  33.878  27.177  1.00  0.00    -0.206 F 
ATOM     79  C   UNL A   1      46.752  35.246  29.538  1.00  0.00     0.006 A 
ENDBRANCH  55  72
ENDBRANCH  29  30
ENDBRANCH  22  24
ENDBRANCH  21  22
ENDBRANCH  20  21
ENDBRANCH   1  20
TORSDOF 13
ENDMDL
