MODEL 1
REMARK VINA RESULT:     -11.5      0.000      0.000
REMARK SMILES Cn1c(C(=O)N2CCC[C@@H](C(=O)OCCOC(=O)c3ccc(-c4c5nc(c(-c6c(F)cccc6F)c6ccc([nH]6)c(-c6c(F)cccc6F)c6nc(c(-c7c(F)cccc7F)c7ccc4[nH]7)C=C6)C=C5)cc3)C2)cc2sccc21
REMARK SMILES IDX 14 1 13 2 11 3 12 4 10 5 6 6 7 7 73 8 8 9 9 10 4 11 5 12
REMARK SMILES IDX 3 13 1 14 2 15 79 16 74 17 75 18 78 19 76 20 77 21 15 22
REMARK SMILES IDX 16 23 17 24 18 25 19 26 20 27 72 28 21 29 71 30 22 31 23 32
REMARK SMILES IDX 24 33 65 34 25 35 70 36 64 37 66 38 26 39 69 40 63 41 62 42
REMARK SMILES IDX 27 44 53 45 36 46 52 47 37 48 40 49 51 50 67 51 38 52 39 53
REMARK SMILES IDX 50 55 68 56 41 57 28 58 29 59 34 60 30 61 31 62 33 63 35 64
REMARK SMILES IDX 32 65 54 66 55 67 60 68 56 69 57 70 59 71 61 72 58 73 42 74
REMARK SMILES IDX 43 75 48 76 44 77 45 78 47 79 49 80 46 81
REMARK H PARENT 66 43 40 54
REMARK Flexibility Score: inf
ROOT
ATOM      1  C   UNL A   1      32.833  29.993  25.733  1.00  0.00     0.274 C 
ENDROOT
BRANCH   1   2
ATOM      2  O   UNL A   1      31.430  29.662  25.734  1.00  0.00    -0.462 OA
BRANCH   2   3
ATOM      3  C   UNL A   1      30.944  29.095  24.596  1.00  0.00     0.310 C 
ATOM      4  O   UNL A   1      30.301  29.702  23.746  1.00  0.00    -0.252 OA
BRANCH   3   5
ATOM      5  C   UNL A   1      31.395  27.652  24.422  1.00  0.00     0.119 C 
ATOM      6  N   UNL A   1      31.122  25.313  25.251  1.00  0.00    -0.337 N 
ATOM      7  C   UNL A   1      30.719  24.853  23.931  1.00  0.00     0.120 C 
ATOM      8  C   UNL A   1      30.892  26.731  25.545  1.00  0.00     0.135 C 
ATOM      9  C   UNL A   1      31.345  25.692  22.834  1.00  0.00     0.022 C 
ATOM     10  C   UNL A   1      30.987  27.160  23.027  1.00  0.00     0.019 C 
BRANCH   6  11
ATOM     11  C   UNL A   1      31.690  24.382  26.122  1.00  0.00     0.270 C 
ATOM     12  O   UNL A   1      31.170  24.185  27.224  1.00  0.00    -0.267 OA
BRANCH  11  13
ATOM     13  C   UNL A   1      32.962  23.749  25.766  1.00  0.00     0.108 A 
ATOM     14  C   UNL A   1      32.003  21.453  25.254  1.00  0.00     0.150 C 
ATOM     15  N   UNL A   1      33.076  22.406  25.425  1.00  0.00    -0.339 N 
ATOM     16  C   UNL A   1      34.409  22.060  25.371  1.00  0.00     0.059 A 
ATOM     17  C   UNL A   1      34.255  24.260  25.833  1.00  0.00     0.053 A 
ATOM     18  C   UNL A   1      35.145  23.181  25.585  1.00  0.00     0.053 A 
ATOM     19  C   UNL A   1      35.199  20.891  25.181  1.00  0.00     0.038 A 
ATOM     20  S   UNL A   1      36.849  22.880  25.530  1.00  0.00    -0.142 S 
ATOM     21  C   UNL A   1      36.537  21.210  25.264  1.00  0.00     0.068 A 
ENDBRANCH  11  13
ENDBRANCH   6  11
ENDBRANCH   3   5
ENDBRANCH   2   3
ENDBRANCH   1   2
BRANCH   1  22
ATOM     22  C   UNL A   1      33.235  30.674  27.037  1.00  0.00     0.275 C 
BRANCH  22  23
ATOM     23  O   UNL A   1      34.604  30.418  27.354  1.00  0.00    -0.458 OA
BRANCH  23  24
ATOM     24  C   UNL A   1      35.271  31.475  27.871  1.00  0.00     0.338 C 
ATOM     25  O   UNL A   1      35.122  32.650  27.587  1.00  0.00    -0.246 OA
BRANCH  24  26
ATOM     26  C   UNL A   1      36.344  31.004  28.750  1.00  0.00     0.060 A 
ATOM     27  C   UNL A   1      37.414  31.876  28.987  1.00  0.00     0.016 A 
ATOM     28  C   UNL A   1      36.414  29.640  29.054  1.00  0.00     0.016 A 
ATOM     29  C   UNL A   1      38.630  31.344  29.362  1.00  0.00     0.010 A 
ATOM     30  C   UNL A   1      37.632  29.109  29.399  1.00  0.00     0.010 A 
ATOM     31  C   UNL A   1      38.739  29.958  29.474  1.00  0.00    -0.014 A 
BRANCH  31  32
ATOM     32  C   UNL A   1      40.057  29.373  29.619  1.00  0.00     0.031 A 
ATOM     33  C   UNL A   1      40.549  29.250  31.009  1.00  0.00     0.074 A 
ATOM     34  C   UNL A   1      40.655  28.795  28.559  1.00  0.00     0.049 A 
ATOM     35  N   UNL A   1      41.656  29.686  31.515  1.00  0.00    -0.248 NA
ATOM     36  C   UNL A   1      39.647  28.621  31.988  1.00  0.00     0.031 C 
ATOM     37  C   UNL A   1      40.076  28.555  27.231  1.00  0.00     0.029 A 
ATOM     38  N   UNL A   1      41.857  28.167  28.489  1.00  0.00    -0.354 N 
ATOM     39  C   UNL A   1      41.669  29.229  32.831  1.00  0.00     0.074 A 
ATOM     40  C   UNL A   1      40.351  28.730  33.112  1.00  0.00     0.031 C 
ATOM     41  C   UNL A   1      40.830  27.641  26.582  1.00  0.00     0.029 A 
ATOM     42  C   UNL A   1      41.989  27.323  27.397  1.00  0.00     0.049 A 
ATOM     43  H   UNL A   1      42.571  28.298  29.155  1.00  0.00     0.167 HD
ATOM     44  C   UNL A   1      42.828  29.066  33.522  1.00  0.00     0.037 A 
ATOM     45  C   UNL A   1      42.930  26.361  27.234  1.00  0.00     0.037 A 
ATOM     46  C   UNL A   1      43.904  29.824  32.947  1.00  0.00     0.049 A 
ATOM     47  C   UNL A   1      44.016  26.614  28.214  1.00  0.00     0.074 A 
ATOM     48  C   UNL A   1      44.117  31.164  32.684  1.00  0.00     0.029 A 
ATOM     49  N   UNL A   1      44.864  29.149  32.235  1.00  0.00    -0.354 N 
ATOM     50  N   UNL A   1      44.851  27.615  28.152  1.00  0.00    -0.248 NA
ATOM     51  C   UNL A   1      43.914  25.971  29.517  1.00  0.00     0.031 C 
ATOM     52  C   UNL A   1      44.872  31.190  31.476  1.00  0.00     0.029 A 
ATOM     53  C   UNL A   1      45.096  29.868  31.093  1.00  0.00     0.049 A 
ATOM     54  H   UNL A   1      45.302  28.308  32.496  1.00  0.00     0.167 HD
ATOM     55  C   UNL A   1      45.062  27.985  29.473  1.00  0.00     0.074 A 
ATOM     56  C   UNL A   1      44.546  26.875  30.268  1.00  0.00     0.031 C 
ATOM     57  C   UNL A   1      45.370  29.272  29.807  1.00  0.00     0.037 A 
BRANCH  44  58
ATOM     58  C   UNL A   1      43.058  27.942  34.500  1.00  0.00     0.057 A 
ATOM     59  C   UNL A   1      43.175  26.627  34.021  1.00  0.00     0.134 A 
ATOM     60  C   UNL A   1      42.886  28.057  35.897  1.00  0.00     0.134 A 
ATOM     61  F   UNL A   1      43.318  26.383  32.709  1.00  0.00    -0.206 F 
ATOM     62  C   UNL A   1      43.061  25.511  34.858  1.00  0.00     0.040 A 
ATOM     63  C   UNL A   1      42.830  26.952  36.749  1.00  0.00     0.040 A 
ATOM     64  F   UNL A   1      42.659  29.230  36.500  1.00  0.00    -0.206 F 
ATOM     65  C   UNL A   1      42.884  25.671  36.227  1.00  0.00     0.006 A 
ENDBRANCH  44  58
BRANCH  45  66
ATOM     66  C   UNL A   1      42.808  25.084  26.498  1.00  0.00     0.057 A 
ATOM     67  C   UNL A   1      43.598  24.815  25.374  1.00  0.00     0.134 A 
ATOM     68  C   UNL A   1      42.080  23.996  27.015  1.00  0.00     0.134 A 
ATOM     69  F   UNL A   1      44.367  25.774  24.838  1.00  0.00    -0.206 F 
ATOM     70  C   UNL A   1      43.665  23.538  24.798  1.00  0.00     0.040 A 
ATOM     71  C   UNL A   1      42.125  22.721  26.442  1.00  0.00     0.040 A 
ATOM     72  F   UNL A   1      41.363  24.112  28.142  1.00  0.00    -0.206 F 
ATOM     73  C   UNL A   1      42.929  22.486  25.336  1.00  0.00     0.006 A 
ENDBRANCH  45  66
BRANCH  57  74
ATOM     74  C   UNL A   1      45.747  30.214  28.700  1.00  0.00     0.057 A 
ATOM     75  C   UNL A   1      44.812  30.960  27.966  1.00  0.00     0.134 A 
ATOM     76  C   UNL A   1      47.098  30.500  28.484  1.00  0.00     0.134 A 
ATOM     77  F   UNL A   1      43.498  30.830  28.183  1.00  0.00    -0.206 F 
ATOM     78  C   UNL A   1      45.208  31.917  27.027  1.00  0.00     0.040 A 
ATOM     79  C   UNL A   1      47.507  31.477  27.573  1.00  0.00     0.040 A 
ATOM     80  F   UNL A   1      48.045  29.869  29.196  1.00  0.00    -0.206 F 
ATOM     81  C   UNL A   1      46.560  32.183  26.834  1.00  0.00     0.006 A 
ENDBRANCH  57  74
ENDBRANCH  31  32
ENDBRANCH  24  26
ENDBRANCH  23  24
ENDBRANCH  22  23
ENDBRANCH   1  22
TORSDOF 13
ENDMDL
MODEL 2
REMARK VINA RESULT:     -11.4      2.182      6.256
REMARK SMILES Cn1c(C(=O)N2CCC[C@@H](C(=O)OCCOC(=O)c3ccc(-c4c5nc(c(-c6c(F)cccc6F)c6ccc([nH]6)c(-c6c(F)cccc6F)c6nc(c(-c7c(F)cccc7F)c7ccc4[nH]7)C=C6)C=C5)cc3)C2)cc2sccc21
REMARK SMILES IDX 14 1 13 2 11 3 12 4 10 5 6 6 7 7 73 8 8 9 9 10 4 11 5 12
REMARK SMILES IDX 3 13 1 14 2 15 79 16 74 17 75 18 78 19 76 20 77 21 15 22
REMARK SMILES IDX 16 23 17 24 18 25 19 26 20 27 72 28 21 29 71 30 22 31 23 32
REMARK SMILES IDX 24 33 65 34 25 35 70 36 64 37 66 38 26 39 69 40 63 41 62 42
REMARK SMILES IDX 27 44 53 45 36 46 52 47 37 48 40 49 51 50 67 51 38 52 39 53
REMARK SMILES IDX 50 55 68 56 41 57 28 58 29 59 34 60 30 61 31 62 33 63 35 64
REMARK SMILES IDX 32 65 54 66 55 67 60 68 56 69 57 70 59 71 61 72 58 73 42 74
REMARK SMILES IDX 43 75 48 76 44 77 45 78 47 79 49 80 46 81
REMARK H PARENT 66 43 40 54
REMARK Flexibility Score: inf
ROOT
ATOM      1  C   UNL A   1      33.361  30.523  27.201  1.00  0.00     0.274 C 
ENDROOT
BRANCH   1   2
ATOM      2  O   UNL A   1      33.466  29.114  27.482  1.00  0.00    -0.462 OA
BRANCH   2   3
ATOM      3  C   UNL A   1      32.418  28.341  27.085  1.00  0.00     0.310 C 
ATOM      4  O   UNL A   1      31.451  28.078  27.794  1.00  0.00    -0.252 OA
BRANCH   3   5
ATOM      5  C   UNL A   1      32.505  27.942  25.619  1.00  0.00     0.119 C 
ATOM      6  N   UNL A   1      32.364  26.041  24.008  1.00  0.00    -0.337 N 
ATOM      7  C   UNL A   1      31.281  26.688  23.282  1.00  0.00     0.120 C 
ATOM      8  C   UNL A   1      32.522  26.419  25.416  1.00  0.00     0.135 C 
ATOM      9  C   UNL A   1      31.371  28.199  23.380  1.00  0.00     0.022 C 
ATOM     10  C   UNL A   1      31.376  28.630  24.840  1.00  0.00     0.019 C 
BRANCH   6  11
ATOM     11  C   UNL A   1      33.158  25.125  23.317  1.00  0.00     0.270 C 
ATOM     12  O   UNL A   1      33.757  25.486  22.300  1.00  0.00    -0.267 OA
BRANCH  11  13
ATOM     13  C   UNL A   1      33.165  23.721  23.735  1.00  0.00     0.108 A 
ATOM     14  C   UNL A   1      35.346  23.822  25.033  1.00  0.00     0.150 C 
ATOM     15  N   UNL A   1      34.197  23.151  24.471  1.00  0.00    -0.339 N 
ATOM     16  C   UNL A   1      34.029  21.783  24.508  1.00  0.00     0.059 A 
ATOM     17  C   UNL A   1      32.296  22.690  23.390  1.00  0.00     0.053 A 
ATOM     18  C   UNL A   1      32.861  21.483  23.883  1.00  0.00     0.053 A 
ATOM     19  C   UNL A   1      34.727  20.637  24.984  1.00  0.00     0.038 A 
ATOM     20  S   UNL A   1      32.527  19.785  23.872  1.00  0.00    -0.142 S 
ATOM     21  C   UNL A   1      34.017  19.495  24.680  1.00  0.00     0.068 A 
ENDBRANCH  11  13
ENDBRANCH   6  11
ENDBRANCH   3   5
ENDBRANCH   2   3
ENDBRANCH   1   2
BRANCH   1  22
ATOM     22  C   UNL A   1      34.382  31.318  28.009  1.00  0.00     0.275 C 
BRANCH  22  23
ATOM     23  O   UNL A   1      35.711  30.855  27.763  1.00  0.00    -0.458 OA
BRANCH  23  24
ATOM     24  C   UNL A   1      36.413  30.544  28.877  1.00  0.00     0.338 C 
ATOM     25  O   UNL A   1      36.348  31.086  29.965  1.00  0.00    -0.246 OA
BRANCH  24  26
ATOM     26  C   UNL A   1      37.416  29.522  28.562  1.00  0.00     0.060 A 
ATOM     27  C   UNL A   1      37.771  28.631  29.582  1.00  0.00     0.016 A 
ATOM     28  C   UNL A   1      38.180  29.666  27.399  1.00  0.00     0.016 A 
ATOM     29  C   UNL A   1      39.002  28.012  29.520  1.00  0.00     0.010 A 
ATOM     30  C   UNL A   1      39.417  29.072  27.353  1.00  0.00     0.010 A 
ATOM     31  C   UNL A   1      39.841  28.314  28.447  1.00  0.00    -0.014 A 
BRANCH  31  32
ATOM     32  C   UNL A   1      41.220  27.873  28.496  1.00  0.00     0.031 A 
ATOM     33  C   UNL A   1      41.499  26.581  27.831  1.00  0.00     0.074 A 
ATOM     34  C   UNL A   1      42.180  28.715  28.929  1.00  0.00     0.049 A 
ATOM     35  N   UNL A   1      42.071  25.530  28.318  1.00  0.00    -0.248 NA
ATOM     36  C   UNL A   1      41.002  26.413  26.455  1.00  0.00     0.031 C 
ATOM     37  C   UNL A   1      42.032  30.137  29.263  1.00  0.00     0.029 A 
ATOM     38  N   UNL A   1      43.520  28.515  29.019  1.00  0.00    -0.354 N 
ATOM     39  C   UNL A   1      42.166  24.632  27.256  1.00  0.00     0.074 A 
ATOM     40  C   UNL A   1      41.353  25.157  26.194  1.00  0.00     0.031 C 
ATOM     41  C   UNL A   1      43.254  30.711  29.290  1.00  0.00     0.029 A 
ATOM     42  C   UNL A   1      44.261  29.685  29.086  1.00  0.00     0.049 A 
ATOM     43  H   UNL A   1      43.929  27.619  29.036  1.00  0.00     0.167 HD
ATOM     44  C   UNL A   1      43.100  23.645  27.233  1.00  0.00     0.037 A 
ATOM     45  C   UNL A   1      45.595  29.802  28.883  1.00  0.00     0.037 A 
ATOM     46  C   UNL A   1      43.608  23.359  28.547  1.00  0.00     0.049 A 
ATOM     47  C   UNL A   1      46.192  28.445  28.964  1.00  0.00     0.074 A 
ATOM     48  C   UNL A   1      43.043  22.952  29.740  1.00  0.00     0.029 A 
ATOM     49  N   UNL A   1      44.867  23.803  28.864  1.00  0.00    -0.354 N 
ATOM     50  N   UNL A   1      46.296  27.747  30.061  1.00  0.00    -0.248 NA
ATOM     51  C   UNL A   1      46.303  27.682  27.729  1.00  0.00     0.031 C 
ATOM     52  C   UNL A   1      43.800  23.609  30.753  1.00  0.00     0.029 A 
ATOM     53  C   UNL A   1      44.795  24.352  30.117  1.00  0.00     0.049 A 
ATOM     54  H   UNL A   1      45.670  23.740  28.299  1.00  0.00     0.167 HD
ATOM     55  C   UNL A   1      46.074  26.434  29.670  1.00  0.00     0.074 A 
ATOM     56  C   UNL A   1      46.189  26.444  28.215  1.00  0.00     0.031 C 
ATOM     57  C   UNL A   1      45.534  25.521  30.530  1.00  0.00     0.037 A 
BRANCH  44  58
ATOM     58  C   UNL A   1      43.801  23.196  25.976  1.00  0.00     0.057 A 
ATOM     59  C   UNL A   1      43.814  21.831  25.647  1.00  0.00     0.134 A 
ATOM     60  C   UNL A   1      44.696  24.000  25.237  1.00  0.00     0.134 A 
ATOM     61  F   UNL A   1      43.027  20.959  26.294  1.00  0.00    -0.206 F 
ATOM     62  C   UNL A   1      44.699  21.297  24.702  1.00  0.00     0.040 A 
ATOM     63  C   UNL A   1      45.541  23.486  24.251  1.00  0.00     0.040 A 
ATOM     64  F   UNL A   1      44.879  25.300  25.497  1.00  0.00    -0.206 F 
ATOM     65  C   UNL A   1      45.568  22.124  24.003  1.00  0.00     0.006 A 
ENDBRANCH  44  58
BRANCH  45  66
ATOM     66  C   UNL A   1      46.333  30.961  28.334  1.00  0.00     0.057 A 
ATOM     67  C   UNL A   1      46.212  31.330  26.988  1.00  0.00     0.134 A 
ATOM     68  C   UNL A   1      46.995  31.882  29.169  1.00  0.00     0.134 A 
ATOM     69  F   UNL A   1      45.555  30.543  26.125  1.00  0.00    -0.206 F 
ATOM     70  C   UNL A   1      46.716  32.543  26.500  1.00  0.00     0.040 A 
ATOM     71  C   UNL A   1      47.515  33.090  28.692  1.00  0.00     0.040 A 
ATOM     72  F   UNL A   1      47.088  31.680  30.491  1.00  0.00    -0.206 F 
ATOM     73  C   UNL A   1      47.367  33.429  27.354  1.00  0.00     0.006 A 
ENDBRANCH  45  66
BRANCH  57  74
ATOM     74  C   UNL A   1      45.445  25.892  31.982  1.00  0.00     0.057 A 
ATOM     75  C   UNL A   1      46.502  25.725  32.890  1.00  0.00     0.134 A 
ATOM     76  C   UNL A   1      44.322  26.590  32.435  1.00  0.00     0.134 A 
ATOM     77  F   UNL A   1      47.657  25.164  32.513  1.00  0.00    -0.206 F 
ATOM     78  C   UNL A   1      46.424  26.196  34.204  1.00  0.00     0.040 A 
ATOM     79  C   UNL A   1      44.245  27.095  33.736  1.00  0.00     0.040 A 
ATOM     80  F   UNL A   1      43.299  26.841  31.602  1.00  0.00    -0.206 F 
ATOM     81  C   UNL A   1      45.295  26.889  34.627  1.00  0.00     0.006 A 
ENDBRANCH  57  74
ENDBRANCH  31  32
ENDBRANCH  24  26
ENDBRANCH  23  24
ENDBRANCH  22  23
ENDBRANCH   1  22
TORSDOF 13
ENDMDL
MODEL 3
REMARK VINA RESULT:     -11.4      3.600      7.485
REMARK SMILES Cn1c(C(=O)N2CCC[C@@H](C(=O)OCCOC(=O)c3ccc(-c4c5nc(c(-c6c(F)cccc6F)c6ccc([nH]6)c(-c6c(F)cccc6F)c6nc(c(-c7c(F)cccc7F)c7ccc4[nH]7)C=C6)C=C5)cc3)C2)cc2sccc21
REMARK SMILES IDX 14 1 13 2 11 3 12 4 10 5 6 6 7 7 73 8 8 9 9 10 4 11 5 12
REMARK SMILES IDX 3 13 1 14 2 15 79 16 74 17 75 18 78 19 76 20 77 21 15 22
REMARK SMILES IDX 16 23 17 24 18 25 19 26 20 27 72 28 21 29 71 30 22 31 23 32
REMARK SMILES IDX 24 33 65 34 25 35 70 36 64 37 66 38 26 39 69 40 63 41 62 42
REMARK SMILES IDX 27 44 53 45 36 46 52 47 37 48 40 49 51 50 67 51 38 52 39 53
REMARK SMILES IDX 50 55 68 56 41 57 28 58 29 59 34 60 30 61 31 62 33 63 35 64
REMARK SMILES IDX 32 65 54 66 55 67 60 68 56 69 57 70 59 71 61 72 58 73 42 74
REMARK SMILES IDX 43 75 48 76 44 77 45 78 47 79 49 80 46 81
REMARK H PARENT 66 43 40 54
REMARK Flexibility Score: inf
ROOT
ATOM      1  C   UNL A   1      37.902  23.080  25.756  1.00  0.00     0.274 C 
ENDROOT
BRANCH   1   2
ATOM      2  O   UNL A   1      37.444  22.315  24.624  1.00  0.00    -0.462 OA
BRANCH   2   3
ATOM      3  C   UNL A   1      36.256  22.697  24.079  1.00  0.00     0.310 C 
ATOM      4  O   UNL A   1      36.096  22.951  22.889  1.00  0.00    -0.252 OA
BRANCH   3   5
ATOM      5  C   UNL A   1      35.110  22.649  25.080  1.00  0.00     0.119 C 
ATOM      6  N   UNL A   1      32.724  23.259  25.482  1.00  0.00    -0.337 N 
ATOM      7  C   UNL A   1      32.370  21.867  25.721  1.00  0.00     0.120 C 
ATOM      8  C   UNL A   1      33.904  23.496  24.645  1.00  0.00     0.135 C 
ATOM      9  C   UNL A   1      33.540  21.085  26.286  1.00  0.00     0.022 C 
ATOM     10  C   UNL A   1      34.738  21.185  25.351  1.00  0.00     0.019 C 
BRANCH   6  11
ATOM     11  C   UNL A   1      31.923  24.244  26.061  1.00  0.00     0.270 C 
ATOM     12  O   UNL A   1      31.483  24.077  27.202  1.00  0.00    -0.267 OA
BRANCH  11  13
ATOM     13  C   UNL A   1      31.515  25.400  25.259  1.00  0.00     0.108 A 
ATOM     14  C   UNL A   1      33.296  26.991  26.125  1.00  0.00     0.150 C 
ATOM     15  N   UNL A   1      32.128  26.645  25.349  1.00  0.00    -0.339 N 
ATOM     16  C   UNL A   1      31.382  27.572  24.653  1.00  0.00     0.059 A 
ATOM     17  C   UNL A   1      30.419  25.549  24.414  1.00  0.00     0.053 A 
ATOM     18  C   UNL A   1      30.353  26.921  24.050  1.00  0.00     0.053 A 
ATOM     19  C   UNL A   1      31.378  28.976  24.417  1.00  0.00     0.038 A 
ATOM     20  S   UNL A   1      29.342  27.981  23.128  1.00  0.00    -0.142 S 
ATOM     21  C   UNL A   1      30.308  29.317  23.619  1.00  0.00     0.068 A 
ENDBRANCH  11  13
ENDBRANCH   6  11
ENDBRANCH   3   5
ENDBRANCH   2   3
ENDBRANCH   1   2
BRANCH   1  22
ATOM     22  C   UNL A   1      39.250  22.568  26.252  1.00  0.00     0.275 C 
BRANCH  22  23
ATOM     23  O   UNL A   1      39.783  23.415  27.271  1.00  0.00    -0.458 OA
BRANCH  23  24
ATOM     24  C   UNL A   1      40.488  24.474  26.811  1.00  0.00     0.338 C 
ATOM     25  O   UNL A   1      41.496  24.447  26.129  1.00  0.00    -0.246 OA
BRANCH  24  26
ATOM     26  C   UNL A   1      39.952  25.713  27.381  1.00  0.00     0.060 A 
ATOM     27  C   UNL A   1      40.400  26.922  26.833  1.00  0.00     0.016 A 
ATOM     28  C   UNL A   1      39.283  25.654  28.608  1.00  0.00     0.016 A 
ATOM     29  C   UNL A   1      40.339  28.062  27.608  1.00  0.00     0.010 A 
ATOM     30  C   UNL A   1      39.251  26.783  29.389  1.00  0.00     0.010 A 
ATOM     31  C   UNL A   1      39.846  27.951  28.908  1.00  0.00    -0.014 A 
BRANCH  31  32
ATOM     32  C   UNL A   1      40.008  29.073  29.810  1.00  0.00     0.031 A 
ATOM     33  C   UNL A   1      38.823  29.947  29.960  1.00  0.00     0.074 A 
ATOM     34  C   UNL A   1      41.095  29.147  30.603  1.00  0.00     0.049 A 
ATOM     35  N   UNL A   1      38.738  31.226  29.799  1.00  0.00    -0.248 NA
ATOM     36  C   UNL A   1      37.537  29.291  30.253  1.00  0.00     0.031 C 
ATOM     37  C   UNL A   1      42.141  28.129  30.776  1.00  0.00     0.029 A 
ATOM     38  N   UNL A   1      41.419  30.082  31.532  1.00  0.00    -0.354 N 
ATOM     39  C   UNL A   1      37.430  31.559  30.145  1.00  0.00     0.074 A 
ATOM     40  C   UNL A   1      36.701  30.325  30.253  1.00  0.00     0.031 C 
ATOM     41  C   UNL A   1      42.836  28.402  31.902  1.00  0.00     0.029 A 
ATOM     42  C   UNL A   1      42.359  29.656  32.458  1.00  0.00     0.049 A 
ATOM     43  H   UNL A   1      41.021  30.983  31.548  1.00  0.00     0.167 HD
ATOM     44  C   UNL A   1      37.094  32.809  30.561  1.00  0.00     0.037 A 
ATOM     45  C   UNL A   1      42.642  30.246  33.645  1.00  0.00     0.037 A 
ATOM     46  C   UNL A   1      38.070  33.785  30.161  1.00  0.00     0.049 A 
ATOM     47  C   UNL A   1      42.077  31.618  33.620  1.00  0.00     0.074 A 
ATOM     48  C   UNL A   1      38.585  34.204  28.949  1.00  0.00     0.029 A 
ATOM     49  N   UNL A   1      38.920  34.280  31.118  1.00  0.00    -0.354 N 
ATOM     50  N   UNL A   1      42.534  32.594  32.885  1.00  0.00    -0.248 NA
ATOM     51  C   UNL A   1      40.719  31.797  34.116  1.00  0.00     0.031 C 
ATOM     52  C   UNL A   1      39.951  34.512  29.213  1.00  0.00     0.029 A 
ATOM     53  C   UNL A   1      40.176  34.289  30.571  1.00  0.00     0.049 A 
ATOM     54  H   UNL A   1      38.674  34.573  32.024  1.00  0.00     0.167 HD
ATOM     55  C   UNL A   1      41.407  33.301  32.490  1.00  0.00     0.074 A 
ATOM     56  C   UNL A   1      40.335  32.829  33.361  1.00  0.00     0.031 C 
ATOM     57  C   UNL A   1      41.379  33.988  31.310  1.00  0.00     0.037 A 
BRANCH  44  58
ATOM     58  C   UNL A   1      36.067  33.078  31.631  1.00  0.00     0.057 A 
ATOM     59  C   UNL A   1      35.009  33.962  31.362  1.00  0.00     0.134 A 
ATOM     60  C   UNL A   1      36.230  32.736  32.991  1.00  0.00     0.134 A 
ATOM     61  F   UNL A   1      34.765  34.383  30.112  1.00  0.00    -0.206 F 
ATOM     62  C   UNL A   1      34.217  34.514  32.376  1.00  0.00     0.040 A 
ATOM     63  C   UNL A   1      35.409  33.236  34.004  1.00  0.00     0.040 A 
ATOM     64  F   UNL A   1      37.251  31.988  33.428  1.00  0.00    -0.206 F 
ATOM     65  C   UNL A   1      34.419  34.155  33.703  1.00  0.00     0.006 A 
ENDBRANCH  44  58
BRANCH  45  66
ATOM     66  C   UNL A   1      43.106  29.601  34.893  1.00  0.00     0.057 A 
ATOM     67  C   UNL A   1      42.328  28.637  35.546  1.00  0.00     0.134 A 
ATOM     68  C   UNL A   1      44.429  29.742  35.354  1.00  0.00     0.134 A 
ATOM     69  F   UNL A   1      41.071  28.394  35.147  1.00  0.00    -0.206 F 
ATOM     70  C   UNL A   1      42.835  27.855  36.593  1.00  0.00     0.040 A 
ATOM     71  C   UNL A   1      44.943  28.979  36.406  1.00  0.00     0.040 A 
ATOM     72  F   UNL A   1      45.293  30.566  34.744  1.00  0.00    -0.206 F 
ATOM     73  C   UNL A   1      44.148  28.023  37.023  1.00  0.00     0.006 A 
ENDBRANCH  45  66
BRANCH  57  74
ATOM     74  C   UNL A   1      42.678  34.191  30.586  1.00  0.00     0.057 A 
ATOM     75  C   UNL A   1      43.165  33.313  29.607  1.00  0.00     0.134 A 
ATOM     76  C   UNL A   1      43.371  35.393  30.763  1.00  0.00     0.134 A 
ATOM     77  F   UNL A   1      42.507  32.190  29.295  1.00  0.00    -0.206 F 
ATOM     78  C   UNL A   1      44.317  33.600  28.868  1.00  0.00     0.040 A 
ATOM     79  C   UNL A   1      44.504  35.707  30.008  1.00  0.00     0.040 A 
ATOM     80  F   UNL A   1      42.926  36.308  31.639  1.00  0.00    -0.206 F 
ATOM     81  C   UNL A   1      44.985  34.804  29.063  1.00  0.00     0.006 A 
ENDBRANCH  57  74
ENDBRANCH  31  32
ENDBRANCH  24  26
ENDBRANCH  23  24
ENDBRANCH  22  23
ENDBRANCH   1  22
TORSDOF 13
ENDMDL
