MODEL 1
REMARK VINA RESULT:     -12.2      0.000      0.000
REMARK SMILES Cc1ccc(NC(=O)[C@H]2CC=CC[C@H]2C(=O)OCCOC(=O)c2ccc(-c3c4nc(c(-c5c(F)cccc5F)c5ccc([nH]5)c(-c5c(F)cccc5F)c5nc(c(-c6c(F)cccc6F)c6ccc3[nH]6)C=C5)C=C4)cc2)cc1F
REMARK SMILES IDX 18 1 17 2 15 3 16 4 14 5 9 6 10 7 11 8 13 9 12 10 7 11 6 12
REMARK SMILES IDX 8 14 5 15 1 16 2 17 3 18 78 19 4 20 77 21 79 22 19 23 20 24
REMARK SMILES IDX 21 25 22 26 23 27 24 28 76 29 25 30 75 31 26 32 27 33 28 34
REMARK SMILES IDX 69 35 29 36 74 37 68 38 70 39 30 40 73 41 67 42 66 43 31 45
REMARK SMILES IDX 57 46 40 47 56 48 41 49 44 50 55 51 71 52 42 53 43 54 54 56
REMARK SMILES IDX 72 57 45 58 32 59 33 60 38 61 34 62 35 63 37 64 39 65 36 66
REMARK SMILES IDX 58 67 59 68 64 69 60 70 61 71 63 72 65 73 62 74 46 75 47 76
REMARK SMILES IDX 52 77 48 78 49 79 51 80 53 81 50 82
REMARK H PARENT 6 13 70 44 44 55
REMARK Flexibility Score: inf
ROOT
ATOM      1  C   UNL A   1      32.153  30.492  26.845  1.00  0.00     0.274 C 
ENDROOT
BRANCH   1   2
ATOM      2  O   UNL A   1      31.839  30.339  25.445  1.00  0.00    -0.462 OA
BRANCH   2   3
ATOM      3  C   UNL A   1      32.231  29.175  24.867  1.00  0.00     0.310 C 
ATOM      4  O   UNL A   1      33.239  29.070  24.170  1.00  0.00    -0.252 OA
BRANCH   3   5
ATOM      5  C   UNL A   1      31.397  27.953  25.266  1.00  0.00     0.116 C 
ATOM      6  C   UNL A   1      30.354  27.358  24.279  1.00  0.00     0.097 C 
ATOM      7  C   UNL A   1      29.785  26.002  24.781  1.00  0.00     0.041 C 
ATOM      8  C   UNL A   1      30.531  25.270  25.852  1.00  0.00    -0.030 C 
ATOM      9  C   UNL A   1      32.348  26.955  25.927  1.00  0.00     0.043 C 
ATOM     10  C   UNL A   1      31.689  25.691  26.364  1.00  0.00    -0.030 C 
BRANCH   6  11
ATOM     11  C   UNL A   1      30.785  27.259  22.808  1.00  0.00     0.228 C 
ATOM     12  N   UNL A   1      31.626  26.309  22.270  1.00  0.00    -0.326 N 
ATOM     13  H   UNL A   1      31.707  26.408  21.294  1.00  0.00     0.169 HD
ATOM     14  O   UNL A   1      30.331  28.083  22.002  1.00  0.00    -0.274 OA
BRANCH  12  15
ATOM     15  C   UNL A   1      32.402  25.231  22.750  1.00  0.00     0.044 A 
ATOM     16  C   UNL A   1      34.534  21.916  24.620  1.00  0.00     0.047 C 
ATOM     17  C   UNL A   1      33.766  22.975  23.881  1.00  0.00    -0.015 A 
ATOM     18  C   UNL A   1      32.513  22.812  23.318  1.00  0.00     0.008 A 
ATOM     19  C   UNL A   1      34.299  24.246  23.792  1.00  0.00     0.128 A 
ATOM     20  C   UNL A   1      31.850  23.927  22.741  1.00  0.00     0.026 A 
ATOM     21  C   UNL A   1      33.676  25.352  23.234  1.00  0.00     0.065 A 
ATOM     22  F   UNL A   1      35.513  24.444  24.262  1.00  0.00    -0.207 F 
ENDBRANCH  12  15
ENDBRANCH   6  11
ENDBRANCH   3   5
ENDBRANCH   2   3
ENDBRANCH   1   2
BRANCH   1  23
ATOM     23  C   UNL A   1      33.671  30.548  27.103  1.00  0.00     0.275 C 
BRANCH  23  24
ATOM     24  O   UNL A   1      34.173  31.482  28.094  1.00  0.00    -0.458 OA
BRANCH  24  25
ATOM     25  C   UNL A   1      35.514  31.533  28.206  1.00  0.00     0.338 C 
ATOM     26  O   UNL A   1      36.206  32.519  28.002  1.00  0.00    -0.246 OA
BRANCH  25  27
ATOM     27  C   UNL A   1      36.249  30.268  28.243  1.00  0.00     0.060 A 
ATOM     28  C   UNL A   1      36.271  29.625  29.511  1.00  0.00     0.016 A 
ATOM     29  C   UNL A   1      37.255  30.069  27.313  1.00  0.00     0.016 A 
ATOM     30  C   UNL A   1      37.418  28.988  29.954  1.00  0.00     0.010 A 
ATOM     31  C   UNL A   1      38.390  29.415  27.752  1.00  0.00     0.010 A 
ATOM     32  C   UNL A   1      38.502  28.963  29.092  1.00  0.00    -0.014 A 
BRANCH  32  33
ATOM     33  C   UNL A   1      39.832  28.503  29.464  1.00  0.00     0.031 A 
ATOM     34  C   UNL A   1      40.186  27.160  28.986  1.00  0.00     0.074 A 
ATOM     35  C   UNL A   1      40.786  29.307  29.996  1.00  0.00     0.049 A 
ATOM     36  N   UNL A   1      41.272  26.554  29.300  1.00  0.00    -0.248 NA
ATOM     37  C   UNL A   1      39.287  26.343  28.169  1.00  0.00     0.031 C 
ATOM     38  C   UNL A   1      42.222  29.224  29.730  1.00  0.00     0.029 A 
ATOM     39  N   UNL A   1      40.700  30.383  30.866  1.00  0.00    -0.354 N 
ATOM     40  C   UNL A   1      41.386  25.486  28.451  1.00  0.00     0.074 A 
ATOM     41  C   UNL A   1      40.067  25.291  27.911  1.00  0.00     0.031 C 
ATOM     42  C   UNL A   1      42.884  30.089  30.518  1.00  0.00     0.029 A 
ATOM     43  C   UNL A   1      41.937  30.650  31.459  1.00  0.00     0.049 A 
ATOM     44  H   UNL A   1      39.875  30.892  31.043  1.00  0.00     0.167 HD
ATOM     45  C   UNL A   1      42.633  25.014  28.195  1.00  0.00     0.037 A 
ATOM     46  C   UNL A   1      42.099  30.645  32.817  1.00  0.00     0.037 A 
ATOM     47  C   UNL A   1      43.603  25.594  29.131  1.00  0.00     0.049 A 
ATOM     48  C   UNL A   1      42.899  29.468  33.310  1.00  0.00     0.074 A 
ATOM     49  C   UNL A   1      44.577  26.569  29.011  1.00  0.00     0.029 A 
ATOM     50  N   UNL A   1      43.420  25.389  30.498  1.00  0.00    -0.354 N 
ATOM     51  N   UNL A   1      43.296  28.506  32.527  1.00  0.00    -0.248 NA
ATOM     52  C   UNL A   1      43.270  29.238  34.704  1.00  0.00     0.031 C 
ATOM     53  C   UNL A   1      44.910  27.010  30.323  1.00  0.00     0.029 A 
ATOM     54  C   UNL A   1      44.178  26.273  31.242  1.00  0.00     0.049 A 
ATOM     55  H   UNL A   1      42.828  24.703  30.883  1.00  0.00     0.167 HD
ATOM     56  C   UNL A   1      43.814  27.491  33.272  1.00  0.00     0.074 A 
ATOM     57  C   UNL A   1      43.846  28.025  34.620  1.00  0.00     0.031 C 
ATOM     58  C   UNL A   1      44.097  26.282  32.705  1.00  0.00     0.037 A 
BRANCH  45  59
ATOM     59  C   UNL A   1      43.018  24.185  26.995  1.00  0.00     0.057 A 
ATOM     60  C   UNL A   1      42.857  22.786  27.038  1.00  0.00     0.134 A 
ATOM     61  C   UNL A   1      43.641  24.658  25.820  1.00  0.00     0.134 A 
ATOM     62  F   UNL A   1      42.307  22.180  28.100  1.00  0.00    -0.206 F 
ATOM     63  C   UNL A   1      43.273  21.938  26.003  1.00  0.00     0.040 A 
ATOM     64  C   UNL A   1      44.014  23.824  24.756  1.00  0.00     0.040 A 
ATOM     65  F   UNL A   1      43.988  25.936  25.647  1.00  0.00    -0.206 F 
ATOM     66  C   UNL A   1      43.840  22.456  24.849  1.00  0.00     0.006 A 
ENDBRANCH  45  59
BRANCH  46  67
ATOM     67  C   UNL A   1      40.964  31.263  33.538  1.00  0.00     0.057 A 
ATOM     68  C   UNL A   1      40.892  32.665  33.535  1.00  0.00     0.134 A 
ATOM     69  C   UNL A   1      39.780  30.545  33.751  1.00  0.00     0.134 A 
ATOM     70  F   UNL A   1      42.000  33.400  33.359  1.00  0.00    -0.206 F 
ATOM     71  C   UNL A   1      39.669  33.326  33.579  1.00  0.00     0.040 A 
ATOM     72  C   UNL A   1      38.548  31.195  33.771  1.00  0.00     0.040 A 
ATOM     73  F   UNL A   1      39.788  29.205  33.773  1.00  0.00    -0.206 F 
ATOM     74  C   UNL A   1      38.498  32.584  33.652  1.00  0.00     0.006 A 
ENDBRANCH  46  67
BRANCH  58  75
ATOM     75  C   UNL A   1      44.371  25.026  33.491  1.00  0.00     0.057 A 
ATOM     76  C   UNL A   1      45.601  24.348  33.497  1.00  0.00     0.134 A 
ATOM     77  C   UNL A   1      43.401  24.510  34.376  1.00  0.00     0.134 A 
ATOM     78  F   UNL A   1      46.671  24.817  32.840  1.00  0.00    -0.206 F 
ATOM     79  C   UNL A   1      45.810  23.175  34.232  1.00  0.00     0.040 A 
ATOM     80  C   UNL A   1      43.624  23.381  35.168  1.00  0.00     0.040 A 
ATOM     81  F   UNL A   1      42.202  25.090  34.524  1.00  0.00    -0.206 F 
ATOM     82  C   UNL A   1      44.819  22.689  35.073  1.00  0.00     0.006 A 
ENDBRANCH  58  75
ENDBRANCH  32  33
ENDBRANCH  25  27
ENDBRANCH  24  25
ENDBRANCH  23  24
ENDBRANCH   1  23
TORSDOF 13
ENDMDL
MODEL 2
REMARK VINA RESULT:     -12.2      0.185      1.324
REMARK SMILES Cc1ccc(NC(=O)[C@H]2CC=CC[C@H]2C(=O)OCCOC(=O)c2ccc(-c3c4nc(c(-c5c(F)cccc5F)c5ccc([nH]5)c(-c5c(F)cccc5F)c5nc(c(-c6c(F)cccc6F)c6ccc3[nH]6)C=C5)C=C4)cc2)cc1F
REMARK SMILES IDX 18 1 17 2 15 3 16 4 14 5 9 6 10 7 11 8 13 9 12 10 7 11 6 12
REMARK SMILES IDX 8 14 5 15 1 16 2 17 3 18 78 19 4 20 77 21 79 22 19 23 20 24
REMARK SMILES IDX 21 25 22 26 23 27 24 28 76 29 25 30 75 31 26 32 27 33 28 34
REMARK SMILES IDX 69 35 29 36 74 37 68 38 70 39 30 40 73 41 67 42 66 43 31 45
REMARK SMILES IDX 57 46 40 47 56 48 41 49 44 50 55 51 71 52 42 53 43 54 54 56
REMARK SMILES IDX 72 57 45 58 32 59 33 60 38 61 34 62 35 63 37 64 39 65 36 66
REMARK SMILES IDX 58 67 59 68 64 69 60 70 61 71 63 72 65 73 62 74 46 75 47 76
REMARK SMILES IDX 52 77 48 78 49 79 51 80 53 81 50 82
REMARK H PARENT 6 13 70 44 44 55
REMARK Flexibility Score: inf
ROOT
ATOM      1  C   UNL A   1      32.156  30.466  26.839  1.00  0.00     0.274 C 
ENDROOT
BRANCH   1   2
ATOM      2  O   UNL A   1      31.924  30.333  25.420  1.00  0.00    -0.462 OA
BRANCH   2   3
ATOM      3  C   UNL A   1      32.286  29.149  24.863  1.00  0.00     0.310 C 
ATOM      4  O   UNL A   1      33.302  29.002  24.186  1.00  0.00    -0.252 OA
BRANCH   3   5
ATOM      5  C   UNL A   1      31.403  27.962  25.260  1.00  0.00     0.116 C 
ATOM      6  C   UNL A   1      30.324  27.424  24.278  1.00  0.00     0.097 C 
ATOM      7  C   UNL A   1      29.700  26.090  24.774  1.00  0.00     0.041 C 
ATOM      8  C   UNL A   1      30.423  25.315  25.830  1.00  0.00    -0.030 C 
ATOM      9  C   UNL A   1      32.314  26.917  25.901  1.00  0.00     0.043 C 
ATOM     10  C   UNL A   1      31.604  25.680  26.334  1.00  0.00    -0.030 C 
BRANCH   6  11
ATOM     11  C   UNL A   1      30.734  27.320  22.802  1.00  0.00     0.228 C 
ATOM     12  N   UNL A   1      31.559  26.362  22.254  1.00  0.00    -0.326 N 
ATOM     13  H   UNL A   1      31.628  26.459  21.277  1.00  0.00     0.169 HD
ATOM     14  O   UNL A   1      30.279  28.148  22.001  1.00  0.00    -0.274 OA
BRANCH  12  15
ATOM     15  C   UNL A   1      32.330  25.277  22.724  1.00  0.00     0.044 A 
ATOM     16  C   UNL A   1      34.461  21.949  24.573  1.00  0.00     0.047 C 
ATOM     17  C   UNL A   1      33.689  23.011  23.844  1.00  0.00    -0.015 A 
ATOM     18  C   UNL A   1      32.416  22.863  23.323  1.00  0.00     0.008 A 
ATOM     19  C   UNL A   1      34.242  24.271  23.721  1.00  0.00     0.128 A 
ATOM     20  C   UNL A   1      31.755  23.982  22.752  1.00  0.00     0.026 A 
ATOM     21  C   UNL A   1      33.621  25.380  23.167  1.00  0.00     0.065 A 
ATOM     22  F   UNL A   1      35.473  24.453  24.150  1.00  0.00    -0.207 F 
ENDBRANCH  12  15
ENDBRANCH   6  11
ENDBRANCH   3   5
ENDBRANCH   2   3
ENDBRANCH   1   2
BRANCH   1  23
ATOM     23  C   UNL A   1      33.656  30.475  27.190  1.00  0.00     0.275 C 
BRANCH  23  24
ATOM     24  O   UNL A   1      34.150  31.492  28.100  1.00  0.00    -0.458 OA
BRANCH  24  25
ATOM     25  C   UNL A   1      35.490  31.551  28.219  1.00  0.00     0.338 C 
ATOM     26  O   UNL A   1      36.179  32.536  28.001  1.00  0.00    -0.246 OA
BRANCH  25  27
ATOM     27  C   UNL A   1      36.230  30.290  28.287  1.00  0.00     0.060 A 
ATOM     28  C   UNL A   1      36.244  29.672  29.567  1.00  0.00     0.016 A 
ATOM     29  C   UNL A   1      37.245  30.078  27.369  1.00  0.00     0.016 A 
ATOM     30  C   UNL A   1      37.390  29.049  30.032  1.00  0.00     0.010 A 
ATOM     31  C   UNL A   1      38.379  29.438  27.830  1.00  0.00     0.010 A 
ATOM     32  C   UNL A   1      38.481  29.012  29.179  1.00  0.00    -0.014 A 
BRANCH  32  33
ATOM     33  C   UNL A   1      39.810  28.566  29.571  1.00  0.00     0.031 A 
ATOM     34  C   UNL A   1      40.191  27.232  29.086  1.00  0.00     0.074 A 
ATOM     35  C   UNL A   1      40.745  29.377  30.127  1.00  0.00     0.049 A 
ATOM     36  N   UNL A   1      41.278  26.636  29.415  1.00  0.00    -0.248 NA
ATOM     37  C   UNL A   1      39.317  26.411  28.246  1.00  0.00     0.031 C 
ATOM     38  C   UNL A   1      42.186  29.314  29.887  1.00  0.00     0.029 A 
ATOM     39  N   UNL A   1      40.629  30.443  31.006  1.00  0.00    -0.354 N 
ATOM     40  C   UNL A   1      41.421  25.578  28.557  1.00  0.00     0.074 A 
ATOM     41  C   UNL A   1      40.115  25.373  27.991  1.00  0.00     0.031 C 
ATOM     42  C   UNL A   1      42.823  30.179  30.695  1.00  0.00     0.029 A 
ATOM     43  C   UNL A   1      41.851  30.719  31.624  1.00  0.00     0.049 A 
ATOM     44  H   UNL A   1      39.795  30.940  31.173  1.00  0.00     0.167 HD
ATOM     45  C   UNL A   1      42.678  25.125  28.320  1.00  0.00     0.037 A 
ATOM     46  C   UNL A   1      41.989  30.703  32.984  1.00  0.00     0.037 A 
ATOM     47  C   UNL A   1      43.624  25.708  29.278  1.00  0.00     0.049 A 
ATOM     48  C   UNL A   1      42.795  29.532  33.480  1.00  0.00     0.074 A 
ATOM     49  C   UNL A   1      44.587  26.696  29.185  1.00  0.00     0.029 A 
ATOM     50  N   UNL A   1      43.419  25.487  30.640  1.00  0.00    -0.354 N 
ATOM     51  N   UNL A   1      43.219  28.583  32.696  1.00  0.00    -0.248 NA
ATOM     52  C   UNL A   1      43.144  29.293  34.878  1.00  0.00     0.031 C 
ATOM     53  C   UNL A   1      44.891  27.129  30.507  1.00  0.00     0.029 A 
ATOM     54  C   UNL A   1      44.153  26.374  31.406  1.00  0.00     0.049 A 
ATOM     55  H   UNL A   1      42.830  24.790  31.007  1.00  0.00     0.167 HD
ATOM     56  C   UNL A   1      43.737  27.567  33.440  1.00  0.00     0.074 A 
ATOM     57  C   UNL A   1      43.738  28.088  34.794  1.00  0.00     0.031 C 
ATOM     58  C   UNL A   1      44.045  26.367  32.867  1.00  0.00     0.037 A 
BRANCH  45  59
ATOM     59  C   UNL A   1      43.095  24.312  27.118  1.00  0.00     0.057 A 
ATOM     60  C   UNL A   1      43.602  24.968  25.980  1.00  0.00     0.134 A 
ATOM     61  C   UNL A   1      42.935  22.919  26.958  1.00  0.00     0.134 A 
ATOM     62  F   UNL A   1      43.785  26.296  25.964  1.00  0.00    -0.206 F 
ATOM     63  C   UNL A   1      43.926  24.297  24.793  1.00  0.00     0.040 A 
ATOM     64  C   UNL A   1      43.304  22.230  25.794  1.00  0.00     0.040 A 
ATOM     65  F   UNL A   1      42.357  22.144  27.880  1.00  0.00    -0.206 F 
ATOM     66  C   UNL A   1      43.793  22.920  24.701  1.00  0.00     0.006 A 
ENDBRANCH  45  59
BRANCH  46  67
ATOM     67  C   UNL A   1      40.834  31.300  33.691  1.00  0.00     0.057 A 
ATOM     68  C   UNL A   1      40.752  32.701  33.713  1.00  0.00     0.134 A 
ATOM     69  C   UNL A   1      39.651  30.570  33.862  1.00  0.00     0.134 A 
ATOM     70  F   UNL A   1      41.859  33.447  33.577  1.00  0.00    -0.206 F 
ATOM     71  C   UNL A   1      39.524  33.353  33.742  1.00  0.00     0.040 A 
ATOM     72  C   UNL A   1      38.414  31.212  33.867  1.00  0.00     0.040 A 
ATOM     73  F   UNL A   1      39.668  29.229  33.858  1.00  0.00    -0.206 F 
ATOM     74  C   UNL A   1      38.356  32.602  33.773  1.00  0.00     0.006 A 
ENDBRANCH  46  67
BRANCH  58  75
ATOM     75  C   UNL A   1      44.321  25.108  33.646  1.00  0.00     0.057 A 
ATOM     76  C   UNL A   1      43.402  24.494  34.512  1.00  0.00     0.134 A 
ATOM     77  C   UNL A   1      45.525  24.397  33.454  1.00  0.00     0.134 A 
ATOM     78  F   UNL A   1      42.154  24.958  34.664  1.00  0.00    -0.206 F 
ATOM     79  C   UNL A   1      43.704  23.329  35.228  1.00  0.00     0.040 A 
ATOM     80  C   UNL A   1      45.809  23.196  34.109  1.00  0.00     0.040 A 
ATOM     81  F   UNL A   1      46.472  24.828  32.608  1.00  0.00    -0.206 F 
ATOM     82  C   UNL A   1      44.911  22.675  35.026  1.00  0.00     0.006 A 
ENDBRANCH  58  75
ENDBRANCH  32  33
ENDBRANCH  25  27
ENDBRANCH  24  25
ENDBRANCH  23  24
ENDBRANCH   1  23
TORSDOF 13
ENDMDL
MODEL 3
REMARK VINA RESULT:     -12.0      1.754      2.930
REMARK SMILES Cc1ccc(NC(=O)[C@H]2CC=CC[C@H]2C(=O)OCCOC(=O)c2ccc(-c3c4nc(c(-c5c(F)cccc5F)c5ccc([nH]5)c(-c5c(F)cccc5F)c5nc(c(-c6c(F)cccc6F)c6ccc3[nH]6)C=C5)C=C4)cc2)cc1F
REMARK SMILES IDX 18 1 17 2 15 3 16 4 14 5 9 6 10 7 11 8 13 9 12 10 7 11 6 12
REMARK SMILES IDX 8 14 5 15 1 16 2 17 3 18 78 19 4 20 77 21 79 22 19 23 20 24
REMARK SMILES IDX 21 25 22 26 23 27 24 28 76 29 25 30 75 31 26 32 27 33 28 34
REMARK SMILES IDX 69 35 29 36 74 37 68 38 70 39 30 40 73 41 67 42 66 43 31 45
REMARK SMILES IDX 57 46 40 47 56 48 41 49 44 50 55 51 71 52 42 53 43 54 54 56
REMARK SMILES IDX 72 57 45 58 32 59 33 60 38 61 34 62 35 63 37 64 39 65 36 66
REMARK SMILES IDX 58 67 59 68 64 69 60 70 61 71 63 72 65 73 62 74 46 75 47 76
REMARK SMILES IDX 52 77 48 78 49 79 51 80 53 81 50 82
REMARK H PARENT 6 13 70 44 44 55
REMARK Flexibility Score: inf
ROOT
ATOM      1  C   UNL A   1      33.613  26.804  25.205  1.00  0.00     0.274 C 
ENDROOT
BRANCH   1   2
ATOM      2  O   UNL A   1      33.760  25.486  25.775  1.00  0.00    -0.462 OA
BRANCH   2   3
ATOM      3  C   UNL A   1      32.608  24.836  26.083  1.00  0.00     0.310 C 
ATOM      4  O   UNL A   1      31.534  25.408  26.260  1.00  0.00    -0.252 OA
BRANCH   3   5
ATOM      5  C   UNL A   1      32.712  23.307  26.052  1.00  0.00     0.116 C 
ATOM      6  C   UNL A   1      32.696  22.547  24.696  1.00  0.00     0.097 C 
ATOM      7  C   UNL A   1      33.038  21.041  24.870  1.00  0.00     0.041 C 
ATOM      8  C   UNL A   1      33.693  20.601  26.142  1.00  0.00    -0.030 C 
ATOM      9  C   UNL A   1      33.811  22.910  27.037  1.00  0.00     0.043 C 
ATOM     10  C   UNL A   1      34.051  21.441  27.116  1.00  0.00    -0.030 C 
BRANCH   6  11
ATOM     11  C   UNL A   1      33.519  23.165  23.557  1.00  0.00     0.228 C 
ATOM     12  N   UNL A   1      34.894  23.205  23.476  1.00  0.00    -0.326 N 
ATOM     13  H   UNL A   1      35.196  23.594  22.625  1.00  0.00     0.169 HD
ATOM     14  O   UNL A   1      32.918  23.662  22.595  1.00  0.00    -0.274 OA
BRANCH  12  15
ATOM     15  C   UNL A   1      35.984  22.833  24.293  1.00  0.00     0.044 A 
ATOM     16  C   UNL A   1      39.623  21.922  26.520  1.00  0.00     0.047 C 
ATOM     17  C   UNL A   1      38.327  22.296  25.861  1.00  0.00    -0.015 A 
ATOM     18  C   UNL A   1      37.718  23.536  25.934  1.00  0.00     0.008 A 
ATOM     19  C   UNL A   1      37.696  21.368  25.055  1.00  0.00     0.128 A 
ATOM     20  C   UNL A   1      36.547  23.791  25.172  1.00  0.00     0.026 A 
ATOM     21  C   UNL A   1      36.553  21.588  24.302  1.00  0.00     0.065 A 
ATOM     22  F   UNL A   1      38.203  20.154  24.993  1.00  0.00    -0.207 F 
ENDBRANCH  12  15
ENDBRANCH   6  11
ENDBRANCH   3   5
ENDBRANCH   2   3
ENDBRANCH   1   2
BRANCH   1  23
ATOM     23  C   UNL A   1      33.624  27.911  26.277  1.00  0.00     0.275 C 
BRANCH  23  24
ATOM     24  O   UNL A   1      34.901  28.342  26.817  1.00  0.00    -0.458 OA
BRANCH  24  25
ATOM     25  C   UNL A   1      34.836  29.364  27.691  1.00  0.00     0.338 C 
ATOM     26  O   UNL A   1      33.868  30.091  27.863  1.00  0.00    -0.246 OA
BRANCH  25  27
ATOM     27  C   UNL A   1      36.090  29.875  28.245  1.00  0.00     0.060 A 
ATOM     28  C   UNL A   1      37.118  30.102  27.291  1.00  0.00     0.016 A 
ATOM     29  C   UNL A   1      36.381  29.595  29.571  1.00  0.00     0.016 A 
ATOM     30  C   UNL A   1      38.436  29.800  27.593  1.00  0.00     0.010 A 
ATOM     31  C   UNL A   1      37.700  29.314  29.873  1.00  0.00     0.010 A 
ATOM     32  C   UNL A   1      38.700  29.326  28.868  1.00  0.00    -0.014 A 
BRANCH  32  33
ATOM     33  C   UNL A   1      39.986  28.790  29.291  1.00  0.00     0.031 A 
ATOM     34  C   UNL A   1      40.260  27.412  28.863  1.00  0.00     0.074 A 
ATOM     35  C   UNL A   1      40.978  29.545  29.825  1.00  0.00     0.049 A 
ATOM     36  N   UNL A   1      41.294  26.744  29.226  1.00  0.00    -0.248 NA
ATOM     37  C   UNL A   1      39.329  26.631  28.046  1.00  0.00     0.031 C 
ATOM     38  C   UNL A   1      42.412  29.357  29.603  1.00  0.00     0.029 A 
ATOM     39  N   UNL A   1      40.943  30.651  30.660  1.00  0.00    -0.354 N 
ATOM     40  C   UNL A   1      41.357  25.645  28.412  1.00  0.00     0.074 A 
ATOM     41  C   UNL A   1      40.043  25.523  27.841  1.00  0.00     0.031 C 
ATOM     42  C   UNL A   1      43.110  30.200  30.383  1.00  0.00     0.029 A 
ATOM     43  C   UNL A   1      42.179  30.853  31.280  1.00  0.00     0.049 A 
ATOM     44  H   UNL A   1      40.150  31.220  30.799  1.00  0.00     0.167 HD
ATOM     45  C   UNL A   1      42.575  25.083  28.206  1.00  0.00     0.037 A 
ATOM     46  C   UNL A   1      42.305  30.880  32.641  1.00  0.00     0.037 A 
ATOM     47  C   UNL A   1      43.558  25.625  29.151  1.00  0.00     0.049 A 
ATOM     48  C   UNL A   1      43.009  29.668  33.191  1.00  0.00     0.074 A 
ATOM     49  C   UNL A   1      44.599  26.528  29.029  1.00  0.00     0.029 A 
ATOM     50  N   UNL A   1      43.326  25.476  30.518  1.00  0.00    -0.354 N 
ATOM     51  N   UNL A   1      43.361  28.658  32.449  1.00  0.00    -0.248 NA
ATOM     52  C   UNL A   1      43.328  29.458  34.601  1.00  0.00     0.031 C 
ATOM     53  C   UNL A   1      44.926  26.988  30.337  1.00  0.00     0.029 A 
ATOM     54  C   UNL A   1      44.123  26.331  31.256  1.00  0.00     0.049 A 
ATOM     55  H   UNL A   1      42.679  24.844  30.906  1.00  0.00     0.167 HD
ATOM     56  C   UNL A   1      43.789  27.634  33.238  1.00  0.00     0.074 A 
ATOM     57  C   UNL A   1      43.822  28.206  34.570  1.00  0.00     0.031 C 
ATOM     58  C   UNL A   1      44.004  26.391  32.715  1.00  0.00     0.037 A 
BRANCH  45  59
ATOM     59  C   UNL A   1      42.934  24.192  27.042  1.00  0.00     0.057 A 
ATOM     60  C   UNL A   1      43.045  22.803  27.240  1.00  0.00     0.134 A 
ATOM     61  C   UNL A   1      43.286  24.619  25.743  1.00  0.00     0.134 A 
ATOM     62  F   UNL A   1      42.773  22.245  28.429  1.00  0.00    -0.206 F 
ATOM     63  C   UNL A   1      43.461  21.918  26.236  1.00  0.00     0.040 A 
ATOM     64  C   UNL A   1      43.654  23.738  24.716  1.00  0.00     0.040 A 
ATOM     65  F   UNL A   1      43.361  25.907  25.398  1.00  0.00    -0.206 F 
ATOM     66  C   UNL A   1      43.752  22.382  24.963  1.00  0.00     0.006 A 
ENDBRANCH  45  59
BRANCH  46  67
ATOM     67  C   UNL A   1      41.196  31.595  33.312  1.00  0.00     0.057 A 
ATOM     68  C   UNL A   1      40.171  30.811  33.865  1.00  0.00     0.134 A 
ATOM     69  C   UNL A   1      41.389  32.883  33.828  1.00  0.00     0.134 A 
ATOM     70  F   UNL A   1      39.930  29.580  33.390  1.00  0.00    -0.206 F 
ATOM     71  C   UNL A   1      39.473  31.225  34.993  1.00  0.00     0.040 A 
ATOM     72  C   UNL A   1      40.713  33.298  34.974  1.00  0.00     0.040 A 
ATOM     73  F   UNL A   1      42.347  33.681  33.335  1.00  0.00    -0.206 F 
ATOM     74  C   UNL A   1      39.779  32.451  35.571  1.00  0.00     0.006 A 
ENDBRANCH  46  67
BRANCH  58  75
ATOM     75  C   UNL A   1      44.172  25.146  33.545  1.00  0.00     0.057 A 
ATOM     76  C   UNL A   1      45.343  24.373  33.587  1.00  0.00     0.134 A 
ATOM     77  C   UNL A   1      43.158  24.738  34.438  1.00  0.00     0.134 A 
ATOM     78  F   UNL A   1      46.452  24.732  32.924  1.00  0.00    -0.206 F 
ATOM     79  C   UNL A   1      45.453  23.212  34.362  1.00  0.00     0.040 A 
ATOM     80  C   UNL A   1      43.284  23.623  35.270  1.00  0.00     0.040 A 
ATOM     81  F   UNL A   1      42.007  25.417  34.555  1.00  0.00    -0.206 F 
ATOM     82  C   UNL A   1      44.421  22.835  35.210  1.00  0.00     0.006 A 
ENDBRANCH  58  75
ENDBRANCH  32  33
ENDBRANCH  25  27
ENDBRANCH  24  25
ENDBRANCH  23  24
ENDBRANCH   1  23
TORSDOF 13
ENDMDL
