MODEL 1
REMARK VINA RESULT:     -11.7      0.000      0.000
REMARK SMILES CC(C)C[C@H](NC(=O)CNC(=O)[C@@H](NC(=O)OCc1ccccc1)C(C)C)C(=O)N[C@@H](C)C(=O)OCCOC(=O)c1ccc(-c2c3nc(c(-c4c(F)cccc4F)c4ccc([nH]4)c(-c4c(F)cccc4F)c4nc(c(-c5c(F)cccc5F)c5ccc2[nH]5)C=C4)C=C3)cc1
REMARK SMILES IDX 31 1 32 2 30 3 28 4 29 5 5 7 4 8 2 9 1 10 3 11 6 12 7 13
REMARK SMILES IDX 8 15 9 16 10 17 11 18 12 20 13 21 14 22 15 23 16 25 17 26
REMARK SMILES IDX 18 27 19 28 20 29 24 30 21 31 23 32 22 33 25 34 26 35 27 36
REMARK SMILES IDX 33 37 34 38 35 39 36 40 37 41 38 42 39 43 40 44 41 45 42 46
REMARK SMILES IDX 94 47 43 48 93 49 44 50 45 51 46 52 87 53 47 54 92 55 86 56
REMARK SMILES IDX 88 57 48 58 91 59 85 60 84 61 49 63 75 64 58 65 74 66 59 67
REMARK SMILES IDX 62 68 73 69 89 70 60 71 61 72 72 74 90 75 63 76 50 77 51 78
REMARK SMILES IDX 56 79 52 80 53 81 55 82 57 83 54 84 76 85 77 86 82 87 78 88
REMARK SMILES IDX 79 89 81 90 83 91 80 92 64 93 65 94 70 95 66 96 67 97 69 98
REMARK SMILES IDX 71 99 68 100
REMARK H PARENT 30 6 6 14 10 19 14 24 88 62 62 73
REMARK Flexibility Score: inf
ROOT
ATOM      1  C   UNL A   1      34.671  21.573  26.111  1.00  0.00     0.189 C 
ATOM      2  C   UNL A   1      34.518  21.832  27.608  1.00  0.00     0.043 C 
ENDROOT
BRANCH   1   3
ATOM      3  N   UNL A   1      33.962  20.328  25.773  1.00  0.00    -0.341 N 
ATOM      4  C   UNL A   1      32.672  20.133  25.372  1.00  0.00     0.243 C 
ATOM      5  O   UNL A   1      32.254  18.976  25.284  1.00  0.00    -0.273 OA
ATOM      6  H   UNL A   1      34.502  19.509  25.848  1.00  0.00     0.164 HD
BRANCH   4   7
ATOM      7  C   UNL A   1      31.817  21.313  24.882  1.00  0.00     0.171 C 
BRANCH   7   8
ATOM      8  C   UNL A   1      32.680  22.154  23.958  1.00  0.00     0.038 C 
BRANCH   8   9
ATOM      9  C   UNL A   1      32.069  22.853  22.727  1.00  0.00    -0.015 C 
ATOM     10  C   UNL A   1      30.881  23.735  23.109  1.00  0.00     0.007 C 
ATOM     11  C   UNL A   1      33.123  23.741  22.048  1.00  0.00     0.007 C 
ENDBRANCH   8   9
ENDBRANCH   7   8
BRANCH   7  12
ATOM     12  N   UNL A   1      31.177  21.965  26.052  1.00  0.00    -0.343 N 
ATOM     13  C   UNL A   1      31.056  23.165  26.662  1.00  0.00     0.240 C 
ATOM     14  H   UNL A   1      30.665  21.292  26.557  1.00  0.00     0.164 HD
ATOM     15  O   UNL A   1      30.114  23.227  27.469  1.00  0.00    -0.273 OA
BRANCH  13  16
ATOM     16  C   UNL A   1      31.890  24.433  26.448  1.00  0.00     0.216 C 
BRANCH  16  17
ATOM     17  N   UNL A   1      31.346  25.703  26.846  1.00  0.00    -0.345 N 
ATOM     18  C   UNL A   1      31.771  26.985  26.840  1.00  0.00     0.243 C 
ATOM     19  H   UNL A   1      30.437  25.618  27.212  1.00  0.00     0.164 HD
ATOM     20  O   UNL A   1      30.970  27.806  27.297  1.00  0.00    -0.273 OA
BRANCH  18  21
ATOM     21  C   UNL A   1      33.177  27.497  26.485  1.00  0.00     0.177 C 
BRANCH  21  22
ATOM     22  N   UNL A   1      33.591  27.249  25.120  1.00  0.00    -0.309 N 
ATOM     23  C   UNL A   1      33.063  27.572  23.924  1.00  0.00     0.408 C 
ATOM     24  H   UNL A   1      34.432  26.741  25.051  1.00  0.00     0.167 HD
ATOM     25  O   UNL A   1      33.483  27.022  22.916  1.00  0.00    -0.225 OA
BRANCH  23  26
ATOM     26  O   UNL A   1      32.141  28.546  23.977  1.00  0.00    -0.445 OA
BRANCH  26  27
ATOM     27  C   UNL A   1      31.345  28.636  22.789  1.00  0.00     0.270 C 
BRANCH  27  28
ATOM     28  C   UNL A   1      29.873  28.342  23.043  1.00  0.00    -0.011 A 
ATOM     29  C   UNL A   1      29.411  27.139  23.608  1.00  0.00     0.007 A 
ATOM     30  C   UNL A   1      28.925  29.329  22.747  1.00  0.00     0.007 A 
ATOM     31  C   UNL A   1      28.056  26.909  23.834  1.00  0.00     0.000 A 
ATOM     32  C   UNL A   1      27.565  29.102  22.976  1.00  0.00     0.000 A 
ATOM     33  C   UNL A   1      27.131  27.893  23.516  1.00  0.00     0.000 A 
ENDBRANCH  27  28
ENDBRANCH  26  27
ENDBRANCH  23  26
ENDBRANCH  21  22
BRANCH  21  34
ATOM     34  C   UNL A   1      33.487  28.802  27.251  1.00  0.00     0.015 C 
ATOM     35  C   UNL A   1      35.001  29.129  27.151  1.00  0.00     0.010 C 
ATOM     36  C   UNL A   1      32.739  30.020  26.741  1.00  0.00     0.010 C 
ENDBRANCH  21  34
ENDBRANCH  18  21
ENDBRANCH  16  17
ENDBRANCH  13  16
ENDBRANCH   7  12
ENDBRANCH   4   7
ENDBRANCH   1   3
BRANCH   1  37
ATOM     37  C   UNL A   1      36.163  21.622  25.700  1.00  0.00     0.328 C 
ATOM     38  O   UNL A   1      36.954  22.449  26.143  1.00  0.00    -0.250 OA
BRANCH  37  39
ATOM     39  O   UNL A   1      36.446  20.757  24.677  1.00  0.00    -0.461 OA
BRANCH  39  40
ATOM     40  C   UNL A   1      37.213  19.576  25.033  1.00  0.00     0.274 C 
BRANCH  40  41
ATOM     41  C   UNL A   1      38.735  19.801  24.861  1.00  0.00     0.275 C 
BRANCH  41  42
ATOM     42  O   UNL A   1      39.640  19.187  25.830  1.00  0.00    -0.458 OA
BRANCH  42  43
ATOM     43  C   UNL A   1      40.871  19.728  25.922  1.00  0.00     0.338 C 
ATOM     44  O   UNL A   1      41.877  19.259  25.406  1.00  0.00    -0.246 OA
BRANCH  43  45
ATOM     45  C   UNL A   1      41.020  20.962  26.742  1.00  0.00     0.060 A 
ATOM     46  C   UNL A   1      40.686  22.115  26.043  1.00  0.00     0.016 A 
ATOM     47  C   UNL A   1      41.764  21.089  27.923  1.00  0.00     0.016 A 
ATOM     48  C   UNL A   1      41.291  23.323  26.379  1.00  0.00     0.010 A 
ATOM     49  C   UNL A   1      42.232  22.375  28.349  1.00  0.00     0.010 A 
ATOM     50  C   UNL A   1      42.050  23.523  27.557  1.00  0.00    -0.014 A 
BRANCH  50  51
ATOM     51  C   UNL A   1      42.520  24.945  27.823  1.00  0.00     0.031 A 
ATOM     52  C   UNL A   1      43.898  25.534  27.528  1.00  0.00     0.074 A 
ATOM     53  C   UNL A   1      41.582  25.835  28.223  1.00  0.00     0.049 A 
ATOM     54  N   UNL A   1      44.217  26.794  27.290  1.00  0.00    -0.248 NA
ATOM     55  C   UNL A   1      45.060  24.646  27.478  1.00  0.00     0.031 C 
ATOM     56  C   UNL A   1      40.199  25.508  28.598  1.00  0.00     0.029 A 
ATOM     57  N   UNL A   1      41.633  27.202  28.355  1.00  0.00    -0.354 N 
ATOM     58  C   UNL A   1      45.551  26.804  26.875  1.00  0.00     0.074 A 
ATOM     59  C   UNL A   1      46.020  25.447  27.015  1.00  0.00     0.031 C 
ATOM     60  C   UNL A   1      39.522  26.632  28.831  1.00  0.00     0.029 A 
ATOM     61  C   UNL A   1      40.470  27.734  28.845  1.00  0.00     0.049 A 
ATOM     62  H   UNL A   1      42.423  27.742  28.121  1.00  0.00     0.167 HD
ATOM     63  C   UNL A   1      46.312  27.843  26.437  1.00  0.00     0.037 A 
ATOM     64  C   UNL A   1      40.209  28.928  29.402  1.00  0.00     0.037 A 
ATOM     65  C   UNL A   1      46.023  29.222  26.730  1.00  0.00     0.049 A 
ATOM     66  C   UNL A   1      41.268  29.973  29.421  1.00  0.00     0.074 A 
ATOM     67  C   UNL A   1      46.816  30.338  26.510  1.00  0.00     0.029 A 
ATOM     68  N   UNL A   1      44.930  29.648  27.458  1.00  0.00    -0.354 N 
ATOM     69  N   UNL A   1      42.418  29.981  28.797  1.00  0.00    -0.248 NA
ATOM     70  C   UNL A   1      41.009  31.158  30.241  1.00  0.00     0.031 C 
ATOM     71  C   UNL A   1      46.280  31.400  27.251  1.00  0.00     0.029 A 
ATOM     72  C   UNL A   1      45.110  30.964  27.848  1.00  0.00     0.049 A 
ATOM     73  H   UNL A   1      44.142  29.097  27.669  1.00  0.00     0.167 HD
ATOM     74  C   UNL A   1      43.021  31.181  29.141  1.00  0.00     0.074 A 
ATOM     75  C   UNL A   1      42.103  31.874  30.021  1.00  0.00     0.031 C 
ATOM     76  C   UNL A   1      44.225  31.657  28.745  1.00  0.00     0.037 A 
BRANCH  63  77
ATOM     77  C   UNL A   1      47.580  27.579  25.667  1.00  0.00     0.057 A 
ATOM     78  C   UNL A   1      48.750  27.238  26.362  1.00  0.00     0.134 A 
ATOM     79  C   UNL A   1      47.615  27.458  24.277  1.00  0.00     0.134 A 
ATOM     80  F   UNL A   1      48.742  27.201  27.699  1.00  0.00    -0.206 F 
ATOM     81  C   UNL A   1      49.930  26.874  25.706  1.00  0.00     0.040 A 
ATOM     82  C   UNL A   1      48.779  27.056  23.605  1.00  0.00     0.040 A 
ATOM     83  F   UNL A   1      46.510  27.676  23.550  1.00  0.00    -0.206 F 
ATOM     84  C   UNL A   1      49.945  26.779  24.318  1.00  0.00     0.006 A 
ENDBRANCH  63  77
BRANCH  64  85
ATOM     85  C   UNL A   1      38.956  29.054  30.185  1.00  0.00     0.057 A 
ATOM     86  C   UNL A   1      38.853  28.632  31.508  1.00  0.00     0.134 A 
ATOM     87  C   UNL A   1      37.844  29.703  29.617  1.00  0.00     0.134 A 
ATOM     88  F   UNL A   1      39.870  27.984  32.095  1.00  0.00    -0.206 F 
ATOM     89  C   UNL A   1      37.697  28.877  32.251  1.00  0.00     0.040 A 
ATOM     90  C   UNL A   1      36.705  29.993  30.359  1.00  0.00     0.040 A 
ATOM     91  F   UNL A   1      37.885  30.130  28.344  1.00  0.00    -0.206 F 
ATOM     92  C   UNL A   1      36.630  29.576  31.684  1.00  0.00     0.006 A 
ENDBRANCH  64  85
BRANCH  76  93
ATOM     93  C   UNL A   1      44.621  33.006  29.254  1.00  0.00     0.057 A 
ATOM     94  C   UNL A   1      45.363  33.159  30.431  1.00  0.00     0.134 A 
ATOM     95  C   UNL A   1      44.245  34.165  28.566  1.00  0.00     0.134 A 
ATOM     96  F   UNL A   1      45.740  32.085  31.144  1.00  0.00    -0.206 F 
ATOM     97  C   UNL A   1      45.686  34.422  30.928  1.00  0.00     0.040 A 
ATOM     98  C   UNL A   1      44.585  35.432  29.037  1.00  0.00     0.040 A 
ATOM     99  F   UNL A   1      43.539  34.083  27.429  1.00  0.00    -0.206 F 
ATOM    100  C   UNL A   1      45.298  35.563  30.227  1.00  0.00     0.006 A 
ENDBRANCH  76  93
ENDBRANCH  50  51
ENDBRANCH  43  45
ENDBRANCH  42  43
ENDBRANCH  41  42
ENDBRANCH  40  41
ENDBRANCH  39  40
ENDBRANCH  37  39
ENDBRANCH   1  37
TORSDOF 24
ENDMDL
MODEL 2
REMARK VINA RESULT:     -11.6      3.902      9.595
REMARK SMILES CC(C)C[C@H](NC(=O)CNC(=O)[C@@H](NC(=O)OCc1ccccc1)C(C)C)C(=O)N[C@@H](C)C(=O)OCCOC(=O)c1ccc(-c2c3nc(c(-c4c(F)cccc4F)c4ccc([nH]4)c(-c4c(F)cccc4F)c4nc(c(-c5c(F)cccc5F)c5ccc2[nH]5)C=C4)C=C3)cc1
REMARK SMILES IDX 31 1 32 2 30 3 28 4 29 5 5 7 4 8 2 9 1 10 3 11 6 12 7 13
REMARK SMILES IDX 8 15 9 16 10 17 11 18 12 20 13 21 14 22 15 23 16 25 17 26
REMARK SMILES IDX 18 27 19 28 20 29 24 30 21 31 23 32 22 33 25 34 26 35 27 36
REMARK SMILES IDX 33 37 34 38 35 39 36 40 37 41 38 42 39 43 40 44 41 45 42 46
REMARK SMILES IDX 94 47 43 48 93 49 44 50 45 51 46 52 87 53 47 54 92 55 86 56
REMARK SMILES IDX 88 57 48 58 91 59 85 60 84 61 49 63 75 64 58 65 74 66 59 67
REMARK SMILES IDX 62 68 73 69 89 70 60 71 61 72 72 74 90 75 63 76 50 77 51 78
REMARK SMILES IDX 56 79 52 80 53 81 55 82 57 83 54 84 76 85 77 86 82 87 78 88
REMARK SMILES IDX 79 89 81 90 83 91 80 92 64 93 65 94 70 95 66 96 67 97 69 98
REMARK SMILES IDX 71 99 68 100
REMARK H PARENT 30 6 6 14 10 19 14 24 88 62 62 73
REMARK Flexibility Score: inf
ROOT
ATOM      1  C   UNL A   1      33.046  28.744  24.146  1.00  0.00     0.189 C 
ATOM      2  C   UNL A   1      34.330  28.808  23.320  1.00  0.00     0.043 C 
ENDROOT
BRANCH   1   3
ATOM      3  N   UNL A   1      31.955  29.356  23.370  1.00  0.00    -0.341 N 
ATOM      4  C   UNL A   1      31.052  28.783  22.522  1.00  0.00     0.243 C 
ATOM      5  O   UNL A   1      30.315  29.522  21.865  1.00  0.00    -0.273 OA
ATOM      6  H   UNL A   1      31.863  30.330  23.478  1.00  0.00     0.164 HD
BRANCH   4   7
ATOM      7  C   UNL A   1      30.844  27.261  22.511  1.00  0.00     0.171 C 
BRANCH   7   8
ATOM      8  C   UNL A   1      30.749  26.799  23.955  1.00  0.00     0.038 C 
BRANCH   8   9
ATOM      9  C   UNL A   1      29.838  25.620  24.348  1.00  0.00    -0.015 C 
ATOM     10  C   UNL A   1      30.411  24.281  23.885  1.00  0.00     0.007 C 
ATOM     11  C   UNL A   1      29.676  25.566  25.876  1.00  0.00     0.007 C 
ENDBRANCH   8   9
ENDBRANCH   7   8
BRANCH   7  12
ATOM     12  N   UNL A   1      31.862  26.639  21.628  1.00  0.00    -0.343 N 
ATOM     13  C   UNL A   1      32.871  25.741  21.641  1.00  0.00     0.240 C 
ATOM     14  H   UNL A   1      31.770  27.008  20.720  1.00  0.00     0.164 HD
ATOM     15  O   UNL A   1      33.211  25.348  20.514  1.00  0.00    -0.273 OA
BRANCH  13  16
ATOM     16  C   UNL A   1      33.592  25.134  22.851  1.00  0.00     0.216 C 
BRANCH  16  17
ATOM     17  N   UNL A   1      34.607  24.139  22.632  1.00  0.00    -0.345 N 
ATOM     18  C   UNL A   1      35.515  23.496  23.397  1.00  0.00     0.243 C 
ATOM     19  H   UNL A   1      34.650  23.854  21.692  1.00  0.00     0.164 HD
ATOM     20  O   UNL A   1      36.233  22.691  22.797  1.00  0.00    -0.273 OA
BRANCH  18  21
ATOM     21  C   UNL A   1      35.851  23.772  24.873  1.00  0.00     0.177 C 
BRANCH  21  22
ATOM     22  N   UNL A   1      34.732  23.659  25.786  1.00  0.00    -0.309 N 
ATOM     23  C   UNL A   1      33.588  22.951  25.758  1.00  0.00     0.408 C 
ATOM     24  H   UNL A   1      34.828  24.214  26.593  1.00  0.00     0.167 HD
ATOM     25  O   UNL A   1      32.692  23.230  26.542  1.00  0.00    -0.225 OA
BRANCH  23  26
ATOM     26  O   UNL A   1      33.592  21.939  24.877  1.00  0.00    -0.445 OA
BRANCH  26  27
ATOM     27  C   UNL A   1      33.969  20.684  25.457  1.00  0.00     0.270 C 
BRANCH  27  28
ATOM     28  C   UNL A   1      33.665  19.500  24.550  1.00  0.00    -0.011 A 
ATOM     29  C   UNL A   1      32.577  19.470  23.658  1.00  0.00     0.007 A 
ATOM     30  C   UNL A   1      34.529  18.399  24.563  1.00  0.00     0.007 A 
ATOM     31  C   UNL A   1      32.336  18.371  22.836  1.00  0.00     0.000 A 
ATOM     32  C   UNL A   1      34.291  17.296  23.737  1.00  0.00     0.000 A 
ATOM     33  C   UNL A   1      33.194  17.282  22.877  1.00  0.00     0.000 A 
ENDBRANCH  27  28
ENDBRANCH  26  27
ENDBRANCH  23  26
ENDBRANCH  21  22
BRANCH  21  34
ATOM     34  C   UNL A   1      37.278  23.284  25.203  1.00  0.00     0.015 C 
ATOM     35  C   UNL A   1      37.874  24.129  26.360  1.00  0.00     0.010 C 
ATOM     36  C   UNL A   1      37.360  21.830  25.631  1.00  0.00     0.010 C 
ENDBRANCH  21  34
ENDBRANCH  18  21
ENDBRANCH  16  17
ENDBRANCH  13  16
ENDBRANCH   7  12
ENDBRANCH   4   7
ENDBRANCH   1   3
BRANCH   1  37
ATOM     37  C   UNL A   1      33.276  29.341  25.555  1.00  0.00     0.328 C 
ATOM     38  O   UNL A   1      33.686  28.680  26.505  1.00  0.00    -0.250 OA
BRANCH  37  39
ATOM     39  O   UNL A   1      32.813  30.626  25.655  1.00  0.00    -0.461 OA
BRANCH  39  40
ATOM     40  C   UNL A   1      31.468  30.781  26.178  1.00  0.00     0.274 C 
BRANCH  40  41
ATOM     41  C   UNL A   1      31.320  32.070  27.023  1.00  0.00     0.275 C 
BRANCH  41  42
ATOM     42  O   UNL A   1      32.291  33.144  26.826  1.00  0.00    -0.458 OA
BRANCH  42  43
ATOM     43  C   UNL A   1      33.004  33.507  27.911  1.00  0.00     0.338 C 
ATOM     44  O   UNL A   1      32.597  34.253  28.792  1.00  0.00    -0.246 OA
BRANCH  43  45
ATOM     45  C   UNL A   1      34.398  32.996  28.021  1.00  0.00     0.060 A 
ATOM     46  C   UNL A   1      34.471  31.768  28.667  1.00  0.00     0.016 A 
ATOM     47  C   UNL A   1      35.572  33.750  27.885  1.00  0.00     0.016 A 
ATOM     48  C   UNL A   1      35.622  31.429  29.372  1.00  0.00     0.010 A 
ATOM     49  C   UNL A   1      36.798  33.293  28.472  1.00  0.00     0.010 A 
ATOM     50  C   UNL A   1      36.842  32.141  29.278  1.00  0.00    -0.014 A 
BRANCH  50  51
ATOM     51  C   UNL A   1      38.030  31.544  30.017  1.00  0.00     0.031 A 
ATOM     52  C   UNL A   1      38.543  31.925  31.404  1.00  0.00     0.074 A 
ATOM     53  C   UNL A   1      38.611  30.454  29.462  1.00  0.00     0.049 A 
ATOM     54  N   UNL A   1      39.214  31.178  32.263  1.00  0.00    -0.248 NA
ATOM     55  C   UNL A   1      38.286  33.271  31.918  1.00  0.00     0.031 C 
ATOM     56  C   UNL A   1      38.315  29.915  28.128  1.00  0.00     0.029 A 
ATOM     57  N   UNL A   1      39.550  29.583  29.958  1.00  0.00    -0.354 N 
ATOM     58  C   UNL A   1      39.275  31.893  33.462  1.00  0.00     0.074 A 
ATOM     59  C   UNL A   1      38.687  33.181  33.186  1.00  0.00     0.031 C 
ATOM     60  C   UNL A   1      38.984  28.777  27.948  1.00  0.00     0.029 A 
ATOM     61  C   UNL A   1      39.921  28.626  29.049  1.00  0.00     0.049 A 
ATOM     62  H   UNL A   1      39.918  29.640  30.869  1.00  0.00     0.167 HD
ATOM     63  C   UNL A   1      39.785  31.519  34.666  1.00  0.00     0.037 A 
ATOM     64  C   UNL A   1      40.988  27.813  29.007  1.00  0.00     0.037 A 
ATOM     65  C   UNL A   1      40.759  30.473  34.830  1.00  0.00     0.049 A 
ATOM     66  C   UNL A   1      41.924  27.774  30.163  1.00  0.00     0.074 A 
ATOM     67  C   UNL A   1      41.488  30.136  35.961  1.00  0.00     0.029 A 
ATOM     68  N   UNL A   1      41.262  29.713  33.793  1.00  0.00    -0.354 N 
ATOM     69  N   UNL A   1      41.778  28.304  31.350  1.00  0.00    -0.248 NA
ATOM     70  C   UNL A   1      43.184  27.053  29.967  1.00  0.00     0.031 C 
ATOM     71  C   UNL A   1      42.538  29.297  35.564  1.00  0.00     0.029 A 
ATOM     72  C   UNL A   1      42.399  29.043  34.210  1.00  0.00     0.049 A 
ATOM     73  H   UNL A   1      40.871  29.657  32.891  1.00  0.00     0.167 HD
ATOM     74  C   UNL A   1      42.926  27.971  32.052  1.00  0.00     0.074 A 
ATOM     75  C   UNL A   1      43.752  27.188  31.157  1.00  0.00     0.031 C 
ATOM     76  C   UNL A   1      43.247  28.286  33.329  1.00  0.00     0.037 A 
BRANCH  63  77
ATOM     77  C   UNL A   1      39.396  32.265  35.916  1.00  0.00     0.057 A 
ATOM     78  C   UNL A   1      38.369  31.761  36.728  1.00  0.00     0.134 A 
ATOM     79  C   UNL A   1      40.135  33.333  36.427  1.00  0.00     0.134 A 
ATOM     80  F   UNL A   1      37.713  30.655  36.359  1.00  0.00    -0.206 F 
ATOM     81  C   UNL A   1      38.033  32.341  37.955  1.00  0.00     0.040 A 
ATOM     82  C   UNL A   1      39.837  33.902  37.674  1.00  0.00     0.040 A 
ATOM     83  F   UNL A   1      41.191  33.811  35.752  1.00  0.00    -0.206 F 
ATOM     84  C   UNL A   1      38.773  33.417  38.433  1.00  0.00     0.006 A 
ENDBRANCH  63  77
BRANCH  64  85
ATOM     85  C   UNL A   1      41.307  27.175  27.707  1.00  0.00     0.057 A 
ATOM     86  C   UNL A   1      41.958  27.853  26.679  1.00  0.00     0.134 A 
ATOM     87  C   UNL A   1      41.029  25.809  27.516  1.00  0.00     0.134 A 
ATOM     88  F   UNL A   1      42.225  29.162  26.793  1.00  0.00    -0.206 F 
ATOM     89  C   UNL A   1      42.350  27.188  25.516  1.00  0.00     0.040 A 
ATOM     90  C   UNL A   1      41.454  25.124  26.383  1.00  0.00     0.040 A 
ATOM     91  F   UNL A   1      40.401  25.104  28.472  1.00  0.00    -0.206 F 
ATOM     92  C   UNL A   1      42.117  25.817  25.376  1.00  0.00     0.006 A 
ENDBRANCH  64  85
BRANCH  76  93
ATOM     93  C   UNL A   1      44.552  27.771  33.846  1.00  0.00     0.057 A 
ATOM     94  C   UNL A   1      44.667  26.498  34.418  1.00  0.00     0.134 A 
ATOM     95  C   UNL A   1      45.704  28.562  33.782  1.00  0.00     0.134 A 
ATOM     96  F   UNL A   1      43.594  25.699  34.521  1.00  0.00    -0.206 F 
ATOM     97  C   UNL A   1      45.877  26.044  34.943  1.00  0.00     0.040 A 
ATOM     98  C   UNL A   1      46.926  28.109  34.278  1.00  0.00     0.040 A 
ATOM     99  F   UNL A   1      45.660  29.789  33.239  1.00  0.00    -0.206 F 
ATOM    100  C   UNL A   1      47.011  26.851  34.871  1.00  0.00     0.006 A 
ENDBRANCH  76  93
ENDBRANCH  50  51
ENDBRANCH  43  45
ENDBRANCH  42  43
ENDBRANCH  41  42
ENDBRANCH  40  41
ENDBRANCH  39  40
ENDBRANCH  37  39
ENDBRANCH   1  37
TORSDOF 24
ENDMDL
MODEL 3
REMARK VINA RESULT:     -11.5      0.549      5.679
REMARK SMILES CC(C)C[C@H](NC(=O)CNC(=O)[C@@H](NC(=O)OCc1ccccc1)C(C)C)C(=O)N[C@@H](C)C(=O)OCCOC(=O)c1ccc(-c2c3nc(c(-c4c(F)cccc4F)c4ccc([nH]4)c(-c4c(F)cccc4F)c4nc(c(-c5c(F)cccc5F)c5ccc2[nH]5)C=C4)C=C3)cc1
REMARK SMILES IDX 31 1 32 2 30 3 28 4 29 5 5 7 4 8 2 9 1 10 3 11 6 12 7 13
REMARK SMILES IDX 8 15 9 16 10 17 11 18 12 20 13 21 14 22 15 23 16 25 17 26
REMARK SMILES IDX 18 27 19 28 20 29 24 30 21 31 23 32 22 33 25 34 26 35 27 36
REMARK SMILES IDX 33 37 34 38 35 39 36 40 37 41 38 42 39 43 40 44 41 45 42 46
REMARK SMILES IDX 94 47 43 48 93 49 44 50 45 51 46 52 87 53 47 54 92 55 86 56
REMARK SMILES IDX 88 57 48 58 91 59 85 60 84 61 49 63 75 64 58 65 74 66 59 67
REMARK SMILES IDX 62 68 73 69 89 70 60 71 61 72 72 74 90 75 63 76 50 77 51 78
REMARK SMILES IDX 56 79 52 80 53 81 55 82 57 83 54 84 76 85 77 86 82 87 78 88
REMARK SMILES IDX 79 89 81 90 83 91 80 92 64 93 65 94 70 95 66 96 67 97 69 98
REMARK SMILES IDX 71 99 68 100
REMARK H PARENT 30 6 6 14 10 19 14 24 88 62 62 73
REMARK Flexibility Score: inf
ROOT
ATOM      1  C   UNL A   1      34.769  21.767  26.095  1.00  0.00     0.189 C 
ATOM      2  C   UNL A   1      34.602  22.183  27.555  1.00  0.00     0.043 C 
ENDROOT
BRANCH   1   3
ATOM      3  N   UNL A   1      34.102  20.470  25.895  1.00  0.00    -0.341 N 
ATOM      4  C   UNL A   1      32.813  20.191  25.544  1.00  0.00     0.243 C 
ATOM      5  O   UNL A   1      32.438  19.016  25.578  1.00  0.00    -0.273 OA
ATOM      6  H   UNL A   1      34.674  19.682  26.036  1.00  0.00     0.164 HD
BRANCH   4   7
ATOM      7  C   UNL A   1      31.904  21.285  24.963  1.00  0.00     0.171 C 
BRANCH   7   8
ATOM      8  C   UNL A   1      32.734  22.100  23.986  1.00  0.00     0.038 C 
BRANCH   8   9
ATOM      9  C   UNL A   1      32.118  22.622  22.672  1.00  0.00    -0.015 C 
ATOM     10  C   UNL A   1      31.032  23.667  22.931  1.00  0.00     0.007 C 
ATOM     11  C   UNL A   1      33.206  23.271  21.802  1.00  0.00     0.007 C 
ENDBRANCH   8   9
ENDBRANCH   7   8
BRANCH   7  12
ATOM     12  N   UNL A   1      31.219  21.988  26.077  1.00  0.00    -0.343 N 
ATOM     13  C   UNL A   1      31.056  23.216  26.615  1.00  0.00     0.240 C 
ATOM     14  H   UNL A   1      30.706  21.333  26.603  1.00  0.00     0.164 HD
ATOM     15  O   UNL A   1      30.091  23.303  27.391  1.00  0.00    -0.273 OA
BRANCH  13  16
ATOM     16  C   UNL A   1      31.872  24.488  26.354  1.00  0.00     0.216 C 
BRANCH  16  17
ATOM     17  N   UNL A   1      31.374  25.748  26.836  1.00  0.00    -0.345 N 
ATOM     18  C   UNL A   1      31.838  27.015  26.895  1.00  0.00     0.243 C 
ATOM     19  H   UNL A   1      30.470  25.668  27.216  1.00  0.00     0.164 HD
ATOM     20  O   UNL A   1      31.072  27.832  27.415  1.00  0.00    -0.273 OA
BRANCH  18  21
ATOM     21  C   UNL A   1      33.251  27.505  26.539  1.00  0.00     0.177 C 
BRANCH  21  22
ATOM     22  N   UNL A   1      33.662  27.251  25.174  1.00  0.00    -0.309 N 
ATOM     23  C   UNL A   1      33.175  27.635  23.979  1.00  0.00     0.408 C 
ATOM     24  H   UNL A   1      34.461  26.680  25.105  1.00  0.00     0.167 HD
ATOM     25  O   UNL A   1      33.563  27.072  22.965  1.00  0.00    -0.225 OA
BRANCH  23  26
ATOM     26  O   UNL A   1      32.331  28.677  24.040  1.00  0.00    -0.445 OA
BRANCH  26  27
ATOM     27  C   UNL A   1      31.487  28.790  22.888  1.00  0.00     0.270 C 
BRANCH  27  28
ATOM     28  C   UNL A   1      30.071  28.295  23.144  1.00  0.00    -0.011 A 
ATOM     29  C   UNL A   1      29.783  27.062  23.758  1.00  0.00     0.007 A 
ATOM     30  C   UNL A   1      28.993  29.118  22.797  1.00  0.00     0.007 A 
ATOM     31  C   UNL A   1      28.472  26.646  23.985  1.00  0.00     0.000 A 
ATOM     32  C   UNL A   1      27.678  28.704  23.027  1.00  0.00     0.000 A 
ATOM     33  C   UNL A   1      27.418  27.469  23.617  1.00  0.00     0.000 A 
ENDBRANCH  27  28
ENDBRANCH  26  27
ENDBRANCH  23  26
ENDBRANCH  21  22
BRANCH  21  34
ATOM     34  C   UNL A   1      33.580  28.807  27.304  1.00  0.00     0.015 C 
ATOM     35  C   UNL A   1      35.111  29.067  27.273  1.00  0.00     0.010 C 
ATOM     36  C   UNL A   1      32.910  30.049  26.745  1.00  0.00     0.010 C 
ENDBRANCH  21  34
ENDBRANCH  18  21
ENDBRANCH  16  17
ENDBRANCH  13  16
ENDBRANCH   7  12
ENDBRANCH   4   7
ENDBRANCH   1   3
BRANCH   1  37
ATOM     37  C   UNL A   1      36.260  21.819  25.682  1.00  0.00     0.328 C 
ATOM     38  O   UNL A   1      37.052  22.642  26.130  1.00  0.00    -0.250 OA
BRANCH  37  39
ATOM     39  O   UNL A   1      36.541  20.962  24.652  1.00  0.00    -0.461 OA
BRANCH  39  40
ATOM     40  C   UNL A   1      37.170  19.706  25.019  1.00  0.00     0.274 C 
BRANCH  40  41
ATOM     41  C   UNL A   1      38.710  19.760  24.860  1.00  0.00     0.275 C 
BRANCH  41  42
ATOM     42  O   UNL A   1      39.533  19.050  25.836  1.00  0.00    -0.458 OA
BRANCH  42  43
ATOM     43  C   UNL A   1      40.769  19.547  26.045  1.00  0.00     0.338 C 
ATOM     44  O   UNL A   1      41.807  18.995  25.702  1.00  0.00    -0.246 OA
BRANCH  43  45
ATOM     45  C   UNL A   1      40.876  20.836  26.782  1.00  0.00     0.060 A 
ATOM     46  C   UNL A   1      40.374  21.911  26.059  1.00  0.00     0.016 A 
ATOM     47  C   UNL A   1      41.709  21.099  27.879  1.00  0.00     0.016 A 
ATOM     48  C   UNL A   1      40.892  23.186  26.272  1.00  0.00     0.010 A 
ATOM     49  C   UNL A   1      42.091  22.445  28.191  1.00  0.00     0.010 A 
ATOM     50  C   UNL A   1      41.732  23.522  27.361  1.00  0.00    -0.014 A 
BRANCH  50  51
ATOM     51  C   UNL A   1      42.090  24.994  27.506  1.00  0.00     0.031 A 
ATOM     52  C   UNL A   1      41.192  26.117  28.019  1.00  0.00     0.074 A 
ATOM     53  C   UNL A   1      43.385  25.331  27.308  1.00  0.00     0.049 A 
ATOM     54  N   UNL A   1      41.546  27.250  28.599  1.00  0.00    -0.248 NA
ATOM     55  C   UNL A   1      39.739  25.987  27.893  1.00  0.00     0.031 C 
ATOM     56  C   UNL A   1      44.430  24.438  26.787  1.00  0.00     0.029 A 
ATOM     57  N   UNL A   1      44.058  26.505  27.546  1.00  0.00    -0.354 N 
ATOM     58  C   UNL A   1      40.376  27.849  29.071  1.00  0.00     0.074 A 
ATOM     59  C   UNL A   1      39.290  27.023  28.602  1.00  0.00     0.031 C 
ATOM     60  C   UNL A   1      45.609  25.061  26.825  1.00  0.00     0.029 A 
ATOM     61  C   UNL A   1      45.370  26.457  27.154  1.00  0.00     0.049 A 
ATOM     62  H   UNL A   1      43.641  27.298  27.956  1.00  0.00     0.167 HD
ATOM     63  C   UNL A   1      40.221  28.982  29.807  1.00  0.00     0.037 A 
ATOM     64  C   UNL A   1      46.260  27.434  26.919  1.00  0.00     0.037 A 
ATOM     65  C   UNL A   1      41.205  30.030  29.876  1.00  0.00     0.049 A 
ATOM     66  C   UNL A   1      45.899  28.843  27.234  1.00  0.00     0.074 A 
ATOM     67  C   UNL A   1      41.084  31.297  30.425  1.00  0.00     0.029 A 
ATOM     68  N   UNL A   1      42.425  29.991  29.230  1.00  0.00    -0.354 N 
ATOM     69  N   UNL A   1      44.864  29.292  27.897  1.00  0.00    -0.248 NA
ATOM     70  C   UNL A   1      46.808  29.882  26.744  1.00  0.00     0.031 C 
ATOM     71  C   UNL A   1      42.158  32.071  29.964  1.00  0.00     0.029 A 
ATOM     72  C   UNL A   1      42.987  31.256  29.213  1.00  0.00     0.049 A 
ATOM     73  H   UNL A   1      42.832  29.184  28.840  1.00  0.00     0.167 HD
ATOM     74  C   UNL A   1      45.001  30.671  27.915  1.00  0.00     0.074 A 
ATOM     75  C   UNL A   1      46.224  30.980  27.203  1.00  0.00     0.031 C 
ATOM     76  C   UNL A   1      44.183  31.587  28.486  1.00  0.00     0.037 A 
BRANCH  63  77
ATOM     77  C   UNL A   1      38.932  29.233  30.546  1.00  0.00     0.057 A 
ATOM     78  C   UNL A   1      38.826  28.859  31.895  1.00  0.00     0.134 A 
ATOM     79  C   UNL A   1      37.891  30.003  30.024  1.00  0.00     0.134 A 
ATOM     80  F   UNL A   1      39.849  28.238  32.494  1.00  0.00    -0.206 F 
ATOM     81  C   UNL A   1      37.702  29.161  32.669  1.00  0.00     0.040 A 
ATOM     82  C   UNL A   1      36.774  30.348  30.797  1.00  0.00     0.040 A 
ATOM     83  F   UNL A   1      37.963  30.477  28.771  1.00  0.00    -0.206 F 
ATOM     84  C   UNL A   1      36.669  29.913  32.118  1.00  0.00     0.006 A 
ENDBRANCH  63  77
BRANCH  64  85
ATOM     85  C   UNL A   1      47.467  27.082  26.133  1.00  0.00     0.057 A 
ATOM     86  C   UNL A   1      48.647  26.643  26.728  1.00  0.00     0.134 A 
ATOM     87  C   UNL A   1      47.411  27.100  24.728  1.00  0.00     0.134 A 
ATOM     88  F   UNL A   1      48.769  26.630  28.064  1.00  0.00    -0.206 F 
ATOM     89  C   UNL A   1      49.722  26.205  25.953  1.00  0.00     0.040 A 
ATOM     90  C   UNL A   1      48.456  26.623  23.945  1.00  0.00     0.040 A 
ATOM     91  F   UNL A   1      46.299  27.515  24.098  1.00  0.00    -0.206 F 
ATOM     92  C   UNL A   1      49.620  26.175  24.561  1.00  0.00     0.006 A 
ENDBRANCH  64  85
BRANCH  76  93
ATOM     93  C   UNL A   1      44.589  33.021  28.374  1.00  0.00     0.057 A 
ATOM     94  C   UNL A   1      44.304  33.779  27.232  1.00  0.00     0.134 A 
ATOM     95  C   UNL A   1      45.284  33.647  29.414  1.00  0.00     0.134 A 
ATOM     96  F   UNL A   1      43.654  33.229  26.194  1.00  0.00    -0.206 F 
ATOM     97  C   UNL A   1      44.729  35.102  27.113  1.00  0.00     0.040 A 
ATOM     98  C   UNL A   1      45.691  34.977  29.319  1.00  0.00     0.040 A 
ATOM     99  F   UNL A   1      45.581  32.976  30.537  1.00  0.00    -0.206 F 
ATOM    100  C   UNL A   1      45.423  35.705  28.162  1.00  0.00     0.006 A 
ENDBRANCH  76  93
ENDBRANCH  50  51
ENDBRANCH  43  45
ENDBRANCH  42  43
ENDBRANCH  41  42
ENDBRANCH  40  41
ENDBRANCH  39  40
ENDBRANCH  37  39
ENDBRANCH   1  37
TORSDOF 24
ENDMDL
