MODEL 1
REMARK VINA RESULT:     -12.0      0.000      0.000
REMARK SMILES Cc1c(/C=C/C(=O)OCCOC(=O)c2ccc(-c3c4nc(c(-c5c(F)cccc5F)c5ccc([nH]5)c(-c5c(F)cccc5F)c5nc(c(-c6c(F)cccc6F)c6ccc3[nH]6)C=C5)C=C4)cc2)cccc1C(=O)N1C[C@@H](C)[C@@H](C)C1
REMARK SMILES IDX 9 1 8 2 6 3 7 4 5 5 4 6 3 7 1 8 2 9 71 10 68 11 70 12 69 13
REMARK SMILES IDX 72 14 73 15 74 16 75 17 80 18 76 19 78 20 77 21 79 22 10 23
REMARK SMILES IDX 11 24 12 25 13 26 14 27 15 28 67 29 16 30 66 31 17 32 18 33
REMARK SMILES IDX 19 34 60 35 20 36 65 37 59 38 61 39 21 40 64 41 58 42 57 43
REMARK SMILES IDX 22 45 48 46 31 47 47 48 32 49 35 50 46 51 62 52 33 53 34 54
REMARK SMILES IDX 45 56 63 57 36 58 23 59 24 60 29 61 25 62 26 63 28 64 30 65
REMARK SMILES IDX 27 66 49 67 50 68 55 69 51 70 52 71 54 72 56 73 53 74 37 75
REMARK SMILES IDX 38 76 43 77 39 78 40 79 42 80 44 81 41 82
REMARK H PARENT 61 44 35 55
REMARK Flexibility Score: inf
ROOT
ATOM      1  C   UNL A   1      32.166  30.175  25.970  1.00  0.00     0.275 C 
ENDROOT
BRANCH   1   2
ATOM      2  O   UNL A   1      32.095  29.685  24.632  1.00  0.00    -0.459 OA
BRANCH   2   3
ATOM      3  C   UNL A   1      30.836  29.492  24.184  1.00  0.00     0.330 C 
ATOM      4  O   UNL A   1      29.950  30.333  24.115  1.00  0.00    -0.247 OA
BRANCH   3   5
ATOM      5  C   UNL A   1      30.691  28.086  23.776  1.00  0.00     0.094 C 
ATOM      6  C   UNL A   1      30.675  27.176  24.758  1.00  0.00     0.016 C 
BRANCH   6   7
ATOM      7  C   UNL A   1      31.045  25.781  24.538  1.00  0.00    -0.022 A 
ATOM      8  C   UNL A   1      32.863  26.159  26.231  1.00  0.00     0.046 C 
ATOM      9  C   UNL A   1      32.049  25.221  25.371  1.00  0.00    -0.031 A 
ATOM     10  C   UNL A   1      32.249  23.827  25.340  1.00  0.00     0.043 A 
ATOM     11  C   UNL A   1      30.378  25.007  23.585  1.00  0.00     0.008 A 
ATOM     12  C   UNL A   1      31.558  23.059  24.382  1.00  0.00     0.014 A 
ATOM     13  C   UNL A   1      30.653  23.647  23.494  1.00  0.00     0.001 A 
BRANCH  10  14
ATOM     14  C   UNL A   1      33.295  23.108  26.130  1.00  0.00     0.254 C 
ATOM     15  O   UNL A   1      32.973  22.628  27.216  1.00  0.00    -0.269 OA
BRANCH  14  16
ATOM     16  N   UNL A   1      34.545  22.884  25.584  1.00  0.00    -0.338 N 
ATOM     17  C   UNL A   1      35.161  21.584  25.740  1.00  0.00     0.123 C 
ATOM     18  C   UNL A   1      35.492  23.884  25.113  1.00  0.00     0.123 C 
ATOM     19  C   UNL A   1      36.647  21.792  25.481  1.00  0.00     0.010 C 
ATOM     20  C   UNL A   1      36.720  23.087  24.639  1.00  0.00     0.010 C 
ATOM     21  C   UNL A   1      37.280  20.545  24.877  1.00  0.00     0.010 C 
ATOM     22  C   UNL A   1      36.735  22.879  23.126  1.00  0.00     0.010 C 
ENDBRANCH  14  16
ENDBRANCH  10  14
ENDBRANCH   6   7
ENDBRANCH   3   5
ENDBRANCH   2   3
ENDBRANCH   1   2
BRANCH   1  23
ATOM     23  C   UNL A   1      33.503  29.782  26.606  1.00  0.00     0.275 C 
BRANCH  23  24
ATOM     24  O   UNL A   1      33.878  30.406  27.880  1.00  0.00    -0.458 OA
BRANCH  24  25
ATOM     25  C   UNL A   1      34.960  31.142  28.249  1.00  0.00     0.338 C 
ATOM     26  O   UNL A   1      34.906  32.360  28.363  1.00  0.00    -0.246 OA
BRANCH  25  27
ATOM     27  C   UNL A   1      36.227  30.449  28.533  1.00  0.00     0.060 A 
ATOM     28  C   UNL A   1      36.411  29.734  29.734  1.00  0.00     0.016 A 
ATOM     29  C   UNL A   1      37.212  30.462  27.567  1.00  0.00     0.016 A 
ATOM     30  C   UNL A   1      37.557  28.955  29.910  1.00  0.00     0.010 A 
ATOM     31  C   UNL A   1      38.208  29.528  27.639  1.00  0.00     0.010 A 
ATOM     32  C   UNL A   1      38.439  28.842  28.839  1.00  0.00    -0.014 A 
BRANCH  32  33
ATOM     33  C   UNL A   1      39.770  28.259  28.893  1.00  0.00     0.031 A 
ATOM     34  C   UNL A   1      40.086  26.892  28.470  1.00  0.00     0.074 A 
ATOM     35  C   UNL A   1      40.725  29.165  29.201  1.00  0.00     0.049 A 
ATOM     36  N   UNL A   1      41.100  26.233  28.916  1.00  0.00    -0.248 NA
ATOM     37  C   UNL A   1      39.293  26.139  27.503  1.00  0.00     0.031 C 
ATOM     38  C   UNL A   1      42.163  29.138  29.033  1.00  0.00     0.029 A 
ATOM     39  N   UNL A   1      40.489  30.380  29.861  1.00  0.00    -0.354 N 
ATOM     40  C   UNL A   1      41.288  25.168  28.064  1.00  0.00     0.074 A 
ATOM     41  C   UNL A   1      40.064  25.060  27.306  1.00  0.00     0.031 C 
ATOM     42  C   UNL A   1      42.697  30.104  29.809  1.00  0.00     0.029 A 
ATOM     43  C   UNL A   1      41.620  30.655  30.627  1.00  0.00     0.049 A 
ATOM     44  H   UNL A   1      39.678  30.934  29.796  1.00  0.00     0.167 HD
ATOM     45  C   UNL A   1      42.535  24.632  27.929  1.00  0.00     0.037 A 
ATOM     46  C   UNL A   1      41.481  30.554  31.984  1.00  0.00     0.037 A 
ATOM     47  C   UNL A   1      43.506  25.376  28.730  1.00  0.00     0.049 A 
ATOM     48  C   UNL A   1      42.283  29.404  32.553  1.00  0.00     0.074 A 
ATOM     49  C   UNL A   1      44.401  26.390  28.426  1.00  0.00     0.029 A 
ATOM     50  N   UNL A   1      43.383  25.383  30.105  1.00  0.00    -0.354 N 
ATOM     51  N   UNL A   1      42.830  28.468  31.828  1.00  0.00    -0.248 NA
ATOM     52  C   UNL A   1      42.479  29.184  33.982  1.00  0.00     0.031 C 
ATOM     53  C   UNL A   1      44.818  26.999  29.644  1.00  0.00     0.029 A 
ATOM     54  C   UNL A   1      44.178  26.352  30.684  1.00  0.00     0.049 A 
ATOM     55  H   UNL A   1      42.800  24.772  30.612  1.00  0.00     0.167 HD
ATOM     56  C   UNL A   1      43.457  27.563  32.633  1.00  0.00     0.074 A 
ATOM     57  C   UNL A   1      43.174  28.032  33.979  1.00  0.00     0.031 C 
ATOM     58  C   UNL A   1      44.152  26.502  32.129  1.00  0.00     0.037 A 
BRANCH  45  59
ATOM     59  C   UNL A   1      42.920  23.653  26.848  1.00  0.00     0.057 A 
ATOM     60  C   UNL A   1      42.830  22.263  27.058  1.00  0.00     0.134 A 
ATOM     61  C   UNL A   1      43.384  24.023  25.572  1.00  0.00     0.134 A 
ATOM     62  F   UNL A   1      42.334  21.750  28.191  1.00  0.00    -0.206 F 
ATOM     63  C   UNL A   1      43.249  21.316  26.117  1.00  0.00     0.040 A 
ATOM     64  C   UNL A   1      43.838  23.084  24.629  1.00  0.00     0.040 A 
ATOM     65  F   UNL A   1      43.387  25.304  25.176  1.00  0.00    -0.206 F 
ATOM     66  C   UNL A   1      43.780  21.724  24.904  1.00  0.00     0.006 A 
ENDBRANCH  45  59
BRANCH  46  67
ATOM     67  C   UNL A   1      40.109  30.961  32.454  1.00  0.00     0.057 A 
ATOM     68  C   UNL A   1      39.204  29.962  32.876  1.00  0.00     0.134 A 
ATOM     69  C   UNL A   1      39.816  32.270  32.851  1.00  0.00     0.134 A 
ATOM     70  F   UNL A   1      39.419  28.676  32.553  1.00  0.00    -0.206 F 
ATOM     71  C   UNL A   1      38.140  30.233  33.745  1.00  0.00     0.040 A 
ATOM     72  C   UNL A   1      38.739  32.557  33.703  1.00  0.00     0.040 A 
ATOM     73  F   UNL A   1      40.617  33.288  32.506  1.00  0.00    -0.206 F 
ATOM     74  C   UNL A   1      37.921  31.534  34.182  1.00  0.00     0.006 A 
ENDBRANCH  46  67
BRANCH  58  75
ATOM     75  C   UNL A   1      44.882  25.501  32.975  1.00  0.00     0.057 A 
ATOM     76  C   UNL A   1      44.224  24.627  33.848  1.00  0.00     0.134 A 
ATOM     77  C   UNL A   1      46.292  25.458  33.020  1.00  0.00     0.134 A 
ATOM     78  F   UNL A   1      42.891  24.660  33.993  1.00  0.00    -0.206 F 
ATOM     79  C   UNL A   1      44.918  23.703  34.636  1.00  0.00     0.040 A 
ATOM     80  C   UNL A   1      46.995  24.582  33.845  1.00  0.00     0.040 A 
ATOM     81  F   UNL A   1      47.056  26.249  32.256  1.00  0.00    -0.206 F 
ATOM     82  C   UNL A   1      46.308  23.679  34.638  1.00  0.00     0.006 A 
ENDBRANCH  58  75
ENDBRANCH  32  33
ENDBRANCH  25  27
ENDBRANCH  24  25
ENDBRANCH  23  24
ENDBRANCH   1  23
TORSDOF 14
ENDMDL
MODEL 2
REMARK VINA RESULT:     -11.9      1.849      2.632
REMARK SMILES Cc1c(/C=C/C(=O)OCCOC(=O)c2ccc(-c3c4nc(c(-c5c(F)cccc5F)c5ccc([nH]5)c(-c5c(F)cccc5F)c5nc(c(-c6c(F)cccc6F)c6ccc3[nH]6)C=C5)C=C4)cc2)cccc1C(=O)N1C[C@@H](C)[C@@H](C)C1
REMARK SMILES IDX 9 1 8 2 6 3 7 4 5 5 4 6 3 7 1 8 2 9 71 10 68 11 70 12 69 13
REMARK SMILES IDX 72 14 73 15 74 16 75 17 80 18 76 19 78 20 77 21 79 22 10 23
REMARK SMILES IDX 11 24 12 25 13 26 14 27 15 28 67 29 16 30 66 31 17 32 18 33
REMARK SMILES IDX 19 34 60 35 20 36 65 37 59 38 61 39 21 40 64 41 58 42 57 43
REMARK SMILES IDX 22 45 48 46 31 47 47 48 32 49 35 50 46 51 62 52 33 53 34 54
REMARK SMILES IDX 45 56 63 57 36 58 23 59 24 60 29 61 25 62 26 63 28 64 30 65
REMARK SMILES IDX 27 66 49 67 50 68 55 69 51 70 52 71 54 72 56 73 53 74 37 75
REMARK SMILES IDX 38 76 43 77 39 78 40 79 42 80 44 81 41 82
REMARK H PARENT 61 44 35 55
REMARK Flexibility Score: inf
ROOT
ATOM      1  C   UNL A   1      32.918  29.071  27.078  1.00  0.00     0.275 C 
ENDROOT
BRANCH   1   2
ATOM      2  O   UNL A   1      32.645  28.001  26.174  1.00  0.00    -0.459 OA
BRANCH   2   3
ATOM      3  C   UNL A   1      31.797  27.071  26.663  1.00  0.00     0.330 C 
ATOM      4  O   UNL A   1      30.868  27.267  27.434  1.00  0.00    -0.247 OA
BRANCH   3   5
ATOM      5  C   UNL A   1      32.165  25.759  26.111  1.00  0.00     0.094 C 
ATOM      6  C   UNL A   1      33.476  25.502  26.002  1.00  0.00     0.016 C 
BRANCH   6   7
ATOM      7  C   UNL A   1      34.005  24.529  25.050  1.00  0.00    -0.022 A 
ATOM      8  C   UNL A   1      34.606  23.133  27.051  1.00  0.00     0.046 C 
ATOM      9  C   UNL A   1      34.447  23.278  25.556  1.00  0.00    -0.031 A 
ATOM     10  C   UNL A   1      34.733  22.246  24.641  1.00  0.00     0.043 A 
ATOM     11  C   UNL A   1      34.008  24.801  23.679  1.00  0.00     0.008 A 
ATOM     12  C   UNL A   1      34.717  22.533  23.261  1.00  0.00     0.014 A 
ATOM     13  C   UNL A   1      34.386  23.804  22.786  1.00  0.00     0.001 A 
BRANCH  10  14
ATOM     14  C   UNL A   1      35.244  20.896  25.027  1.00  0.00     0.254 C 
ATOM     15  O   UNL A   1      36.335  20.829  25.591  1.00  0.00    -0.269 OA
BRANCH  14  16
ATOM     16  N   UNL A   1      34.444  19.779  24.869  1.00  0.00    -0.338 N 
ATOM     17  C   UNL A   1      34.999  18.594  24.251  1.00  0.00     0.123 C 
ATOM     18  C   UNL A   1      32.993  19.715  24.967  1.00  0.00     0.123 C 
ATOM     19  C   UNL A   1      33.808  17.764  23.793  1.00  0.00     0.010 C 
ATOM     20  C   UNL A   1      32.632  18.247  24.674  1.00  0.00     0.010 C 
ATOM     21  C   UNL A   1      34.127  16.275  23.833  1.00  0.00     0.010 C 
ATOM     22  C   UNL A   1      32.397  17.437  25.947  1.00  0.00     0.010 C 
ENDBRANCH  14  16
ENDBRANCH  10  14
ENDBRANCH   6   7
ENDBRANCH   3   5
ENDBRANCH   2   3
ENDBRANCH   1   2
BRANCH   1  23
ATOM     23  C   UNL A   1      34.389  29.487  26.974  1.00  0.00     0.275 C 
BRANCH  23  24
ATOM     24  O   UNL A   1      34.930  30.389  27.997  1.00  0.00    -0.458 OA
BRANCH  24  25
ATOM     25  C   UNL A   1      36.162  30.938  28.166  1.00  0.00     0.338 C 
ATOM     26  O   UNL A   1      36.352  32.145  28.068  1.00  0.00    -0.246 OA
BRANCH  25  27
ATOM     27  C   UNL A   1      37.294  30.057  28.492  1.00  0.00     0.060 A 
ATOM     28  C   UNL A   1      37.287  29.264  29.658  1.00  0.00     0.016 A 
ATOM     29  C   UNL A   1      38.341  29.976  27.596  1.00  0.00     0.016 A 
ATOM     30  C   UNL A   1      38.296  28.321  29.863  1.00  0.00     0.010 A 
ATOM     31  C   UNL A   1      39.187  28.906  27.678  1.00  0.00     0.010 A 
ATOM     32  C   UNL A   1      39.230  28.135  28.848  1.00  0.00    -0.014 A 
BRANCH  32  33
ATOM     33  C   UNL A   1      40.459  27.364  28.954  1.00  0.00     0.031 A 
ATOM     34  C   UNL A   1      40.570  25.943  28.613  1.00  0.00     0.074 A 
ATOM     35  C   UNL A   1      41.536  28.135  29.226  1.00  0.00     0.049 A 
ATOM     36  N   UNL A   1      41.471  25.168  29.112  1.00  0.00    -0.248 NA
ATOM     37  C   UNL A   1      39.680  25.263  27.678  1.00  0.00     0.031 C 
ATOM     38  C   UNL A   1      42.956  27.884  29.082  1.00  0.00     0.029 A 
ATOM     39  N   UNL A   1      41.481  29.406  29.813  1.00  0.00    -0.354 N 
ATOM     40  C   UNL A   1      41.504  24.039  28.324  1.00  0.00     0.074 A 
ATOM     41  C   UNL A   1      40.282  24.072  27.554  1.00  0.00     0.031 C 
ATOM     42  C   UNL A   1      43.622  28.803  29.811  1.00  0.00     0.029 A 
ATOM     43  C   UNL A   1      42.634  29.554  30.581  1.00  0.00     0.049 A 
ATOM     44  H   UNL A   1      40.762  30.071  29.705  1.00  0.00     0.167 HD
ATOM     45  C   UNL A   1      42.657  23.317  28.238  1.00  0.00     0.037 A 
ATOM     46  C   UNL A   1      42.472  29.553  31.938  1.00  0.00     0.037 A 
ATOM     47  C   UNL A   1      43.723  23.953  29.011  1.00  0.00     0.049 A 
ATOM     48  C   UNL A   1      43.089  28.332  32.584  1.00  0.00     0.074 A 
ATOM     49  C   UNL A   1      44.762  24.803  28.665  1.00  0.00     0.029 A 
ATOM     50  N   UNL A   1      43.593  24.057  30.382  1.00  0.00    -0.354 N 
ATOM     51  N   UNL A   1      43.496  27.284  31.921  1.00  0.00    -0.248 NA
ATOM     52  C   UNL A   1      43.240  28.167  34.025  1.00  0.00     0.031 C 
ATOM     53  C   UNL A   1      45.257  25.412  29.853  1.00  0.00     0.029 A 
ATOM     54  C   UNL A   1      44.519  24.929  30.917  1.00  0.00     0.049 A 
ATOM     55  H   UNL A   1      42.921  23.570  30.912  1.00  0.00     0.167 HD
ATOM     56  C   UNL A   1      43.974  26.344  32.785  1.00  0.00     0.074 A 
ATOM     57  C   UNL A   1      43.756  26.927  34.098  1.00  0.00     0.031 C 
ATOM     58  C   UNL A   1      44.506  25.164  32.352  1.00  0.00     0.037 A 
BRANCH  45  59
ATOM     59  C   UNL A   1      42.899  22.231  27.219  1.00  0.00     0.057 A 
ATOM     60  C   UNL A   1      42.192  21.014  27.271  1.00  0.00     0.134 A 
ATOM     61  C   UNL A   1      43.816  22.330  26.157  1.00  0.00     0.134 A 
ATOM     62  F   UNL A   1      41.229  20.793  28.174  1.00  0.00    -0.206 F 
ATOM     63  C   UNL A   1      42.437  19.947  26.398  1.00  0.00     0.040 A 
ATOM     64  C   UNL A   1      44.095  21.257  25.293  1.00  0.00     0.040 A 
ATOM     65  F   UNL A   1      44.456  23.479  25.894  1.00  0.00    -0.206 F 
ATOM     66  C   UNL A   1      43.410  20.055  25.418  1.00  0.00     0.006 A 
ENDBRANCH  45  59
BRANCH  46  67
ATOM     67  C   UNL A   1      41.173  30.186  32.363  1.00  0.00     0.057 A 
ATOM     68  C   UNL A   1      40.114  29.356  32.795  1.00  0.00     0.134 A 
ATOM     69  C   UNL A   1      41.083  31.538  32.714  1.00  0.00     0.134 A 
ATOM     70  F   UNL A   1      40.130  28.043  32.516  1.00  0.00    -0.206 F 
ATOM     71  C   UNL A   1      39.091  29.821  33.629  1.00  0.00     0.040 A 
ATOM     72  C   UNL A   1      40.049  32.019  33.531  1.00  0.00     0.040 A 
ATOM     73  F   UNL A   1      42.041  32.405  32.356  1.00  0.00    -0.206 F 
ATOM     74  C   UNL A   1      39.072  31.154  34.022  1.00  0.00     0.006 A 
ENDBRANCH  46  67
BRANCH  58  75
ATOM     75  C   UNL A   1      45.072  24.116  33.263  1.00  0.00     0.057 A 
ATOM     76  C   UNL A   1      46.400  24.135  33.704  1.00  0.00     0.134 A 
ATOM     77  C   UNL A   1      44.322  22.982  33.644  1.00  0.00     0.134 A 
ATOM     78  F   UNL A   1      47.252  25.092  33.305  1.00  0.00    -0.206 F 
ATOM     79  C   UNL A   1      46.917  23.147  34.549  1.00  0.00     0.040 A 
ATOM     80  C   UNL A   1      44.844  21.962  34.436  1.00  0.00     0.040 A 
ATOM     81  F   UNL A   1      43.044  22.815  33.280  1.00  0.00    -0.206 F 
ATOM     82  C   UNL A   1      46.140  22.055  34.916  1.00  0.00     0.006 A 
ENDBRANCH  58  75
ENDBRANCH  32  33
ENDBRANCH  25  27
ENDBRANCH  24  25
ENDBRANCH  23  24
ENDBRANCH   1  23
TORSDOF 14
ENDMDL
MODEL 3
REMARK VINA RESULT:     -11.9      2.819      5.173
REMARK SMILES Cc1c(/C=C/C(=O)OCCOC(=O)c2ccc(-c3c4nc(c(-c5c(F)cccc5F)c5ccc([nH]5)c(-c5c(F)cccc5F)c5nc(c(-c6c(F)cccc6F)c6ccc3[nH]6)C=C5)C=C4)cc2)cccc1C(=O)N1C[C@@H](C)[C@@H](C)C1
REMARK SMILES IDX 9 1 8 2 6 3 7 4 5 5 4 6 3 7 1 8 2 9 71 10 68 11 70 12 69 13
REMARK SMILES IDX 72 14 73 15 74 16 75 17 80 18 76 19 78 20 77 21 79 22 10 23
REMARK SMILES IDX 11 24 12 25 13 26 14 27 15 28 67 29 16 30 66 31 17 32 18 33
REMARK SMILES IDX 19 34 60 35 20 36 65 37 59 38 61 39 21 40 64 41 58 42 57 43
REMARK SMILES IDX 22 45 48 46 31 47 47 48 32 49 35 50 46 51 62 52 33 53 34 54
REMARK SMILES IDX 45 56 63 57 36 58 23 59 24 60 29 61 25 62 26 63 28 64 30 65
REMARK SMILES IDX 27 66 49 67 50 68 55 69 51 70 52 71 54 72 56 73 53 74 37 75
REMARK SMILES IDX 38 76 43 77 39 78 40 79 42 80 44 81 41 82
REMARK H PARENT 61 44 35 55
REMARK Flexibility Score: inf
ROOT
ATOM      1  C   UNL A   1      32.854  35.757  29.767  1.00  0.00     0.275 C 
ENDROOT
BRANCH   1   2
ATOM      2  O   UNL A   1      33.261  34.424  29.461  1.00  0.00    -0.459 OA
BRANCH   2   3
ATOM      3  C   UNL A   1      34.452  34.344  28.830  1.00  0.00     0.330 C 
ATOM      4  O   UNL A   1      35.437  35.039  29.041  1.00  0.00    -0.247 OA
BRANCH   3   5
ATOM      5  C   UNL A   1      34.385  33.268  27.830  1.00  0.00     0.094 C 
ATOM      6  C   UNL A   1      33.490  32.297  28.054  1.00  0.00     0.016 C 
BRANCH   6   7
ATOM      7  C   UNL A   1      33.630  30.958  27.489  1.00  0.00    -0.022 A 
ATOM      8  C   UNL A   1      31.362  31.319  26.472  1.00  0.00     0.046 C 
ATOM      9  C   UNL A   1      32.634  30.512  26.581  1.00  0.00    -0.031 A 
ATOM     10  C   UNL A   1      32.871  29.335  25.846  1.00  0.00     0.043 A 
ATOM     11  C   UNL A   1      34.749  30.173  27.782  1.00  0.00     0.008 A 
ATOM     12  C   UNL A   1      34.012  28.562  26.144  1.00  0.00     0.014 A 
ATOM     13  C   UNL A   1      34.927  28.963  27.121  1.00  0.00     0.001 A 
BRANCH  10  14
ATOM     14  C   UNL A   1      31.897  28.729  24.889  1.00  0.00     0.254 C 
ATOM     15  O   UNL A   1      31.603  29.367  23.878  1.00  0.00    -0.269 OA
BRANCH  14  16
ATOM     16  N   UNL A   1      31.450  27.435  25.080  1.00  0.00    -0.338 N 
ATOM     17  C   UNL A   1      31.219  26.589  23.929  1.00  0.00     0.123 C 
ATOM     18  C   UNL A   1      30.876  26.873  26.294  1.00  0.00     0.123 C 
ATOM     19  C   UNL A   1      30.312  25.465  24.410  1.00  0.00     0.010 C 
ATOM     20  C   UNL A   1      30.529  25.415  25.940  1.00  0.00     0.010 C 
ATOM     21  C   UNL A   1      30.573  24.178  23.638  1.00  0.00     0.010 C 
ATOM     22  C   UNL A   1      31.594  24.428  26.415  1.00  0.00     0.010 C 
ENDBRANCH  14  16
ENDBRANCH  10  14
ENDBRANCH   6   7
ENDBRANCH   3   5
ENDBRANCH   2   3
ENDBRANCH   1   2
BRANCH   1  23
ATOM     23  C   UNL A   1      32.598  35.898  31.271  1.00  0.00     0.275 C 
BRANCH  23  24
ATOM     24  O   UNL A   1      33.320  35.007  32.186  1.00  0.00    -0.458 OA
BRANCH  24  25
ATOM     25  C   UNL A   1      34.466  35.171  32.900  1.00  0.00     0.338 C 
ATOM     26  O   UNL A   1      34.614  36.103  33.680  1.00  0.00    -0.246 OA
BRANCH  25  27
ATOM     27  C   UNL A   1      35.549  34.188  32.739  1.00  0.00     0.060 A 
ATOM     28  C   UNL A   1      35.439  32.890  33.277  1.00  0.00     0.016 A 
ATOM     29  C   UNL A   1      36.654  34.547  31.993  1.00  0.00     0.016 A 
ATOM     30  C   UNL A   1      36.407  31.929  32.976  1.00  0.00     0.010 A 
ATOM     31  C   UNL A   1      37.465  33.557  31.513  1.00  0.00     0.010 A 
ATOM     32  C   UNL A   1      37.405  32.271  32.069  1.00  0.00    -0.014 A 
BRANCH  32  33
ATOM     33  C   UNL A   1      38.603  31.495  31.790  1.00  0.00     0.031 A 
ATOM     34  C   UNL A   1      38.620  30.270  30.987  1.00  0.00     0.074 A 
ATOM     35  C   UNL A   1      39.734  32.117  32.194  1.00  0.00     0.049 A 
ATOM     36  N   UNL A   1      39.527  29.362  31.107  1.00  0.00    -0.248 NA
ATOM     37  C   UNL A   1      37.621  29.953  29.971  1.00  0.00     0.031 C 
ATOM     38  C   UNL A   1      41.122  31.913  31.835  1.00  0.00     0.029 A 
ATOM     39  N   UNL A   1      39.787  33.119  33.173  1.00  0.00    -0.354 N 
ATOM     40  C   UNL A   1      39.439  28.562  29.989  1.00  0.00     0.074 A 
ATOM     41  C   UNL A   1      38.156  28.866  29.399  1.00  0.00     0.031 C 
ATOM     42  C   UNL A   1      41.891  32.526  32.758  1.00  0.00     0.029 A 
ATOM     43  C   UNL A   1      41.010  32.987  33.827  1.00  0.00     0.049 A 
ATOM     44  H   UNL A   1      39.092  33.790  33.364  1.00  0.00     0.167 HD
ATOM     45  C   UNL A   1      40.547  27.897  29.554  1.00  0.00     0.037 A 
ATOM     46  C   UNL A   1      40.971  32.533  35.117  1.00  0.00     0.037 A 
ATOM     47  C   UNL A   1      41.705  28.225  30.384  1.00  0.00     0.049 A 
ATOM     48  C   UNL A   1      41.589  31.159  35.254  1.00  0.00     0.074 A 
ATOM     49  C   UNL A   1      42.745  29.129  30.239  1.00  0.00     0.029 A 
ATOM     50  N   UNL A   1      41.703  27.865  31.718  1.00  0.00    -0.354 N 
ATOM     51  N   UNL A   1      41.887  30.390  34.244  1.00  0.00    -0.248 NA
ATOM     52  C   UNL A   1      41.861  30.519  36.536  1.00  0.00     0.031 C 
ATOM     53  C   UNL A   1      43.371  29.299  31.506  1.00  0.00     0.029 A 
ATOM     54  C   UNL A   1      42.712  28.495  32.417  1.00  0.00     0.049 A 
ATOM     55  H   UNL A   1      41.061  27.235  32.119  1.00  0.00     0.167 HD
ATOM     56  C   UNL A   1      42.400  29.209  34.693  1.00  0.00     0.074 A 
ATOM     57  C   UNL A   1      42.326  29.320  36.141  1.00  0.00     0.031 C 
ATOM     58  C   UNL A   1      42.838  28.236  33.842  1.00  0.00     0.037 A 
BRANCH  45  59
ATOM     59  C   UNL A   1      40.648  27.213  28.213  1.00  0.00     0.057 A 
ATOM     60  C   UNL A   1      40.074  25.945  27.997  1.00  0.00     0.134 A 
ATOM     61  C   UNL A   1      41.298  27.759  27.091  1.00  0.00     0.134 A 
ATOM     62  F   UNL A   1      39.354  25.325  28.941  1.00  0.00    -0.206 F 
ATOM     63  C   UNL A   1      40.207  25.237  26.798  1.00  0.00     0.040 A 
ATOM     64  C   UNL A   1      41.468  27.046  25.891  1.00  0.00     0.040 A 
ATOM     65  F   UNL A   1      41.767  29.016  27.101  1.00  0.00    -0.206 F 
ATOM     66  C   UNL A   1      40.930  25.775  25.745  1.00  0.00     0.006 A 
ENDBRANCH  45  59
BRANCH  46  67
ATOM     67  C   UNL A   1      39.745  33.002  35.855  1.00  0.00     0.057 A 
ATOM     68  C   UNL A   1      38.668  32.106  36.036  1.00  0.00     0.134 A 
ATOM     69  C   UNL A   1      39.762  34.126  36.688  1.00  0.00     0.134 A 
ATOM     70  F   UNL A   1      38.585  30.992  35.290  1.00  0.00    -0.206 F 
ATOM     71  C   UNL A   1      37.733  32.256  37.068  1.00  0.00     0.040 A 
ATOM     72  C   UNL A   1      38.816  34.299  37.710  1.00  0.00     0.040 A 
ATOM     73  F   UNL A   1      40.745  35.033  36.597  1.00  0.00    -0.206 F 
ATOM     74  C   UNL A   1      37.823  33.345  37.927  1.00  0.00     0.006 A 
ENDBRANCH  46  67
BRANCH  58  75
ATOM     75  C   UNL A   1      43.436  26.936  34.292  1.00  0.00     0.057 A 
ATOM     76  C   UNL A   1      44.792  26.630  34.124  1.00  0.00     0.134 A 
ATOM     77  C   UNL A   1      42.639  25.896  34.816  1.00  0.00     0.134 A 
ATOM     78  F   UNL A   1      45.628  27.486  33.518  1.00  0.00    -0.206 F 
ATOM     79  C   UNL A   1      45.335  25.411  34.542  1.00  0.00     0.040 A 
ATOM     80  C   UNL A   1      43.159  24.656  35.181  1.00  0.00     0.040 A 
ATOM     81  F   UNL A   1      41.322  26.036  35.015  1.00  0.00    -0.206 F 
ATOM     82  C   UNL A   1      44.519  24.419  35.071  1.00  0.00     0.006 A 
ENDBRANCH  58  75
ENDBRANCH  32  33
ENDBRANCH  25  27
ENDBRANCH  24  25
ENDBRANCH  23  24
ENDBRANCH   1  23
TORSDOF 14
ENDMDL
