MODEL 1
REMARK VINA RESULT:      -9.4      0.000      0.000
REMARK SMILES COc1ccnc(N[C@H](C)CC(=O)OCCOC(=O)c2ccc(-c3c4nc(c(-c5c(F)cccc5F)c5ccc([nH]5)c(-c5c(F)cccc5F)c5nc(c(-c6c(F)cccc6F)c6ccc3[nH]6)C=C5)C=C4)cc2)n1
REMARK SMILES IDX 15 1 14 2 12 3 13 4 11 5 9 6 10 7 8 8 7 10 3 11 4 12 74 13
REMARK SMILES IDX 5 14 6 15 2 16 1 17 16 18 17 19 18 20 19 21 20 22 21 23
REMARK SMILES IDX 73 24 22 25 72 26 23 27 24 28 25 29 66 30 26 31 71 32 65 33
REMARK SMILES IDX 67 34 27 35 70 36 64 37 63 38 28 40 54 41 37 42 53 43 38 44
REMARK SMILES IDX 41 45 52 46 68 47 39 48 40 49 51 51 69 52 42 53 29 54 30 55
REMARK SMILES IDX 35 56 31 57 32 58 34 59 36 60 33 61 55 62 56 63 61 64 57 65
REMARK SMILES IDX 58 66 60 67 62 68 59 69 43 70 44 71 49 72 45 73 46 74 48 75
REMARK SMILES IDX 50 76 47 77
REMARK H PARENT 8 9 67 39 41 50
REMARK Flexibility Score: inf
ROOT
ATOM      1  C   UNL A   1      32.742  35.948  31.051  1.00  0.00     0.274 C 
ENDROOT
BRANCH   1   2
ATOM      2  O   UNL A   1      33.070  37.045  31.925  1.00  0.00    -0.462 OA
BRANCH   2   3
ATOM      3  C   UNL A   1      33.885  36.786  32.975  1.00  0.00     0.307 C 
ATOM      4  O   UNL A   1      33.882  37.414  34.028  1.00  0.00    -0.252 OA
BRANCH   3   5
ATOM      5  C   UNL A   1      34.873  35.671  32.709  1.00  0.00     0.147 C 
BRANCH   5   6
ATOM      6  C   UNL A   1      34.961  34.575  33.785  1.00  0.00     0.090 C 
ATOM      7  C   UNL A   1      33.952  33.456  33.479  1.00  0.00     0.031 C 
BRANCH   6   8
ATOM      8  N   UNL A   1      36.334  34.077  33.810  1.00  0.00    -0.351 N 
ATOM      9  H   UNL A   1      36.952  34.454  33.143  1.00  0.00     0.163 HD
BRANCH   8  10
ATOM     10  C   UNL A   1      36.850  33.143  34.663  1.00  0.00     0.226 A 
ATOM     11  C   UNL A   1      38.048  31.246  35.086  1.00  0.00     0.217 A 
ATOM     12  C   UNL A   1      38.140  31.530  36.424  1.00  0.00     0.088 A 
ATOM     13  N   UNL A   1      37.411  32.024  34.202  1.00  0.00    -0.177 NA
ATOM     14  C   UNL A   1      37.486  32.670  36.814  1.00  0.00     0.121 A 
ATOM     15  N   UNL A   1      36.835  33.481  35.960  1.00  0.00    -0.221 NA
BRANCH  11  16
ATOM     16  O   UNL A   1      38.738  30.199  34.534  1.00  0.00    -0.481 OA
ATOM     17  C   UNL A   1      38.169  29.797  33.294  1.00  0.00     0.280 C 
ENDBRANCH  11  16
ENDBRANCH   8  10
ENDBRANCH   6   8
ENDBRANCH   5   6
ENDBRANCH   3   5
ENDBRANCH   2   3
ENDBRANCH   1   2
BRANCH   1  18
ATOM     18  C   UNL A   1      32.547  36.431  29.613  1.00  0.00     0.275 C 
BRANCH  18  19
ATOM     19  O   UNL A   1      33.535  35.859  28.738  1.00  0.00    -0.458 OA
BRANCH  19  20
ATOM     20  C   UNL A   1      33.420  34.525  28.541  1.00  0.00     0.338 C 
ATOM     21  O   UNL A   1      32.481  33.924  28.052  1.00  0.00    -0.246 OA
BRANCH  20  22
ATOM     22  C   UNL A   1      34.691  33.876  28.887  1.00  0.00     0.060 A 
ATOM     23  C   UNL A   1      34.719  33.033  30.002  1.00  0.00     0.016 A 
ATOM     24  C   UNL A   1      35.852  34.139  28.159  1.00  0.00     0.016 A 
ATOM     25  C   UNL A   1      35.917  32.445  30.397  1.00  0.00     0.010 A 
ATOM     26  C   UNL A   1      37.054  33.550  28.558  1.00  0.00     0.010 A 
ATOM     27  C   UNL A   1      37.093  32.708  29.684  1.00  0.00    -0.014 A 
BRANCH  27  28
ATOM     28  C   UNL A   1      38.379  32.139  30.144  1.00  0.00     0.031 A 
ATOM     29  C   UNL A   1      38.843  30.818  29.605  1.00  0.00     0.074 A 
ATOM     30  C   UNL A   1      39.124  32.809  31.041  1.00  0.00     0.049 A 
ATOM     31  N   UNL A   1      39.892  30.111  29.938  1.00  0.00    -0.248 NA
ATOM     32  C   UNL A   1      38.013  30.211  28.553  1.00  0.00     0.031 C 
ATOM     33  C   UNL A   1      38.790  34.114  31.608  1.00  0.00     0.029 A 
ATOM     34  N   UNL A   1      40.313  32.474  31.637  1.00  0.00    -0.354 N 
ATOM     35  C   UNL A   1      39.842  28.969  29.151  1.00  0.00     0.074 A 
ATOM     36  C   UNL A   1      38.649  29.068  28.336  1.00  0.00     0.031 C 
ATOM     37  C   UNL A   1      39.750  34.470  32.477  1.00  0.00     0.029 A 
ATOM     38  C   UNL A   1      40.743  33.402  32.554  1.00  0.00     0.049 A 
ATOM     39  H   UNL A   1      40.810  31.651  31.429  1.00  0.00     0.167 HD
ATOM     40  C   UNL A   1      40.716  27.936  29.109  1.00  0.00     0.037 A 
ATOM     41  C   UNL A   1      41.805  33.377  33.381  1.00  0.00     0.037 A 
ATOM     42  C   UNL A   1      41.905  27.847  29.915  1.00  0.00     0.049 A 
ATOM     43  C   UNL A   1      42.730  32.193  33.354  1.00  0.00     0.074 A 
ATOM     44  C   UNL A   1      42.863  26.848  29.935  1.00  0.00     0.029 A 
ATOM     45  N   UNL A   1      42.297  28.795  30.849  1.00  0.00    -0.354 N 
ATOM     46  N   UNL A   1      42.678  31.121  32.602  1.00  0.00    -0.248 NA
ATOM     47  C   UNL A   1      43.860  32.215  34.294  1.00  0.00     0.031 C 
ATOM     48  C   UNL A   1      43.815  27.173  30.907  1.00  0.00     0.029 A 
ATOM     49  C   UNL A   1      43.472  28.395  31.464  1.00  0.00     0.049 A 
ATOM     50  H   UNL A   1      41.812  29.628  31.045  1.00  0.00     0.167 HD
ATOM     51  C   UNL A   1      43.775  30.349  32.963  1.00  0.00     0.074 A 
ATOM     52  C   UNL A   1      44.483  31.083  33.991  1.00  0.00     0.031 C 
ATOM     53  C   UNL A   1      44.162  29.141  32.484  1.00  0.00     0.037 A 
BRANCH  40  54
ATOM     54  C   UNL A   1      40.400  26.805  28.177  1.00  0.00     0.057 A 
ATOM     55  C   UNL A   1      40.991  26.703  26.911  1.00  0.00     0.134 A 
ATOM     56  C   UNL A   1      39.510  25.793  28.558  1.00  0.00     0.134 A 
ATOM     57  F   UNL A   1      41.841  27.648  26.479  1.00  0.00    -0.206 F 
ATOM     58  C   UNL A   1      40.691  25.647  26.049  1.00  0.00     0.040 A 
ATOM     59  C   UNL A   1      39.220  24.720  27.715  1.00  0.00     0.040 A 
ATOM     60  F   UNL A   1      38.912  25.829  29.759  1.00  0.00    -0.206 F 
ATOM     61  C   UNL A   1      39.808  24.648  26.453  1.00  0.00     0.006 A 
ENDBRANCH  40  54
BRANCH  41  62
ATOM     62  C   UNL A   1      42.038  34.504  34.315  1.00  0.00     0.057 A 
ATOM     63  C   UNL A   1      42.735  35.648  33.909  1.00  0.00     0.134 A 
ATOM     64  C   UNL A   1      41.571  34.465  35.635  1.00  0.00     0.134 A 
ATOM     65  F   UNL A   1      43.227  35.732  32.665  1.00  0.00    -0.206 F 
ATOM     66  C   UNL A   1      42.968  36.709  34.785  1.00  0.00     0.040 A 
ATOM     67  C   UNL A   1      41.776  35.529  36.513  1.00  0.00     0.040 A 
ATOM     68  F   UNL A   1      40.896  33.397  36.083  1.00  0.00    -0.206 F 
ATOM     69  C   UNL A   1      42.481  36.654  36.090  1.00  0.00     0.006 A 
ENDBRANCH  41  62
BRANCH  53  70
ATOM     70  C   UNL A   1      45.421  28.555  33.051  1.00  0.00     0.057 A 
ATOM     71  C   UNL A   1      45.400  27.685  34.148  1.00  0.00     0.134 A 
ATOM     72  C   UNL A   1      46.664  28.837  32.471  1.00  0.00     0.134 A 
ATOM     73  F   UNL A   1      44.243  27.387  34.756  1.00  0.00    -0.206 F 
ATOM     74  C   UNL A   1      46.574  27.130  34.660  1.00  0.00     0.040 A 
ATOM     75  C   UNL A   1      47.841  28.271  32.959  1.00  0.00     0.040 A 
ATOM     76  F   UNL A   1      46.750  29.658  31.413  1.00  0.00    -0.206 F 
ATOM     77  C   UNL A   1      47.799  27.420  34.061  1.00  0.00     0.006 A 
ENDBRANCH  53  70
ENDBRANCH  27  28
ENDBRANCH  20  22
ENDBRANCH  19  20
ENDBRANCH  18  19
ENDBRANCH   1  18
TORSDOF 15
ENDMDL
MODEL 2
REMARK VINA RESULT:      -9.2      1.293      6.798
REMARK SMILES COc1ccnc(N[C@H](C)CC(=O)OCCOC(=O)c2ccc(-c3c4nc(c(-c5c(F)cccc5F)c5ccc([nH]5)c(-c5c(F)cccc5F)c5nc(c(-c6c(F)cccc6F)c6ccc3[nH]6)C=C5)C=C4)cc2)n1
REMARK SMILES IDX 15 1 14 2 12 3 13 4 11 5 9 6 10 7 8 8 7 10 3 11 4 12 74 13
REMARK SMILES IDX 5 14 6 15 2 16 1 17 16 18 17 19 18 20 19 21 20 22 21 23
REMARK SMILES IDX 73 24 22 25 72 26 23 27 24 28 25 29 66 30 26 31 71 32 65 33
REMARK SMILES IDX 67 34 27 35 70 36 64 37 63 38 28 40 54 41 37 42 53 43 38 44
REMARK SMILES IDX 41 45 52 46 68 47 39 48 40 49 51 51 69 52 42 53 29 54 30 55
REMARK SMILES IDX 35 56 31 57 32 58 34 59 36 60 33 61 55 62 56 63 61 64 57 65
REMARK SMILES IDX 58 66 60 67 62 68 59 69 43 70 44 71 49 72 45 73 46 74 48 75
REMARK SMILES IDX 50 76 47 77
REMARK H PARENT 8 9 67 39 41 50
REMARK Flexibility Score: inf
ROOT
ATOM      1  C   UNL A   1      33.681  35.525  32.151  1.00  0.00     0.274 C 
ENDROOT
BRANCH   1   2
ATOM      2  O   UNL A   1      34.903  34.764  32.174  1.00  0.00    -0.462 OA
BRANCH   2   3
ATOM      3  C   UNL A   1      35.443  34.484  33.384  1.00  0.00     0.307 C 
ATOM      4  O   UNL A   1      35.918  35.321  34.143  1.00  0.00    -0.252 OA
BRANCH   3   5
ATOM      5  C   UNL A   1      35.474  33.005  33.701  1.00  0.00     0.147 C 
BRANCH   5   6
ATOM      6  C   UNL A   1      36.867  32.356  33.766  1.00  0.00     0.090 C 
ATOM      7  C   UNL A   1      37.470  32.543  35.168  1.00  0.00     0.031 C 
BRANCH   6   8
ATOM      8  N   UNL A   1      36.723  30.943  33.421  1.00  0.00    -0.351 N 
ATOM      9  H   UNL A   1      35.813  30.572  33.454  1.00  0.00     0.163 HD
BRANCH   8  10
ATOM     10  C   UNL A   1      37.722  30.085  33.056  1.00  0.00     0.226 A 
ATOM     11  C   UNL A   1      39.899  29.399  33.089  1.00  0.00     0.217 A 
ATOM     12  C   UNL A   1      39.579  28.160  32.597  1.00  0.00     0.088 A 
ATOM     13  N   UNL A   1      39.000  30.365  33.316  1.00  0.00    -0.177 NA
ATOM     14  C   UNL A   1      38.251  27.984  32.307  1.00  0.00     0.121 A 
ATOM     15  N   UNL A   1      37.314  28.926  32.520  1.00  0.00    -0.221 NA
BRANCH  11  16
ATOM     16  O   UNL A   1      41.167  29.685  33.522  1.00  0.00    -0.481 OA
ATOM     17  C   UNL A   1      41.189  29.970  34.915  1.00  0.00     0.280 C 
ENDBRANCH  11  16
ENDBRANCH   8  10
ENDBRANCH   6   8
ENDBRANCH   5   6
ENDBRANCH   3   5
ENDBRANCH   2   3
ENDBRANCH   1   2
BRANCH   1  18
ATOM     18  C   UNL A   1      33.293  35.899  30.720  1.00  0.00     0.275 C 
BRANCH  18  19
ATOM     19  O   UNL A   1      32.578  34.826  30.082  1.00  0.00    -0.458 OA
BRANCH  19  20
ATOM     20  C   UNL A   1      33.076  34.440  28.884  1.00  0.00     0.338 C 
ATOM     21  O   UNL A   1      32.613  34.665  27.780  1.00  0.00    -0.246 OA
BRANCH  20  22
ATOM     22  C   UNL A   1      34.381  33.800  29.088  1.00  0.00     0.060 A 
ATOM     23  C   UNL A   1      34.438  32.664  29.901  1.00  0.00     0.016 A 
ATOM     24  C   UNL A   1      35.541  34.344  28.536  1.00  0.00     0.016 A 
ATOM     25  C   UNL A   1      35.665  32.062  30.167  1.00  0.00     0.010 A 
ATOM     26  C   UNL A   1      36.771  33.741  28.806  1.00  0.00     0.010 A 
ATOM     27  C   UNL A   1      36.839  32.603  29.629  1.00  0.00    -0.014 A 
BRANCH  27  28
ATOM     28  C   UNL A   1      38.150  32.005  29.967  1.00  0.00     0.031 A 
ATOM     29  C   UNL A   1      39.108  32.758  30.841  1.00  0.00     0.074 A 
ATOM     30  C   UNL A   1      38.474  30.790  29.489  1.00  0.00     0.049 A 
ATOM     31  N   UNL A   1      40.332  32.450  31.185  1.00  0.00    -0.248 NA
ATOM     32  C   UNL A   1      38.625  34.031  31.399  1.00  0.00     0.031 C 
ATOM     33  C   UNL A   1      37.611  29.952  28.659  1.00  0.00     0.029 A 
ATOM     34  N   UNL A   1      39.625  30.057  29.629  1.00  0.00    -0.354 N 
ATOM     35  C   UNL A   1      40.773  33.494  31.987  1.00  0.00     0.074 A 
ATOM     36  C   UNL A   1      39.692  34.455  32.062  1.00  0.00     0.031 C 
ATOM     37  C   UNL A   1      38.264  28.818  28.357  1.00  0.00     0.029 A 
ATOM     38  C   UNL A   1      39.602  28.869  28.939  1.00  0.00     0.049 A 
ATOM     39  H   UNL A   1      40.391  30.352  30.170  1.00  0.00     0.167 HD
ATOM     40  C   UNL A   1      41.968  33.635  32.605  1.00  0.00     0.037 A 
ATOM     41  C   UNL A   1      40.563  27.942  28.777  1.00  0.00     0.037 A 
ATOM     42  C   UNL A   1      43.036  32.672  32.534  1.00  0.00     0.049 A 
ATOM     43  C   UNL A   1      41.901  28.147  29.431  1.00  0.00     0.074 A 
ATOM     44  C   UNL A   1      44.280  32.715  33.138  1.00  0.00     0.029 A 
ATOM     45  N   UNL A   1      42.985  31.491  31.809  1.00  0.00    -0.354 N 
ATOM     46  N   UNL A   1      42.307  29.135  30.191  1.00  0.00    -0.248 NA
ATOM     47  C   UNL A   1      42.916  27.109  29.200  1.00  0.00     0.031 C 
ATOM     48  C   UNL A   1      44.996  31.578  32.749  1.00  0.00     0.029 A 
ATOM     49  C   UNL A   1      44.183  30.806  31.935  1.00  0.00     0.049 A 
ATOM     50  H   UNL A   1      42.212  31.185  31.282  1.00  0.00     0.167 HD
ATOM     51  C   UNL A   1      43.614  28.831  30.545  1.00  0.00     0.074 A 
ATOM     52  C   UNL A   1      43.930  27.559  29.928  1.00  0.00     0.031 C 
ATOM     53  C   UNL A   1      44.476  29.540  31.314  1.00  0.00     0.037 A 
BRANCH  40  54
ATOM     54  C   UNL A   1      42.191  34.890  33.394  1.00  0.00     0.057 A 
ATOM     55  C   UNL A   1      41.721  35.033  34.706  1.00  0.00     0.134 A 
ATOM     56  C   UNL A   1      42.904  35.962  32.842  1.00  0.00     0.134 A 
ATOM     57  F   UNL A   1      41.018  34.050  35.287  1.00  0.00    -0.206 F 
ATOM     58  C   UNL A   1      41.934  36.206  35.433  1.00  0.00     0.040 A 
ATOM     59  C   UNL A   1      43.144  37.130  33.567  1.00  0.00     0.040 A 
ATOM     60  F   UNL A   1      43.385  35.887  31.592  1.00  0.00    -0.206 F 
ATOM     61  C   UNL A   1      42.653  37.256  34.865  1.00  0.00     0.006 A 
ENDBRANCH  40  54
BRANCH  41  62
ATOM     62  C   UNL A   1      40.298  26.743  27.946  1.00  0.00     0.057 A 
ATOM     63  C   UNL A   1      39.523  25.683  28.432  1.00  0.00     0.134 A 
ATOM     64  C   UNL A   1      40.813  26.628  26.649  1.00  0.00     0.134 A 
ATOM     65  F   UNL A   1      39.024  25.727  29.674  1.00  0.00    -0.206 F 
ATOM     66  C   UNL A   1      39.277  24.547  27.660  1.00  0.00     0.040 A 
ATOM     67  C   UNL A   1      40.554  25.508  25.858  1.00  0.00     0.040 A 
ATOM     68  F   UNL A   1      41.563  27.610  26.128  1.00  0.00    -0.206 F 
ATOM     69  C   UNL A   1      39.788  24.460  26.365  1.00  0.00     0.006 A 
ENDBRANCH  41  62
BRANCH  53  70
ATOM     70  C   UNL A   1      45.832  28.943  31.549  1.00  0.00     0.057 A 
ATOM     71  C   UNL A   1      46.077  28.070  32.615  1.00  0.00     0.134 A 
ATOM     72  C   UNL A   1      46.894  29.219  30.679  1.00  0.00     0.134 A 
ATOM     73  F   UNL A   1      45.105  27.777  33.492  1.00  0.00    -0.206 F 
ATOM     74  C   UNL A   1      47.337  27.505  32.819  1.00  0.00     0.040 A 
ATOM     75  C   UNL A   1      48.152  28.643  30.859  1.00  0.00     0.040 A 
ATOM     76  F   UNL A   1      46.721  30.043  29.634  1.00  0.00    -0.206 F 
ATOM     77  C   UNL A   1      48.378  27.788  31.935  1.00  0.00     0.006 A 
ENDBRANCH  53  70
ENDBRANCH  27  28
ENDBRANCH  20  22
ENDBRANCH  19  20
ENDBRANCH  18  19
ENDBRANCH   1  18
TORSDOF 15
ENDMDL
MODEL 3
REMARK VINA RESULT:      -9.0      4.338      6.828
REMARK SMILES COc1ccnc(N[C@H](C)CC(=O)OCCOC(=O)c2ccc(-c3c4nc(c(-c5c(F)cccc5F)c5ccc([nH]5)c(-c5c(F)cccc5F)c5nc(c(-c6c(F)cccc6F)c6ccc3[nH]6)C=C5)C=C4)cc2)n1
REMARK SMILES IDX 15 1 14 2 12 3 13 4 11 5 9 6 10 7 8 8 7 10 3 11 4 12 74 13
REMARK SMILES IDX 5 14 6 15 2 16 1 17 16 18 17 19 18 20 19 21 20 22 21 23
REMARK SMILES IDX 73 24 22 25 72 26 23 27 24 28 25 29 66 30 26 31 71 32 65 33
REMARK SMILES IDX 67 34 27 35 70 36 64 37 63 38 28 40 54 41 37 42 53 43 38 44
REMARK SMILES IDX 41 45 52 46 68 47 39 48 40 49 51 51 69 52 42 53 29 54 30 55
REMARK SMILES IDX 35 56 31 57 32 58 34 59 36 60 33 61 55 62 56 63 61 64 57 65
REMARK SMILES IDX 58 66 60 67 62 68 59 69 43 70 44 71 49 72 45 73 46 74 48 75
REMARK SMILES IDX 50 76 47 77
REMARK H PARENT 8 9 67 39 41 50
REMARK Flexibility Score: inf
ROOT
ATOM      1  C   UNL A   1      32.108  31.178  26.884  1.00  0.00     0.274 C 
ENDROOT
BRANCH   1   2
ATOM      2  O   UNL A   1      31.680  30.697  25.596  1.00  0.00    -0.462 OA
BRANCH   2   3
ATOM      3  C   UNL A   1      31.694  29.358  25.393  1.00  0.00     0.307 C 
ATOM      4  O   UNL A   1      31.397  28.524  26.241  1.00  0.00    -0.252 OA
BRANCH   3   5
ATOM      5  C   UNL A   1      32.183  28.963  24.017  1.00  0.00     0.147 C 
BRANCH   5   6
ATOM      6  C   UNL A   1      31.095  28.691  22.965  1.00  0.00     0.090 C 
ATOM      7  C   UNL A   1      30.916  27.176  22.772  1.00  0.00     0.031 C 
BRANCH   6   8
ATOM      8  N   UNL A   1      29.861  29.330  23.417  1.00  0.00    -0.351 N 
ATOM      9  H   UNL A   1      29.517  29.053  24.296  1.00  0.00     0.163 HD
BRANCH   8  10
ATOM     10  C   UNL A   1      29.135  30.274  22.746  1.00  0.00     0.226 A 
ATOM     11  C   UNL A   1      28.417  32.419  22.441  1.00  0.00     0.217 A 
ATOM     12  C   UNL A   1      27.970  32.153  21.172  1.00  0.00     0.088 A 
ATOM     13  N   UNL A   1      28.988  31.506  23.236  1.00  0.00    -0.177 NA
ATOM     14  C   UNL A   1      28.112  30.848  20.777  1.00  0.00     0.121 A 
ATOM     15  N   UNL A   1      28.681  29.898  21.542  1.00  0.00    -0.221 NA
BRANCH  11  16
ATOM     16  O   UNL A   1      28.437  33.698  22.932  1.00  0.00    -0.481 OA
ATOM     17  C   UNL A   1      29.697  34.013  23.513  1.00  0.00     0.280 C 
ENDBRANCH  11  16
ENDBRANCH   8  10
ENDBRANCH   6   8
ENDBRANCH   5   6
ENDBRANCH   3   5
ENDBRANCH   2   3
ENDBRANCH   1   2
BRANCH   1  18
ATOM     18  C   UNL A   1      31.845  32.679  27.025  1.00  0.00     0.275 C 
BRANCH  18  19
ATOM     19  O   UNL A   1      33.079  33.416  27.073  1.00  0.00    -0.458 OA
BRANCH  19  20
ATOM     20  C   UNL A   1      33.268  34.142  28.200  1.00  0.00     0.338 C 
ATOM     21  O   UNL A   1      32.568  35.040  28.631  1.00  0.00    -0.246 OA
BRANCH  20  22
ATOM     22  C   UNL A   1      34.407  33.589  28.943  1.00  0.00     0.060 A 
ATOM     23  C   UNL A   1      35.679  34.108  28.681  1.00  0.00     0.016 A 
ATOM     24  C   UNL A   1      34.235  32.535  29.841  1.00  0.00     0.016 A 
ATOM     25  C   UNL A   1      36.792  33.572  29.322  1.00  0.00     0.010 A 
ATOM     26  C   UNL A   1      35.353  31.997  30.481  1.00  0.00     0.010 A 
ATOM     27  C   UNL A   1      36.637  32.507  30.218  1.00  0.00    -0.014 A 
BRANCH  27  28
ATOM     28  C   UNL A   1      37.826  31.890  30.847  1.00  0.00     0.031 A 
ATOM     29  C   UNL A   1      38.597  30.837  30.108  1.00  0.00     0.074 A 
ATOM     30  C   UNL A   1      38.209  32.278  32.076  1.00  0.00     0.049 A 
ATOM     31  N   UNL A   1      39.612  30.118  30.512  1.00  0.00    -0.248 NA
ATOM     32  C   UNL A   1      38.164  30.553  28.731  1.00  0.00     0.031 C 
ATOM     33  C   UNL A   1      37.557  33.315  32.875  1.00  0.00     0.029 A 
ATOM     34  N   UNL A   1      39.236  31.836  32.870  1.00  0.00    -0.354 N 
ATOM     35  C   UNL A   1      39.932  29.285  29.448  1.00  0.00     0.074 A 
ATOM     36  C   UNL A   1      38.990  29.575  28.387  1.00  0.00     0.031 C 
ATOM     37  C   UNL A   1      38.198  33.427  34.050  1.00  0.00     0.029 A 
ATOM     38  C   UNL A   1      39.276  32.444  34.100  1.00  0.00     0.049 A 
ATOM     39  H   UNL A   1      39.882  31.149  32.586  1.00  0.00     0.167 HD
ATOM     40  C   UNL A   1      40.923  28.368  29.365  1.00  0.00     0.037 A 
ATOM     41  C   UNL A   1      40.079  32.214  35.156  1.00  0.00     0.037 A 
ATOM     42  C   UNL A   1      41.862  28.091  30.421  1.00  0.00     0.049 A 
ATOM     43  C   UNL A   1      41.138  31.151  35.057  1.00  0.00     0.074 A 
ATOM     44  C   UNL A   1      42.913  27.190  30.428  1.00  0.00     0.029 A 
ATOM     45  N   UNL A   1      41.859  28.712  31.661  1.00  0.00    -0.354 N 
ATOM     46  N   UNL A   1      41.436  30.374  34.046  1.00  0.00    -0.248 NA
ATOM     47  C   UNL A   1      41.969  30.934  36.250  1.00  0.00     0.031 C 
ATOM     48  C   UNL A   1      43.523  27.240  31.686  1.00  0.00     0.029 A 
ATOM     49  C   UNL A   1      42.877  28.200  32.448  1.00  0.00     0.049 A 
ATOM     50  H   UNL A   1      41.226  29.412  31.940  1.00  0.00     0.167 HD
ATOM     51  C   UNL A   1      42.499  29.588  34.470  1.00  0.00     0.074 A 
ATOM     52  C   UNL A   1      42.803  29.993  35.827  1.00  0.00     0.031 C 
ATOM     53  C   UNL A   1      43.165  28.618  33.796  1.00  0.00     0.037 A 
BRANCH  40  54
ATOM     54  C   UNL A   1      41.025  27.578  28.095  1.00  0.00     0.057 A 
ATOM     55  C   UNL A   1      41.776  28.029  27.002  1.00  0.00     0.134 A 
ATOM     56  C   UNL A   1      40.381  26.341  27.970  1.00  0.00     0.134 A 
ATOM     57  F   UNL A   1      42.405  29.213  27.051  1.00  0.00    -0.206 F 
ATOM     58  C   UNL A   1      41.866  27.287  25.823  1.00  0.00     0.040 A 
ATOM     59  C   UNL A   1      40.481  25.579  26.806  1.00  0.00     0.040 A 
ATOM     60  F   UNL A   1      39.648  25.850  28.982  1.00  0.00    -0.206 F 
ATOM     61  C   UNL A   1      41.222  26.055  25.725  1.00  0.00     0.006 A 
ENDBRANCH  40  54
BRANCH  41  62
ATOM     62  C   UNL A   1      39.899  32.996  36.403  1.00  0.00     0.057 A 
ATOM     63  C   UNL A   1      40.659  34.144  36.653  1.00  0.00     0.134 A 
ATOM     64  C   UNL A   1      38.964  32.614  37.373  1.00  0.00     0.134 A 
ATOM     65  F   UNL A   1      41.586  34.545  35.772  1.00  0.00    -0.206 F 
ATOM     66  C   UNL A   1      40.503  34.880  37.828  1.00  0.00     0.040 A 
ATOM     67  C   UNL A   1      38.781  33.354  38.541  1.00  0.00     0.040 A 
ATOM     68  F   UNL A   1      38.206  31.523  37.191  1.00  0.00    -0.206 F 
ATOM     69  C   UNL A   1      39.556  34.489  38.774  1.00  0.00     0.006 A 
ENDBRANCH  41  62
BRANCH  53  70
ATOM     70  C   UNL A   1      44.302  27.950  34.509  1.00  0.00     0.057 A 
ATOM     71  C   UNL A   1      45.589  28.501  34.524  1.00  0.00     0.134 A 
ATOM     72  C   UNL A   1      44.099  26.758  35.216  1.00  0.00     0.134 A 
ATOM     73  F   UNL A   1      45.851  29.634  33.855  1.00  0.00    -0.206 F 
ATOM     74  C   UNL A   1      46.639  27.882  35.203  1.00  0.00     0.040 A 
ATOM     75  C   UNL A   1      45.136  26.141  35.917  1.00  0.00     0.040 A 
ATOM     76  F   UNL A   1      42.888  26.182  35.246  1.00  0.00    -0.206 F 
ATOM     77  C   UNL A   1      46.412  26.699  35.907  1.00  0.00     0.006 A 
ENDBRANCH  53  70
ENDBRANCH  27  28
ENDBRANCH  20  22
ENDBRANCH  19  20
ENDBRANCH  18  19
ENDBRANCH   1  18
TORSDOF 15
ENDMDL
