MODEL 1
REMARK VINA RESULT:     -10.5      0.000      0.000
REMARK SMILES COC(=O)[C@@H]1CN(C(=O)N(CC(=O)OCCOC(=O)c2ccc(-c3c4nc(c(-c5c(F)cccc5F)c5ccc([nH]5)c(-c5c(F)cccc5F)c5nc(c(-c6c(F)cccc6F)c6ccc3[nH]6)C=C5)C=C4)cc2)C(C)(C)C)C[C@H]1C
REMARK SMILES IDX 14 1 12 2 13 3 11 4 10 5 8 6 9 7 7 8 5 9 6 10 79 11 78 12
REMARK SMILES IDX 80 13 3 14 4 15 2 16 1 17 74 18 75 19 76 20 77 21 15 22
REMARK SMILES IDX 16 23 17 24 18 25 19 26 20 27 21 28 73 29 22 30 72 31 23 32
REMARK SMILES IDX 24 33 25 34 66 35 26 36 71 37 65 38 67 39 27 40 70 41 64 42
REMARK SMILES IDX 63 43 28 45 54 46 37 47 53 48 38 49 41 50 52 51 68 52 39 53
REMARK SMILES IDX 40 54 51 56 69 57 42 58 29 59 30 60 35 61 31 62 32 63 34 64
REMARK SMILES IDX 36 65 33 66 55 67 56 68 61 69 57 70 58 71 60 72 62 73 59 74
REMARK SMILES IDX 43 75 44 76 49 77 45 78 46 79 48 80 50 81 47 82
REMARK H PARENT 67 44 41 55
REMARK Flexibility Score: inf
ROOT
ATOM      1  O   UNL A   1      32.430  29.818  27.181  1.00  0.00    -0.461 OA
ENDROOT
BRANCH   1   2
ATOM      2  C   UNL A   1      33.385  29.240  26.406  1.00  0.00     0.325 C 
ATOM      3  O   UNL A   1      34.313  28.557  26.835  1.00  0.00    -0.250 OA
BRANCH   2   4
ATOM      4  C   UNL A   1      33.194  29.468  24.905  1.00  0.00     0.244 C 
BRANCH   4   5
ATOM      5  N   UNL A   1      32.390  28.492  24.171  1.00  0.00    -0.309 N 
BRANCH   5   6
ATOM      6  C   UNL A   1      30.996  28.435  24.241  1.00  0.00     0.321 C 
ATOM      7  O   UNL A   1      30.443  27.485  24.803  1.00  0.00    -0.248 OA
BRANCH   6   8
ATOM      8  N   UNL A   1      30.190  29.408  23.687  1.00  0.00    -0.323 N 
ATOM      9  C   UNL A   1      28.488  31.077  23.314  1.00  0.00     0.123 C 
ATOM     10  C   UNL A   1      29.714  30.702  24.145  1.00  0.00     0.137 C 
ATOM     11  C   UNL A   1      28.240  29.836  22.432  1.00  0.00     0.021 C 
ATOM     12  C   UNL A   1      29.608  29.162  22.373  1.00  0.00     0.125 C 
ATOM     13  C   UNL A   1      27.210  28.900  23.069  1.00  0.00     0.010 C 
BRANCH   9  14
ATOM     14  C   UNL A   1      28.728  32.347  22.521  1.00  0.00     0.310 C 
ATOM     15  O   UNL A   1      28.975  33.421  23.062  1.00  0.00    -0.252 OA
BRANCH  14  16
ATOM     16  O   UNL A   1      28.707  32.265  21.166  1.00  0.00    -0.469 OA
ATOM     17  C   UNL A   1      27.610  32.671  20.330  1.00  0.00     0.282 C 
ENDBRANCH  14  16
ENDBRANCH   9  14
ENDBRANCH   6   8
ENDBRANCH   5   6
BRANCH   5  18
ATOM     18  C   UNL A   1      33.104  27.547  23.210  1.00  0.00     0.037 C 
ATOM     19  C   UNL A   1      34.117  28.316  22.332  1.00  0.00     0.034 C 
ATOM     20  C   UNL A   1      33.817  26.416  23.991  1.00  0.00     0.034 C 
ATOM     21  C   UNL A   1      32.168  26.817  22.208  1.00  0.00     0.034 C 
ENDBRANCH   5  18
ENDBRANCH   4   5
ENDBRANCH   2   4
ENDBRANCH   1   2
BRANCH   1  22
ATOM     22  C   UNL A   1      32.140  31.201  26.884  1.00  0.00     0.274 C 
BRANCH  22  23
ATOM     23  C   UNL A   1      33.090  32.130  27.640  1.00  0.00     0.275 C 
BRANCH  23  24
ATOM     24  O   UNL A   1      32.591  33.476  27.572  1.00  0.00    -0.458 OA
BRANCH  24  25
ATOM     25  C   UNL A   1      33.064  34.331  28.510  1.00  0.00     0.338 C 
ATOM     26  O   UNL A   1      32.488  35.303  28.965  1.00  0.00    -0.246 OA
BRANCH  25  27
ATOM     27  C   UNL A   1      34.401  33.891  28.978  1.00  0.00     0.060 A 
ATOM     28  C   UNL A   1      35.560  34.200  28.263  1.00  0.00     0.016 A 
ATOM     29  C   UNL A   1      34.492  33.063  30.098  1.00  0.00     0.016 A 
ATOM     30  C   UNL A   1      36.780  33.619  28.603  1.00  0.00     0.010 A 
ATOM     31  C   UNL A   1      35.737  32.567  30.503  1.00  0.00     0.010 A 
ATOM     32  C   UNL A   1      36.892  32.815  29.745  1.00  0.00    -0.014 A 
BRANCH  32  33
ATOM     33  C   UNL A   1      38.213  32.254  30.143  1.00  0.00     0.031 A 
ATOM     34  C   UNL A   1      38.721  30.971  29.538  1.00  0.00     0.074 A 
ATOM     35  C   UNL A   1      38.966  32.892  31.064  1.00  0.00     0.049 A 
ATOM     36  N   UNL A   1      39.767  30.258  29.873  1.00  0.00    -0.248 NA
ATOM     37  C   UNL A   1      37.944  30.405  28.423  1.00  0.00     0.031 C 
ATOM     38  C   UNL A   1      38.607  34.142  31.737  1.00  0.00     0.029 A 
ATOM     39  N   UNL A   1      40.195  32.577  31.588  1.00  0.00    -0.354 N 
ATOM     40  C   UNL A   1      39.736  29.130  29.062  1.00  0.00     0.074 A 
ATOM     41  C   UNL A   1      38.574  29.257  28.210  1.00  0.00     0.031 C 
ATOM     42  C   UNL A   1      39.609  34.511  32.548  1.00  0.00     0.029 A 
ATOM     43  C   UNL A   1      40.647  33.488  32.513  1.00  0.00     0.049 A 
ATOM     44  H   UNL A   1      40.704  31.776  31.327  1.00  0.00     0.167 HD
ATOM     45  C   UNL A   1      40.596  28.084  29.035  1.00  0.00     0.037 A 
ATOM     46  C   UNL A   1      41.755  33.488  33.277  1.00  0.00     0.037 A 
ATOM     47  C   UNL A   1      41.793  27.986  29.828  1.00  0.00     0.049 A 
ATOM     48  C   UNL A   1      42.713  32.339  33.195  1.00  0.00     0.074 A 
ATOM     49  C   UNL A   1      42.747  26.981  29.829  1.00  0.00     0.029 A 
ATOM     50  N   UNL A   1      42.214  28.934  30.747  1.00  0.00    -0.354 N 
ATOM     51  N   UNL A   1      42.646  31.264  32.451  1.00  0.00    -0.248 NA
ATOM     52  C   UNL A   1      43.888  32.394  34.074  1.00  0.00     0.031 C 
ATOM     53  C   UNL A   1      43.733  27.312  30.765  1.00  0.00     0.029 A 
ATOM     54  C   UNL A   1      43.408  28.536  31.324  1.00  0.00     0.049 A 
ATOM     55  H   UNL A   1      41.735  29.768  30.958  1.00  0.00     0.167 HD
ATOM     56  C   UNL A   1      43.764  30.509  32.777  1.00  0.00     0.074 A 
ATOM     57  C   UNL A   1      44.511  31.266  33.761  1.00  0.00     0.031 C 
ATOM     58  C   UNL A   1      44.132  29.292  32.312  1.00  0.00     0.037 A 
BRANCH  45  59
ATOM     59  C   UNL A   1      40.265  26.936  28.130  1.00  0.00     0.057 A 
ATOM     60  C   UNL A   1      40.797  26.829  26.839  1.00  0.00     0.134 A 
ATOM     61  C   UNL A   1      39.452  25.889  28.585  1.00  0.00     0.134 A 
ATOM     62  F   UNL A   1      41.571  27.804  26.341  1.00  0.00    -0.206 F 
ATOM     63  C   UNL A   1      40.524  25.725  26.029  1.00  0.00     0.040 A 
ATOM     64  C   UNL A   1      39.187  24.772  27.792  1.00  0.00     0.040 A 
ATOM     65  F   UNL A   1      38.916  25.930  29.814  1.00  0.00    -0.206 F 
ATOM     66  C   UNL A   1      39.723  24.688  26.509  1.00  0.00     0.006 A 
ENDBRANCH  45  59
BRANCH  46  67
ATOM     67  C   UNL A   1      41.998  34.612  34.214  1.00  0.00     0.057 A 
ATOM     68  C   UNL A   1      42.650  35.775  33.790  1.00  0.00     0.134 A 
ATOM     69  C   UNL A   1      41.573  34.554  35.547  1.00  0.00     0.134 A 
ATOM     70  F   UNL A   1      43.098  35.877  32.530  1.00  0.00    -0.206 F 
ATOM     71  C   UNL A   1      42.875  36.842  34.661  1.00  0.00     0.040 A 
ATOM     72  C   UNL A   1      41.771  35.622  36.422  1.00  0.00     0.040 A 
ATOM     73  F   UNL A   1      40.937  33.467  36.008  1.00  0.00    -0.206 F 
ATOM     74  C   UNL A   1      42.428  36.770  35.979  1.00  0.00     0.006 A 
ENDBRANCH  46  67
BRANCH  58  75
ATOM     75  C   UNL A   1      45.395  28.712  32.869  1.00  0.00     0.057 A 
ATOM     76  C   UNL A   1      45.382  27.886  33.999  1.00  0.00     0.134 A 
ATOM     77  C   UNL A   1      46.632  28.981  32.272  1.00  0.00     0.134 A 
ATOM     78  F   UNL A   1      44.228  27.606  34.624  1.00  0.00    -0.206 F 
ATOM     79  C   UNL A   1      46.562  27.366  34.534  1.00  0.00     0.040 A 
ATOM     80  C   UNL A   1      47.817  28.452  32.786  1.00  0.00     0.040 A 
ATOM     81  F   UNL A   1      46.709  29.762  31.185  1.00  0.00    -0.206 F 
ATOM     82  C   UNL A   1      47.784  27.648  33.925  1.00  0.00     0.006 A 
ENDBRANCH  58  75
ENDBRANCH  32  33
ENDBRANCH  25  27
ENDBRANCH  24  25
ENDBRANCH  23  24
ENDBRANCH  22  23
ENDBRANCH   1  22
TORSDOF 17
ENDMDL
MODEL 2
REMARK VINA RESULT:     -10.5      5.096      9.954
REMARK SMILES COC(=O)[C@@H]1CN(C(=O)N(CC(=O)OCCOC(=O)c2ccc(-c3c4nc(c(-c5c(F)cccc5F)c5ccc([nH]5)c(-c5c(F)cccc5F)c5nc(c(-c6c(F)cccc6F)c6ccc3[nH]6)C=C5)C=C4)cc2)C(C)(C)C)C[C@H]1C
REMARK SMILES IDX 14 1 12 2 13 3 11 4 10 5 8 6 9 7 7 8 5 9 6 10 79 11 78 12
REMARK SMILES IDX 80 13 3 14 4 15 2 16 1 17 74 18 75 19 76 20 77 21 15 22
REMARK SMILES IDX 16 23 17 24 18 25 19 26 20 27 21 28 73 29 22 30 72 31 23 32
REMARK SMILES IDX 24 33 25 34 66 35 26 36 71 37 65 38 67 39 27 40 70 41 64 42
REMARK SMILES IDX 63 43 28 45 54 46 37 47 53 48 38 49 41 50 52 51 68 52 39 53
REMARK SMILES IDX 40 54 51 56 69 57 42 58 29 59 30 60 35 61 31 62 32 63 34 64
REMARK SMILES IDX 36 65 33 66 55 67 56 68 61 69 57 70 58 71 60 72 62 73 59 74
REMARK SMILES IDX 43 75 44 76 49 77 45 78 46 79 48 80 50 81 47 82
REMARK H PARENT 67 44 41 55
REMARK Flexibility Score: inf
ROOT
ATOM      1  O   UNL A   1      38.441  21.817  25.583  1.00  0.00    -0.461 OA
ENDROOT
BRANCH   1   2
ATOM      2  C   UNL A   1      37.362  22.630  25.440  1.00  0.00     0.325 C 
ATOM      3  O   UNL A   1      37.158  23.641  26.109  1.00  0.00    -0.250 OA
BRANCH   2   4
ATOM      4  C   UNL A   1      36.409  22.212  24.320  1.00  0.00     0.244 C 
BRANCH   4   5
ATOM      5  N   UNL A   1      34.995  22.055  24.660  1.00  0.00    -0.309 N 
BRANCH   5   6
ATOM      6  C   UNL A   1      34.529  21.141  25.608  1.00  0.00     0.321 C 
ATOM      7  O   UNL A   1      34.381  21.489  26.784  1.00  0.00    -0.248 OA
BRANCH   6   8
ATOM      8  N   UNL A   1      34.231  19.833  25.286  1.00  0.00    -0.323 N 
ATOM      9  C   UNL A   1      34.041  17.703  24.169  1.00  0.00     0.123 C 
ATOM     10  C   UNL A   1      35.011  18.722  24.766  1.00  0.00     0.137 C 
ATOM     11  C   UNL A   1      32.662  18.383  24.288  1.00  0.00     0.021 C 
ATOM     12  C   UNL A   1      32.853  19.379  25.428  1.00  0.00     0.125 C 
ATOM     13  C   UNL A   1      32.293  19.116  22.995  1.00  0.00     0.010 C 
BRANCH   9  14
ATOM     14  C   UNL A   1      34.127  16.373  24.893  1.00  0.00     0.310 C 
ATOM     15  O   UNL A   1      35.100  15.632  24.792  1.00  0.00    -0.252 OA
BRANCH  14  16
ATOM     16  O   UNL A   1      33.099  16.027  25.711  1.00  0.00    -0.469 OA
ATOM     17  C   UNL A   1      32.285  14.851  25.564  1.00  0.00     0.282 C 
ENDBRANCH  14  16
ENDBRANCH   9  14
ENDBRANCH   6   8
ENDBRANCH   5   6
BRANCH   5  18
ATOM     18  C   UNL A   1      33.988  23.002  24.014  1.00  0.00     0.037 C 
ATOM     19  C   UNL A   1      32.714  23.126  24.879  1.00  0.00     0.034 C 
ATOM     20  C   UNL A   1      34.624  24.396  23.788  1.00  0.00     0.034 C 
ATOM     21  C   UNL A   1      33.488  22.555  22.613  1.00  0.00     0.034 C 
ENDBRANCH   5  18
ENDBRANCH   4   5
ENDBRANCH   2   4
ENDBRANCH   1   2
BRANCH   1  22
ATOM     22  C   UNL A   1      38.324  20.514  24.972  1.00  0.00     0.274 C 
BRANCH  22  23
ATOM     23  C   UNL A   1      39.170  19.484  25.721  1.00  0.00     0.275 C 
BRANCH  23  24
ATOM     24  O   UNL A   1      40.492  19.456  25.156  1.00  0.00    -0.458 OA
BRANCH  24  25
ATOM     25  C   UNL A   1      41.515  19.510  26.042  1.00  0.00     0.338 C 
ATOM     26  O   UNL A   1      42.244  18.591  26.369  1.00  0.00    -0.246 OA
BRANCH  25  27
ATOM     27  C   UNL A   1      41.684  20.896  26.547  1.00  0.00     0.060 A 
ATOM     28  C   UNL A   1      42.006  21.948  25.687  1.00  0.00     0.016 A 
ATOM     29  C   UNL A   1      41.625  21.132  27.921  1.00  0.00     0.016 A 
ATOM     30  C   UNL A   1      42.354  23.198  26.195  1.00  0.00     0.010 A 
ATOM     31  C   UNL A   1      41.869  22.416  28.422  1.00  0.00     0.010 A 
ATOM     32  C   UNL A   1      42.264  23.459  27.568  1.00  0.00    -0.014 A 
BRANCH  32  33
ATOM     33  C   UNL A   1      42.570  24.817  28.098  1.00  0.00     0.031 A 
ATOM     34  C   UNL A   1      43.978  25.202  28.470  1.00  0.00     0.074 A 
ATOM     35  C   UNL A   1      41.577  25.716  28.258  1.00  0.00     0.049 A 
ATOM     36  N   UNL A   1      44.405  26.276  29.086  1.00  0.00    -0.248 NA
ATOM     37  C   UNL A   1      45.045  24.248  28.123  1.00  0.00     0.031 C 
ATOM     38  C   UNL A   1      40.165  25.490  27.942  1.00  0.00     0.029 A 
ATOM     39  N   UNL A   1      41.606  27.008  28.723  1.00  0.00    -0.354 N 
ATOM     40  C   UNL A   1      45.772  26.098  29.260  1.00  0.00     0.074 A 
ATOM     41  C   UNL A   1      46.107  24.818  28.677  1.00  0.00     0.031 C 
ATOM     42  C   UNL A   1      39.472  26.613  28.177  1.00  0.00     0.029 A 
ATOM     43  C   UNL A   1      40.373  27.616  28.734  1.00  0.00     0.049 A 
ATOM     44  H   UNL A   1      42.430  27.456  29.020  1.00  0.00     0.167 HD
ATOM     45  C   UNL A   1      46.663  26.926  29.857  1.00  0.00     0.037 A 
ATOM     46  C   UNL A   1      39.995  28.831  29.173  1.00  0.00     0.037 A 
ATOM     47  C   UNL A   1      46.350  28.232  30.374  1.00  0.00     0.049 A 
ATOM     48  C   UNL A   1      41.011  29.745  29.788  1.00  0.00     0.074 A 
ATOM     49  C   UNL A   1      47.203  29.158  30.953  1.00  0.00     0.029 A 
ATOM     50  N   UNL A   1      45.090  28.808  30.358  1.00  0.00    -0.354 N 
ATOM     51  N   UNL A   1      42.290  29.543  29.980  1.00  0.00    -0.248 NA
ATOM     52  C   UNL A   1      40.525  31.046  30.267  1.00  0.00     0.031 C 
ATOM     53  C   UNL A   1      46.454  30.285  31.307  1.00  0.00     0.029 A 
ATOM     54  C   UNL A   1      45.141  30.073  30.922  1.00  0.00     0.049 A 
ATOM     55  H   UNL A   1      44.278  28.382  29.999  1.00  0.00     0.167 HD
ATOM     56  C   UNL A   1      42.763  30.687  30.609  1.00  0.00     0.074 A 
ATOM     57  C   UNL A   1      41.639  31.592  30.735  1.00  0.00     0.031 C 
ATOM     58  C   UNL A   1      44.013  30.956  31.054  1.00  0.00     0.037 A 
BRANCH  45  59
ATOM     59  C   UNL A   1      48.072  26.437  30.008  1.00  0.00     0.057 A 
ATOM     60  C   UNL A   1      48.492  25.712  31.129  1.00  0.00     0.134 A 
ATOM     61  C   UNL A   1      49.005  26.644  28.982  1.00  0.00     0.134 A 
ATOM     62  F   UNL A   1      47.650  25.494  32.150  1.00  0.00    -0.206 F 
ATOM     63  C   UNL A   1      49.793  25.217  31.230  1.00  0.00     0.040 A 
ATOM     64  C   UNL A   1      50.303  26.137  29.062  1.00  0.00     0.040 A 
ATOM     65  F   UNL A   1      48.663  27.328  27.880  1.00  0.00    -0.206 F 
ATOM     66  C   UNL A   1      50.700  25.422  30.190  1.00  0.00     0.006 A 
ENDBRANCH  45  59
BRANCH  46  67
ATOM     67  C   UNL A   1      38.573  29.237  29.070  1.00  0.00     0.057 A 
ATOM     68  C   UNL A   1      37.723  29.170  30.179  1.00  0.00     0.134 A 
ATOM     69  C   UNL A   1      38.037  29.714  27.868  1.00  0.00     0.134 A 
ATOM     70  F   UNL A   1      38.177  28.700  31.350  1.00  0.00    -0.206 F 
ATOM     71  C   UNL A   1      36.385  29.559  30.096  1.00  0.00     0.040 A 
ATOM     72  C   UNL A   1      36.708  30.129  27.777  1.00  0.00     0.040 A 
ATOM     73  F   UNL A   1      38.805  29.807  26.773  1.00  0.00    -0.206 F 
ATOM     74  C   UNL A   1      35.877  30.048  28.894  1.00  0.00     0.006 A 
ENDBRANCH  46  67
BRANCH  58  75
ATOM     75  C   UNL A   1      44.220  32.282  31.717  1.00  0.00     0.057 A 
ATOM     76  C   UNL A   1      44.569  33.420  30.980  1.00  0.00     0.134 A 
ATOM     77  C   UNL A   1      44.070  32.424  33.102  1.00  0.00     0.134 A 
ATOM     78  F   UNL A   1      44.743  33.343  29.652  1.00  0.00    -0.206 F 
ATOM     79  C   UNL A   1      44.787  34.651  31.602  1.00  0.00     0.040 A 
ATOM     80  C   UNL A   1      44.267  33.652  33.732  1.00  0.00     0.040 A 
ATOM     81  F   UNL A   1      43.733  31.372  33.862  1.00  0.00    -0.206 F 
ATOM     82  C   UNL A   1      44.634  34.770  32.982  1.00  0.00     0.006 A 
ENDBRANCH  58  75
ENDBRANCH  32  33
ENDBRANCH  25  27
ENDBRANCH  24  25
ENDBRANCH  23  24
ENDBRANCH  22  23
ENDBRANCH   1  22
TORSDOF 17
ENDMDL
MODEL 3
REMARK VINA RESULT:     -10.5      5.209      9.921
REMARK SMILES COC(=O)[C@@H]1CN(C(=O)N(CC(=O)OCCOC(=O)c2ccc(-c3c4nc(c(-c5c(F)cccc5F)c5ccc([nH]5)c(-c5c(F)cccc5F)c5nc(c(-c6c(F)cccc6F)c6ccc3[nH]6)C=C5)C=C4)cc2)C(C)(C)C)C[C@H]1C
REMARK SMILES IDX 14 1 12 2 13 3 11 4 10 5 8 6 9 7 7 8 5 9 6 10 79 11 78 12
REMARK SMILES IDX 80 13 3 14 4 15 2 16 1 17 74 18 75 19 76 20 77 21 15 22
REMARK SMILES IDX 16 23 17 24 18 25 19 26 20 27 21 28 73 29 22 30 72 31 23 32
REMARK SMILES IDX 24 33 25 34 66 35 26 36 71 37 65 38 67 39 27 40 70 41 64 42
REMARK SMILES IDX 63 43 28 45 54 46 37 47 53 48 38 49 41 50 52 51 68 52 39 53
REMARK SMILES IDX 40 54 51 56 69 57 42 58 29 59 30 60 35 61 31 62 32 63 34 64
REMARK SMILES IDX 36 65 33 66 55 67 56 68 61 69 57 70 58 71 60 72 62 73 59 74
REMARK SMILES IDX 43 75 44 76 49 77 45 78 46 79 48 80 50 81 47 82
REMARK H PARENT 67 44 41 55
REMARK Flexibility Score: inf
ROOT
ATOM      1  O   UNL A   1      37.562  21.384  24.516  1.00  0.00    -0.461 OA
ENDROOT
BRANCH   1   2
ATOM      2  C   UNL A   1      36.600  22.207  25.012  1.00  0.00     0.325 C 
ATOM      3  O   UNL A   1      36.718  22.880  26.034  1.00  0.00    -0.250 OA
BRANCH   2   4
ATOM      4  C   UNL A   1      35.334  22.276  24.157  1.00  0.00     0.244 C 
BRANCH   4   5
ATOM      5  N   UNL A   1      34.054  22.047  24.827  1.00  0.00    -0.309 N 
BRANCH   5   6
ATOM      6  C   UNL A   1      33.817  20.971  25.686  1.00  0.00     0.321 C 
ATOM      7  O   UNL A   1      33.632  21.170  26.891  1.00  0.00    -0.248 OA
BRANCH   6   8
ATOM      8  N   UNL A   1      33.793  19.665  25.243  1.00  0.00    -0.323 N 
ATOM      9  C   UNL A   1      34.126  17.636  23.981  1.00  0.00     0.123 C 
ATOM     10  C   UNL A   1      34.815  18.739  24.782  1.00  0.00     0.137 C 
ATOM     11  C   UNL A   1      32.650  18.078  23.926  1.00  0.00     0.021 C 
ATOM     12  C   UNL A   1      32.506  18.989  25.141  1.00  0.00     0.125 C 
ATOM     13  C   UNL A   1      32.351  18.852  22.639  1.00  0.00     0.010 C 
BRANCH   9  14
ATOM     14  C   UNL A   1      34.330  16.278  24.627  1.00  0.00     0.310 C 
ATOM     15  O   UNL A   1      35.366  15.979  25.213  1.00  0.00    -0.252 OA
BRANCH  14  16
ATOM     16  O   UNL A   1      33.303  15.392  24.581  1.00  0.00    -0.469 OA
ATOM     17  C   UNL A   1      32.509  14.987  25.710  1.00  0.00     0.282 C 
ENDBRANCH  14  16
ENDBRANCH   9  14
ENDBRANCH   6   8
ENDBRANCH   5   6
BRANCH   5  18
ATOM     18  C   UNL A   1      32.952  23.086  24.650  1.00  0.00     0.037 C 
ATOM     19  C   UNL A   1      31.557  22.442  24.811  1.00  0.00     0.034 C 
ATOM     20  C   UNL A   1      33.132  24.244  25.663  1.00  0.00     0.034 C 
ATOM     21  C   UNL A   1      32.927  23.770  23.256  1.00  0.00     0.034 C 
ENDBRANCH   5  18
ENDBRANCH   4   5
ENDBRANCH   2   4
ENDBRANCH   1   2
BRANCH   1  22
ATOM     22  C   UNL A   1      38.593  20.998  25.449  1.00  0.00     0.274 C 
BRANCH  22  23
ATOM     23  C   UNL A   1      39.167  19.628  25.088  1.00  0.00     0.275 C 
BRANCH  23  24
ATOM     24  O   UNL A   1      40.122  19.235  26.089  1.00  0.00    -0.458 OA
BRANCH  24  25
ATOM     25  C   UNL A   1      41.400  19.625  25.873  1.00  0.00     0.338 C 
ATOM     26  O   UNL A   1      42.252  19.013  25.254  1.00  0.00    -0.246 OA
BRANCH  25  27
ATOM     27  C   UNL A   1      41.632  20.970  26.456  1.00  0.00     0.060 A 
ATOM     28  C   UNL A   1      42.016  22.051  25.659  1.00  0.00     0.016 A 
ATOM     29  C   UNL A   1      41.569  21.132  27.840  1.00  0.00     0.016 A 
ATOM     30  C   UNL A   1      42.420  23.252  26.239  1.00  0.00     0.010 A 
ATOM     31  C   UNL A   1      41.871  22.373  28.414  1.00  0.00     0.010 A 
ATOM     32  C   UNL A   1      42.327  23.440  27.624  1.00  0.00    -0.014 A 
BRANCH  32  33
ATOM     33  C   UNL A   1      42.694  24.750  28.231  1.00  0.00     0.031 A 
ATOM     34  C   UNL A   1      41.642  25.786  28.528  1.00  0.00     0.074 A 
ATOM     35  C   UNL A   1      43.986  25.022  28.512  1.00  0.00     0.049 A 
ATOM     36  N   UNL A   1      41.793  27.030  28.909  1.00  0.00    -0.248 NA
ATOM     37  C   UNL A   1      40.237  25.379  28.358  1.00  0.00     0.031 C 
ATOM     38  C   UNL A   1      45.115  24.119  28.281  1.00  0.00     0.029 A 
ATOM     39  N   UNL A   1      44.566  26.139  29.061  1.00  0.00    -0.354 N 
ATOM     40  C   UNL A   1      40.515  27.572  28.958  1.00  0.00     0.074 A 
ATOM     41  C   UNL A   1      39.597  26.520  28.578  1.00  0.00     0.031 C 
ATOM     42  C   UNL A   1      46.241  24.696  28.725  1.00  0.00     0.029 A 
ATOM     43  C   UNL A   1      45.929  26.038  29.200  1.00  0.00     0.049 A 
ATOM     44  H   UNL A   1      44.054  26.936  29.330  1.00  0.00     0.167 HD
ATOM     45  C   UNL A   1      40.142  28.833  29.285  1.00  0.00     0.037 A 
ATOM     46  C   UNL A   1      46.838  26.934  29.629  1.00  0.00     0.037 A 
ATOM     47  C   UNL A   1      41.043  29.863  29.733  1.00  0.00     0.049 A 
ATOM     48  C   UNL A   1      46.393  28.308  30.027  1.00  0.00     0.074 A 
ATOM     49  C   UNL A   1      40.743  31.156  30.131  1.00  0.00     0.029 A 
ATOM     50  N   UNL A   1      42.414  29.714  29.864  1.00  0.00    -0.354 N 
ATOM     51  N   UNL A   1      45.185  28.814  30.029  1.00  0.00    -0.248 NA
ATOM     52  C   UNL A   1      47.440  29.241  30.463  1.00  0.00     0.031 C 
ATOM     53  C   UNL A   1      41.937  31.796  30.481  1.00  0.00     0.029 A 
ATOM     54  C   UNL A   1      42.975  30.892  30.330  1.00  0.00     0.049 A 
ATOM     55  H   UNL A   1      42.915  28.893  29.657  1.00  0.00     0.167 HD
ATOM     56  C   UNL A   1      45.326  30.127  30.457  1.00  0.00     0.074 A 
ATOM     57  C   UNL A   1      46.733  30.328  30.738  1.00  0.00     0.031 C 
ATOM     58  C   UNL A   1      44.377  31.083  30.591  1.00  0.00     0.037 A 
BRANCH  45  59
ATOM     59  C   UNL A   1      38.692  29.187  29.150  1.00  0.00     0.057 A 
ATOM     60  C   UNL A   1      37.812  29.147  30.237  1.00  0.00     0.134 A 
ATOM     61  C   UNL A   1      38.187  29.637  27.922  1.00  0.00     0.134 A 
ATOM     62  F   UNL A   1      38.231  28.712  31.434  1.00  0.00    -0.206 F 
ATOM     63  C   UNL A   1      36.476  29.533  30.107  1.00  0.00     0.040 A 
ATOM     64  C   UNL A   1      36.859  30.044  27.783  1.00  0.00     0.040 A 
ATOM     65  F   UNL A   1      38.981  29.702  26.843  1.00  0.00    -0.206 F 
ATOM     66  C   UNL A   1      36.000  29.991  28.879  1.00  0.00     0.006 A 
ENDBRANCH  45  59
BRANCH  46  67
ATOM     67  C   UNL A   1      48.272  26.559  29.672  1.00  0.00     0.057 A 
ATOM     68  C   UNL A   1      49.127  26.860  28.606  1.00  0.00     0.134 A 
ATOM     69  C   UNL A   1      48.821  25.906  30.782  1.00  0.00     0.134 A 
ATOM     70  F   UNL A   1      48.651  27.464  27.508  1.00  0.00    -0.206 F 
ATOM     71  C   UNL A   1      50.480  26.520  28.640  1.00  0.00     0.040 A 
ATOM     72  C   UNL A   1      50.176  25.581  30.839  1.00  0.00     0.040 A 
ATOM     73  F   UNL A   1      48.051  25.597  31.835  1.00  0.00    -0.206 F 
ATOM     74  C   UNL A   1      51.010  25.886  29.763  1.00  0.00     0.006 A 
ENDBRANCH  46  67
BRANCH  58  75
ATOM     75  C   UNL A   1      44.838  32.428  31.061  1.00  0.00     0.057 A 
ATOM     76  C   UNL A   1      44.913  32.738  32.424  1.00  0.00     0.134 A 
ATOM     77  C   UNL A   1      45.208  33.420  30.146  1.00  0.00     0.134 A 
ATOM     78  F   UNL A   1      44.556  31.833  33.348  1.00  0.00    -0.206 F 
ATOM     79  C   UNL A   1      45.318  34.000  32.861  1.00  0.00     0.040 A 
ATOM     80  C   UNL A   1      45.632  34.679  30.571  1.00  0.00     0.040 A 
ATOM     81  F   UNL A   1      45.162  33.182  28.826  1.00  0.00    -0.206 F 
ATOM     82  C   UNL A   1      45.681  34.975  31.933  1.00  0.00     0.006 A 
ENDBRANCH  58  75
ENDBRANCH  32  33
ENDBRANCH  25  27
ENDBRANCH  24  25
ENDBRANCH  23  24
ENDBRANCH  22  23
ENDBRANCH   1  22
TORSDOF 17
ENDMDL
