MODEL 1
REMARK VINA RESULT:     -11.3      0.000      0.000
REMARK SMILES CC[C@@H](C)[C@@H](NC(=O)Cn1ncc2ccccc2c1=O)C(=O)OCCOC(=O)c1ccc(-c2c3nc(c(-c4c(F)cccc4F)c4ccc([nH]4)c(-c4c(F)cccc4F)c4nc(c(-c5c(F)cccc5F)c5ccc2[nH]5)C=C4)C=C3)cc1
REMARK SMILES IDX 24 1 23 2 21 3 22 4 5 5 3 6 4 7 2 8 1 9 6 10 7 11 8 13 9 14
REMARK SMILES IDX 10 15 11 16 19 17 12 18 18 19 20 20 13 21 17 22 14 23 16 24
REMARK SMILES IDX 15 25 25 26 26 27 27 28 28 29 29 30 30 31 82 32 31 33 81 34
REMARK SMILES IDX 32 35 33 36 34 37 75 38 35 39 80 40 74 41 76 42 36 43 79 44
REMARK SMILES IDX 73 45 72 46 37 48 63 49 46 50 62 51 47 52 50 53 61 54 77 55
REMARK SMILES IDX 48 56 49 57 60 59 78 60 51 61 38 62 39 63 44 64 40 65 41 66
REMARK SMILES IDX 43 67 45 68 42 69 64 70 65 71 70 72 66 73 67 74 69 75 71 76
REMARK SMILES IDX 68 77 52 78 53 79 58 80 54 81 55 82 57 83 59 84 56 85
REMARK H PARENT 6 12 76 47 50 58
REMARK Flexibility Score: inf
ROOT
ATOM      1  C   UNL A   1      34.849  21.108  26.172  1.00  0.00     0.274 C 
ENDROOT
BRANCH   1   2
ATOM      2  O   UNL A   1      34.827  22.491  26.607  1.00  0.00    -0.461 OA
BRANCH   2   3
ATOM      3  C   UNL A   1      33.690  23.181  26.338  1.00  0.00     0.329 C 
ATOM      4  O   UNL A   1      32.579  22.841  26.744  1.00  0.00    -0.250 OA
BRANCH   3   5
ATOM      5  C   UNL A   1      33.844  24.378  25.372  1.00  0.00     0.195 C 
BRANCH   5   6
ATOM      6  C   UNL A   1      33.709  25.881  25.765  1.00  0.00     0.019 C 
ATOM      7  C   UNL A   1      32.347  26.246  26.349  1.00  0.00     0.010 C 
BRANCH   6   8
ATOM      8  C   UNL A   1      34.028  26.798  24.549  1.00  0.00     0.002 C 
ATOM      9  C   UNL A   1      33.618  28.256  24.749  1.00  0.00     0.004 C 
ENDBRANCH   6   8
ENDBRANCH   5   6
BRANCH   5  10
ATOM     10  N   UNL A   1      34.938  24.125  24.415  1.00  0.00    -0.341 N 
ATOM     11  C   UNL A   1      35.003  23.480  23.214  1.00  0.00     0.242 C 
ATOM     12  H   UNL A   1      35.803  24.499  24.703  1.00  0.00     0.164 HD
ATOM     13  O   UNL A   1      36.142  23.328  22.751  1.00  0.00    -0.273 OA
BRANCH  11  14
ATOM     14  C   UNL A   1      33.778  23.170  22.339  1.00  0.00     0.248 C 
BRANCH  14  15
ATOM     15  N   UNL A   1      32.541  23.927  22.481  1.00  0.00    -0.220 N 
ATOM     16  N   UNL A   1      31.514  23.358  23.177  1.00  0.00    -0.177 NA
ATOM     17  C   UNL A   1      32.469  25.203  21.913  1.00  0.00     0.275 A 
ATOM     18  C   UNL A   1      30.533  24.111  23.560  1.00  0.00     0.142 A 
ATOM     19  C   UNL A   1      31.342  26.052  22.357  1.00  0.00     0.050 A 
ATOM     20  O   UNL A   1      33.329  25.682  21.178  1.00  0.00    -0.267 OA
ATOM     21  C   UNL A   1      30.441  25.529  23.271  1.00  0.00     0.007 A 
ATOM     22  C   UNL A   1      31.252  27.400  22.001  1.00  0.00     0.014 A 
ATOM     23  C   UNL A   1      29.487  26.329  23.898  1.00  0.00     0.010 A 
ATOM     24  C   UNL A   1      30.284  28.211  22.602  1.00  0.00     0.001 A 
ATOM     25  C   UNL A   1      29.419  27.682  23.565  1.00  0.00     0.001 A 
ENDBRANCH  14  15
ENDBRANCH  11  14
ENDBRANCH   5  10
ENDBRANCH   3   5
ENDBRANCH   2   3
ENDBRANCH   1   2
BRANCH   1  26
ATOM     26  C   UNL A   1      36.093  20.804  25.343  1.00  0.00     0.275 C 
BRANCH  26  27
ATOM     27  O   UNL A   1      37.043  21.852  25.559  1.00  0.00    -0.458 OA
BRANCH  27  28
ATOM     28  C   UNL A   1      38.312  21.437  25.760  1.00  0.00     0.338 C 
ATOM     29  O   UNL A   1      38.823  20.383  25.436  1.00  0.00    -0.246 OA
BRANCH  28  30
ATOM     30  C   UNL A   1      39.042  22.592  26.283  1.00  0.00     0.060 A 
ATOM     31  C   UNL A   1      40.145  22.388  27.105  1.00  0.00     0.016 A 
ATOM     32  C   UNL A   1      38.583  23.879  25.984  1.00  0.00     0.016 A 
ATOM     33  C   UNL A   1      40.789  23.494  27.638  1.00  0.00     0.010 A 
ATOM     34  C   UNL A   1      39.237  24.987  26.503  1.00  0.00     0.010 A 
ATOM     35  C   UNL A   1      40.343  24.793  27.333  1.00  0.00    -0.014 A 
BRANCH  35  36
ATOM     36  C   UNL A   1      41.122  25.940  27.823  1.00  0.00     0.031 A 
ATOM     37  C   UNL A   1      42.543  26.131  27.411  1.00  0.00     0.074 A 
ATOM     38  C   UNL A   1      40.477  26.833  28.594  1.00  0.00     0.049 A 
ATOM     39  N   UNL A   1      43.296  27.191  27.546  1.00  0.00    -0.248 NA
ATOM     40  C   UNL A   1      43.211  24.988  26.771  1.00  0.00     0.031 C 
ATOM     41  C   UNL A   1      39.104  26.678  29.083  1.00  0.00     0.029 A 
ATOM     42  N   UNL A   1      40.866  28.055  29.060  1.00  0.00    -0.354 N 
ATOM     43  C   UNL A   1      44.516  26.858  26.977  1.00  0.00     0.074 A 
ATOM     44  C   UNL A   1      44.426  25.476  26.554  1.00  0.00     0.031 C 
ATOM     45  C   UNL A   1      38.743  27.795  29.729  1.00  0.00     0.029 A 
ATOM     46  C   UNL A   1      39.863  28.728  29.712  1.00  0.00     0.049 A 
ATOM     47  H   UNL A   1      41.775  28.417  28.942  1.00  0.00     0.167 HD
ATOM     48  C   UNL A   1      45.599  27.653  26.805  1.00  0.00     0.037 A 
ATOM     49  C   UNL A   1      39.849  29.975  30.211  1.00  0.00     0.037 A 
ATOM     50  C   UNL A   1      45.665  29.015  27.270  1.00  0.00     0.049 A 
ATOM     51  C   UNL A   1      41.074  30.824  30.029  1.00  0.00     0.074 A 
ATOM     52  C   UNL A   1      46.694  29.929  27.139  1.00  0.00     0.029 A 
ATOM     53  N   UNL A   1      44.652  29.654  27.978  1.00  0.00    -0.354 N 
ATOM     54  N   UNL A   1      42.191  30.540  29.403  1.00  0.00    -0.248 NA
ATOM     55  C   UNL A   1      41.031  32.169  30.612  1.00  0.00     0.031 C 
ATOM     56  C   UNL A   1      46.326  31.100  27.813  1.00  0.00     0.029 A 
ATOM     57  C   UNL A   1      45.045  30.937  28.317  1.00  0.00     0.049 A 
ATOM     58  H   UNL A   1      43.783  29.251  28.206  1.00  0.00     0.167 HD
ATOM     59  C   UNL A   1      42.983  31.675  29.504  1.00  0.00     0.074 A 
ATOM     60  C   UNL A   1      42.199  32.661  30.223  1.00  0.00     0.031 C 
ATOM     61  C   UNL A   1      44.243  31.886  29.049  1.00  0.00     0.037 A 
BRANCH  48  62
ATOM     62  C   UNL A   1      46.785  27.062  26.100  1.00  0.00     0.057 A 
ATOM     63  C   UNL A   1      46.936  27.190  24.714  1.00  0.00     0.134 A 
ATOM     64  C   UNL A   1      47.775  26.350  26.792  1.00  0.00     0.134 A 
ATOM     65  F   UNL A   1      46.026  27.852  23.986  1.00  0.00    -0.206 F 
ATOM     66  C   UNL A   1      48.031  26.636  24.044  1.00  0.00     0.040 A 
ATOM     67  C   UNL A   1      48.886  25.815  26.137  1.00  0.00     0.040 A 
ATOM     68  F   UNL A   1      47.697  26.198  28.124  1.00  0.00    -0.206 F 
ATOM     69  C   UNL A   1      49.014  25.953  24.757  1.00  0.00     0.006 A 
ENDBRANCH  48  62
BRANCH  49  70
ATOM     70  C   UNL A   1      38.636  30.494  30.888  1.00  0.00     0.057 A 
ATOM     71  C   UNL A   1      37.664  31.216  30.183  1.00  0.00     0.134 A 
ATOM     72  C   UNL A   1      38.416  30.282  32.254  1.00  0.00     0.134 A 
ATOM     73  F   UNL A   1      37.824  31.467  28.876  1.00  0.00    -0.206 F 
ATOM     74  C   UNL A   1      36.521  31.709  30.812  1.00  0.00     0.040 A 
ATOM     75  C   UNL A   1      37.263  30.746  32.889  1.00  0.00     0.040 A 
ATOM     76  F   UNL A   1      39.307  29.593  32.983  1.00  0.00    -0.206 F 
ATOM     77  C   UNL A   1      36.312  31.465  32.167  1.00  0.00     0.006 A 
ENDBRANCH  49  70
BRANCH  61  78
ATOM     78  C   UNL A   1      44.830  33.240  29.322  1.00  0.00     0.057 A 
ATOM     79  C   UNL A   1      44.628  34.299  28.427  1.00  0.00     0.134 A 
ATOM     80  C   UNL A   1      45.595  33.495  30.467  1.00  0.00     0.134 A 
ATOM     81  F   UNL A   1      43.911  34.117  27.307  1.00  0.00    -0.206 F 
ATOM     82  C   UNL A   1      45.162  35.565  28.664  1.00  0.00     0.040 A 
ATOM     83  C   UNL A   1      46.108  34.765  30.731  1.00  0.00     0.040 A 
ATOM     84  F   UNL A   1      45.809  32.528  31.372  1.00  0.00    -0.206 F 
ATOM     85  C   UNL A   1      45.897  35.803  29.826  1.00  0.00     0.006 A 
ENDBRANCH  61  78
ENDBRANCH  35  36
ENDBRANCH  28  30
ENDBRANCH  27  28
ENDBRANCH  26  27
ENDBRANCH   1  26
TORSDOF 16
ENDMDL
MODEL 2
REMARK VINA RESULT:     -11.1      3.818      8.602
REMARK SMILES CC[C@@H](C)[C@@H](NC(=O)Cn1ncc2ccccc2c1=O)C(=O)OCCOC(=O)c1ccc(-c2c3nc(c(-c4c(F)cccc4F)c4ccc([nH]4)c(-c4c(F)cccc4F)c4nc(c(-c5c(F)cccc5F)c5ccc2[nH]5)C=C4)C=C3)cc1
REMARK SMILES IDX 24 1 23 2 21 3 22 4 5 5 3 6 4 7 2 8 1 9 6 10 7 11 8 13 9 14
REMARK SMILES IDX 10 15 11 16 19 17 12 18 18 19 20 20 13 21 17 22 14 23 16 24
REMARK SMILES IDX 15 25 25 26 26 27 27 28 28 29 29 30 30 31 82 32 31 33 81 34
REMARK SMILES IDX 32 35 33 36 34 37 75 38 35 39 80 40 74 41 76 42 36 43 79 44
REMARK SMILES IDX 73 45 72 46 37 48 63 49 46 50 62 51 47 52 50 53 61 54 77 55
REMARK SMILES IDX 48 56 49 57 60 59 78 60 51 61 38 62 39 63 44 64 40 65 41 66
REMARK SMILES IDX 43 67 45 68 42 69 64 70 65 71 70 72 66 73 67 74 69 75 71 76
REMARK SMILES IDX 68 77 52 78 53 79 58 80 54 81 55 82 57 83 59 84 56 85
REMARK H PARENT 6 12 76 47 50 58
REMARK Flexibility Score: inf
ROOT
ATOM      1  C   UNL A   1      31.778  29.242  24.587  1.00  0.00     0.274 C 
ENDROOT
BRANCH   1   2
ATOM      2  O   UNL A   1      30.682  29.568  23.695  1.00  0.00    -0.461 OA
BRANCH   2   3
ATOM      3  C   UNL A   1      30.448  28.684  22.692  1.00  0.00     0.329 C 
ATOM      4  O   UNL A   1      29.912  28.993  21.629  1.00  0.00    -0.250 OA
BRANCH   3   5
ATOM      5  C   UNL A   1      30.786  27.209  23.005  1.00  0.00     0.195 C 
BRANCH   5   6
ATOM      6  C   UNL A   1      29.874  26.220  23.796  1.00  0.00     0.019 C 
ATOM      7  C   UNL A   1      28.397  26.605  23.789  1.00  0.00     0.010 C 
BRANCH   6   8
ATOM      8  C   UNL A   1      30.375  26.064  25.261  1.00  0.00     0.002 C 
ATOM      9  C   UNL A   1      30.632  24.616  25.675  1.00  0.00     0.004 C 
ENDBRANCH   6   8
ENDBRANCH   5   6
BRANCH   5  10
ATOM     10  N   UNL A   1      31.455  26.582  21.850  1.00  0.00    -0.341 N 
ATOM     11  C   UNL A   1      32.708  26.077  21.652  1.00  0.00     0.242 C 
ATOM     12  H   UNL A   1      30.879  26.514  21.054  1.00  0.00     0.164 HD
ATOM     13  O   UNL A   1      32.977  25.760  20.485  1.00  0.00    -0.273 OA
BRANCH  11  14
ATOM     14  C   UNL A   1      33.660  25.675  22.789  1.00  0.00     0.248 C 
BRANCH  14  15
ATOM     15  N   UNL A   1      33.970  24.275  23.051  1.00  0.00    -0.220 N 
ATOM     16  N   UNL A   1      35.269  23.940  23.303  1.00  0.00    -0.177 NA
ATOM     17  C   UNL A   1      32.925  23.346  23.046  1.00  0.00     0.275 A 
ATOM     18  C   UNL A   1      35.521  22.777  23.816  1.00  0.00     0.142 A 
ATOM     19  C   UNL A   1      33.227  22.022  23.633  1.00  0.00     0.050 A 
ATOM     20  O   UNL A   1      31.775  23.603  22.699  1.00  0.00    -0.267 OA
ATOM     21  C   UNL A   1      34.503  21.789  24.118  1.00  0.00     0.007 A 
ATOM     22  C   UNL A   1      32.228  21.069  23.847  1.00  0.00     0.014 A 
ATOM     23  C   UNL A   1      34.803  20.657  24.874  1.00  0.00     0.010 A 
ATOM     24  C   UNL A   1      32.519  19.915  24.582  1.00  0.00     0.001 A 
ATOM     25  C   UNL A   1      33.798  19.722  25.114  1.00  0.00     0.001 A 
ENDBRANCH  14  15
ENDBRANCH  11  14
ENDBRANCH   5  10
ENDBRANCH   3   5
ENDBRANCH   2   3
ENDBRANCH   1   2
BRANCH   1  26
ATOM     26  C   UNL A   1      31.786  30.147  25.814  1.00  0.00     0.275 C 
BRANCH  26  27
ATOM     27  O   UNL A   1      33.145  30.450  26.142  1.00  0.00    -0.458 OA
BRANCH  27  28
ATOM     28  C   UNL A   1      33.310  31.487  26.990  1.00  0.00     0.338 C 
ATOM     29  O   UNL A   1      32.528  32.380  27.252  1.00  0.00    -0.246 OA
BRANCH  28  30
ATOM     30  C   UNL A   1      34.559  31.233  27.709  1.00  0.00     0.060 A 
ATOM     31  C   UNL A   1      34.826  29.954  28.184  1.00  0.00     0.016 A 
ATOM     32  C   UNL A   1      35.436  32.297  27.944  1.00  0.00     0.016 A 
ATOM     33  C   UNL A   1      35.987  29.746  28.912  1.00  0.00     0.010 A 
ATOM     34  C   UNL A   1      36.607  32.086  28.658  1.00  0.00     0.010 A 
ATOM     35  C   UNL A   1      36.881  30.807  29.144  1.00  0.00    -0.014 A 
BRANCH  35  36
ATOM     36  C   UNL A   1      38.156  30.520  29.819  1.00  0.00     0.031 A 
ATOM     37  C   UNL A   1      38.404  30.984  31.215  1.00  0.00     0.074 A 
ATOM     38  C   UNL A   1      39.047  29.769  29.149  1.00  0.00     0.049 A 
ATOM     39  N   UNL A   1      39.353  30.623  32.038  1.00  0.00    -0.248 NA
ATOM     40  C   UNL A   1      37.475  31.986  31.760  1.00  0.00     0.031 C 
ATOM     41  C   UNL A   1      38.894  29.331  27.759  1.00  0.00     0.029 A 
ATOM     42  N   UNL A   1      40.225  29.208  29.552  1.00  0.00    -0.354 N 
ATOM     43  C   UNL A   1      39.117  31.325  33.212  1.00  0.00     0.074 A 
ATOM     44  C   UNL A   1      37.976  32.183  32.972  1.00  0.00     0.031 C 
ATOM     45  C   UNL A   1      39.909  28.514  27.445  1.00  0.00     0.029 A 
ATOM     46  C   UNL A   1      40.786  28.392  28.603  1.00  0.00     0.049 A 
ATOM     47  H   UNL A   1      40.631  29.373  30.435  1.00  0.00     0.167 HD
ATOM     48  C   UNL A   1      39.786  31.232  34.385  1.00  0.00     0.037 A 
ATOM     49  C   UNL A   1      41.876  27.609  28.679  1.00  0.00     0.037 A 
ATOM     50  C   UNL A   1      40.941  30.391  34.576  1.00  0.00     0.049 A 
ATOM     51  C   UNL A   1      42.613  27.547  29.985  1.00  0.00     0.074 A 
ATOM     52  C   UNL A   1      41.691  30.194  35.720  1.00  0.00     0.029 A 
ATOM     53  N   UNL A   1      41.522  29.616  33.578  1.00  0.00    -0.354 N 
ATOM     54  N   UNL A   1      42.330  28.136  31.123  1.00  0.00    -0.248 NA
ATOM     55  C   UNL A   1      43.812  26.704  30.022  1.00  0.00     0.031 C 
ATOM     56  C   UNL A   1      42.757  29.343  35.401  1.00  0.00     0.029 A 
ATOM     57  C   UNL A   1      42.640  28.965  34.072  1.00  0.00     0.049 A 
ATOM     58  H   UNL A   1      41.188  29.543  32.655  1.00  0.00     0.167 HD
ATOM     59  C   UNL A   1      43.308  27.726  32.017  1.00  0.00     0.074 A 
ATOM     60  C   UNL A   1      44.170  26.811  31.293  1.00  0.00     0.031 C 
ATOM     61  C   UNL A   1      43.485  28.073  33.317  1.00  0.00     0.037 A 
BRANCH  48  62
ATOM     62  C   UNL A   1      39.289  32.064  35.531  1.00  0.00     0.057 A 
ATOM     63  C   UNL A   1      38.392  31.537  36.469  1.00  0.00     0.134 A 
ATOM     64  C   UNL A   1      39.687  33.398  35.701  1.00  0.00     0.134 A 
ATOM     65  F   UNL A   1      37.965  30.270  36.367  1.00  0.00    -0.206 F 
ATOM     66  C   UNL A   1      37.915  32.304  37.534  1.00  0.00     0.040 A 
ATOM     67  C   UNL A   1      39.236  34.166  36.777  1.00  0.00     0.040 A 
ATOM     68  F   UNL A   1      40.552  33.964  34.844  1.00  0.00    -0.206 F 
ATOM     69  C   UNL A   1      38.343  33.620  37.696  1.00  0.00     0.006 A 
ENDBRANCH  48  62
BRANCH  49  70
ATOM     70  C   UNL A   1      42.301  26.808  27.506  1.00  0.00     0.057 A 
ATOM     71  C   UNL A   1      41.899  25.475  27.353  1.00  0.00     0.134 A 
ATOM     72  C   UNL A   1      43.121  27.351  26.510  1.00  0.00     0.134 A 
ATOM     73  F   UNL A   1      41.127  24.890  28.281  1.00  0.00    -0.206 F 
ATOM     74  C   UNL A   1      42.295  24.713  26.254  1.00  0.00     0.040 A 
ATOM     75  C   UNL A   1      43.501  26.608  25.391  1.00  0.00     0.040 A 
ATOM     76  F   UNL A   1      43.536  28.624  26.596  1.00  0.00    -0.206 F 
ATOM     77  C   UNL A   1      43.090  25.283  25.263  1.00  0.00     0.006 A 
ENDBRANCH  49  70
BRANCH  61  78
ATOM     78  C   UNL A   1      44.653  27.448  34.019  1.00  0.00     0.057 A 
ATOM     79  C   UNL A   1      45.897  28.090  34.047  1.00  0.00     0.134 A 
ATOM     80  C   UNL A   1      44.547  26.209  34.666  1.00  0.00     0.134 A 
ATOM     81  F   UNL A   1      46.066  29.275  33.440  1.00  0.00    -0.206 F 
ATOM     82  C   UNL A   1      46.994  27.525  34.697  1.00  0.00     0.040 A 
ATOM     83  C   UNL A   1      45.629  25.649  35.347  1.00  0.00     0.040 A 
ATOM     84  F   UNL A   1      43.378  25.552  34.691  1.00  0.00    -0.206 F 
ATOM     85  C   UNL A   1      46.858  26.306  35.359  1.00  0.00     0.006 A 
ENDBRANCH  61  78
ENDBRANCH  35  36
ENDBRANCH  28  30
ENDBRANCH  27  28
ENDBRANCH  26  27
ENDBRANCH   1  26
TORSDOF 16
ENDMDL
MODEL 3
REMARK VINA RESULT:     -11.0      1.363      2.741
REMARK SMILES CC[C@@H](C)[C@@H](NC(=O)Cn1ncc2ccccc2c1=O)C(=O)OCCOC(=O)c1ccc(-c2c3nc(c(-c4c(F)cccc4F)c4ccc([nH]4)c(-c4c(F)cccc4F)c4nc(c(-c5c(F)cccc5F)c5ccc2[nH]5)C=C4)C=C3)cc1
REMARK SMILES IDX 24 1 23 2 21 3 22 4 5 5 3 6 4 7 2 8 1 9 6 10 7 11 8 13 9 14
REMARK SMILES IDX 10 15 11 16 19 17 12 18 18 19 20 20 13 21 17 22 14 23 16 24
REMARK SMILES IDX 15 25 25 26 26 27 27 28 28 29 29 30 30 31 82 32 31 33 81 34
REMARK SMILES IDX 32 35 33 36 34 37 75 38 35 39 80 40 74 41 76 42 36 43 79 44
REMARK SMILES IDX 73 45 72 46 37 48 63 49 46 50 62 51 47 52 50 53 61 54 77 55
REMARK SMILES IDX 48 56 49 57 60 59 78 60 51 61 38 62 39 63 44 64 40 65 41 66
REMARK SMILES IDX 43 67 45 68 42 69 64 70 65 71 70 72 66 73 67 74 69 75 71 76
REMARK SMILES IDX 68 77 52 78 53 79 58 80 54 81 55 82 57 83 59 84 56 85
REMARK H PARENT 6 12 76 47 50 58
REMARK Flexibility Score: inf
ROOT
ATOM      1  C   UNL A   1      35.257  20.816  25.531  1.00  0.00     0.274 C 
ENDROOT
BRANCH   1   2
ATOM      2  O   UNL A   1      34.346  20.023  24.729  1.00  0.00    -0.461 OA
BRANCH   2   3
ATOM      3  C   UNL A   1      33.024  20.197  24.982  1.00  0.00     0.329 C 
ATOM      4  O   UNL A   1      32.286  19.295  25.376  1.00  0.00    -0.250 OA
BRANCH   3   5
ATOM      5  C   UNL A   1      32.450  21.588  24.628  1.00  0.00     0.195 C 
BRANCH   5   6
ATOM      6  C   UNL A   1      32.203  22.123  23.184  1.00  0.00     0.019 C 
ATOM      7  C   UNL A   1      31.871  21.032  22.170  1.00  0.00     0.010 C 
BRANCH   6   8
ATOM      8  C   UNL A   1      33.422  22.954  22.690  1.00  0.00     0.002 C 
ATOM      9  C   UNL A   1      34.079  23.797  23.781  1.00  0.00     0.004 C 
ENDBRANCH   6   8
ENDBRANCH   5   6
BRANCH   5  10
ATOM     10  N   UNL A   1      31.379  21.954  25.574  1.00  0.00    -0.341 N 
ATOM     11  C   UNL A   1      31.251  22.936  26.512  1.00  0.00     0.242 C 
ATOM     12  H   UNL A   1      30.590  21.366  25.517  1.00  0.00     0.164 HD
ATOM     13  O   UNL A   1      30.255  22.850  27.244  1.00  0.00    -0.273 OA
BRANCH  11  14
ATOM     14  C   UNL A   1      32.108  24.212  26.541  1.00  0.00     0.248 C 
BRANCH  14  15
ATOM     15  N   UNL A   1      31.550  25.501  26.152  1.00  0.00    -0.220 N 
ATOM     16  N   UNL A   1      31.779  26.573  26.966  1.00  0.00    -0.177 NA
ATOM     17  C   UNL A   1      30.821  25.583  24.962  1.00  0.00     0.275 A 
ATOM     18  C   UNL A   1      31.550  27.761  26.504  1.00  0.00     0.142 A 
ATOM     19  C   UNL A   1      30.564  26.946  24.447  1.00  0.00     0.050 A 
ATOM     20  O   UNL A   1      30.497  24.613  24.283  1.00  0.00    -0.267 OA
ATOM     21  C   UNL A   1      31.034  28.027  25.175  1.00  0.00     0.007 A 
ATOM     22  C   UNL A   1      30.002  27.161  23.186  1.00  0.00     0.014 A 
ATOM     23  C   UNL A   1      31.023  29.320  24.654  1.00  0.00     0.010 A 
ATOM     24  C   UNL A   1      29.961  28.456  22.660  1.00  0.00     0.001 A 
ATOM     25  C   UNL A   1      30.491  29.529  23.382  1.00  0.00     0.001 A 
ENDBRANCH  14  15
ENDBRANCH  11  14
ENDBRANCH   5  10
ENDBRANCH   3   5
ENDBRANCH   2   3
ENDBRANCH   1   2
BRANCH   1  26
ATOM     26  C   UNL A   1      36.698  20.656  25.061  1.00  0.00     0.275 C 
BRANCH  26  27
ATOM     27  O   UNL A   1      37.494  21.661  25.696  1.00  0.00    -0.458 OA
BRANCH  27  28
ATOM     28  C   UNL A   1      38.755  21.285  25.997  1.00  0.00     0.338 C 
ATOM     29  O   UNL A   1      39.300  20.222  25.771  1.00  0.00    -0.246 OA
BRANCH  28  30
ATOM     30  C   UNL A   1      39.434  22.485  26.485  1.00  0.00     0.060 A 
ATOM     31  C   UNL A   1      40.474  22.356  27.400  1.00  0.00     0.016 A 
ATOM     32  C   UNL A   1      38.990  23.740  26.058  1.00  0.00     0.016 A 
ATOM     33  C   UNL A   1      41.068  23.507  27.896  1.00  0.00     0.010 A 
ATOM     34  C   UNL A   1      39.595  24.892  26.539  1.00  0.00     0.010 A 
ATOM     35  C   UNL A   1      40.636  24.774  27.462  1.00  0.00    -0.014 A 
BRANCH  35  36
ATOM     36  C   UNL A   1      41.368  25.963  27.922  1.00  0.00     0.031 A 
ATOM     37  C   UNL A   1      42.768  26.220  27.475  1.00  0.00     0.074 A 
ATOM     38  C   UNL A   1      40.697  26.832  28.698  1.00  0.00     0.049 A 
ATOM     39  N   UNL A   1      43.469  27.318  27.582  1.00  0.00    -0.248 NA
ATOM     40  C   UNL A   1      43.478  25.105  26.831  1.00  0.00     0.031 C 
ATOM     41  C   UNL A   1      39.345  26.614  29.221  1.00  0.00     0.029 A 
ATOM     42  N   UNL A   1      41.034  28.078  29.143  1.00  0.00    -0.354 N 
ATOM     43  C   UNL A   1      44.691  27.040  26.988  1.00  0.00     0.074 A 
ATOM     44  C   UNL A   1      44.661  25.651  26.582  1.00  0.00     0.031 C 
ATOM     45  C   UNL A   1      38.943  27.720  29.863  1.00  0.00     0.029 A 
ATOM     46  C   UNL A   1      40.014  28.707  29.811  1.00  0.00     0.049 A 
ATOM     47  H   UNL A   1      41.921  28.483  29.000  1.00  0.00     0.167 HD
ATOM     48  C   UNL A   1      45.729  27.886  26.783  1.00  0.00     0.037 A 
ATOM     49  C   UNL A   1      39.949  29.957  30.298  1.00  0.00     0.037 A 
ATOM     50  C   UNL A   1      45.737  29.255  27.233  1.00  0.00     0.049 A 
ATOM     51  C   UNL A   1      41.125  30.864  30.079  1.00  0.00     0.074 A 
ATOM     52  C   UNL A   1      46.715  30.217  27.068  1.00  0.00     0.029 A 
ATOM     53  N   UNL A   1      44.710  29.850  27.957  1.00  0.00    -0.354 N 
ATOM     54  N   UNL A   1      42.241  30.629  29.430  1.00  0.00    -0.248 NA
ATOM     55  C   UNL A   1      41.028  32.212  30.648  1.00  0.00     0.031 C 
ATOM     56  C   UNL A   1      46.305  31.377  27.738  1.00  0.00     0.029 A 
ATOM     57  C   UNL A   1      45.046  31.155  28.274  1.00  0.00     0.049 A 
ATOM     58  H   UNL A   1      43.868  29.407  28.209  1.00  0.00     0.167 HD
ATOM     59  C   UNL A   1      42.976  31.803  29.500  1.00  0.00     0.074 A 
ATOM     60  C   UNL A   1      42.160  32.757  30.228  1.00  0.00     0.031 C 
ATOM     61  C   UNL A   1      44.214  32.072  29.015  1.00  0.00     0.037 A 
BRANCH  48  62
ATOM     62  C   UNL A   1      46.927  27.347  26.057  1.00  0.00     0.057 A 
ATOM     63  C   UNL A   1      47.981  26.743  26.753  1.00  0.00     0.134 A 
ATOM     64  C   UNL A   1      47.044  27.436  24.662  1.00  0.00     0.134 A 
ATOM     65  F   UNL A   1      47.939  26.628  28.088  1.00  0.00    -0.206 F 
ATOM     66  C   UNL A   1      49.105  26.246  26.089  1.00  0.00     0.040 A 
ATOM     67  C   UNL A   1      48.151  26.918  23.986  1.00  0.00     0.040 A 
ATOM     68  F   UNL A   1      46.066  27.993  23.931  1.00  0.00    -0.206 F 
ATOM     69  C   UNL A   1      49.189  26.325  24.701  1.00  0.00     0.006 A 
ENDBRANCH  48  62
BRANCH  49  70
ATOM     70  C   UNL A   1      38.726  30.422  30.997  1.00  0.00     0.057 A 
ATOM     71  C   UNL A   1      38.564  30.236  32.377  1.00  0.00     0.134 A 
ATOM     72  C   UNL A   1      37.691  31.062  30.308  1.00  0.00     0.134 A 
ATOM     73  F   UNL A   1      39.513  29.614  33.092  1.00  0.00    -0.206 F 
ATOM     74  C   UNL A   1      37.418  30.668  33.043  1.00  0.00     0.040 A 
ATOM     75  C   UNL A   1      36.551  31.525  30.967  1.00  0.00     0.040 A 
ATOM     76  F   UNL A   1      37.788  31.275  28.987  1.00  0.00    -0.206 F 
ATOM     77  C   UNL A   1      36.411  31.325  32.340  1.00  0.00     0.006 A 
ENDBRANCH  49  70
BRANCH  61  78
ATOM     78  C   UNL A   1      44.738  33.456  29.259  1.00  0.00     0.057 A 
ATOM     79  C   UNL A   1      45.503  33.739  30.398  1.00  0.00     0.134 A 
ATOM     80  C   UNL A   1      44.484  34.509  28.370  1.00  0.00     0.134 A 
ATOM     81  F   UNL A   1      45.775  32.777  31.293  1.00  0.00    -0.206 F 
ATOM     82  C   UNL A   1      46.000  35.020  30.641  1.00  0.00     0.040 A 
ATOM     83  C   UNL A   1      45.003  35.785  28.585  1.00  0.00     0.040 A 
ATOM     84  F   UNL A   1      43.773  34.297  27.251  1.00  0.00    -0.206 F 
ATOM     85  C   UNL A   1      45.759  36.045  29.727  1.00  0.00     0.006 A 
ENDBRANCH  61  78
ENDBRANCH  35  36
ENDBRANCH  28  30
ENDBRANCH  27  28
ENDBRANCH  26  27
ENDBRANCH   1  26
TORSDOF 16
ENDMDL
