MODEL 1
REMARK VINA RESULT:      -9.8      0.000      0.000
REMARK SMILES CCN(C(=O)C[NH2+][C@@](C)(C(=O)OCCOC(=O)c1ccc(-c2c3nc(c(-c4c(F)cccc4F)c4ccc([nH]4)c(-c4c(F)cccc4F)c4nc(c(-c5c(F)cccc5F)c5ccc2[nH]5)C=C4)C=C3)cc1)C(F)(F)F)C1CC1
REMARK SMILES IDX 12 1 10 2 11 3 8 4 9 5 7 6 6 9 4 10 5 11 3 12 2 13 1 14
REMARK SMILES IDX 76 15 77 16 78 17 72 18 73 19 74 20 75 21 13 22 14 23 15 24
REMARK SMILES IDX 16 25 17 26 18 27 19 28 71 29 20 30 70 31 21 32 22 33 23 34
REMARK SMILES IDX 64 35 24 36 69 37 63 38 65 39 25 40 68 41 62 42 61 43 26 45
REMARK SMILES IDX 52 46 35 47 51 48 36 49 39 50 50 51 66 52 37 53 38 54 49 56
REMARK SMILES IDX 67 57 40 58 27 59 28 60 33 61 29 62 30 63 32 64 34 65 31 66
REMARK SMILES IDX 53 67 54 68 59 69 55 70 56 71 58 72 60 73 57 74 41 75 42 76
REMARK SMILES IDX 47 77 43 78 44 79 46 80 48 81 45 82
REMARK H PARENT 7 7 7 8 65 44 39 55
REMARK Flexibility Score: inf
ROOT
ATOM      1  O   UNL A   1      34.525  22.764  24.890  1.00  0.00    -0.457 OA
ENDROOT
BRANCH   1   2
ATOM      2  C   UNL A   1      34.210  23.316  23.677  1.00  0.00     0.377 C 
ATOM      3  O   UNL A   1      34.940  23.242  22.695  1.00  0.00    -0.244 OA
BRANCH   2   4
ATOM      4  C   UNL A   1      32.908  24.142  23.734  1.00  0.00     0.287 C 
ATOM      5  C   UNL A   1      32.957  25.073  22.512  1.00  0.00     0.103 C 
BRANCH   4   6
ATOM      6  N   UNL A   1      32.890  24.945  25.015  1.00  0.00    -0.317 N 
ATOM      7  H   UNL A   1      31.954  24.887  25.416  1.00  0.00     0.347 HD
ATOM      8  H   UNL A   1      33.605  24.545  25.623  1.00  0.00     0.347 HD
BRANCH   6   9
ATOM      9  C   UNL A   1      33.230  26.363  24.838  1.00  0.00     0.363 C 
BRANCH   9  10
ATOM     10  C   UNL A   1      32.073  27.242  25.324  1.00  0.00     0.277 C 
ATOM     11  O   UNL A   1      31.294  26.794  26.171  1.00  0.00    -0.268 OA
BRANCH  10  12
ATOM     12  N   UNL A   1      31.972  28.535  24.812  1.00  0.00    -0.335 N 
BRANCH  12  13
ATOM     13  C   UNL A   1      32.665  29.708  25.368  1.00  0.00     0.116 C 
ATOM     14  C   UNL A   1      31.781  30.493  26.329  1.00  0.00     0.027 C 
ENDBRANCH  12  13
BRANCH  12  15
ATOM     15  C   UNL A   1      31.298  28.729  23.546  1.00  0.00     0.085 C 
ATOM     16  C   UNL A   1      30.290  27.733  23.028  1.00  0.00     0.027 C 
ATOM     17  C   UNL A   1      29.831  29.079  23.491  1.00  0.00     0.027 C 
ENDBRANCH  12  15
ENDBRANCH  10  12
ENDBRANCH   9  10
ENDBRANCH   6   9
ENDBRANCH   4   6
BRANCH   4  18
ATOM     18  C   UNL A   1      31.737  23.141  23.564  1.00  0.00     0.455 C 
ATOM     19  F   UNL A   1      31.359  22.611  24.750  1.00  0.00    -0.164 F 
ATOM     20  F   UNL A   1      30.639  23.779  23.072  1.00  0.00    -0.164 F 
ATOM     21  F   UNL A   1      31.987  22.125  22.716  1.00  0.00    -0.164 F 
ENDBRANCH   4  18
ENDBRANCH   2   4
ENDBRANCH   1   2
BRANCH   1  22
ATOM     22  C   UNL A   1      34.425  21.327  25.000  1.00  0.00     0.274 C 
BRANCH  22  23
ATOM     23  C   UNL A   1      35.817  20.702  25.038  1.00  0.00     0.275 C 
BRANCH  23  24
ATOM     24  O   UNL A   1      36.736  21.672  25.562  1.00  0.00    -0.458 OA
BRANCH  24  25
ATOM     25  C   UNL A   1      38.032  21.292  25.642  1.00  0.00     0.338 C 
ATOM     26  O   UNL A   1      38.502  20.201  25.379  1.00  0.00    -0.246 OA
BRANCH  25  27
ATOM     27  C   UNL A   1      38.830  22.438  26.126  1.00  0.00     0.060 A 
ATOM     28  C   UNL A   1      40.048  22.225  26.770  1.00  0.00     0.016 A 
ATOM     29  C   UNL A   1      38.342  23.735  25.978  1.00  0.00     0.016 A 
ATOM     30  C   UNL A   1      40.757  23.292  27.315  1.00  0.00     0.010 A 
ATOM     31  C   UNL A   1      39.104  24.816  26.437  1.00  0.00     0.010 A 
ATOM     32  C   UNL A   1      40.318  24.604  27.117  1.00  0.00    -0.014 A 
BRANCH  32  33
ATOM     33  C   UNL A   1      41.130  25.757  27.592  1.00  0.00     0.031 A 
ATOM     34  C   UNL A   1      40.508  26.816  28.455  1.00  0.00     0.074 A 
ATOM     35  C   UNL A   1      42.423  25.870  27.227  1.00  0.00     0.049 A 
ATOM     36  N   UNL A   1      40.962  28.004  28.762  1.00  0.00    -0.248 NA
ATOM     37  C   UNL A   1      39.196  26.503  29.043  1.00  0.00     0.031 C 
ATOM     38  C   UNL A   1      43.174  24.892  26.436  1.00  0.00     0.029 A 
ATOM     39  N   UNL A   1      43.336  26.867  27.469  1.00  0.00    -0.354 N 
ATOM     40  C   UNL A   1      39.969  28.603  29.527  1.00  0.00     0.074 A 
ATOM     41  C   UNL A   1      38.891  27.644  29.648  1.00  0.00     0.031 C 
ATOM     42  C   UNL A   1      44.434  25.323  26.279  1.00  0.00     0.029 A 
ATOM     43  C   UNL A   1      44.554  26.650  26.872  1.00  0.00     0.049 A 
ATOM     44  H   UNL A   1      43.137  27.661  28.016  1.00  0.00     0.167 HD
ATOM     45  C   UNL A   1      39.960  29.842  30.072  1.00  0.00     0.037 A 
ATOM     46  C   UNL A   1      45.631  27.448  26.757  1.00  0.00     0.037 A 
ATOM     47  C   UNL A   1      41.057  30.772  29.994  1.00  0.00     0.049 A 
ATOM     48  C   UNL A   1      45.576  28.839  27.316  1.00  0.00     0.074 A 
ATOM     49  C   UNL A   1      41.156  32.039  30.543  1.00  0.00     0.029 A 
ATOM     50  N   UNL A   1      42.251  30.527  29.333  1.00  0.00    -0.354 N 
ATOM     51  N   UNL A   1      44.609  29.420  27.982  1.00  0.00    -0.248 NA
ATOM     52  C   UNL A   1      46.746  29.696  27.077  1.00  0.00     0.031 C 
ATOM     53  C   UNL A   1      42.399  32.574  30.187  1.00  0.00     0.029 A 
ATOM     54  C   UNL A   1      43.084  31.629  29.441  1.00  0.00     0.049 A 
ATOM     55  H   UNL A   1      42.474  29.694  28.857  1.00  0.00     0.167 HD
ATOM     56  C   UNL A   1      45.046  30.714  28.231  1.00  0.00     0.074 A 
ATOM     57  C   UNL A   1      46.377  30.822  27.670  1.00  0.00     0.031 C 
ATOM     58  C   UNL A   1      44.396  31.724  28.858  1.00  0.00     0.037 A 
BRANCH  45  59
ATOM     59  C   UNL A   1      38.710  30.284  30.772  1.00  0.00     0.057 A 
ATOM     60  C   UNL A   1      37.678  30.949  30.102  1.00  0.00     0.134 A 
ATOM     61  C   UNL A   1      38.523  29.996  32.131  1.00  0.00     0.134 A 
ATOM     62  F   UNL A   1      37.802  31.266  28.804  1.00  0.00    -0.206 F 
ATOM     63  C   UNL A   1      36.506  31.326  30.762  1.00  0.00     0.040 A 
ATOM     64  C   UNL A   1      37.349  30.350  32.796  1.00  0.00     0.040 A 
ATOM     65  F   UNL A   1      39.474  29.358  32.829  1.00  0.00    -0.206 F 
ATOM     66  C   UNL A   1      36.337  31.020  32.112  1.00  0.00     0.006 A 
ENDBRANCH  45  59
BRANCH  46  67
ATOM     67  C   UNL A   1      46.823  26.973  26.012  1.00  0.00     0.057 A 
ATOM     68  C   UNL A   1      46.959  27.205  24.641  1.00  0.00     0.134 A 
ATOM     69  C   UNL A   1      47.863  26.293  26.661  1.00  0.00     0.134 A 
ATOM     70  F   UNL A   1      45.984  27.827  23.961  1.00  0.00    -0.206 F 
ATOM     71  C   UNL A   1      48.089  26.781  23.938  1.00  0.00     0.040 A 
ATOM     72  C   UNL A   1      49.008  25.886  25.976  1.00  0.00     0.040 A 
ATOM     73  F   UNL A   1      47.790  26.040  27.976  1.00  0.00    -0.206 F 
ATOM     74  C   UNL A   1      49.121  26.128  24.609  1.00  0.00     0.006 A 
ENDBRANCH  46  67
BRANCH  58  75
ATOM     75  C   UNL A   1      45.118  33.031  28.958  1.00  0.00     0.057 A 
ATOM     76  C   UNL A   1      44.941  34.035  27.997  1.00  0.00     0.134 A 
ATOM     77  C   UNL A   1      45.974  33.300  30.031  1.00  0.00     0.134 A 
ATOM     78  F   UNL A   1      44.146  33.828  26.937  1.00  0.00    -0.206 F 
ATOM     79  C   UNL A   1      45.604  35.259  28.095  1.00  0.00     0.040 A 
ATOM     80  C   UNL A   1      46.628  34.527  30.150  1.00  0.00     0.040 A 
ATOM     81  F   UNL A   1      46.182  32.379  30.984  1.00  0.00    -0.206 F 
ATOM     82  C   UNL A   1      46.446  35.509  29.177  1.00  0.00     0.006 A 
ENDBRANCH  58  75
ENDBRANCH  32  33
ENDBRANCH  25  27
ENDBRANCH  24  25
ENDBRANCH  23  24
ENDBRANCH  22  23
ENDBRANCH   1  22
TORSDOF 18
ENDMDL
MODEL 2
REMARK VINA RESULT:      -9.7      3.764      8.837
REMARK SMILES CCN(C(=O)C[NH2+][C@@](C)(C(=O)OCCOC(=O)c1ccc(-c2c3nc(c(-c4c(F)cccc4F)c4ccc([nH]4)c(-c4c(F)cccc4F)c4nc(c(-c5c(F)cccc5F)c5ccc2[nH]5)C=C4)C=C3)cc1)C(F)(F)F)C1CC1
REMARK SMILES IDX 12 1 10 2 11 3 8 4 9 5 7 6 6 9 4 10 5 11 3 12 2 13 1 14
REMARK SMILES IDX 76 15 77 16 78 17 72 18 73 19 74 20 75 21 13 22 14 23 15 24
REMARK SMILES IDX 16 25 17 26 18 27 19 28 71 29 20 30 70 31 21 32 22 33 23 34
REMARK SMILES IDX 64 35 24 36 69 37 63 38 65 39 25 40 68 41 62 42 61 43 26 45
REMARK SMILES IDX 52 46 35 47 51 48 36 49 39 50 50 51 66 52 37 53 38 54 49 56
REMARK SMILES IDX 67 57 40 58 27 59 28 60 33 61 29 62 30 63 32 64 34 65 31 66
REMARK SMILES IDX 53 67 54 68 59 69 55 70 56 71 58 72 60 73 57 74 41 75 42 76
REMARK SMILES IDX 47 77 43 78 44 79 46 80 48 81 45 82
REMARK H PARENT 7 7 7 8 65 44 39 55
REMARK Flexibility Score: inf
ROOT
ATOM      1  O   UNL A   1      33.086  27.994  24.843  1.00  0.00    -0.457 OA
ENDROOT
BRANCH   1   2
ATOM      2  C   UNL A   1      32.562  26.932  24.155  1.00  0.00     0.377 C 
ATOM      3  O   UNL A   1      32.603  26.837  22.934  1.00  0.00    -0.244 OA
BRANCH   2   4
ATOM      4  C   UNL A   1      31.811  25.954  25.081  1.00  0.00     0.287 C 
ATOM      5  C   UNL A   1      31.977  26.522  26.500  1.00  0.00     0.103 C 
BRANCH   4   6
ATOM      6  N   UNL A   1      32.449  24.587  24.977  1.00  0.00    -0.317 N 
ATOM      7  H   UNL A   1      31.707  23.893  24.897  1.00  0.00     0.347 HD
ATOM      8  H   UNL A   1      33.059  24.609  24.160  1.00  0.00     0.347 HD
BRANCH   6   9
ATOM      9  C   UNL A   1      33.293  24.231  26.126  1.00  0.00     0.363 C 
BRANCH   9  10
ATOM     10  C   UNL A   1      33.194  22.727  26.401  1.00  0.00     0.277 C 
ATOM     11  O   UNL A   1      32.996  22.341  27.557  1.00  0.00    -0.268 OA
BRANCH  10  12
ATOM     12  N   UNL A   1      33.297  21.854  25.320  1.00  0.00    -0.335 N 
BRANCH  12  13
ATOM     13  C   UNL A   1      32.149  21.264  24.613  1.00  0.00     0.116 C 
ATOM     14  C   UNL A   1      32.284  21.386  23.100  1.00  0.00     0.027 C 
ENDBRANCH  12  13
BRANCH  12  15
ATOM     15  C   UNL A   1      34.596  21.644  24.718  1.00  0.00     0.085 C 
ATOM     16  C   UNL A   1      35.863  21.707  25.534  1.00  0.00     0.027 C 
ATOM     17  C   UNL A   1      35.391  20.393  24.999  1.00  0.00     0.027 C 
ENDBRANCH  12  15
ENDBRANCH  10  12
ENDBRANCH   9  10
ENDBRANCH   6   9
ENDBRANCH   4   6
BRANCH   4  18
ATOM     18  C   UNL A   1      30.315  26.018  24.680  1.00  0.00     0.455 C 
ATOM     19  F   UNL A   1      30.028  25.144  23.687  1.00  0.00    -0.164 F 
ATOM     20  F   UNL A   1      29.528  25.660  25.732  1.00  0.00    -0.164 F 
ATOM     21  F   UNL A   1      29.891  27.237  24.296  1.00  0.00    -0.164 F 
ENDBRANCH   4  18
ENDBRANCH   2   4
ENDBRANCH   1   2
BRANCH   1  22
ATOM     22  C   UNL A   1      32.783  29.314  24.339  1.00  0.00     0.274 C 
BRANCH  22  23
ATOM     23  C   UNL A   1      31.690  29.963  25.183  1.00  0.00     0.275 C 
BRANCH  23  24
ATOM     24  O   UNL A   1      32.148  30.039  26.541  1.00  0.00    -0.458 OA
BRANCH  24  25
ATOM     25  C   UNL A   1      32.623  31.237  26.950  1.00  0.00     0.338 C 
ATOM     26  O   UNL A   1      32.122  32.332  26.775  1.00  0.00    -0.246 OA
BRANCH  25  27
ATOM     27  C   UNL A   1      33.899  31.019  27.664  1.00  0.00     0.060 A 
ATOM     28  C   UNL A   1      34.649  32.106  28.112  1.00  0.00     0.016 A 
ATOM     29  C   UNL A   1      34.377  29.724  27.851  1.00  0.00     0.016 A 
ATOM     30  C   UNL A   1      35.896  31.913  28.698  1.00  0.00     0.010 A 
ATOM     31  C   UNL A   1      35.585  29.525  28.529  1.00  0.00     0.010 A 
ATOM     32  C   UNL A   1      36.361  30.620  28.955  1.00  0.00    -0.014 A 
BRANCH  32  33
ATOM     33  C   UNL A   1      37.639  30.403  29.686  1.00  0.00     0.031 A 
ATOM     34  C   UNL A   1      38.739  29.593  29.064  1.00  0.00     0.074 A 
ATOM     35  C   UNL A   1      37.804  30.910  30.924  1.00  0.00     0.049 A 
ATOM     36  N   UNL A   1      39.808  29.086  29.621  1.00  0.00    -0.248 NA
ATOM     37  C   UNL A   1      38.615  29.305  27.626  1.00  0.00     0.031 C 
ATOM     38  C   UNL A   1      36.843  31.760  31.632  1.00  0.00     0.029 A 
ATOM     39  N   UNL A   1      38.843  30.779  31.812  1.00  0.00    -0.354 N 
ATOM     40  C   UNL A   1      40.454  28.371  28.620  1.00  0.00     0.074 A 
ATOM     41  C   UNL A   1      39.662  28.517  27.417  1.00  0.00     0.031 C 
ATOM     42  C   UNL A   1      37.345  32.092  32.830  1.00  0.00     0.029 A 
ATOM     43  C   UNL A   1      38.616  31.402  33.016  1.00  0.00     0.049 A 
ATOM     44  H   UNL A   1      39.670  30.285  31.608  1.00  0.00     0.167 HD
ATOM     45  C   UNL A   1      41.600  27.654  28.704  1.00  0.00     0.037 A 
ATOM     46  C   UNL A   1      39.316  31.376  34.165  1.00  0.00     0.037 A 
ATOM     47  C   UNL A   1      42.411  27.556  29.889  1.00  0.00     0.049 A 
ATOM     48  C   UNL A   1      40.549  30.527  34.253  1.00  0.00     0.074 A 
ATOM     49  C   UNL A   1      43.607  26.881  30.064  1.00  0.00     0.029 A 
ATOM     50  N   UNL A   1      42.113  28.162  31.100  1.00  0.00    -0.354 N 
ATOM     51  N   UNL A   1      41.117  29.802  33.321  1.00  0.00    -0.248 NA
ATOM     52  C   UNL A   1      41.217  30.463  35.560  1.00  0.00     0.031 C 
ATOM     53  C   UNL A   1      44.017  27.052  31.391  1.00  0.00     0.029 A 
ATOM     54  C   UNL A   1      43.091  27.858  32.033  1.00  0.00     0.049 A 
ATOM     55  H   UNL A   1      41.323  28.725  31.272  1.00  0.00     0.167 HD
ATOM     56  C   UNL A   1      42.201  29.186  33.930  1.00  0.00     0.074 A 
ATOM     57  C   UNL A   1      42.228  29.645  35.303  1.00  0.00     0.031 C 
ATOM     58  C   UNL A   1      43.088  28.309  33.400  1.00  0.00     0.037 A 
BRANCH  45  59
ATOM     59  C   UNL A   1      42.028  26.886  27.490  1.00  0.00     0.057 A 
ATOM     60  C   UNL A   1      41.653  25.554  27.282  1.00  0.00     0.134 A 
ATOM     61  C   UNL A   1      42.794  27.508  26.496  1.00  0.00     0.134 A 
ATOM     62  F   UNL A   1      40.933  24.898  28.204  1.00  0.00    -0.206 F 
ATOM     63  C   UNL A   1      42.035  24.862  26.130  1.00  0.00     0.040 A 
ATOM     64  C   UNL A   1      43.165  26.834  25.332  1.00  0.00     0.040 A 
ATOM     65  F   UNL A   1      43.183  28.785  26.634  1.00  0.00    -0.206 F 
ATOM     66  C   UNL A   1      42.788  25.505  25.149  1.00  0.00     0.006 A 
ENDBRANCH  45  59
BRANCH  46  67
ATOM     67  C   UNL A   1      38.816  32.120  35.347  1.00  0.00     0.057 A 
ATOM     68  C   UNL A   1      38.152  31.464  36.387  1.00  0.00     0.134 A 
ATOM     69  C   UNL A   1      39.011  33.502  35.474  1.00  0.00     0.134 A 
ATOM     70  F   UNL A   1      37.913  30.146  36.310  1.00  0.00    -0.206 F 
ATOM     71  C   UNL A   1      37.700  32.153  37.513  1.00  0.00     0.040 A 
ATOM     72  C   UNL A   1      38.587  34.199  36.605  1.00  0.00     0.040 A 
ATOM     73  F   UNL A   1      39.641  34.188  34.508  1.00  0.00    -0.206 F 
ATOM     74  C   UNL A   1      37.926  33.524  37.628  1.00  0.00     0.006 A 
ENDBRANCH  46  67
BRANCH  58  75
ATOM     75  C   UNL A   1      44.150  27.787  34.316  1.00  0.00     0.057 A 
ATOM     76  C   UNL A   1      43.982  26.586  35.016  1.00  0.00     0.134 A 
ATOM     77  C   UNL A   1      45.358  28.474  34.481  1.00  0.00     0.134 A 
ATOM     78  F   UNL A   1      42.838  25.893  34.911  1.00  0.00    -0.206 F 
ATOM     79  C   UNL A   1      44.976  26.092  35.861  1.00  0.00     0.040 A 
ATOM     80  C   UNL A   1      46.367  27.980  35.309  1.00  0.00     0.040 A 
ATOM     81  F   UNL A   1      45.579  29.628  33.835  1.00  0.00    -0.206 F 
ATOM     82  C   UNL A   1      46.175  26.787  36.005  1.00  0.00     0.006 A 
ENDBRANCH  58  75
ENDBRANCH  32  33
ENDBRANCH  25  27
ENDBRANCH  24  25
ENDBRANCH  23  24
ENDBRANCH  22  23
ENDBRANCH   1  22
TORSDOF 18
ENDMDL
MODEL 3
REMARK VINA RESULT:      -9.5      4.019      8.727
REMARK SMILES CCN(C(=O)C[NH2+][C@@](C)(C(=O)OCCOC(=O)c1ccc(-c2c3nc(c(-c4c(F)cccc4F)c4ccc([nH]4)c(-c4c(F)cccc4F)c4nc(c(-c5c(F)cccc5F)c5ccc2[nH]5)C=C4)C=C3)cc1)C(F)(F)F)C1CC1
REMARK SMILES IDX 12 1 10 2 11 3 8 4 9 5 7 6 6 9 4 10 5 11 3 12 2 13 1 14
REMARK SMILES IDX 76 15 77 16 78 17 72 18 73 19 74 20 75 21 13 22 14 23 15 24
REMARK SMILES IDX 16 25 17 26 18 27 19 28 71 29 20 30 70 31 21 32 22 33 23 34
REMARK SMILES IDX 64 35 24 36 69 37 63 38 65 39 25 40 68 41 62 42 61 43 26 45
REMARK SMILES IDX 52 46 35 47 51 48 36 49 39 50 50 51 66 52 37 53 38 54 49 56
REMARK SMILES IDX 67 57 40 58 27 59 28 60 33 61 29 62 30 63 32 64 34 65 31 66
REMARK SMILES IDX 53 67 54 68 59 69 55 70 56 71 58 72 60 73 57 74 41 75 42 76
REMARK SMILES IDX 47 77 43 78 44 79 46 80 48 81 45 82
REMARK H PARENT 7 7 7 8 65 44 39 55
REMARK Flexibility Score: inf
ROOT
ATOM      1  O   UNL A   1      31.677  29.454  24.370  1.00  0.00    -0.457 OA
ENDROOT
BRANCH   1   2
ATOM      2  C   UNL A   1      30.949  28.294  24.399  1.00  0.00     0.377 C 
ATOM      3  O   UNL A   1      30.948  27.526  25.355  1.00  0.00    -0.244 OA
BRANCH   2   4
ATOM      4  C   UNL A   1      30.250  28.013  23.054  1.00  0.00     0.287 C 
ATOM      5  C   UNL A   1      29.331  26.808  23.312  1.00  0.00     0.103 C 
BRANCH   4   6
ATOM      6  N   UNL A   1      31.296  27.672  22.016  1.00  0.00    -0.317 N 
ATOM      7  H   UNL A   1      31.088  28.198  21.168  1.00  0.00     0.347 HD
ATOM      8  H   UNL A   1      32.201  27.915  22.420  1.00  0.00     0.347 HD
BRANCH   6   9
ATOM      9  C   UNL A   1      31.354  26.245  21.672  1.00  0.00     0.363 C 
BRANCH   9  10
ATOM     10  C   UNL A   1      32.673  25.642  22.166  1.00  0.00     0.277 C 
ATOM     11  O   UNL A   1      33.625  25.559  21.383  1.00  0.00    -0.268 OA
BRANCH  10  12
ATOM     12  N   UNL A   1      32.754  25.244  23.499  1.00  0.00    -0.335 N 
BRANCH  12  13
ATOM     13  C   UNL A   1      31.846  24.277  24.136  1.00  0.00     0.116 C 
ATOM     14  C   UNL A   1      31.783  22.960  23.373  1.00  0.00     0.027 C 
ENDBRANCH  12  13
BRANCH  12  15
ATOM     15  C   UNL A   1      33.906  25.649  24.276  1.00  0.00     0.085 C 
ATOM     16  C   UNL A   1      33.973  25.420  25.766  1.00  0.00     0.027 C 
ATOM     17  C   UNL A   1      34.853  24.625  24.855  1.00  0.00     0.027 C 
ENDBRANCH  12  15
ENDBRANCH  10  12
ENDBRANCH   9  10
ENDBRANCH   6   9
ENDBRANCH   4   6
BRANCH   4  18
ATOM     18  C   UNL A   1      29.381  29.256  22.734  1.00  0.00     0.455 C 
ATOM     19  F   UNL A   1      29.167  30.010  23.836  1.00  0.00    -0.164 F 
ATOM     20  F   UNL A   1      30.022  30.064  21.846  1.00  0.00    -0.164 F 
ATOM     21  F   UNL A   1      28.184  28.974  22.184  1.00  0.00    -0.164 F 
ENDBRANCH   4  18
ENDBRANCH   2   4
ENDBRANCH   1   2
BRANCH   1  22
ATOM     22  C   UNL A   1      33.115  29.324  24.344  1.00  0.00     0.274 C 
BRANCH  22  23
ATOM     23  C   UNL A   1      33.684  29.460  25.754  1.00  0.00     0.275 C 
BRANCH  23  24
ATOM     24  O   UNL A   1      32.738  30.179  26.559  1.00  0.00    -0.458 OA
BRANCH  24  25
ATOM     25  C   UNL A   1      33.167  31.343  27.098  1.00  0.00     0.338 C 
ATOM     26  O   UNL A   1      32.631  32.433  27.030  1.00  0.00    -0.246 OA
BRANCH  25  27
ATOM     27  C   UNL A   1      34.441  31.093  27.805  1.00  0.00     0.060 A 
ATOM     28  C   UNL A   1      35.392  32.106  27.919  1.00  0.00     0.016 A 
ATOM     29  C   UNL A   1      34.713  29.827  28.319  1.00  0.00     0.016 A 
ATOM     30  C   UNL A   1      36.633  31.851  28.495  1.00  0.00     0.010 A 
ATOM     31  C   UNL A   1      35.920  29.598  28.988  1.00  0.00     0.010 A 
ATOM     32  C   UNL A   1      36.897  30.607  29.077  1.00  0.00    -0.014 A 
BRANCH  32  33
ATOM     33  C   UNL A   1      38.174  30.363  29.800  1.00  0.00     0.031 A 
ATOM     34  C   UNL A   1      39.250  29.523  29.173  1.00  0.00     0.074 A 
ATOM     35  C   UNL A   1      38.362  30.872  31.034  1.00  0.00     0.049 A 
ATOM     36  N   UNL A   1      40.311  28.992  29.725  1.00  0.00    -0.248 NA
ATOM     37  C   UNL A   1      39.108  29.232  27.738  1.00  0.00     0.031 C 
ATOM     38  C   UNL A   1      37.428  31.748  31.745  1.00  0.00     0.029 A 
ATOM     39  N   UNL A   1      39.404  30.719  31.915  1.00  0.00    -0.354 N 
ATOM     40  C   UNL A   1      40.931  28.258  28.723  1.00  0.00     0.074 A 
ATOM     41  C   UNL A   1      40.134  28.418  27.525  1.00  0.00     0.031 C 
ATOM     42  C   UNL A   1      37.947  32.074  32.938  1.00  0.00     0.029 A 
ATOM     43  C   UNL A   1      39.202  31.354  33.117  1.00  0.00     0.049 A 
ATOM     44  H   UNL A   1      40.217  30.204  31.707  1.00  0.00     0.167 HD
ATOM     45  C   UNL A   1      42.059  27.513  28.801  1.00  0.00     0.037 A 
ATOM     46  C   UNL A   1      39.910  31.315  34.261  1.00  0.00     0.037 A 
ATOM     47  C   UNL A   1      42.877  27.401  29.980  1.00  0.00     0.049 A 
ATOM     48  C   UNL A   1      41.122  30.437  34.344  1.00  0.00     0.074 A 
ATOM     49  C   UNL A   1      44.058  26.698  30.150  1.00  0.00     0.029 A 
ATOM     50  N   UNL A   1      42.604  28.020  31.191  1.00  0.00    -0.354 N 
ATOM     51  N   UNL A   1      41.665  29.694  33.411  1.00  0.00    -0.248 NA
ATOM     52  C   UNL A   1      41.799  30.363  35.646  1.00  0.00     0.031 C 
ATOM     53  C   UNL A   1      44.482  26.865  31.472  1.00  0.00     0.029 A 
ATOM     54  C   UNL A   1      43.581  27.696  32.118  1.00  0.00     0.049 A 
ATOM     55  H   UNL A   1      41.829  28.602  31.366  1.00  0.00     0.167 HD
ATOM     56  C   UNL A   1      42.739  29.054  34.015  1.00  0.00     0.074 A 
ATOM     57  C   UNL A   1      42.788  29.519  35.385  1.00  0.00     0.031 C 
ATOM     58  C   UNL A   1      43.599  28.153  33.482  1.00  0.00     0.037 A 
BRANCH  45  59
ATOM     59  C   UNL A   1      42.460  26.729  27.588  1.00  0.00     0.057 A 
ATOM     60  C   UNL A   1      42.018  25.419  27.370  1.00  0.00     0.134 A 
ATOM     61  C   UNL A   1      43.266  27.315  26.604  1.00  0.00     0.134 A 
ATOM     62  F   UNL A   1      41.256  24.798  28.281  1.00  0.00    -0.206 F 
ATOM     63  C   UNL A   1      42.375  24.714  26.218  1.00  0.00     0.040 A 
ATOM     64  C   UNL A   1      43.614  26.627  25.440  1.00  0.00     0.040 A 
ATOM     65  F   UNL A   1      43.719  28.569  26.752  1.00  0.00    -0.206 F 
ATOM     66  C   UNL A   1      43.170  25.321  25.247  1.00  0.00     0.006 A 
ENDBRANCH  45  59
BRANCH  46  67
ATOM     67  C   UNL A   1      39.438  32.076  35.444  1.00  0.00     0.057 A 
ATOM     68  C   UNL A   1      39.857  33.390  35.673  1.00  0.00     0.134 A 
ATOM     69  C   UNL A   1      38.541  31.513  36.362  1.00  0.00     0.134 A 
ATOM     70  F   UNL A   1      40.735  33.972  34.843  1.00  0.00    -0.206 F 
ATOM     71  C   UNL A   1      39.399  34.120  36.770  1.00  0.00     0.040 A 
ATOM     72  C   UNL A   1      38.056  32.240  37.450  1.00  0.00     0.040 A 
ATOM     73  F   UNL A   1      38.103  30.256  36.197  1.00  0.00    -0.206 F 
ATOM     74  C   UNL A   1      38.488  33.548  37.657  1.00  0.00     0.006 A 
ENDBRANCH  46  67
BRANCH  58  75
ATOM     75  C   UNL A   1      44.656  27.610  34.392  1.00  0.00     0.057 A 
ATOM     76  C   UNL A   1      44.464  26.416  35.099  1.00  0.00     0.134 A 
ATOM     77  C   UNL A   1      45.881  28.268  34.545  1.00  0.00     0.134 A 
ATOM     78  F   UNL A   1      43.303  25.750  35.005  1.00  0.00    -0.206 F 
ATOM     79  C   UNL A   1      45.452  25.902  35.939  1.00  0.00     0.040 A 
ATOM     80  C   UNL A   1      46.885  27.754  35.368  1.00  0.00     0.040 A 
ATOM     81  F   UNL A   1      46.125  29.414  33.893  1.00  0.00    -0.206 F 
ATOM     82  C   UNL A   1      46.669  26.569  36.070  1.00  0.00     0.006 A 
ENDBRANCH  58  75
ENDBRANCH  32  33
ENDBRANCH  25  27
ENDBRANCH  24  25
ENDBRANCH  23  24
ENDBRANCH  22  23
ENDBRANCH   1  22
TORSDOF 18
ENDMDL
