MODEL 1
REMARK VINA RESULT:     -11.2      0.000      0.000
REMARK SMILES C[C@@H]([NH2+][C@H]1CCOC2(CCOCC2)C1)C(=O)OCCOC(=O)c1ccc(-c2c3nc(c(-c4c(F)cccc4F)c4ccc([nH]4)c(-c4c(F)cccc4F)c4nc(c(-c5c(F)cccc5F)c5ccc2[nH]5)C=C4)C=C3)cc1
REMARK SMILES IDX 18 1 17 2 15 3 16 4 2 5 1 6 3 7 4 10 5 11 14 12 6 13 8 14
REMARK SMILES IDX 7 15 9 16 13 17 10 18 12 19 11 20 19 21 20 22 21 23 22 24
REMARK SMILES IDX 23 25 24 26 76 27 25 28 75 29 26 30 27 31 28 32 69 33 29 34
REMARK SMILES IDX 74 35 68 36 70 37 30 38 73 39 67 40 66 41 31 43 57 44 40 45
REMARK SMILES IDX 56 46 41 47 44 48 55 49 71 50 42 51 43 52 54 54 72 55 45 56
REMARK SMILES IDX 32 57 33 58 38 59 34 60 35 61 37 62 39 63 36 64 58 65 59 66
REMARK SMILES IDX 64 67 60 68 61 69 63 70 65 71 62 72 46 73 47 74 52 75 48 76
REMARK SMILES IDX 49 77 51 78 53 79 50 80
REMARK H PARENT 3 8 3 9 70 42 44 53
REMARK Flexibility Score: inf
ROOT
ATOM      1  C   UNL A   1      42.541  21.396  26.007  1.00  0.00     0.274 C 
ENDROOT
BRANCH   1   2
ATOM      2  O   UNL A   1      41.195  21.840  25.757  1.00  0.00    -0.458 OA
BRANCH   2   3
ATOM      3  C   UNL A   1      40.343  21.745  26.816  1.00  0.00     0.364 C 
ATOM      4  O   UNL A   1      40.720  21.412  27.936  1.00  0.00    -0.245 OA
BRANCH   3   5
ATOM      5  C   UNL A   1      38.921  22.281  26.487  1.00  0.00     0.290 C 
ATOM      6  C   UNL A   1      38.833  23.807  26.507  1.00  0.00     0.088 C 
BRANCH   5   7
ATOM      7  N   UNL A   1      38.354  21.799  25.194  1.00  0.00    -0.332 N 
ATOM      8  H   UNL A   1      38.402  20.780  25.193  1.00  0.00     0.347 HD
ATOM      9  H   UNL A   1      38.913  22.241  24.465  1.00  0.00     0.347 HD
BRANCH   7  10
ATOM     10  C   UNL A   1      36.962  22.186  24.921  1.00  0.00     0.188 C 
ATOM     11  C   UNL A   1      36.720  22.860  23.565  1.00  0.00     0.093 C 
ATOM     12  C   UNL A   1      36.022  20.969  25.003  1.00  0.00     0.100 C 
ATOM     13  C   UNL A   1      35.268  23.301  23.496  1.00  0.00     0.167 C 
ATOM     14  C   UNL A   1      34.545  21.405  24.832  1.00  0.00     0.078 C 
ATOM     15  O   UNL A   1      34.392  22.188  23.631  1.00  0.00    -0.374 OA
ATOM     16  C   UNL A   1      34.033  22.163  26.075  1.00  0.00     0.064 C 
ATOM     17  C   UNL A   1      33.652  20.169  24.621  1.00  0.00     0.064 C 
ATOM     18  C   UNL A   1      32.539  22.438  25.986  1.00  0.00     0.163 C 
ATOM     19  C   UNL A   1      32.180  20.571  24.588  1.00  0.00     0.163 C 
ATOM     20  O   UNL A   1      31.814  21.223  25.804  1.00  0.00    -0.381 OA
ENDBRANCH   7  10
ENDBRANCH   5   7
ENDBRANCH   3   5
ENDBRANCH   2   3
ENDBRANCH   1   2
BRANCH   1  21
ATOM     21  C   UNL A   1      43.568  22.262  25.268  1.00  0.00     0.275 C 
BRANCH  21  22
ATOM     22  O   UNL A   1      43.054  23.551  24.870  1.00  0.00    -0.458 OA
BRANCH  22  23
ATOM     23  C   UNL A   1      43.821  24.607  25.230  1.00  0.00     0.338 C 
ATOM     24  O   UNL A   1      44.881  24.947  24.720  1.00  0.00    -0.246 OA
BRANCH  23  25
ATOM     25  C   UNL A   1      43.180  25.408  26.293  1.00  0.00     0.060 A 
ATOM     26  C   UNL A   1      43.571  26.746  26.418  1.00  0.00     0.016 A 
ATOM     27  C   UNL A   1      42.288  24.853  27.216  1.00  0.00     0.016 A 
ATOM     28  C   UNL A   1      43.063  27.540  27.442  1.00  0.00     0.010 A 
ATOM     29  C   UNL A   1      41.804  25.642  28.270  1.00  0.00     0.010 A 
ATOM     30  C   UNL A   1      42.198  26.985  28.391  1.00  0.00    -0.014 A 
BRANCH  30  31
ATOM     31  C   UNL A   1      41.801  27.815  29.551  1.00  0.00     0.031 A 
ATOM     32  C   UNL A   1      40.609  28.722  29.438  1.00  0.00     0.074 A 
ATOM     33  C   UNL A   1      42.444  27.686  30.724  1.00  0.00     0.049 A 
ATOM     34  N   UNL A   1      40.068  29.495  30.344  1.00  0.00    -0.248 NA
ATOM     35  C   UNL A   1      39.926  28.747  28.135  1.00  0.00     0.031 C 
ATOM     36  C   UNL A   1      43.568  26.786  30.976  1.00  0.00     0.029 A 
ATOM     37  N   UNL A   1      42.231  28.307  31.929  1.00  0.00    -0.354 N 
ATOM     38  C   UNL A   1      38.972  30.086  29.730  1.00  0.00     0.074 A 
ATOM     39  C   UNL A   1      38.940  29.603  28.366  1.00  0.00     0.031 C 
ATOM     40  C   UNL A   1      43.952  26.919  32.257  1.00  0.00     0.029 A 
ATOM     41  C   UNL A   1      43.118  27.929  32.905  1.00  0.00     0.049 A 
ATOM     42  H   UNL A   1      41.510  28.961  32.079  1.00  0.00     0.167 HD
ATOM     43  C   UNL A   1      38.069  30.946  30.258  1.00  0.00     0.037 A 
ATOM     44  C   UNL A   1      43.249  28.363  34.173  1.00  0.00     0.037 A 
ATOM     45  C   UNL A   1      38.115  31.449  31.606  1.00  0.00     0.049 A 
ATOM     46  C   UNL A   1      42.296  29.399  34.703  1.00  0.00     0.074 A 
ATOM     47  C   UNL A   1      37.266  32.354  32.219  1.00  0.00     0.029 A 
ATOM     48  N   UNL A   1      39.067  31.091  32.547  1.00  0.00    -0.354 N 
ATOM     49  N   UNL A   1      41.266  29.957  34.112  1.00  0.00    -0.248 NA
ATOM     50  C   UNL A   1      42.521  29.866  36.079  1.00  0.00     0.031 C 
ATOM     51  C   UNL A   1      37.727  32.571  33.523  1.00  0.00     0.029 A 
ATOM     52  C   UNL A   1      38.838  31.770  33.732  1.00  0.00     0.049 A 
ATOM     53  H   UNL A   1      39.797  30.449  32.397  1.00  0.00     0.167 HD
ATOM     54  C   UNL A   1      40.711  30.820  35.049  1.00  0.00     0.074 A 
ATOM     55  C   UNL A   1      41.507  30.701  36.252  1.00  0.00     0.031 C 
ATOM     56  C   UNL A   1      39.637  31.638  34.923  1.00  0.00     0.037 A 
BRANCH  43  57
ATOM     57  C   UNL A   1      36.968  31.418  29.359  1.00  0.00     0.057 A 
ATOM     58  C   UNL A   1      36.975  32.703  28.802  1.00  0.00     0.134 A 
ATOM     59  C   UNL A   1      35.904  30.572  29.024  1.00  0.00     0.134 A 
ATOM     60  F   UNL A   1      37.959  33.566  29.097  1.00  0.00    -0.206 F 
ATOM     61  C   UNL A   1      35.952  33.137  27.957  1.00  0.00     0.040 A 
ATOM     62  C   UNL A   1      34.885  30.986  28.164  1.00  0.00     0.040 A 
ATOM     63  F   UNL A   1      35.840  29.328  29.523  1.00  0.00    -0.206 F 
ATOM     64  C   UNL A   1      34.907  32.274  27.632  1.00  0.00     0.006 A 
ENDBRANCH  43  57
BRANCH  44  65
ATOM     65  C   UNL A   1      44.346  27.843  35.027  1.00  0.00     0.057 A 
ATOM     66  C   UNL A   1      44.157  26.735  35.861  1.00  0.00     0.134 A 
ATOM     67  C   UNL A   1      45.597  28.469  35.055  1.00  0.00     0.134 A 
ATOM     68  F   UNL A   1      42.971  26.112  35.897  1.00  0.00    -0.206 F 
ATOM     69  C   UNL A   1      45.170  26.279  36.706  1.00  0.00     0.040 A 
ATOM     70  C   UNL A   1      46.626  28.009  35.878  1.00  0.00     0.040 A 
ATOM     71  F   UNL A   1      45.838  29.538  34.282  1.00  0.00    -0.206 F 
ATOM     72  C   UNL A   1      46.410  26.915  36.714  1.00  0.00     0.006 A 
ENDBRANCH  44  65
BRANCH  56  73
ATOM     73  C   UNL A   1      39.248  32.444  36.126  1.00  0.00     0.057 A 
ATOM     74  C   UNL A   1      39.766  33.724  36.355  1.00  0.00     0.134 A 
ATOM     75  C   UNL A   1      38.320  31.945  37.050  1.00  0.00     0.134 A 
ATOM     76  F   UNL A   1      40.669  34.252  35.513  1.00  0.00    -0.206 F 
ATOM     77  C   UNL A   1      39.393  34.472  37.473  1.00  0.00     0.040 A 
ATOM     78  C   UNL A   1      37.924  32.692  38.159  1.00  0.00     0.040 A 
ATOM     79  F   UNL A   1      37.781  30.728  36.884  1.00  0.00    -0.206 F 
ATOM     80  C   UNL A   1      38.464  33.958  38.375  1.00  0.00     0.006 A 
ENDBRANCH  56  73
ENDBRANCH  30  31
ENDBRANCH  23  25
ENDBRANCH  22  23
ENDBRANCH  21  22
ENDBRANCH   1  21
TORSDOF 13
ENDMDL
MODEL 2
REMARK VINA RESULT:     -11.2      0.102      1.344
REMARK SMILES C[C@@H]([NH2+][C@H]1CCOC2(CCOCC2)C1)C(=O)OCCOC(=O)c1ccc(-c2c3nc(c(-c4c(F)cccc4F)c4ccc([nH]4)c(-c4c(F)cccc4F)c4nc(c(-c5c(F)cccc5F)c5ccc2[nH]5)C=C4)C=C3)cc1
REMARK SMILES IDX 18 1 17 2 15 3 16 4 2 5 1 6 3 7 4 10 5 11 14 12 6 13 8 14
REMARK SMILES IDX 7 15 9 16 13 17 10 18 12 19 11 20 19 21 20 22 21 23 22 24
REMARK SMILES IDX 23 25 24 26 76 27 25 28 75 29 26 30 27 31 28 32 69 33 29 34
REMARK SMILES IDX 74 35 68 36 70 37 30 38 73 39 67 40 66 41 31 43 57 44 40 45
REMARK SMILES IDX 56 46 41 47 44 48 55 49 71 50 42 51 43 52 54 54 72 55 45 56
REMARK SMILES IDX 32 57 33 58 38 59 34 60 35 61 37 62 39 63 36 64 58 65 59 66
REMARK SMILES IDX 64 67 60 68 61 69 63 70 65 71 62 72 46 73 47 74 52 75 48 76
REMARK SMILES IDX 49 77 51 78 53 79 50 80
REMARK H PARENT 3 8 3 9 70 42 44 53
REMARK Flexibility Score: inf
ROOT
ATOM      1  C   UNL A   1      42.542  21.347  25.996  1.00  0.00     0.274 C 
ENDROOT
BRANCH   1   2
ATOM      2  O   UNL A   1      41.175  21.715  25.735  1.00  0.00    -0.458 OA
BRANCH   2   3
ATOM      3  C   UNL A   1      40.355  21.723  26.823  1.00  0.00     0.364 C 
ATOM      4  O   UNL A   1      40.763  21.485  27.957  1.00  0.00    -0.245 OA
BRANCH   3   5
ATOM      5  C   UNL A   1      38.929  22.246  26.491  1.00  0.00     0.290 C 
ATOM      6  C   UNL A   1      38.831  23.772  26.492  1.00  0.00     0.088 C 
BRANCH   5   7
ATOM      7  N   UNL A   1      38.362  21.745  25.205  1.00  0.00    -0.332 N 
ATOM      8  H   UNL A   1      38.400  20.725  25.224  1.00  0.00     0.347 HD
ATOM      9  H   UNL A   1      38.929  22.167  24.470  1.00  0.00     0.347 HD
BRANCH   7  10
ATOM     10  C   UNL A   1      36.975  22.141  24.919  1.00  0.00     0.188 C 
ATOM     11  C   UNL A   1      36.753  22.828  23.565  1.00  0.00     0.093 C 
ATOM     12  C   UNL A   1      36.028  20.928  24.978  1.00  0.00     0.100 C 
ATOM     13  C   UNL A   1      35.304  23.277  23.483  1.00  0.00     0.167 C 
ATOM     14  C   UNL A   1      34.556  21.373  24.793  1.00  0.00     0.078 C 
ATOM     15  O   UNL A   1      34.422  22.167  23.598  1.00  0.00    -0.374 OA
ATOM     16  C   UNL A   1      34.032  22.123  26.037  1.00  0.00     0.064 C 
ATOM     17  C   UNL A   1      33.659  20.143  24.561  1.00  0.00     0.064 C 
ATOM     18  C   UNL A   1      32.540  22.405  25.932  1.00  0.00     0.163 C 
ATOM     19  C   UNL A   1      32.190  20.552  24.514  1.00  0.00     0.163 C 
ATOM     20  O   UNL A   1      31.812  21.196  25.731  1.00  0.00    -0.381 OA
ENDBRANCH   7  10
ENDBRANCH   5   7
ENDBRANCH   3   5
ENDBRANCH   2   3
ENDBRANCH   1   2
BRANCH   1  21
ATOM     21  C   UNL A   1      43.524  22.243  25.232  1.00  0.00     0.275 C 
BRANCH  21  22
ATOM     22  O   UNL A   1      42.998  23.555  24.940  1.00  0.00    -0.458 OA
BRANCH  22  23
ATOM     23  C   UNL A   1      43.799  24.584  25.303  1.00  0.00     0.338 C 
ATOM     24  O   UNL A   1      44.881  24.876  24.811  1.00  0.00    -0.246 OA
BRANCH  23  25
ATOM     25  C   UNL A   1      43.168  25.424  26.343  1.00  0.00     0.060 A 
ATOM     26  C   UNL A   1      43.690  26.707  26.540  1.00  0.00     0.016 A 
ATOM     27  C   UNL A   1      42.155  24.947  27.180  1.00  0.00     0.016 A 
ATOM     28  C   UNL A   1      43.195  27.526  27.550  1.00  0.00     0.010 A 
ATOM     29  C   UNL A   1      41.679  25.758  28.221  1.00  0.00     0.010 A 
ATOM     30  C   UNL A   1      42.205  27.046  28.415  1.00  0.00    -0.014 A 
BRANCH  30  31
ATOM     31  C   UNL A   1      41.813  27.885  29.570  1.00  0.00     0.031 A 
ATOM     32  C   UNL A   1      40.622  28.793  29.454  1.00  0.00     0.074 A 
ATOM     33  C   UNL A   1      42.459  27.763  30.742  1.00  0.00     0.049 A 
ATOM     34  N   UNL A   1      40.085  29.574  30.356  1.00  0.00    -0.248 NA
ATOM     35  C   UNL A   1      39.936  28.810  28.153  1.00  0.00     0.031 C 
ATOM     36  C   UNL A   1      43.581  26.863  30.997  1.00  0.00     0.029 A 
ATOM     37  N   UNL A   1      42.250  28.393  31.943  1.00  0.00    -0.354 N 
ATOM     38  C   UNL A   1      38.988  30.162  29.740  1.00  0.00     0.074 A 
ATOM     39  C   UNL A   1      38.952  29.669  28.379  1.00  0.00     0.031 C 
ATOM     40  C   UNL A   1      43.970  27.004  32.277  1.00  0.00     0.029 A 
ATOM     41  C   UNL A   1      43.139  28.020  32.919  1.00  0.00     0.049 A 
ATOM     42  H   UNL A   1      41.531  29.050  32.090  1.00  0.00     0.167 HD
ATOM     43  C   UNL A   1      38.088  31.028  30.265  1.00  0.00     0.037 A 
ATOM     44  C   UNL A   1      43.274  28.463  34.184  1.00  0.00     0.037 A 
ATOM     45  C   UNL A   1      38.138  31.540  31.608  1.00  0.00     0.049 A 
ATOM     46  C   UNL A   1      42.324  29.505  34.709  1.00  0.00     0.074 A 
ATOM     47  C   UNL A   1      37.293  32.451  32.217  1.00  0.00     0.029 A 
ATOM     48  N   UNL A   1      39.092  31.187  32.550  1.00  0.00    -0.354 N 
ATOM     49  N   UNL A   1      41.294  30.060  34.117  1.00  0.00    -0.248 NA
ATOM     50  C   UNL A   1      42.554  29.981  36.081  1.00  0.00     0.031 C 
ATOM     51  C   UNL A   1      37.758  32.677  33.519  1.00  0.00     0.029 A 
ATOM     52  C   UNL A   1      38.867  31.875  33.731  1.00  0.00     0.049 A 
ATOM     53  H   UNL A   1      39.821  30.543  32.402  1.00  0.00     0.167 HD
ATOM     54  C   UNL A   1      40.743  30.931  35.049  1.00  0.00     0.074 A 
ATOM     55  C   UNL A   1      41.542  30.820  36.250  1.00  0.00     0.031 C 
ATOM     56  C   UNL A   1      39.670  31.750  34.920  1.00  0.00     0.037 A 
BRANCH  43  57
ATOM     57  C   UNL A   1      36.985  31.495  29.364  1.00  0.00     0.057 A 
ATOM     58  C   UNL A   1      35.890  30.676  29.060  1.00  0.00     0.134 A 
ATOM     59  C   UNL A   1      37.004  32.783  28.818  1.00  0.00     0.134 A 
ATOM     60  F   UNL A   1      35.823  29.425  29.540  1.00  0.00    -0.206 F 
ATOM     61  C   UNL A   1      34.860  31.117  28.228  1.00  0.00     0.040 A 
ATOM     62  C   UNL A   1      35.970  33.243  28.000  1.00  0.00     0.040 A 
ATOM     63  F   UNL A   1      38.025  33.617  29.073  1.00  0.00    -0.206 F 
ATOM     64  C   UNL A   1      34.896  32.407  27.701  1.00  0.00     0.006 A 
ENDBRANCH  43  57
BRANCH  44  65
ATOM     65  C   UNL A   1      44.372  27.947  35.039  1.00  0.00     0.057 A 
ATOM     66  C   UNL A   1      45.641  28.537  35.030  1.00  0.00     0.134 A 
ATOM     67  C   UNL A   1      44.184  26.827  35.857  1.00  0.00     0.134 A 
ATOM     68  F   UNL A   1      45.888  29.595  34.246  1.00  0.00    -0.206 F 
ATOM     69  C   UNL A   1      46.690  28.019  35.792  1.00  0.00     0.040 A 
ATOM     70  C   UNL A   1      45.217  26.313  36.642  1.00  0.00     0.040 A 
ATOM     71  F   UNL A   1      42.991  26.216  35.905  1.00  0.00    -0.206 F 
ATOM     72  C   UNL A   1      46.478  26.906  36.604  1.00  0.00     0.006 A 
ENDBRANCH  44  65
BRANCH  56  73
ATOM     73  C   UNL A   1      39.285  32.565  36.118  1.00  0.00     0.057 A 
ATOM     74  C   UNL A   1      39.783  33.858  36.321  1.00  0.00     0.134 A 
ATOM     75  C   UNL A   1      38.382  32.062  37.064  1.00  0.00     0.134 A 
ATOM     76  F   UNL A   1      40.662  34.391  35.458  1.00  0.00    -0.206 F 
ATOM     77  C   UNL A   1      39.414  34.614  37.435  1.00  0.00     0.040 A 
ATOM     78  C   UNL A   1      37.990  32.817  38.169  1.00  0.00     0.040 A 
ATOM     79  F   UNL A   1      37.863  30.834  36.924  1.00  0.00    -0.206 F 
ATOM     80  C   UNL A   1      38.510  34.096  38.360  1.00  0.00     0.006 A 
ENDBRANCH  56  73
ENDBRANCH  30  31
ENDBRANCH  23  25
ENDBRANCH  22  23
ENDBRANCH  21  22
ENDBRANCH   1  21
TORSDOF 13
ENDMDL
MODEL 3
REMARK VINA RESULT:     -11.1      0.503      6.441
REMARK SMILES C[C@@H]([NH2+][C@H]1CCOC2(CCOCC2)C1)C(=O)OCCOC(=O)c1ccc(-c2c3nc(c(-c4c(F)cccc4F)c4ccc([nH]4)c(-c4c(F)cccc4F)c4nc(c(-c5c(F)cccc5F)c5ccc2[nH]5)C=C4)C=C3)cc1
REMARK SMILES IDX 18 1 17 2 15 3 16 4 2 5 1 6 3 7 4 10 5 11 14 12 6 13 8 14
REMARK SMILES IDX 7 15 9 16 13 17 10 18 12 19 11 20 19 21 20 22 21 23 22 24
REMARK SMILES IDX 23 25 24 26 76 27 25 28 75 29 26 30 27 31 28 32 69 33 29 34
REMARK SMILES IDX 74 35 68 36 70 37 30 38 73 39 67 40 66 41 31 43 57 44 40 45
REMARK SMILES IDX 56 46 41 47 44 48 55 49 71 50 42 51 43 52 54 54 72 55 45 56
REMARK SMILES IDX 32 57 33 58 38 59 34 60 35 61 37 62 39 63 36 64 58 65 59 66
REMARK SMILES IDX 64 67 60 68 61 69 63 70 65 71 62 72 46 73 47 74 52 75 48 76
REMARK SMILES IDX 49 77 51 78 53 79 50 80
REMARK H PARENT 3 8 3 9 70 42 44 53
REMARK Flexibility Score: inf
ROOT
ATOM      1  C   UNL A   1      42.978  21.388  25.781  1.00  0.00     0.274 C 
ENDROOT
BRANCH   1   2
ATOM      2  O   UNL A   1      41.588  21.698  25.571  1.00  0.00    -0.458 OA
BRANCH   2   3
ATOM      3  C   UNL A   1      40.740  21.270  26.548  1.00  0.00     0.364 C 
ATOM      4  O   UNL A   1      41.120  20.595  27.500  1.00  0.00    -0.245 OA
BRANCH   3   5
ATOM      5  C   UNL A   1      39.319  21.888  26.416  1.00  0.00     0.290 C 
ATOM      6  C   UNL A   1      39.289  23.393  26.683  1.00  0.00     0.088 C 
BRANCH   5   7
ATOM      7  N   UNL A   1      38.645  21.633  25.109  1.00  0.00    -0.332 N 
ATOM      8  H   UNL A   1      38.572  20.623  24.987  1.00  0.00     0.347 HD
ATOM      9  H   UNL A   1      39.221  22.096  24.406  1.00  0.00     0.347 HD
BRANCH   7  10
ATOM     10  C   UNL A   1      37.298  22.205  24.962  1.00  0.00     0.188 C 
ATOM     11  C   UNL A   1      36.960  22.739  23.564  1.00  0.00     0.093 C 
ATOM     12  C   UNL A   1      36.215  21.176  25.334  1.00  0.00     0.100 C 
ATOM     13  C   UNL A   1      35.592  23.398  23.617  1.00  0.00     0.167 C 
ATOM     14  C   UNL A   1      34.808  21.822  25.290  1.00  0.00     0.078 C 
ATOM     15  O   UNL A   1      34.594  22.467  24.019  1.00  0.00    -0.374 OA
ATOM     16  C   UNL A   1      34.598  22.799  26.467  1.00  0.00     0.064 C 
ATOM     17  C   UNL A   1      33.724  20.732  25.373  1.00  0.00     0.064 C 
ATOM     18  C   UNL A   1      33.162  23.300  26.528  1.00  0.00     0.163 C 
ATOM     19  C   UNL A   1      32.337  21.360  25.469  1.00  0.00     0.163 C 
ATOM     20  O   UNL A   1      32.251  22.206  26.615  1.00  0.00    -0.381 OA
ENDBRANCH   7  10
ENDBRANCH   5   7
ENDBRANCH   3   5
ENDBRANCH   2   3
ENDBRANCH   1   2
BRANCH   1  21
ATOM     21  C   UNL A   1      43.886  22.211  24.860  1.00  0.00     0.275 C 
BRANCH  21  22
ATOM     22  O   UNL A   1      43.385  23.538  24.593  1.00  0.00    -0.458 OA
BRANCH  22  23
ATOM     23  C   UNL A   1      44.143  24.544  25.088  1.00  0.00     0.338 C 
ATOM     24  O   UNL A   1      45.269  24.858  24.723  1.00  0.00    -0.246 OA
BRANCH  23  25
ATOM     25  C   UNL A   1      43.409  25.330  26.101  1.00  0.00     0.060 A 
ATOM     26  C   UNL A   1      43.841  26.640  26.340  1.00  0.00     0.016 A 
ATOM     27  C   UNL A   1      42.383  24.782  26.878  1.00  0.00     0.016 A 
ATOM     28  C   UNL A   1      43.245  27.414  27.331  1.00  0.00     0.010 A 
ATOM     29  C   UNL A   1      41.805  25.550  27.901  1.00  0.00     0.010 A 
ATOM     30  C   UNL A   1      42.242  26.864  28.136  1.00  0.00    -0.014 A 
BRANCH  30  31
ATOM     31  C   UNL A   1      41.739  27.662  29.277  1.00  0.00     0.031 A 
ATOM     32  C   UNL A   1      42.463  27.608  30.593  1.00  0.00     0.074 A 
ATOM     33  C   UNL A   1      40.702  28.500  29.109  1.00  0.00     0.049 A 
ATOM     34  N   UNL A   1      42.216  28.260  31.700  1.00  0.00    -0.248 NA
ATOM     35  C   UNL A   1      43.628  26.714  30.662  1.00  0.00     0.031 C 
ATOM     36  C   UNL A   1      39.966  28.693  27.861  1.00  0.00     0.029 A 
ATOM     37  N   UNL A   1      40.098  29.357  29.995  1.00  0.00    -0.354 N 
ATOM     38  C   UNL A   1      43.205  27.870  32.594  1.00  0.00     0.074 A 
ATOM     39  C   UNL A   1      44.038  26.904  31.909  1.00  0.00     0.031 C 
ATOM     40  C   UNL A   1      39.000  29.607  28.063  1.00  0.00     0.029 A 
ATOM     41  C   UNL A   1      39.038  30.042  29.457  1.00  0.00     0.049 A 
ATOM     42  H   UNL A   1      40.397  29.469  30.926  1.00  0.00     0.167 HD
ATOM     43  C   UNL A   1      43.404  28.285  33.868  1.00  0.00     0.037 A 
ATOM     44  C   UNL A   1      38.185  30.911  30.033  1.00  0.00     0.037 A 
ATOM     45  C   UNL A   1      42.561  29.224  34.559  1.00  0.00     0.049 A 
ATOM     46  C   UNL A   1      38.367  31.277  31.481  1.00  0.00     0.074 A 
ATOM     47  C   UNL A   1      42.660  29.676  35.864  1.00  0.00     0.029 A 
ATOM     48  N   UNL A   1      41.457  29.851  34.001  1.00  0.00    -0.354 N 
ATOM     49  N   UNL A   1      39.300  30.897  32.320  1.00  0.00    -0.248 NA
ATOM     50  C   UNL A   1      37.375  32.194  32.063  1.00  0.00     0.031 C 
ATOM     51  C   UNL A   1      41.594  30.551  36.106  1.00  0.00     0.029 A 
ATOM     52  C   UNL A   1      40.856  30.673  34.940  1.00  0.00     0.049 A 
ATOM     53  H   UNL A   1      41.147  29.730  33.075  1.00  0.00     0.167 HD
ATOM     54  C   UNL A   1      39.022  31.544  33.518  1.00  0.00     0.074 A 
ATOM     55  C   UNL A   1      37.842  32.352  33.294  1.00  0.00     0.031 C 
ATOM     56  C   UNL A   1      39.684  31.475  34.699  1.00  0.00     0.037 A 
BRANCH  43  57
ATOM     57  C   UNL A   1      44.571  27.700  34.602  1.00  0.00     0.057 A 
ATOM     58  C   UNL A   1      45.823  28.328  34.610  1.00  0.00     0.134 A 
ATOM     59  C   UNL A   1      44.436  26.512  35.329  1.00  0.00     0.134 A 
ATOM     60  F   UNL A   1      46.019  29.461  33.918  1.00  0.00    -0.206 F 
ATOM     61  C   UNL A   1      46.906  27.785  35.303  1.00  0.00     0.040 A 
ATOM     62  C   UNL A   1      45.507  25.968  36.043  1.00  0.00     0.040 A 
ATOM     63  F   UNL A   1      43.262  25.862  35.363  1.00  0.00    -0.206 F 
ATOM     64  C   UNL A   1      46.747  26.604  36.026  1.00  0.00     0.006 A 
ENDBRANCH  43  57
BRANCH  44  65
ATOM     65  C   UNL A   1      37.060  31.479  29.250  1.00  0.00     0.057 A 
ATOM     66  C   UNL A   1      37.119  32.773  28.721  1.00  0.00     0.134 A 
ATOM     67  C   UNL A   1      35.882  30.750  29.047  1.00  0.00     0.134 A 
ATOM     68  F   UNL A   1      38.210  33.529  28.907  1.00  0.00    -0.206 F 
ATOM     69  C   UNL A   1      36.040  33.328  28.031  1.00  0.00     0.040 A 
ATOM     70  C   UNL A   1      34.804  31.284  28.339  1.00  0.00     0.040 A 
ATOM     71  F   UNL A   1      35.763  29.505  29.533  1.00  0.00    -0.206 F 
ATOM     72  C   UNL A   1      34.879  32.582  27.836  1.00  0.00     0.006 A 
ENDBRANCH  44  65
BRANCH  56  73
ATOM     73  C   UNL A   1      39.163  32.316  35.825  1.00  0.00     0.057 A 
ATOM     74  C   UNL A   1      38.254  31.812  36.763  1.00  0.00     0.134 A 
ATOM     75  C   UNL A   1      39.600  33.637  35.991  1.00  0.00     0.134 A 
ATOM     76  F   UNL A   1      37.787  30.559  36.650  1.00  0.00    -0.206 F 
ATOM     77  C   UNL A   1      37.779  32.599  37.813  1.00  0.00     0.040 A 
ATOM     78  C   UNL A   1      39.150  34.425  37.050  1.00  0.00     0.040 A 
ATOM     79  F   UNL A   1      40.477  34.177  35.132  1.00  0.00    -0.206 F 
ATOM     80  C   UNL A   1      38.232  33.908  37.962  1.00  0.00     0.006 A 
ENDBRANCH  56  73
ENDBRANCH  30  31
ENDBRANCH  23  25
ENDBRANCH  22  23
ENDBRANCH  21  22
ENDBRANCH   1  21
TORSDOF 13
ENDMDL
