MODEL 1
REMARK VINA RESULT:     -11.2      0.000      0.000
REMARK SMILES O=C1NC[C@@H](CSc2ccnc(C(=O)OCCOC(=O)c3ccc(-c4c5nc(c(-c6c(F)cccc6F)c6ccc([nH]6)c(-c6c(F)cccc6F)c6nc(c(-c7c(F)cccc7F)c7ccc4[nH]7)C=C6)C=C5)cc3)c2)O1
REMARK SMILES IDX 16 1 15 2 13 3 14 4 12 5 8 6 9 7 75 8 10 9 11 10 7 11 6 12
REMARK SMILES IDX 5 13 1 14 2 15 3 16 76 17 4 18 17 20 18 21 19 22 20 23 21 24
REMARK SMILES IDX 22 25 74 26 23 27 73 28 24 29 25 30 26 31 67 32 27 33 72 34
REMARK SMILES IDX 66 35 68 36 28 37 71 38 65 39 64 40 29 42 55 43 38 44 54 45
REMARK SMILES IDX 39 46 42 47 53 48 69 49 40 50 41 51 52 53 70 54 43 55 30 56
REMARK SMILES IDX 31 57 36 58 32 59 33 60 35 61 37 62 34 63 56 64 57 65 62 66
REMARK SMILES IDX 58 67 59 68 61 69 63 70 60 71 44 72 45 73 50 74 46 75 47 76
REMARK SMILES IDX 49 77 51 78 48 79
REMARK H PARENT 3 19 68 41 42 52
REMARK Flexibility Score: inf
ROOT
ATOM      1  C   UNL A   1      42.825  20.631  26.126  1.00  0.00     0.275 C 
ENDROOT
BRANCH   1   2
ATOM      2  O   UNL A   1      41.440  20.750  25.741  1.00  0.00    -0.457 OA
BRANCH   2   3
ATOM      3  C   UNL A   1      40.596  21.041  26.765  1.00  0.00     0.357 C 
ATOM      4  O   UNL A   1      40.749  20.674  27.923  1.00  0.00    -0.244 OA
BRANCH   3   5
ATOM      5  C   UNL A   1      39.480  21.950  26.347  1.00  0.00     0.149 A 
ATOM      6  C   UNL A   1      37.412  22.479  25.279  1.00  0.00     0.011 A 
ATOM      7  C   UNL A   1      37.445  23.712  25.926  1.00  0.00     0.035 A 
ATOM      8  C   UNL A   1      38.447  21.565  25.501  1.00  0.00     0.051 A 
ATOM      9  C   UNL A   1      38.540  24.038  26.692  1.00  0.00     0.113 A 
ATOM     10  N   UNL A   1      39.544  23.184  26.920  1.00  0.00    -0.249 NA
BRANCH   6  11
ATOM     11  S   UNL A   1      35.962  22.030  24.349  1.00  0.00    -0.122 SA
BRANCH  11  12
ATOM     12  C   UNL A   1      34.613  22.967  25.180  1.00  0.00     0.122 C 
BRANCH  12  13
ATOM     13  C   UNL A   1      33.428  22.216  25.814  1.00  0.00     0.208 C 
ATOM     14  O   UNL A   1      32.156  19.146  24.864  1.00  0.00    -0.225 OA
ATOM     15  C   UNL A   1      32.650  20.109  25.418  1.00  0.00     0.407 C 
ATOM     16  N   UNL A   1      33.238  20.081  26.649  1.00  0.00    -0.318 N 
ATOM     17  O   UNL A   1      32.743  21.360  24.886  1.00  0.00    -0.443 OA
ATOM     18  C   UNL A   1      33.767  21.347  27.011  1.00  0.00     0.165 C 
ATOM     19  H   UNL A   1      33.288  19.279  27.217  1.00  0.00     0.167 HD
ENDBRANCH  12  13
ENDBRANCH  11  12
ENDBRANCH   6  11
ENDBRANCH   3   5
ENDBRANCH   2   3
ENDBRANCH   1   2
BRANCH   1  20
ATOM     20  C   UNL A   1      43.708  21.665  25.415  1.00  0.00     0.275 C 
BRANCH  20  21
ATOM     21  O   UNL A   1      43.008  22.883  25.098  1.00  0.00    -0.458 OA
BRANCH  21  22
ATOM     22  C   UNL A   1      43.749  24.013  25.180  1.00  0.00     0.338 C 
ATOM     23  O   UNL A   1      44.752  24.287  24.543  1.00  0.00    -0.246 OA
BRANCH  22  24
ATOM     24  C   UNL A   1      43.139  24.949  26.137  1.00  0.00     0.060 A 
ATOM     25  C   UNL A   1      43.418  26.309  26.007  1.00  0.00     0.016 A 
ATOM     26  C   UNL A   1      42.404  24.484  27.227  1.00  0.00     0.016 A 
ATOM     27  C   UNL A   1      43.003  27.214  26.980  1.00  0.00     0.010 A 
ATOM     28  C   UNL A   1      41.957  25.396  28.189  1.00  0.00     0.010 A 
ATOM     29  C   UNL A   1      42.272  26.765  28.085  1.00  0.00    -0.014 A 
BRANCH  29  30
ATOM     30  C   UNL A   1      41.875  27.707  29.163  1.00  0.00     0.031 A 
ATOM     31  C   UNL A   1      42.639  27.719  30.457  1.00  0.00     0.074 A 
ATOM     32  C   UNL A   1      40.826  28.534  28.993  1.00  0.00     0.049 A 
ATOM     33  N   UNL A   1      42.348  28.305  31.589  1.00  0.00    -0.248 NA
ATOM     34  C   UNL A   1      43.898  26.956  30.479  1.00  0.00     0.031 C 
ATOM     35  C   UNL A   1      40.044  28.669  27.764  1.00  0.00     0.029 A 
ATOM     36  N   UNL A   1      40.227  29.406  29.867  1.00  0.00    -0.354 N 
ATOM     37  C   UNL A   1      43.362  27.950  32.470  1.00  0.00     0.074 A 
ATOM     38  C   UNL A   1      44.270  27.087  31.744  1.00  0.00     0.031 C 
ATOM     39  C   UNL A   1      39.063  29.564  27.965  1.00  0.00     0.029 A 
ATOM     40  C   UNL A   1      39.105  30.009  29.353  1.00  0.00     0.049 A 
ATOM     41  H   UNL A   1      40.568  29.581  30.775  1.00  0.00     0.167 HD
ATOM     42  C   UNL A   1      43.518  28.312  33.766  1.00  0.00     0.037 A 
ATOM     43  C   UNL A   1      38.185  30.792  29.949  1.00  0.00     0.037 A 
ATOM     44  C   UNL A   1      42.617  29.187  34.472  1.00  0.00     0.049 A 
ATOM     45  C   UNL A   1      38.335  31.118  31.409  1.00  0.00     0.074 A 
ATOM     46  C   UNL A   1      42.685  29.621  35.784  1.00  0.00     0.029 A 
ATOM     47  N   UNL A   1      41.483  29.764  33.919  1.00  0.00    -0.354 N 
ATOM     48  N   UNL A   1      39.279  30.758  32.245  1.00  0.00    -0.248 NA
ATOM     49  C   UNL A   1      37.287  31.952  32.014  1.00  0.00     0.031 C 
ATOM     50  C   UNL A   1      41.565  30.419  36.039  1.00  0.00     0.029 A 
ATOM     51  C   UNL A   1      40.833  30.534  34.869  1.00  0.00     0.049 A 
ATOM     52  H   UNL A   1      41.183  29.644  32.988  1.00  0.00     0.167 HD
ATOM     53  C   UNL A   1      38.961  31.352  33.460  1.00  0.00     0.074 A 
ATOM     54  C   UNL A   1      37.737  32.097  33.252  1.00  0.00     0.031 C 
ATOM     55  C   UNL A   1      39.628  31.291  34.638  1.00  0.00     0.037 A 
BRANCH  42  56
ATOM     56  C   UNL A   1      44.681  27.728  34.517  1.00  0.00     0.057 A 
ATOM     57  C   UNL A   1      44.615  26.477  35.143  1.00  0.00     0.134 A 
ATOM     58  C   UNL A   1      45.896  28.422  34.592  1.00  0.00     0.134 A 
ATOM     59  F   UNL A   1      43.478  25.764  35.121  1.00  0.00    -0.206 F 
ATOM     60  C   UNL A   1      45.704  25.951  35.841  1.00  0.00     0.040 A 
ATOM     61  C   UNL A   1      47.002  27.894  35.262  1.00  0.00     0.040 A 
ATOM     62  F   UNL A   1      46.033  29.624  34.010  1.00  0.00    -0.206 F 
ATOM     63  C   UNL A   1      46.904  26.657  35.896  1.00  0.00     0.006 A 
ENDBRANCH  42  56
BRANCH  43  64
ATOM     64  C   UNL A   1      37.023  31.296  29.173  1.00  0.00     0.057 A 
ATOM     65  C   UNL A   1      35.934  30.467  28.879  1.00  0.00     0.134 A 
ATOM     66  C   UNL A   1      36.975  32.613  28.697  1.00  0.00     0.134 A 
ATOM     67  F   UNL A   1      35.931  29.188  29.285  1.00  0.00    -0.206 F 
ATOM     68  C   UNL A   1      34.849  30.922  28.129  1.00  0.00     0.040 A 
ATOM     69  C   UNL A   1      35.882  33.091  27.972  1.00  0.00     0.040 A 
ATOM     70  F   UNL A   1      37.985  33.461  28.945  1.00  0.00    -0.206 F 
ATOM     71  C   UNL A   1      34.818  32.241  27.679  1.00  0.00     0.006 A 
ENDBRANCH  43  64
BRANCH  55  72
ATOM     72  C   UNL A   1      39.092  32.105  35.780  1.00  0.00     0.057 A 
ATOM     73  C   UNL A   1      38.233  31.565  36.744  1.00  0.00     0.134 A 
ATOM     74  C   UNL A   1      39.492  33.438  35.944  1.00  0.00     0.134 A 
ATOM     75  F   UNL A   1      37.801  30.299  36.639  1.00  0.00    -0.206 F 
ATOM     76  C   UNL A   1      37.778  32.326  37.823  1.00  0.00     0.040 A 
ATOM     77  C   UNL A   1      39.067  34.200  37.032  1.00  0.00     0.040 A 
ATOM     78  F   UNL A   1      40.320  34.014  35.058  1.00  0.00    -0.206 F 
ATOM     79  C   UNL A   1      38.204  33.645  37.973  1.00  0.00     0.006 A 
ENDBRANCH  55  72
ENDBRANCH  29  30
ENDBRANCH  22  24
ENDBRANCH  21  22
ENDBRANCH  20  21
ENDBRANCH   1  20
TORSDOF 14
ENDMDL
MODEL 2
REMARK VINA RESULT:     -11.2      5.558     11.100
REMARK SMILES O=C1NC[C@@H](CSc2ccnc(C(=O)OCCOC(=O)c3ccc(-c4c5nc(c(-c6c(F)cccc6F)c6ccc([nH]6)c(-c6c(F)cccc6F)c6nc(c(-c7c(F)cccc7F)c7ccc4[nH]7)C=C6)C=C5)cc3)c2)O1
REMARK SMILES IDX 16 1 15 2 13 3 14 4 12 5 8 6 9 7 75 8 10 9 11 10 7 11 6 12
REMARK SMILES IDX 5 13 1 14 2 15 3 16 76 17 4 18 17 20 18 21 19 22 20 23 21 24
REMARK SMILES IDX 22 25 74 26 23 27 73 28 24 29 25 30 26 31 67 32 27 33 72 34
REMARK SMILES IDX 66 35 68 36 28 37 71 38 65 39 64 40 29 42 55 43 38 44 54 45
REMARK SMILES IDX 39 46 42 47 53 48 69 49 40 50 41 51 52 53 70 54 43 55 30 56
REMARK SMILES IDX 31 57 36 58 32 59 33 60 35 61 37 62 34 63 56 64 57 65 62 66
REMARK SMILES IDX 58 67 59 68 61 69 63 70 60 71 44 72 45 73 50 74 46 75 47 76
REMARK SMILES IDX 49 77 51 78 48 79
REMARK H PARENT 3 19 68 41 42 52
REMARK Flexibility Score: inf
ROOT
ATOM      1  C   UNL A   1      33.670  34.021  27.986  1.00  0.00     0.275 C 
ENDROOT
BRANCH   1   2
ATOM      2  O   UNL A   1      32.944  34.333  29.193  1.00  0.00    -0.457 OA
BRANCH   2   3
ATOM      3  C   UNL A   1      32.835  35.662  29.455  1.00  0.00     0.357 C 
ATOM      4  O   UNL A   1      32.385  36.493  28.676  1.00  0.00    -0.244 OA
BRANCH   3   5
ATOM      5  C   UNL A   1      33.247  36.006  30.854  1.00  0.00     0.149 A 
ATOM      6  C   UNL A   1      34.306  35.601  32.955  1.00  0.00     0.011 A 
ATOM      7  C   UNL A   1      34.105  36.944  33.264  1.00  0.00     0.035 A 
ATOM      8  C   UNL A   1      33.880  35.116  31.714  1.00  0.00     0.051 A 
ATOM      9  C   UNL A   1      33.409  37.738  32.383  1.00  0.00     0.113 A 
ATOM     10  N   UNL A   1      32.989  37.300  31.191  1.00  0.00    -0.249 NA
BRANCH   6  11
ATOM     11  S   UNL A   1      35.270  34.593  34.061  1.00  0.00    -0.122 SA
BRANCH  11  12
ATOM     12  C   UNL A   1      36.831  34.306  33.127  1.00  0.00     0.122 C 
BRANCH  12  13
ATOM     13  C   UNL A   1      37.077  32.957  32.430  1.00  0.00     0.208 C 
ATOM     14  O   UNL A   1      38.994  30.326  33.595  1.00  0.00    -0.225 OA
ATOM     15  C   UNL A   1      38.131  31.084  33.197  1.00  0.00     0.407 C 
ATOM     16  N   UNL A   1      36.799  30.788  33.149  1.00  0.00    -0.318 N 
ATOM     17  O   UNL A   1      38.339  32.364  32.779  1.00  0.00    -0.443 OA
ATOM     18  C   UNL A   1      36.030  31.887  32.683  1.00  0.00     0.165 C 
ATOM     19  H   UNL A   1      36.418  29.918  33.406  1.00  0.00     0.167 HD
ENDBRANCH  12  13
ENDBRANCH  11  12
ENDBRANCH   6  11
ENDBRANCH   3   5
ENDBRANCH   2   3
ENDBRANCH   1   2
BRANCH   1  20
ATOM     20  C   UNL A   1      34.884  33.126  28.262  1.00  0.00     0.275 C 
BRANCH  20  21
ATOM     21  O   UNL A   1      34.548  31.923  28.978  1.00  0.00    -0.458 OA
BRANCH  21  22
ATOM     22  C   UNL A   1      34.616  30.782  28.254  1.00  0.00     0.338 C 
ATOM     23  O   UNL A   1      33.756  30.314  27.526  1.00  0.00    -0.246 OA
BRANCH  22  24
ATOM     24  C   UNL A   1      35.943  30.164  28.409  1.00  0.00     0.060 A 
ATOM     25  C   UNL A   1      36.315  29.696  29.669  1.00  0.00     0.016 A 
ATOM     26  C   UNL A   1      36.860  30.160  27.358  1.00  0.00     0.016 A 
ATOM     27  C   UNL A   1      37.615  29.258  29.905  1.00  0.00     0.010 A 
ATOM     28  C   UNL A   1      38.157  29.689  27.585  1.00  0.00     0.010 A 
ATOM     29  C   UNL A   1      38.551  29.254  28.866  1.00  0.00    -0.014 A 
BRANCH  29  30
ATOM     30  C   UNL A   1      39.958  28.847  29.116  1.00  0.00     0.031 A 
ATOM     31  C   UNL A   1      40.925  29.839  29.698  1.00  0.00     0.074 A 
ATOM     32  C   UNL A   1      40.373  27.604  28.807  1.00  0.00     0.049 A 
ATOM     33  N   UNL A   1      42.226  29.765  29.811  1.00  0.00    -0.248 NA
ATOM     34  C   UNL A   1      40.346  31.090  30.215  1.00  0.00     0.031 C 
ATOM     35  C   UNL A   1      39.522  26.528  28.299  1.00  0.00     0.029 A 
ATOM     36  N   UNL A   1      41.625  27.044  28.858  1.00  0.00    -0.354 N 
ATOM     37  C   UNL A   1      42.626  30.972  30.371  1.00  0.00     0.074 A 
ATOM     38  C   UNL A   1      41.431  31.766  30.564  1.00  0.00     0.031 C 
ATOM     39  C   UNL A   1      40.277  25.440  28.078  1.00  0.00     0.029 A 
ATOM     40  C   UNL A   1      41.671  25.765  28.360  1.00  0.00     0.049 A 
ATOM     41  H   UNL A   1      42.414  27.513  29.217  1.00  0.00     0.167 HD
ATOM     42  C   UNL A   1      43.878  31.378  30.692  1.00  0.00     0.037 A 
ATOM     43  C   UNL A   1      42.724  24.962  28.110  1.00  0.00     0.037 A 
ATOM     44  C   UNL A   1      45.057  30.571  30.513  1.00  0.00     0.049 A 
ATOM     45  C   UNL A   1      44.112  25.463  28.401  1.00  0.00     0.074 A 
ATOM     46  C   UNL A   1      46.372  30.884  30.809  1.00  0.00     0.029 A 
ATOM     47  N   UNL A   1      45.062  29.286  29.989  1.00  0.00    -0.354 N 
ATOM     48  N   UNL A   1      44.487  26.614  28.905  1.00  0.00    -0.248 NA
ATOM     49  C   UNL A   1      45.224  24.557  28.083  1.00  0.00     0.031 C 
ATOM     50  C   UNL A   1      47.177  29.810  30.418  1.00  0.00     0.029 A 
ATOM     51  C   UNL A   1      46.358  28.801  29.937  1.00  0.00     0.049 A 
ATOM     52  H   UNL A   1      44.261  28.791  29.697  1.00  0.00     0.167 HD
ATOM     53  C   UNL A   1      45.872  26.556  28.999  1.00  0.00     0.074 A 
ATOM     54  C   UNL A   1      46.269  25.255  28.502  1.00  0.00     0.031 C 
ATOM     55  C   UNL A   1      46.734  27.493  29.462  1.00  0.00     0.037 A 
BRANCH  42  56
ATOM     56  C   UNL A   1      44.041  32.771  31.231  1.00  0.00     0.057 A 
ATOM     57  C   UNL A   1      44.054  33.046  32.604  1.00  0.00     0.134 A 
ATOM     58  C   UNL A   1      44.212  33.853  30.356  1.00  0.00     0.134 A 
ATOM     59  F   UNL A   1      43.883  32.058  33.497  1.00  0.00    -0.206 F 
ATOM     60  C   UNL A   1      44.203  34.348  33.088  1.00  0.00     0.040 A 
ATOM     61  C   UNL A   1      44.391  35.155  30.828  1.00  0.00     0.040 A 
ATOM     62  F   UNL A   1      44.216  33.663  29.028  1.00  0.00    -0.206 F 
ATOM     63  C   UNL A   1      44.378  35.406  32.198  1.00  0.00     0.006 A 
ENDBRANCH  42  56
BRANCH  43  64
ATOM     64  C   UNL A   1      42.509  23.615  27.523  1.00  0.00     0.057 A 
ATOM     65  C   UNL A   1      42.299  22.495  28.337  1.00  0.00     0.134 A 
ATOM     66  C   UNL A   1      42.516  23.409  26.137  1.00  0.00     0.134 A 
ATOM     67  F   UNL A   1      42.305  22.622  29.672  1.00  0.00    -0.206 F 
ATOM     68  C   UNL A   1      42.122  21.221  27.797  1.00  0.00     0.040 A 
ATOM     69  C   UNL A   1      42.310  22.146  25.583  1.00  0.00     0.040 A 
ATOM     70  F   UNL A   1      42.709  24.440  25.300  1.00  0.00    -0.206 F 
ATOM     71  C   UNL A   1      42.120  21.044  26.414  1.00  0.00     0.006 A 
ENDBRANCH  43  64
BRANCH  55  72
ATOM     72  C   UNL A   1      48.189  27.126  29.523  1.00  0.00     0.057 A 
ATOM     73  C   UNL A   1      48.743  26.446  30.612  1.00  0.00     0.134 A 
ATOM     74  C   UNL A   1      49.033  27.413  28.441  1.00  0.00     0.134 A 
ATOM     75  F   UNL A   1      47.993  26.153  31.686  1.00  0.00    -0.206 F 
ATOM     76  C   UNL A   1      50.090  26.077  30.633  1.00  0.00     0.040 A 
ATOM     77  C   UNL A   1      50.373  27.025  28.437  1.00  0.00     0.040 A 
ATOM     78  F   UNL A   1      48.562  28.057  27.362  1.00  0.00    -0.206 F 
ATOM     79  C   UNL A   1      50.905  26.358  29.537  1.00  0.00     0.006 A 
ENDBRANCH  55  72
ENDBRANCH  29  30
ENDBRANCH  22  24
ENDBRANCH  21  22
ENDBRANCH  20  21
ENDBRANCH   1  20
TORSDOF 14
ENDMDL
MODEL 3
REMARK VINA RESULT:     -11.1      1.421      2.170
REMARK SMILES O=C1NC[C@@H](CSc2ccnc(C(=O)OCCOC(=O)c3ccc(-c4c5nc(c(-c6c(F)cccc6F)c6ccc([nH]6)c(-c6c(F)cccc6F)c6nc(c(-c7c(F)cccc7F)c7ccc4[nH]7)C=C6)C=C5)cc3)c2)O1
REMARK SMILES IDX 16 1 15 2 13 3 14 4 12 5 8 6 9 7 75 8 10 9 11 10 7 11 6 12
REMARK SMILES IDX 5 13 1 14 2 15 3 16 76 17 4 18 17 20 18 21 19 22 20 23 21 24
REMARK SMILES IDX 22 25 74 26 23 27 73 28 24 29 25 30 26 31 67 32 27 33 72 34
REMARK SMILES IDX 66 35 68 36 28 37 71 38 65 39 64 40 29 42 55 43 38 44 54 45
REMARK SMILES IDX 39 46 42 47 53 48 69 49 40 50 41 51 52 53 70 54 43 55 30 56
REMARK SMILES IDX 31 57 36 58 32 59 33 60 35 61 37 62 34 63 56 64 57 65 62 66
REMARK SMILES IDX 58 67 59 68 61 69 63 70 60 71 44 72 45 73 50 74 46 75 47 76
REMARK SMILES IDX 49 77 51 78 48 79
REMARK H PARENT 3 19 68 41 42 52
REMARK Flexibility Score: inf
ROOT
ATOM      1  C   UNL A   1      41.706  20.226  26.557  1.00  0.00     0.275 C 
ENDROOT
BRANCH   1   2
ATOM      2  O   UNL A   1      40.425  20.868  26.728  1.00  0.00    -0.457 OA
BRANCH   2   3
ATOM      3  C   UNL A   1      39.461  20.432  25.877  1.00  0.00     0.357 C 
ATOM      4  O   UNL A   1      39.410  19.308  25.394  1.00  0.00    -0.244 OA
BRANCH   3   5
ATOM      5  C   UNL A   1      38.391  21.457  25.649  1.00  0.00     0.149 A 
ATOM      6  C   UNL A   1      36.217  22.202  25.008  1.00  0.00     0.011 A 
ATOM      7  C   UNL A   1      36.527  23.442  25.561  1.00  0.00     0.035 A 
ATOM      8  C   UNL A   1      37.164  21.175  25.062  1.00  0.00     0.051 A 
ATOM      9  C   UNL A   1      37.790  23.655  26.061  1.00  0.00     0.113 A 
ATOM     10  N   UNL A   1      38.716  22.692  26.124  1.00  0.00    -0.249 NA
BRANCH   6  11
ATOM     11  S   UNL A   1      34.559  21.905  24.429  1.00  0.00    -0.122 SA
BRANCH  11  12
ATOM     12  C   UNL A   1      33.587  23.266  25.198  1.00  0.00     0.122 C 
BRANCH  12  13
ATOM     13  C   UNL A   1      32.710  24.178  24.323  1.00  0.00     0.208 C 
ATOM     14  O   UNL A   1      33.703  25.997  21.556  1.00  0.00    -0.225 OA
ATOM     15  C   UNL A   1      33.200  25.241  22.365  1.00  0.00     0.407 C 
ATOM     16  N   UNL A   1      32.340  24.229  22.052  1.00  0.00    -0.318 N 
ATOM     17  O   UNL A   1      33.448  25.245  23.705  1.00  0.00    -0.443 OA
ATOM     18  C   UNL A   1      31.958  23.486  23.201  1.00  0.00     0.165 C 
ATOM     19  H   UNL A   1      32.022  24.037  21.141  1.00  0.00     0.167 HD
ENDBRANCH  12  13
ENDBRANCH  11  12
ENDBRANCH   6  11
ENDBRANCH   3   5
ENDBRANCH   2   3
ENDBRANCH   1   2
BRANCH   1  20
ATOM     20  C   UNL A   1      42.777  21.206  26.062  1.00  0.00     0.275 C 
BRANCH  20  21
ATOM     21  O   UNL A   1      42.225  22.348  25.380  1.00  0.00    -0.458 OA
BRANCH  21  22
ATOM     22  C   UNL A   1      43.031  23.435  25.327  1.00  0.00     0.338 C 
ATOM     23  O   UNL A   1      44.005  23.599  24.611  1.00  0.00    -0.246 OA
BRANCH  22  24
ATOM     24  C   UNL A   1      42.536  24.476  26.242  1.00  0.00     0.060 A 
ATOM     25  C   UNL A   1      43.099  25.749  26.165  1.00  0.00     0.016 A 
ATOM     26  C   UNL A   1      41.622  24.171  27.249  1.00  0.00     0.016 A 
ATOM     27  C   UNL A   1      42.787  26.719  27.114  1.00  0.00     0.010 A 
ATOM     28  C   UNL A   1      41.282  25.154  28.184  1.00  0.00     0.010 A 
ATOM     29  C   UNL A   1      41.877  26.430  28.136  1.00  0.00    -0.014 A 
BRANCH  29  30
ATOM     30  C   UNL A   1      41.581  27.432  29.191  1.00  0.00     0.031 A 
ATOM     31  C   UNL A   1      42.375  27.425  30.467  1.00  0.00     0.074 A 
ATOM     32  C   UNL A   1      40.595  28.332  29.018  1.00  0.00     0.049 A 
ATOM     33  N   UNL A   1      42.158  28.067  31.586  1.00  0.00    -0.248 NA
ATOM     34  C   UNL A   1      43.572  26.568  30.486  1.00  0.00     0.031 C 
ATOM     35  C   UNL A   1      39.795  28.490  27.803  1.00  0.00     0.029 A 
ATOM     36  N   UNL A   1      40.086  29.274  29.877  1.00  0.00    -0.354 N 
ATOM     37  C   UNL A   1      43.163  27.661  32.455  1.00  0.00     0.074 A 
ATOM     38  C   UNL A   1      43.984  26.709  31.738  1.00  0.00     0.031 C 
ATOM     39  C   UNL A   1      38.891  29.463  27.996  1.00  0.00     0.029 A 
ATOM     40  C   UNL A   1      39.001  29.946  29.368  1.00  0.00     0.049 A 
ATOM     41  H   UNL A   1      40.461  29.451  30.770  1.00  0.00     0.167 HD
ATOM     42  C   UNL A   1      43.378  28.050  33.735  1.00  0.00     0.037 A 
ATOM     43  C   UNL A   1      38.158  30.816  29.958  1.00  0.00     0.037 A 
ATOM     44  C   UNL A   1      42.565  29.014  34.431  1.00  0.00     0.049 A 
ATOM     45  C   UNL A   1      38.369  31.175  31.403  1.00  0.00     0.074 A 
ATOM     46  C   UNL A   1      42.698  29.482  35.726  1.00  0.00     0.029 A 
ATOM     47  N   UNL A   1      41.465  29.659  33.885  1.00  0.00    -0.354 N 
ATOM     48  N   UNL A   1      39.303  30.769  32.229  1.00  0.00    -0.248 NA
ATOM     49  C   UNL A   1      37.403  32.106  32.003  1.00  0.00     0.031 C 
ATOM     50  C   UNL A   1      41.650  30.372  35.980  1.00  0.00     0.029 A 
ATOM     51  C   UNL A   1      40.900  30.507  34.824  1.00  0.00     0.049 A 
ATOM     52  H   UNL A   1      41.134  29.534  32.965  1.00  0.00     0.167 HD
ATOM     53  C   UNL A   1      39.062  31.423  33.430  1.00  0.00     0.074 A 
ATOM     54  C   UNL A   1      37.894  32.253  33.226  1.00  0.00     0.031 C 
ATOM     55  C   UNL A   1      39.750  31.347  34.595  1.00  0.00     0.037 A 
BRANCH  42  56
ATOM     56  C   UNL A   1      44.511  27.402  34.478  1.00  0.00     0.057 A 
ATOM     57  C   UNL A   1      45.798  27.956  34.514  1.00  0.00     0.134 A 
ATOM     58  C   UNL A   1      44.303  26.214  35.191  1.00  0.00     0.134 A 
ATOM     59  F   UNL A   1      46.070  29.086  33.842  1.00  0.00    -0.206 F 
ATOM     60  C   UNL A   1      46.841  27.338  35.206  1.00  0.00     0.040 A 
ATOM     61  C   UNL A   1      45.330  25.601  35.912  1.00  0.00     0.040 A 
ATOM     62  F   UNL A   1      43.094  25.630  35.207  1.00  0.00    -0.206 F 
ATOM     63  C   UNL A   1      46.607  26.160  35.914  1.00  0.00     0.006 A 
ENDBRANCH  42  56
BRANCH  43  64
ATOM     64  C   UNL A   1      37.019  31.384  29.192  1.00  0.00     0.057 A 
ATOM     65  C   UNL A   1      37.057  32.694  28.701  1.00  0.00     0.134 A 
ATOM     66  C   UNL A   1      35.861  30.636  28.938  1.00  0.00     0.134 A 
ATOM     67  F   UNL A   1      38.128  33.469  28.932  1.00  0.00    -0.206 F 
ATOM     68  C   UNL A   1      35.983  33.246  28.002  1.00  0.00     0.040 A 
ATOM     69  C   UNL A   1      34.792  31.164  28.214  1.00  0.00     0.040 A 
ATOM     70  F   UNL A   1      35.761  29.372  29.378  1.00  0.00    -0.206 F 
ATOM     71  C   UNL A   1      34.847  32.477  27.751  1.00  0.00     0.006 A 
ENDBRANCH  43  64
BRANCH  55  72
ATOM     72  C   UNL A   1      39.307  32.234  35.721  1.00  0.00     0.057 A 
ATOM     73  C   UNL A   1      38.411  31.802  36.705  1.00  0.00     0.134 A 
ATOM     74  C   UNL A   1      39.834  33.527  35.849  1.00  0.00     0.134 A 
ATOM     75  F   UNL A   1      37.859  30.581  36.635  1.00  0.00    -0.206 F 
ATOM     76  C   UNL A   1      38.042  32.628  37.769  1.00  0.00     0.040 A 
ATOM     77  C   UNL A   1      39.496  34.352  36.922  1.00  0.00     0.040 A 
ATOM     78  F   UNL A   1      40.703  34.000  34.943  1.00  0.00    -0.206 F 
ATOM     79  C   UNL A   1      38.594  33.904  37.884  1.00  0.00     0.006 A 
ENDBRANCH  55  72
ENDBRANCH  29  30
ENDBRANCH  22  24
ENDBRANCH  21  22
ENDBRANCH  20  21
ENDBRANCH   1  20
TORSDOF 14
ENDMDL
