MODEL 1
REMARK VINA RESULT:     -10.7      0.000      0.000
REMARK SMILES C[C@H]1CC[C@H]([NH+](CC(=O)OCCOC(=O)c2ccc(-c3c4nc(c(-c5c(F)cccc5F)c5ccc([nH]5)c(-c5c(F)cccc5F)c5nc(c(-c6c(F)cccc6F)c6ccc3[nH]6)C=C5)C=C4)cc2)C(C)(C)C)C[C@@H]1C
REMARK SMILES IDX 11 1 10 2 8 3 9 4 7 5 6 6 5 8 1 9 2 10 3 11 75 12 4 13 74 14
REMARK SMILES IDX 76 15 70 16 71 17 72 18 73 19 12 20 13 21 14 22 15 23 16 24
REMARK SMILES IDX 17 25 69 26 18 27 68 28 19 29 20 30 21 31 62 32 22 33 67 34
REMARK SMILES IDX 61 35 63 36 23 37 66 38 60 39 59 40 24 42 50 43 33 44 49 45
REMARK SMILES IDX 34 46 37 47 48 48 64 49 35 50 36 51 47 53 65 54 38 55 25 56
REMARK SMILES IDX 26 57 31 58 27 59 28 60 30 61 32 62 29 63 51 64 52 65 57 66
REMARK SMILES IDX 53 67 54 68 56 69 58 70 55 71 39 72 40 73 45 74 41 75 42 76
REMARK SMILES IDX 44 77 46 78 43 79
REMARK H PARENT 6 7 63 41 37 52
REMARK Flexibility Score: inf
ROOT
ATOM      1  C   UNL A   1      32.016  28.042  26.337  1.00  0.00     0.274 C 
ENDROOT
BRANCH   1   2
ATOM      2  O   UNL A   1      30.909  27.211  25.914  1.00  0.00    -0.458 OA
BRANCH   2   3
ATOM      3  C   UNL A   1      31.130  25.873  25.874  1.00  0.00     0.361 C 
ATOM      4  O   UNL A   1      31.362  25.198  26.876  1.00  0.00    -0.245 OA
BRANCH   3   5
ATOM      5  C   UNL A   1      31.114  25.238  24.479  1.00  0.00     0.387 C 
BRANCH   5   6
ATOM      6  N   UNL A   1      32.289  25.441  23.606  1.00  0.00    -0.319 N 
ATOM      7  H   UNL A   1      32.793  26.054  22.965  1.00  0.00     0.349 HD
BRANCH   6   8
ATOM      8  C   UNL A   1      33.417  24.515  23.852  1.00  0.00     0.185 C 
ATOM      9  C   UNL A   1      36.009  21.453  25.749  1.00  0.00     0.008 C 
ATOM     10  C   UNL A   1      34.862  22.426  25.467  1.00  0.00    -0.011 C 
ATOM     11  C   UNL A   1      35.446  23.823  25.218  1.00  0.00     0.010 C 
ATOM     12  C   UNL A   1      34.010  21.997  24.259  1.00  0.00    -0.006 C 
ATOM     13  C   UNL A   1      34.338  24.852  25.032  1.00  0.00     0.065 C 
ATOM     14  C   UNL A   1      32.951  23.049  23.899  1.00  0.00     0.068 C 
ATOM     15  C   UNL A   1      33.286  20.660  24.472  1.00  0.00     0.008 C 
ENDBRANCH   6   8
BRANCH   6  16
ATOM     16  C   UNL A   1      32.273  26.496  22.561  1.00  0.00     0.090 C 
ATOM     17  C   UNL A   1      33.297  27.613  22.858  1.00  0.00     0.078 C 
ATOM     18  C   UNL A   1      32.527  25.910  21.152  1.00  0.00     0.078 C 
ATOM     19  C   UNL A   1      30.911  27.222  22.433  1.00  0.00     0.078 C 
ENDBRANCH   6  16
ENDBRANCH   5   6
ENDBRANCH   3   5
ENDBRANCH   2   3
ENDBRANCH   1   2
BRANCH   1  20
ATOM     20  C   UNL A   1      31.778  29.480  25.892  1.00  0.00     0.275 C 
BRANCH  20  21
ATOM     21  O   UNL A   1      33.056  30.132  25.886  1.00  0.00    -0.458 OA
BRANCH  21  22
ATOM     22  C   UNL A   1      33.227  31.054  26.852  1.00  0.00     0.338 C 
ATOM     23  O   UNL A   1      32.460  31.940  27.200  1.00  0.00    -0.246 OA
BRANCH  22  24
ATOM     24  C   UNL A   1      34.509  30.800  27.507  1.00  0.00     0.060 A 
ATOM     25  C   UNL A   1      34.786  29.524  28.002  1.00  0.00     0.016 A 
ATOM     26  C   UNL A   1      35.381  31.862  27.727  1.00  0.00     0.016 A 
ATOM     27  C   UNL A   1      35.898  29.328  28.805  1.00  0.00     0.010 A 
ATOM     28  C   UNL A   1      36.555  31.637  28.440  1.00  0.00     0.010 A 
ATOM     29  C   UNL A   1      36.810  30.374  29.000  1.00  0.00    -0.014 A 
BRANCH  29  30
ATOM     30  C   UNL A   1      38.080  30.121  29.713  1.00  0.00     0.031 A 
ATOM     31  C   UNL A   1      39.161  29.289  29.094  1.00  0.00     0.074 A 
ATOM     32  C   UNL A   1      38.220  30.632  30.951  1.00  0.00     0.049 A 
ATOM     33  N   UNL A   1      40.267  28.845  29.633  1.00  0.00    -0.248 NA
ATOM     34  C   UNL A   1      38.968  28.888  27.692  1.00  0.00     0.031 C 
ATOM     35  C   UNL A   1      37.221  31.455  31.638  1.00  0.00     0.029 A 
ATOM     36  N   UNL A   1      39.247  30.535  31.849  1.00  0.00    -0.354 N 
ATOM     37  C   UNL A   1      40.884  28.081  28.652  1.00  0.00     0.074 A 
ATOM     38  C   UNL A   1      40.029  28.120  27.484  1.00  0.00     0.031 C 
ATOM     39  C   UNL A   1      37.696  31.815  32.837  1.00  0.00     0.029 A 
ATOM     40  C   UNL A   1      38.995  31.186  33.031  1.00  0.00     0.049 A 
ATOM     41  H   UNL A   1      40.083  30.049  31.666  1.00  0.00     0.167 HD
ATOM     42  C   UNL A   1      42.055  27.403  28.733  1.00  0.00     0.037 A 
ATOM     43  C   UNL A   1      39.713  31.238  34.165  1.00  0.00     0.037 A 
ATOM     44  C   UNL A   1      42.894  27.389  29.906  1.00  0.00     0.049 A 
ATOM     45  C   UNL A   1      41.009  30.494  34.224  1.00  0.00     0.074 A 
ATOM     46  C   UNL A   1      44.098  26.736  30.105  1.00  0.00     0.029 A 
ATOM     47  N   UNL A   1      42.611  28.071  31.083  1.00  0.00    -0.354 N 
ATOM     48  N   UNL A   1      41.568  29.744  33.304  1.00  0.00    -0.248 NA
ATOM     49  C   UNL A   1      41.770  30.592  35.474  1.00  0.00     0.031 C 
ATOM     50  C   UNL A   1      44.529  27.000  31.411  1.00  0.00     0.029 A 
ATOM     51  C   UNL A   1      43.612  27.848  32.014  1.00  0.00     0.049 A 
ATOM     52  H   UNL A   1      41.816  28.632  31.234  1.00  0.00     0.167 HD
ATOM     53  C   UNL A   1      42.740  29.266  33.867  1.00  0.00     0.074 A 
ATOM     54  C   UNL A   1      42.828  29.843  35.195  1.00  0.00     0.031 C 
ATOM     55  C   UNL A   1      43.654  28.416  33.339  1.00  0.00     0.037 A 
BRANCH  42  56
ATOM     56  C   UNL A   1      42.468  26.595  27.537  1.00  0.00     0.057 A 
ATOM     57  C   UNL A   1      43.269  27.128  26.519  1.00  0.00     0.134 A 
ATOM     58  C   UNL A   1      42.063  25.261  27.406  1.00  0.00     0.134 A 
ATOM     59  F   UNL A   1      43.678  28.405  26.574  1.00  0.00    -0.206 F 
ATOM     60  C   UNL A   1      43.633  26.371  25.403  1.00  0.00     0.040 A 
ATOM     61  C   UNL A   1      42.438  24.487  26.305  1.00  0.00     0.040 A 
ATOM     62  F   UNL A   1      41.298  24.686  28.344  1.00  0.00    -0.206 F 
ATOM     63  C   UNL A   1      43.220  25.044  25.295  1.00  0.00     0.006 A 
ENDBRANCH  42  56
BRANCH  43  64
ATOM     64  C   UNL A   1      39.188  32.008  35.317  1.00  0.00     0.057 A 
ATOM     65  C   UNL A   1      39.389  33.388  35.415  1.00  0.00     0.134 A 
ATOM     66  C   UNL A   1      38.396  31.397  36.298  1.00  0.00     0.134 A 
ATOM     67  F   UNL A   1      40.147  34.025  34.510  1.00  0.00    -0.206 F 
ATOM     68  C   UNL A   1      38.813  34.137  36.442  1.00  0.00     0.040 A 
ATOM     69  C   UNL A   1      37.795  32.137  37.317  1.00  0.00     0.040 A 
ATOM     70  F   UNL A   1      38.154  30.079  36.248  1.00  0.00    -0.206 F 
ATOM     71  C   UNL A   1      38.004  33.512  37.390  1.00  0.00     0.006 A 
ENDBRANCH  43  64
BRANCH  55  72
ATOM     72  C   UNL A   1      44.810  28.063  34.223  1.00  0.00     0.057 A 
ATOM     73  C   UNL A   1      45.980  28.831  34.235  1.00  0.00     0.134 A 
ATOM     74  C   UNL A   1      44.757  26.939  35.056  1.00  0.00     0.134 A 
ATOM     75  F   UNL A   1      46.094  29.910  33.445  1.00  0.00    -0.206 F 
ATOM     76  C   UNL A   1      47.073  28.477  35.026  1.00  0.00     0.040 A 
ATOM     77  C   UNL A   1      45.837  26.586  35.865  1.00  0.00     0.040 A 
ATOM     78  F   UNL A   1      43.663  26.165  35.087  1.00  0.00    -0.206 F 
ATOM     79  C   UNL A   1      47.002  27.352  35.846  1.00  0.00     0.006 A 
ENDBRANCH  55  72
ENDBRANCH  29  30
ENDBRANCH  22  24
ENDBRANCH  21  22
ENDBRANCH  20  21
ENDBRANCH   1  20
TORSDOF 14
ENDMDL
MODEL 2
REMARK VINA RESULT:     -10.6      3.990      8.508
REMARK SMILES C[C@H]1CC[C@H]([NH+](CC(=O)OCCOC(=O)c2ccc(-c3c4nc(c(-c5c(F)cccc5F)c5ccc([nH]5)c(-c5c(F)cccc5F)c5nc(c(-c6c(F)cccc6F)c6ccc3[nH]6)C=C5)C=C4)cc2)C(C)(C)C)C[C@@H]1C
REMARK SMILES IDX 11 1 10 2 8 3 9 4 7 5 6 6 5 8 1 9 2 10 3 11 75 12 4 13 74 14
REMARK SMILES IDX 76 15 70 16 71 17 72 18 73 19 12 20 13 21 14 22 15 23 16 24
REMARK SMILES IDX 17 25 69 26 18 27 68 28 19 29 20 30 21 31 62 32 22 33 67 34
REMARK SMILES IDX 61 35 63 36 23 37 66 38 60 39 59 40 24 42 50 43 33 44 49 45
REMARK SMILES IDX 34 46 37 47 48 48 64 49 35 50 36 51 47 53 65 54 38 55 25 56
REMARK SMILES IDX 26 57 31 58 27 59 28 60 30 61 32 62 29 63 51 64 52 65 57 66
REMARK SMILES IDX 53 67 54 68 56 69 58 70 55 71 39 72 40 73 45 74 41 75 42 76
REMARK SMILES IDX 44 77 46 78 43 79
REMARK H PARENT 6 7 63 41 37 52
REMARK Flexibility Score: inf
ROOT
ATOM      1  C   UNL A   1      38.335  21.062  25.563  1.00  0.00     0.274 C 
ENDROOT
BRANCH   1   2
ATOM      2  O   UNL A   1      37.333  21.330  24.554  1.00  0.00    -0.458 OA
BRANCH   2   3
ATOM      3  C   UNL A   1      36.747  22.553  24.584  1.00  0.00     0.361 C 
ATOM      4  O   UNL A   1      37.246  23.525  25.149  1.00  0.00    -0.245 OA
BRANCH   3   5
ATOM      5  C   UNL A   1      35.383  22.653  23.894  1.00  0.00     0.387 C 
BRANCH   5   6
ATOM      6  N   UNL A   1      34.182  22.819  24.740  1.00  0.00    -0.319 N 
ATOM      7  H   UNL A   1      33.587  22.442  25.478  1.00  0.00     0.349 HD
BRANCH   6   8
ATOM      8  C   UNL A   1      33.646  24.197  24.799  1.00  0.00     0.185 C 
ATOM      9  C   UNL A   1      33.337  28.610  24.451  1.00  0.00     0.008 C 
ATOM     10  C   UNL A   1      33.863  27.174  24.409  1.00  0.00    -0.011 C 
ATOM     11  C   UNL A   1      33.678  26.537  25.792  1.00  0.00     0.010 C 
ATOM     12  C   UNL A   1      33.153  26.318  23.345  1.00  0.00    -0.006 C 
ATOM     13  C   UNL A   1      34.279  25.138  25.834  1.00  0.00     0.065 C 
ATOM     14  C   UNL A   1      33.588  24.846  23.405  1.00  0.00     0.068 C 
ATOM     15  C   UNL A   1      33.388  26.815  21.911  1.00  0.00     0.008 C 
ENDBRANCH   6   8
BRANCH   6  16
ATOM     16  C   UNL A   1      33.590  21.650  25.438  1.00  0.00     0.090 C 
ATOM     17  C   UNL A   1      34.103  21.526  26.889  1.00  0.00     0.078 C 
ATOM     18  C   UNL A   1      32.044  21.701  25.429  1.00  0.00     0.078 C 
ATOM     19  C   UNL A   1      33.930  20.293  24.773  1.00  0.00     0.078 C 
ENDBRANCH   6  16
ENDBRANCH   5   6
ENDBRANCH   3   5
ENDBRANCH   2   3
ENDBRANCH   1   2
BRANCH   1  20
ATOM     20  C   UNL A   1      39.174  19.860  25.150  1.00  0.00     0.275 C 
BRANCH  20  21
ATOM     21  O   UNL A   1      40.062  19.575  26.239  1.00  0.00    -0.458 OA
BRANCH  21  22
ATOM     22  C   UNL A   1      41.367  19.770  25.973  1.00  0.00     0.338 C 
ATOM     23  O   UNL A   1      42.122  19.066  25.318  1.00  0.00    -0.246 OA
BRANCH  22  24
ATOM     24  C   UNL A   1      41.771  21.046  26.561  1.00  0.00     0.060 A 
ATOM     25  C   UNL A   1      41.759  21.195  27.951  1.00  0.00     0.016 A 
ATOM     26  C   UNL A   1      42.048  22.123  25.725  1.00  0.00     0.016 A 
ATOM     27  C   UNL A   1      41.932  22.453  28.505  1.00  0.00     0.010 A 
ATOM     28  C   UNL A   1      42.333  23.363  26.290  1.00  0.00     0.010 A 
ATOM     29  C   UNL A   1      42.258  23.539  27.681  1.00  0.00    -0.014 A 
BRANCH  29  30
ATOM     30  C   UNL A   1      42.610  24.843  28.285  1.00  0.00     0.031 A 
ATOM     31  C   UNL A   1      41.565  25.887  28.529  1.00  0.00     0.074 A 
ATOM     32  C   UNL A   1      43.904  25.073  28.574  1.00  0.00     0.049 A 
ATOM     33  N   UNL A   1      41.718  27.130  28.908  1.00  0.00    -0.248 NA
ATOM     34  C   UNL A   1      40.166  25.493  28.303  1.00  0.00     0.031 C 
ATOM     35  C   UNL A   1      44.995  24.115  28.370  1.00  0.00     0.029 A 
ATOM     36  N   UNL A   1      44.523  26.176  29.095  1.00  0.00    -0.354 N 
ATOM     37  C   UNL A   1      40.444  27.678  28.929  1.00  0.00     0.074 A 
ATOM     38  C   UNL A   1      39.527  26.633  28.524  1.00  0.00     0.031 C 
ATOM     39  C   UNL A   1      46.143  24.660  28.791  1.00  0.00     0.029 A 
ATOM     40  C   UNL A   1      45.881  26.027  29.219  1.00  0.00     0.049 A 
ATOM     41  H   UNL A   1      44.042  26.995  29.355  1.00  0.00     0.167 HD
ATOM     42  C   UNL A   1      40.082  28.944  29.250  1.00  0.00     0.037 A 
ATOM     43  C   UNL A   1      46.822  26.907  29.599  1.00  0.00     0.037 A 
ATOM     44  C   UNL A   1      41.015  29.964  29.661  1.00  0.00     0.049 A 
ATOM     45  C   UNL A   1      46.397  28.294  29.962  1.00  0.00     0.074 A 
ATOM     46  C   UNL A   1      40.765  31.281  30.006  1.00  0.00     0.029 A 
ATOM     47  N   UNL A   1      42.385  29.772  29.787  1.00  0.00    -0.354 N 
ATOM     48  N   UNL A   1      45.192  28.814  29.945  1.00  0.00    -0.248 NA
ATOM     49  C   UNL A   1      47.452  29.218  30.388  1.00  0.00     0.031 C 
ATOM     50  C   UNL A   1      41.988  31.892  30.314  1.00  0.00     0.029 A 
ATOM     51  C   UNL A   1      42.995  30.947  30.196  1.00  0.00     0.049 A 
ATOM     52  H   UNL A   1      42.855  28.925  29.612  1.00  0.00     0.167 HD
ATOM     53  C   UNL A   1      45.344  30.132  30.341  1.00  0.00     0.074 A 
ATOM     54  C   UNL A   1      46.754  30.319  30.630  1.00  0.00     0.031 C 
ATOM     55  C   UNL A   1      44.406  31.105  30.446  1.00  0.00     0.037 A 
BRANCH  42  56
ATOM     56  C   UNL A   1      38.629  29.298  29.128  1.00  0.00     0.057 A 
ATOM     57  C   UNL A   1      37.759  29.262  30.225  1.00  0.00     0.134 A 
ATOM     58  C   UNL A   1      38.093  29.690  27.894  1.00  0.00     0.134 A 
ATOM     59  F   UNL A   1      38.202  28.879  31.432  1.00  0.00    -0.206 F 
ATOM     60  C   UNL A   1      36.403  29.577  30.095  1.00  0.00     0.040 A 
ATOM     61  C   UNL A   1      36.745  30.028  27.755  1.00  0.00     0.040 A 
ATOM     62  F   UNL A   1      38.869  29.750  26.802  1.00  0.00    -0.206 F 
ATOM     63  C   UNL A   1      35.894  29.966  28.856  1.00  0.00     0.006 A 
ENDBRANCH  42  56
BRANCH  43  64
ATOM     64  C   UNL A   1      48.241  26.482  29.623  1.00  0.00     0.057 A 
ATOM     65  C   UNL A   1      49.096  26.761  28.553  1.00  0.00     0.134 A 
ATOM     66  C   UNL A   1      48.796  25.868  30.753  1.00  0.00     0.134 A 
ATOM     67  F   UNL A   1      48.619  27.339  27.441  1.00  0.00    -0.206 F 
ATOM     68  C   UNL A   1      50.457  26.454  28.608  1.00  0.00     0.040 A 
ATOM     69  C   UNL A   1      50.158  25.576  30.832  1.00  0.00     0.040 A 
ATOM     70  F   UNL A   1      48.029  25.589  31.818  1.00  0.00    -0.206 F 
ATOM     71  C   UNL A   1      50.992  25.870  29.756  1.00  0.00     0.006 A 
ENDBRANCH  43  64
BRANCH  55  72
ATOM     72  C   UNL A   1      44.901  32.451  30.876  1.00  0.00     0.057 A 
ATOM     73  C   UNL A   1      44.964  32.807  32.229  1.00  0.00     0.134 A 
ATOM     74  C   UNL A   1      45.303  33.403  29.932  1.00  0.00     0.134 A 
ATOM     75  F   UNL A   1      44.575  31.942  33.178  1.00  0.00    -0.206 F 
ATOM     76  C   UNL A   1      45.383  34.076  32.627  1.00  0.00     0.040 A 
ATOM     77  C   UNL A   1      45.741  34.668  30.319  1.00  0.00     0.040 A 
ATOM     78  F   UNL A   1      45.265  33.119  28.621  1.00  0.00    -0.206 F 
ATOM     79  C   UNL A   1      45.775  35.010  31.670  1.00  0.00     0.006 A 
ENDBRANCH  55  72
ENDBRANCH  29  30
ENDBRANCH  22  24
ENDBRANCH  21  22
ENDBRANCH  20  21
ENDBRANCH   1  20
TORSDOF 14
ENDMDL
MODEL 3
REMARK VINA RESULT:     -10.6      3.681      8.456
REMARK SMILES C[C@H]1CC[C@H]([NH+](CC(=O)OCCOC(=O)c2ccc(-c3c4nc(c(-c5c(F)cccc5F)c5ccc([nH]5)c(-c5c(F)cccc5F)c5nc(c(-c6c(F)cccc6F)c6ccc3[nH]6)C=C5)C=C4)cc2)C(C)(C)C)C[C@@H]1C
REMARK SMILES IDX 11 1 10 2 8 3 9 4 7 5 6 6 5 8 1 9 2 10 3 11 75 12 4 13 74 14
REMARK SMILES IDX 76 15 70 16 71 17 72 18 73 19 12 20 13 21 14 22 15 23 16 24
REMARK SMILES IDX 17 25 69 26 18 27 68 28 19 29 20 30 21 31 62 32 22 33 67 34
REMARK SMILES IDX 61 35 63 36 23 37 66 38 60 39 59 40 24 42 50 43 33 44 49 45
REMARK SMILES IDX 34 46 37 47 48 48 64 49 35 50 36 51 47 53 65 54 38 55 25 56
REMARK SMILES IDX 26 57 31 58 27 59 28 60 30 61 32 62 29 63 51 64 52 65 57 66
REMARK SMILES IDX 53 67 54 68 56 69 58 70 55 71 39 72 40 73 45 74 41 75 42 76
REMARK SMILES IDX 44 77 46 78 43 79
REMARK H PARENT 6 7 63 41 37 52
REMARK Flexibility Score: inf
ROOT
ATOM      1  C   UNL A   1      35.515  22.799  24.166  1.00  0.00     0.274 C 
ENDROOT
BRANCH   1   2
ATOM      2  O   UNL A   1      34.388  22.644  23.272  1.00  0.00    -0.458 OA
BRANCH   2   3
ATOM      3  C   UNL A   1      33.633  23.747  23.043  1.00  0.00     0.361 C 
ATOM      4  O   UNL A   1      34.034  24.714  22.398  1.00  0.00    -0.245 OA
BRANCH   3   5
ATOM      5  C   UNL A   1      32.237  23.741  23.674  1.00  0.00     0.387 C 
BRANCH   5   6
ATOM      6  N   UNL A   1      32.129  23.953  25.133  1.00  0.00    -0.319 N 
ATOM      7  H   UNL A   1      32.172  23.551  26.069  1.00  0.00     0.349 HD
BRANCH   6   8
ATOM      8  C   UNL A   1      32.224  25.364  25.567  1.00  0.00     0.185 C 
ATOM      9  C   UNL A   1      32.987  29.736  25.528  1.00  0.00     0.008 C 
ATOM     10  C   UNL A   1      32.882  28.267  25.114  1.00  0.00    -0.011 C 
ATOM     11  C   UNL A   1      33.623  27.406  26.145  1.00  0.00     0.010 C 
ATOM     12  C   UNL A   1      31.423  27.791  24.995  1.00  0.00    -0.006 C 
ATOM     13  C   UNL A   1      33.637  25.942  25.726  1.00  0.00     0.065 C 
ATOM     14  C   UNL A   1      31.330  26.283  24.716  1.00  0.00     0.068 C 
ATOM     15  C   UNL A   1      30.636  28.518  23.894  1.00  0.00     0.008 C 
ENDBRANCH   6   8
BRANCH   6  16
ATOM     16  C   UNL A   1      31.919  22.799  26.044  1.00  0.00     0.090 C 
ATOM     17  C   UNL A   1      33.107  22.610  27.012  1.00  0.00     0.078 C 
ATOM     18  C   UNL A   1      30.603  22.935  26.845  1.00  0.00     0.078 C 
ATOM     19  C   UNL A   1      31.779  21.445  25.308  1.00  0.00     0.078 C 
ENDBRANCH   6  16
ENDBRANCH   5   6
ENDBRANCH   3   5
ENDBRANCH   2   3
ENDBRANCH   1   2
BRANCH   1  20
ATOM     20  C   UNL A   1      35.947  21.437  24.692  1.00  0.00     0.275 C 
BRANCH  20  21
ATOM     21  O   UNL A   1      36.736  21.673  25.866  1.00  0.00    -0.458 OA
BRANCH  21  22
ATOM     22  C   UNL A   1      38.035  21.338  25.754  1.00  0.00     0.338 C 
ATOM     23  O   UNL A   1      38.517  20.295  25.336  1.00  0.00    -0.246 OA
BRANCH  22  24
ATOM     24  C   UNL A   1      38.842  22.482  26.173  1.00  0.00     0.060 A 
ATOM     25  C   UNL A   1      39.973  22.271  26.965  1.00  0.00     0.016 A 
ATOM     26  C   UNL A   1      38.406  23.769  25.871  1.00  0.00     0.016 A 
ATOM     27  C   UNL A   1      40.618  23.355  27.540  1.00  0.00     0.010 A 
ATOM     28  C   UNL A   1      39.123  24.858  26.357  1.00  0.00     0.010 A 
ATOM     29  C   UNL A   1      40.221  24.658  27.210  1.00  0.00    -0.014 A 
BRANCH  29  30
ATOM     30  C   UNL A   1      41.013  25.812  27.685  1.00  0.00     0.031 A 
ATOM     31  C   UNL A   1      40.394  26.870  28.546  1.00  0.00     0.074 A 
ATOM     32  C   UNL A   1      42.296  25.901  27.290  1.00  0.00     0.049 A 
ATOM     33  N   UNL A   1      40.895  28.017  28.926  1.00  0.00    -0.248 NA
ATOM     34  C   UNL A   1      39.028  26.617  29.030  1.00  0.00     0.031 C 
ATOM     35  C   UNL A   1      42.987  24.917  26.450  1.00  0.00     0.029 A 
ATOM     36  N   UNL A   1      43.246  26.854  27.536  1.00  0.00    -0.354 N 
ATOM     37  C   UNL A   1      39.896  28.641  29.661  1.00  0.00     0.074 A 
ATOM     38  C   UNL A   1      38.758  27.746  29.673  1.00  0.00     0.031 C 
ATOM     39  C   UNL A   1      44.257  25.303  26.277  1.00  0.00     0.029 A 
ATOM     40  C   UNL A   1      44.447  26.592  26.926  1.00  0.00     0.049 A 
ATOM     41  H   UNL A   1      43.084  27.648  28.095  1.00  0.00     0.167 HD
ATOM     42  C   UNL A   1      39.933  29.856  30.259  1.00  0.00     0.037 A 
ATOM     43  C   UNL A   1      45.569  27.328  26.862  1.00  0.00     0.037 A 
ATOM     44  C   UNL A   1      41.083  30.725  30.241  1.00  0.00     0.049 A 
ATOM     45  C   UNL A   1      45.588  28.660  27.543  1.00  0.00     0.074 A 
ATOM     46  C   UNL A   1      41.234  31.979  30.808  1.00  0.00     0.029 A 
ATOM     47  N   UNL A   1      42.289  30.420  29.622  1.00  0.00    -0.354 N 
ATOM     48  N   UNL A   1      44.626  29.257  28.205  1.00  0.00    -0.248 NA
ATOM     49  C   UNL A   1      46.838  29.423  27.463  1.00  0.00     0.031 C 
ATOM     50  C   UNL A   1      42.521  32.443  30.507  1.00  0.00     0.029 A 
ATOM     51  C   UNL A   1      43.185  31.463  29.785  1.00  0.00     0.049 A 
ATOM     52  H   UNL A   1      42.479  29.584  29.138  1.00  0.00     0.167 HD
ATOM     53  C   UNL A   1      45.146  30.476  28.610  1.00  0.00     0.074 A 
ATOM     54  C   UNL A   1      46.522  30.513  28.150  1.00  0.00     0.031 C 
ATOM     55  C   UNL A   1      44.539  31.479  29.289  1.00  0.00     0.037 A 
BRANCH  42  56
ATOM     56  C   UNL A   1      38.681  30.326  30.942  1.00  0.00     0.057 A 
ATOM     57  C   UNL A   1      37.701  31.069  30.272  1.00  0.00     0.134 A 
ATOM     58  C   UNL A   1      38.448  30.021  32.290  1.00  0.00     0.134 A 
ATOM     59  F   UNL A   1      37.868  31.411  28.986  1.00  0.00    -0.206 F 
ATOM     60  C   UNL A   1      36.547  31.514  30.924  1.00  0.00     0.040 A 
ATOM     61  C   UNL A   1      37.290  30.442  32.946  1.00  0.00     0.040 A 
ATOM     62  F   UNL A   1      39.343  29.310  32.991  1.00  0.00    -0.206 F 
ATOM     63  C   UNL A   1      36.338  31.197  32.265  1.00  0.00     0.006 A 
ENDBRANCH  42  56
BRANCH  43  64
ATOM     64  C   UNL A   1      46.731  26.808  26.105  1.00  0.00     0.057 A 
ATOM     65  C   UNL A   1      46.927  27.144  24.762  1.00  0.00     0.134 A 
ATOM     66  C   UNL A   1      47.720  26.038  26.732  1.00  0.00     0.134 A 
ATOM     67  F   UNL A   1      46.009  27.871  24.108  1.00  0.00    -0.206 F 
ATOM     68  C   UNL A   1      48.070  26.741  24.070  1.00  0.00     0.040 A 
ATOM     69  C   UNL A   1      48.878  25.648  26.059  1.00  0.00     0.040 A 
ATOM     70  F   UNL A   1      47.595  25.697  28.023  1.00  0.00    -0.206 F 
ATOM     71  C   UNL A   1      49.055  26.001  24.723  1.00  0.00     0.006 A 
ENDBRANCH  43  64
BRANCH  55  72
ATOM     72  C   UNL A   1      45.373  32.695  29.548  1.00  0.00     0.057 A 
ATOM     73  C   UNL A   1      45.394  33.770  28.650  1.00  0.00     0.134 A 
ATOM     74  C   UNL A   1      46.171  32.786  30.694  1.00  0.00     0.134 A 
ATOM     75  F   UNL A   1      44.663  33.731  27.526  1.00  0.00    -0.206 F 
ATOM     76  C   UNL A   1      46.205  34.883  28.869  1.00  0.00     0.040 A 
ATOM     77  C   UNL A   1      46.971  33.903  30.933  1.00  0.00     0.040 A 
ATOM     78  F   UNL A   1      46.191  31.789  31.591  1.00  0.00    -0.206 F 
ATOM     79  C   UNL A   1      46.995  34.952  30.016  1.00  0.00     0.006 A 
ENDBRANCH  55  72
ENDBRANCH  29  30
ENDBRANCH  22  24
ENDBRANCH  21  22
ENDBRANCH  20  21
ENDBRANCH   1  20
TORSDOF 14
ENDMDL
