MODEL 1
REMARK VINA RESULT:     -12.4      0.000      0.000
REMARK SMILES Cc1cc(/C=C2\C(=O)N(Cc3ccco3)C(=O)N=C2OCCOC(=O)c2ccc(-c3c4nc(c(-c5c(F)cccc5F)c5ccc([nH]5)c(-c5c(F)cccc5F)c5nc(c(-c6c(F)cccc6F)c6ccc3[nH]6)C=C5)C=C4)cc2)c(C)n1-c1ccc(Cl)c(C(=O)[O-])c1
REMARK SMILES IDX 21 1 20 2 19 3 5 4 6 5 7 6 8 7 9 8 18 9 16 10 17 11 4 12
REMARK SMILES IDX 1 13 2 14 3 15 82 16 80 17 81 18 83 19 84 20 92 21 85 22
REMARK SMILES IDX 88 23 86 24 87 25 89 26 90 27 91 28 10 29 11 30 12 31 15 32
REMARK SMILES IDX 13 33 14 34 22 35 23 36 24 37 25 38 26 39 27 40 79 41 28 42
REMARK SMILES IDX 78 43 29 44 30 45 31 46 72 47 32 48 77 49 71 50 73 51 33 52
REMARK SMILES IDX 76 53 70 54 69 55 34 57 60 58 43 59 59 60 44 61 47 62 58 63
REMARK SMILES IDX 74 64 45 65 46 66 57 68 75 69 48 70 35 71 36 72 41 73 37 74
REMARK SMILES IDX 38 75 40 76 42 77 39 78 61 79 62 80 67 81 63 82 64 83 66 84
REMARK SMILES IDX 68 85 65 86 49 87 50 88 55 89 51 90 52 91 54 92 56 93 53 94
REMARK H PARENT 73 56 47 67
REMARK Flexibility Score: inf
ROOT
ATOM      1  C   UNL A   1      35.677  24.099  25.682  1.00  0.00     0.273 C 
ENDROOT
BRANCH   1   2
ATOM      2  O   UNL A   1      34.230  24.372  25.394  1.00  0.00    -0.473 OA
BRANCH   2   3
ATOM      3  C   UNL A   1      34.046  25.356  24.490  1.00  0.00     0.231 C 
ATOM      4  C   UNL A   1      33.867  27.331  26.145  1.00  0.00     0.029 C 
ATOM      5  C   UNL A   1      33.922  26.790  24.898  1.00  0.00     0.103 C 
ATOM      6  C   UNL A   1      33.812  27.642  23.670  1.00  0.00     0.267 C 
ATOM      7  O   UNL A   1      34.361  28.730  23.558  1.00  0.00    -0.268 OA
ATOM      8  N   UNL A   1      33.060  27.030  22.689  1.00  0.00    -0.250 N 
ATOM      9  N   UNL A   1      33.900  24.945  23.282  1.00  0.00    -0.156 NA
ATOM     10  C   UNL A   1      33.189  25.693  22.427  1.00  0.00     0.354 C 
ATOM     11  O   UNL A   1      32.618  25.128  21.491  1.00  0.00    -0.245 OA
BRANCH   4  12
ATOM     12  C   UNL A   1      33.542  28.695  26.604  1.00  0.00    -0.003 A 
ATOM     13  C   UNL A   1      31.474  31.850  26.762  1.00  0.00     0.065 C 
ATOM     14  C   UNL A   1      32.423  30.696  26.860  1.00  0.00     0.020 A 
ATOM     15  C   UNL A   1      32.350  29.428  26.292  1.00  0.00     0.031 A 
ATOM     16  N   UNL A   1      33.635  30.785  27.519  1.00  0.00    -0.318 N 
ATOM     17  C   UNL A   1      34.341  29.596  27.311  1.00  0.00     0.027 A 
ATOM     18  C   UNL A   1      35.684  29.405  27.918  1.00  0.00     0.065 C 
BRANCH  16  19
ATOM     19  C   UNL A   1      34.089  31.879  28.323  1.00  0.00     0.046 A 
ATOM     20  C   UNL A   1      34.746  31.623  29.527  1.00  0.00     0.028 A 
ATOM     21  C   UNL A   1      33.703  33.188  28.005  1.00  0.00     0.038 A 
ATOM     22  C   UNL A   1      34.898  32.641  30.469  1.00  0.00     0.023 A 
ATOM     23  C   UNL A   1      33.873  34.232  28.944  1.00  0.00     0.018 A 
ATOM     24  C   UNL A   1      34.442  33.937  30.196  1.00  0.00     0.050 A 
ATOM     25  Cl  UNL A   1      34.597  35.071  31.492  1.00  0.00    -0.084 Cl
BRANCH  23  26
ATOM     26  C   UNL A   1      33.398  35.607  28.615  1.00  0.00     0.073 C 
ATOM     27  O   UNL A   1      32.302  36.095  28.804  1.00  0.00    -0.545 OA
ATOM     28  O   UNL A   1      34.363  36.358  28.050  1.00  0.00    -0.545 OA
ENDBRANCH  23  26
ENDBRANCH  16  19
ENDBRANCH   4  12
BRANCH   8  29
ATOM     29  C   UNL A   1      32.122  27.768  21.878  1.00  0.00     0.206 C 
BRANCH  29  30
ATOM     30  C   UNL A   1      30.781  27.798  22.490  1.00  0.00     0.123 A 
ATOM     31  C   UNL A   1      30.153  27.027  23.447  1.00  0.00     0.047 A 
ATOM     32  O   UNL A   1      29.958  28.798  22.077  1.00  0.00    -0.467 OA
ATOM     33  C   UNL A   1      28.858  27.562  23.594  1.00  0.00     0.042 A 
ATOM     34  C   UNL A   1      28.793  28.645  22.751  1.00  0.00     0.195 A 
ENDBRANCH  29  30
ENDBRANCH   8  29
ENDBRANCH   2   3
ENDBRANCH   1   2
BRANCH   1  35
ATOM     35  C   UNL A   1      36.179  22.610  25.366  1.00  0.00     0.274 C 
BRANCH  35  36
ATOM     36  O   UNL A   1      37.539  22.287  24.764  1.00  0.00    -0.458 OA
BRANCH  36  37
ATOM     37  C   UNL A   1      38.630  22.096  25.627  1.00  0.00     0.338 C 
ATOM     38  O   UNL A   1      39.041  20.965  25.879  1.00  0.00    -0.246 OA
BRANCH  37  39
ATOM     39  C   UNL A   1      39.336  23.338  26.350  1.00  0.00     0.060 A 
ATOM     40  C   UNL A   1      39.288  23.511  27.733  1.00  0.00     0.016 A 
ATOM     41  C   UNL A   1      39.731  24.546  25.707  1.00  0.00     0.016 A 
ATOM     42  C   UNL A   1      39.712  24.762  28.410  1.00  0.00     0.010 A 
ATOM     43  C   UNL A   1      40.117  25.845  26.405  1.00  0.00     0.010 A 
ATOM     44  C   UNL A   1      40.148  26.016  27.806  1.00  0.00    -0.014 A 
BRANCH  44  45
ATOM     45  C   UNL A   1      40.132  27.453  28.771  1.00  0.00     0.031 A 
ATOM     46  C   UNL A   1      41.329  28.139  28.205  1.00  0.00     0.074 A 
ATOM     47  C   UNL A   1      39.584  28.178  29.887  1.00  0.00     0.049 A 
ATOM     48  N   UNL A   1      42.473  27.509  28.201  1.00  0.00    -0.248 NA
ATOM     49  C   UNL A   1      41.268  29.284  27.295  1.00  0.00     0.031 C 
ATOM     50  C   UNL A   1      38.550  27.739  30.857  1.00  0.00     0.029 A 
ATOM     51  N   UNL A   1      39.817  29.521  30.469  1.00  0.00    -0.354 N 
ATOM     52  C   UNL A   1      43.368  28.366  27.624  1.00  0.00     0.074 A 
ATOM     53  C   UNL A   1      42.533  29.277  26.852  1.00  0.00     0.031 C 
ATOM     54  C   UNL A   1      38.153  28.730  31.724  1.00  0.00     0.029 A 
ATOM     55  C   UNL A   1      38.895  29.983  31.536  1.00  0.00     0.049 A 
ATOM     56  H   UNL A   1      40.559  30.089  30.157  1.00  0.00     0.167 HD
ATOM     57  C   UNL A   1      44.452  28.652  28.405  1.00  0.00     0.037 A 
ATOM     58  C   UNL A   1      38.777  31.187  32.287  1.00  0.00     0.037 A 
ATOM     59  C   UNL A   1      44.367  29.955  29.005  1.00  0.00     0.049 A 
ATOM     60  C   UNL A   1      40.106  31.803  32.298  1.00  0.00     0.074 A 
ATOM     61  C   UNL A   1      43.873  31.171  28.572  1.00  0.00     0.029 A 
ATOM     62  N   UNL A   1      44.389  30.009  30.379  1.00  0.00    -0.354 N 
ATOM     63  N   UNL A   1      41.032  31.379  33.101  1.00  0.00    -0.248 NA
ATOM     64  C   UNL A   1      40.427  33.015  31.553  1.00  0.00     0.031 C 
ATOM     65  C   UNL A   1      43.098  31.634  29.655  1.00  0.00     0.029 A 
ATOM     66  C   UNL A   1      43.491  30.959  30.800  1.00  0.00     0.049 A 
ATOM     67  H   UNL A   1      44.955  29.457  30.965  1.00  0.00     0.167 HD
ATOM     68  C   UNL A   1      42.157  31.874  32.532  1.00  0.00     0.074 A 
ATOM     69  C   UNL A   1      41.737  33.060  31.805  1.00  0.00     0.031 C 
ATOM     70  C   UNL A   1      43.048  30.925  32.166  1.00  0.00     0.037 A 
BRANCH  57  71
ATOM     71  C   UNL A   1      45.017  27.446  29.116  1.00  0.00     0.057 A 
ATOM     72  C   UNL A   1      46.188  26.853  28.648  1.00  0.00     0.134 A 
ATOM     73  C   UNL A   1      44.353  26.792  30.177  1.00  0.00     0.134 A 
ATOM     74  F   UNL A   1      46.916  27.453  27.693  1.00  0.00    -0.206 F 
ATOM     75  C   UNL A   1      46.636  25.629  29.153  1.00  0.00     0.040 A 
ATOM     76  C   UNL A   1      44.750  25.540  30.640  1.00  0.00     0.040 A 
ATOM     77  F   UNL A   1      43.299  27.360  30.787  1.00  0.00    -0.206 F 
ATOM     78  C   UNL A   1      45.893  24.949  30.120  1.00  0.00     0.006 A 
ENDBRANCH  57  71
BRANCH  58  79
ATOM     79  C   UNL A   1      37.907  32.085  33.310  1.00  0.00     0.057 A 
ATOM     80  C   UNL A   1      37.853  31.807  34.735  1.00  0.00     0.134 A 
ATOM     81  C   UNL A   1      37.522  33.406  33.039  1.00  0.00     0.134 A 
ATOM     82  F   UNL A   1      38.136  30.595  35.231  1.00  0.00    -0.206 F 
ATOM     83  C   UNL A   1      37.566  32.754  35.753  1.00  0.00     0.040 A 
ATOM     84  C   UNL A   1      37.195  34.361  34.061  1.00  0.00     0.040 A 
ATOM     85  F   UNL A   1      37.524  33.859  31.781  1.00  0.00    -0.206 F 
ATOM     86  C   UNL A   1      37.252  34.052  35.420  1.00  0.00     0.006 A 
ENDBRANCH  58  79
BRANCH  70  87
ATOM     87  C   UNL A   1      43.297  29.794  33.144  1.00  0.00     0.057 A 
ATOM     88  C   UNL A   1      42.497  28.648  33.349  1.00  0.00     0.134 A 
ATOM     89  C   UNL A   1      44.413  29.913  33.980  1.00  0.00     0.134 A 
ATOM     90  F   UNL A   1      41.446  28.354  32.573  1.00  0.00    -0.206 F 
ATOM     91  C   UNL A   1      42.764  27.723  34.369  1.00  0.00     0.040 A 
ATOM     92  C   UNL A   1      44.716  28.970  34.967  1.00  0.00     0.040 A 
ATOM     93  F   UNL A   1      45.253  30.948  33.831  1.00  0.00    -0.206 F 
ATOM     94  C   UNL A   1      43.879  27.882  35.179  1.00  0.00     0.006 A 
ENDBRANCH  70  87
ENDBRANCH  44  45
ENDBRANCH  37  39
ENDBRANCH  36  37
ENDBRANCH  35  36
ENDBRANCH   1  35
TORSDOF 15
ENDMDL
MODEL 2
REMARK VINA RESULT:     -12.2      2.911      4.856
REMARK SMILES Cc1cc(/C=C2\C(=O)N(Cc3ccco3)C(=O)N=C2OCCOC(=O)c2ccc(-c3c4nc(c(-c5c(F)cccc5F)c5ccc([nH]5)c(-c5c(F)cccc5F)c5nc(c(-c6c(F)cccc6F)c6ccc3[nH]6)C=C5)C=C4)cc2)c(C)n1-c1ccc(Cl)c(C(=O)[O-])c1
REMARK SMILES IDX 21 1 20 2 19 3 5 4 6 5 7 6 8 7 9 8 18 9 16 10 17 11 4 12
REMARK SMILES IDX 1 13 2 14 3 15 82 16 80 17 81 18 83 19 84 20 92 21 85 22
REMARK SMILES IDX 88 23 86 24 87 25 89 26 90 27 91 28 10 29 11 30 12 31 15 32
REMARK SMILES IDX 13 33 14 34 22 35 23 36 24 37 25 38 26 39 27 40 79 41 28 42
REMARK SMILES IDX 78 43 29 44 30 45 31 46 72 47 32 48 77 49 71 50 73 51 33 52
REMARK SMILES IDX 76 53 70 54 69 55 34 57 60 58 43 59 59 60 44 61 47 62 58 63
REMARK SMILES IDX 74 64 45 65 46 66 57 68 75 69 48 70 35 71 36 72 41 73 37 74
REMARK SMILES IDX 38 75 40 76 42 77 39 78 61 79 62 80 67 81 63 82 64 83 66 84
REMARK SMILES IDX 68 85 65 86 49 87 50 88 55 89 51 90 52 91 54 92 56 93 53 94
REMARK H PARENT 73 56 47 67
REMARK Flexibility Score: inf
ROOT
ATOM      1  C   UNL A   1      38.445  22.436  25.386  1.00  0.00     0.273 C 
ENDROOT
BRANCH   1   2
ATOM      2  O   UNL A   1      37.139  22.860  25.990  1.00  0.00    -0.473 OA
BRANCH   2   3
ATOM      3  C   UNL A   1      36.068  22.374  25.332  1.00  0.00     0.231 C 
ATOM      4  C   UNL A   1      34.591  24.490  25.444  1.00  0.00     0.029 C 
ATOM      5  C   UNL A   1      34.867  23.219  25.047  1.00  0.00     0.103 C 
ATOM      6  C   UNL A   1      33.889  22.424  24.234  1.00  0.00     0.267 C 
ATOM      7  O   UNL A   1      33.240  22.900  23.313  1.00  0.00    -0.268 OA
ATOM      8  N   UNL A   1      33.852  21.103  24.630  1.00  0.00    -0.250 N 
ATOM      9  N   UNL A   1      36.137  21.120  25.061  1.00  0.00    -0.156 NA
ATOM     10  C   UNL A   1      34.999  20.422  24.939  1.00  0.00     0.354 C 
ATOM     11  O   UNL A   1      35.023  19.216  25.191  1.00  0.00    -0.245 OA
BRANCH   4  12
ATOM     12  C   UNL A   1      33.354  25.290  25.369  1.00  0.00    -0.003 A 
ATOM     13  C   UNL A   1      29.676  25.961  25.898  1.00  0.00     0.065 C 
ATOM     14  C   UNL A   1      31.145  25.909  25.612  1.00  0.00     0.020 A 
ATOM     15  C   UNL A   1      32.084  24.933  25.930  1.00  0.00     0.031 A 
ATOM     16  N   UNL A   1      31.789  26.872  24.858  1.00  0.00    -0.318 N 
ATOM     17  C   UNL A   1      33.112  26.467  24.656  1.00  0.00     0.027 A 
ATOM     18  C   UNL A   1      34.049  27.321  23.882  1.00  0.00     0.065 C 
BRANCH  16  19
ATOM     19  C   UNL A   1      31.229  28.105  24.394  1.00  0.00     0.046 A 
ATOM     20  C   UNL A   1      31.622  29.307  24.985  1.00  0.00     0.028 A 
ATOM     21  C   UNL A   1      30.154  28.091  23.494  1.00  0.00     0.038 A 
ATOM     22  C   UNL A   1      30.866  30.462  24.787  1.00  0.00     0.023 A 
ATOM     23  C   UNL A   1      29.394  29.263  23.270  1.00  0.00     0.018 A 
ATOM     24  C   UNL A   1      29.739  30.441  23.955  1.00  0.00     0.050 A 
ATOM     25  Cl  UNL A   1      28.835  31.913  23.887  1.00  0.00    -0.084 Cl
BRANCH  23  26
ATOM     26  C   UNL A   1      28.214  29.215  22.359  1.00  0.00     0.073 C 
ATOM     27  O   UNL A   1      28.097  29.688  21.246  1.00  0.00    -0.545 OA
ATOM     28  O   UNL A   1      27.183  28.533  22.895  1.00  0.00    -0.545 OA
ENDBRANCH  23  26
ENDBRANCH  16  19
ENDBRANCH   4  12
BRANCH   8  29
ATOM     29  C   UNL A   1      32.613  20.368  24.711  1.00  0.00     0.206 C 
BRANCH  29  30
ATOM     30  C   UNL A   1      32.481  19.402  23.604  1.00  0.00     0.123 A 
ATOM     31  C   UNL A   1      32.526  18.026  23.531  1.00  0.00     0.047 A 
ATOM     32  O   UNL A   1      32.231  19.932  22.378  1.00  0.00    -0.467 OA
ATOM     33  C   UNL A   1      32.335  17.699  22.174  1.00  0.00     0.042 A 
ATOM     34  C   UNL A   1      32.147  18.890  21.516  1.00  0.00     0.195 A 
ENDBRANCH  29  30
ENDBRANCH   8  29
ENDBRANCH   2   3
ENDBRANCH   1   2
BRANCH   1  35
ATOM     35  C   UNL A   1      39.151  21.171  26.072  1.00  0.00     0.274 C 
BRANCH  35  36
ATOM     36  O   UNL A   1      40.497  21.234  26.778  1.00  0.00    -0.458 OA
BRANCH  36  37
ATOM     37  C   UNL A   1      41.522  22.006  26.206  1.00  0.00     0.338 C 
ATOM     38  O   UNL A   1      42.288  21.519  25.378  1.00  0.00    -0.246 OA
BRANCH  37  39
ATOM     39  C   UNL A   1      41.758  23.525  26.657  1.00  0.00     0.060 A 
ATOM     40  C   UNL A   1      41.644  23.926  27.988  1.00  0.00     0.016 A 
ATOM     41  C   UNL A   1      41.723  24.653  25.788  1.00  0.00     0.016 A 
ATOM     42  C   UNL A   1      41.611  25.349  28.407  1.00  0.00     0.010 A 
ATOM     43  C   UNL A   1      41.638  26.113  26.221  1.00  0.00     0.010 A 
ATOM     44  C   UNL A   1      41.599  26.541  27.566  1.00  0.00    -0.014 A 
BRANCH  44  45
ATOM     45  C   UNL A   1      41.088  28.043  28.260  1.00  0.00     0.031 A 
ATOM     46  C   UNL A   1      42.380  28.785  28.210  1.00  0.00     0.074 A 
ATOM     47  C   UNL A   1      40.065  28.801  28.931  1.00  0.00     0.049 A 
ATOM     48  N   UNL A   1      43.431  28.260  28.782  1.00  0.00    -0.248 NA
ATOM     49  C   UNL A   1      42.683  29.846  27.247  1.00  0.00     0.031 C 
ATOM     50  C   UNL A   1      38.726  28.350  29.386  1.00  0.00     0.029 A 
ATOM     51  N   UNL A   1      39.953  30.201  29.405  1.00  0.00    -0.354 N 
ATOM     52  C   UNL A   1      44.451  29.146  28.570  1.00  0.00     0.074 A 
ATOM     53  C   UNL A   1      44.011  29.916  27.414  1.00  0.00     0.031 C 
ATOM     54  C   UNL A   1      37.939  29.366  29.873  1.00  0.00     0.029 A 
ATOM     55  C   UNL A   1      38.631  30.662  29.896  1.00  0.00     0.049 A 
ATOM     56  H   UNL A   1      40.729  30.806  29.393  1.00  0.00     0.167 HD
ATOM     57  C   UNL A   1      45.054  29.588  29.714  1.00  0.00     0.037 A 
ATOM     58  C   UNL A   1      38.135  31.906  30.380  1.00  0.00     0.037 A 
ATOM     59  C   UNL A   1      44.651  30.921  30.067  1.00  0.00     0.049 A 
ATOM     60  C   UNL A   1      39.288  32.636  30.910  1.00  0.00     0.074 A 
ATOM     61  C   UNL A   1      44.351  32.051  29.330  1.00  0.00     0.029 A 
ATOM     62  N   UNL A   1      44.052  31.084  31.293  1.00  0.00    -0.354 N 
ATOM     63  N   UNL A   1      39.773  32.360  32.081  1.00  0.00    -0.248 NA
ATOM     64  C   UNL A   1      39.856  33.810  30.256  1.00  0.00     0.031 C 
ATOM     65  C   UNL A   1      43.153  32.526  29.900  1.00  0.00     0.029 A 
ATOM     66  C   UNL A   1      43.019  31.981  31.167  1.00  0.00     0.049 A 
ATOM     67  H   UNL A   1      44.318  30.633  32.126  1.00  0.00     0.167 HD
ATOM     68  C   UNL A   1      41.010  32.907  32.018  1.00  0.00     0.074 A 
ATOM     69  C   UNL A   1      40.910  33.990  31.055  1.00  0.00     0.031 C 
ATOM     70  C   UNL A   1      42.013  32.015  32.190  1.00  0.00     0.037 A 
BRANCH  57  71
ATOM     71  C   UNL A   1      45.293  28.496  30.729  1.00  0.00     0.057 A 
ATOM     72  C   UNL A   1      46.578  27.991  30.912  1.00  0.00     0.134 A 
ATOM     73  C   UNL A   1      44.251  27.855  31.435  1.00  0.00     0.134 A 
ATOM     74  F   UNL A   1      47.631  28.591  30.334  1.00  0.00    -0.206 F 
ATOM     75  C   UNL A   1      46.810  26.855  31.694  1.00  0.00     0.040 A 
ATOM     76  C   UNL A   1      44.457  26.684  32.159  1.00  0.00     0.040 A 
ATOM     77  F   UNL A   1      43.004  28.357  31.434  1.00  0.00    -0.206 F 
ATOM     78  C   UNL A   1      45.743  26.174  32.283  1.00  0.00     0.006 A 
ENDBRANCH  57  71
BRANCH  58  79
ATOM     79  C   UNL A   1      36.860  32.801  30.807  1.00  0.00     0.057 A 
ATOM     80  C   UNL A   1      36.210  33.718  29.885  1.00  0.00     0.134 A 
ATOM     81  C   UNL A   1      36.010  32.472  31.872  1.00  0.00     0.134 A 
ATOM     82  F   UNL A   1      36.844  34.208  28.811  1.00  0.00    -0.206 F 
ATOM     83  C   UNL A   1      34.861  34.151  29.960  1.00  0.00     0.040 A 
ATOM     84  C   UNL A   1      34.654  32.935  31.975  1.00  0.00     0.040 A 
ATOM     85  F   UNL A   1      36.422  31.623  32.819  1.00  0.00    -0.206 F 
ATOM     86  C   UNL A   1      34.062  33.742  31.004  1.00  0.00     0.006 A 
ENDBRANCH  58  79
BRANCH  70  87
ATOM     87  C   UNL A   1      41.845  30.991  33.295  1.00  0.00     0.057 A 
ATOM     88  C   UNL A   1      41.096  29.795  33.247  1.00  0.00     0.134 A 
ATOM     89  C   UNL A   1      42.454  31.277  34.522  1.00  0.00     0.134 A 
ATOM     90  F   UNL A   1      40.527  29.345  32.121  1.00  0.00    -0.206 F 
ATOM     91  C   UNL A   1      40.916  28.980  34.374  1.00  0.00     0.040 A 
ATOM     92  C   UNL A   1      42.321  30.446  35.639  1.00  0.00     0.040 A 
ATOM     93  F   UNL A   1      43.218  32.372  34.650  1.00  0.00    -0.206 F 
ATOM     94  C   UNL A   1      41.533  29.304  35.574  1.00  0.00     0.006 A 
ENDBRANCH  70  87
ENDBRANCH  44  45
ENDBRANCH  37  39
ENDBRANCH  36  37
ENDBRANCH  35  36
ENDBRANCH   1  35
TORSDOF 15
ENDMDL
MODEL 3
REMARK VINA RESULT:     -11.8      4.466      7.814
REMARK SMILES Cc1cc(/C=C2\C(=O)N(Cc3ccco3)C(=O)N=C2OCCOC(=O)c2ccc(-c3c4nc(c(-c5c(F)cccc5F)c5ccc([nH]5)c(-c5c(F)cccc5F)c5nc(c(-c6c(F)cccc6F)c6ccc3[nH]6)C=C5)C=C4)cc2)c(C)n1-c1ccc(Cl)c(C(=O)[O-])c1
REMARK SMILES IDX 21 1 20 2 19 3 5 4 6 5 7 6 8 7 9 8 18 9 16 10 17 11 4 12
REMARK SMILES IDX 1 13 2 14 3 15 82 16 80 17 81 18 83 19 84 20 92 21 85 22
REMARK SMILES IDX 88 23 86 24 87 25 89 26 90 27 91 28 10 29 11 30 12 31 15 32
REMARK SMILES IDX 13 33 14 34 22 35 23 36 24 37 25 38 26 39 27 40 79 41 28 42
REMARK SMILES IDX 78 43 29 44 30 45 31 46 72 47 32 48 77 49 71 50 73 51 33 52
REMARK SMILES IDX 76 53 70 54 69 55 34 57 60 58 43 59 59 60 44 61 47 62 58 63
REMARK SMILES IDX 74 64 45 65 46 66 57 68 75 69 48 70 35 71 36 72 41 73 37 74
REMARK SMILES IDX 38 75 40 76 42 77 39 78 61 79 62 80 67 81 63 82 64 83 66 84
REMARK SMILES IDX 68 85 65 86 49 87 50 88 55 89 51 90 52 91 54 92 56 93 53 94
REMARK H PARENT 73 56 47 67
REMARK Flexibility Score: inf
ROOT
ATOM      1  C   UNL A   1      42.289  19.939  26.332  1.00  0.00     0.273 C 
ENDROOT
BRANCH   1   2
ATOM      2  O   UNL A   1      41.010  20.437  25.726  1.00  0.00    -0.473 OA
BRANCH   2   3
ATOM      3  C   UNL A   1      40.645  21.652  26.182  1.00  0.00     0.231 C 
ATOM      4  C   UNL A   1      38.123  21.490  25.649  1.00  0.00     0.029 C 
ATOM      5  C   UNL A   1      39.219  22.105  26.169  1.00  0.00     0.103 C 
ATOM      6  C   UNL A   1      39.127  23.455  26.813  1.00  0.00     0.267 C 
ATOM      7  O   UNL A   1      38.210  23.783  27.554  1.00  0.00    -0.268 OA
ATOM      8  N   UNL A   1      40.212  24.246  26.498  1.00  0.00    -0.250 N 
ATOM      9  N   UNL A   1      41.627  22.402  26.536  1.00  0.00    -0.156 NA
ATOM     10  C   UNL A   1      41.480  23.732  26.467  1.00  0.00     0.354 C 
ATOM     11  O   UNL A   1      42.487  24.424  26.297  1.00  0.00    -0.245 OA
BRANCH   4  12
ATOM     12  C   UNL A   1      36.747  21.972  25.426  1.00  0.00    -0.003 A 
ATOM     13  C   UNL A   1      33.088  22.385  26.262  1.00  0.00     0.065 C 
ATOM     14  C   UNL A   1      34.497  22.361  25.756  1.00  0.00     0.020 A 
ATOM     15  C   UNL A   1      35.645  21.827  26.332  1.00  0.00     0.031 A 
ATOM     16  N   UNL A   1      34.844  22.835  24.505  1.00  0.00    -0.318 N 
ATOM     17  C   UNL A   1      36.193  22.543  24.278  1.00  0.00     0.027 A 
ATOM     18  C   UNL A   1      36.846  22.951  23.007  1.00  0.00     0.065 C 
BRANCH  16  19
ATOM     19  C   UNL A   1      33.996  23.550  23.599  1.00  0.00     0.046 A 
ATOM     20  C   UNL A   1      33.417  22.878  22.521  1.00  0.00     0.028 A 
ATOM     21  C   UNL A   1      33.909  24.946  23.678  1.00  0.00     0.038 A 
ATOM     22  C   UNL A   1      32.872  23.602  21.460  1.00  0.00     0.023 A 
ATOM     23  C   UNL A   1      33.338  25.687  22.617  1.00  0.00     0.018 A 
ATOM     24  C   UNL A   1      32.853  25.002  21.489  1.00  0.00     0.050 A 
ATOM     25  Cl  UNL A   1      32.248  25.769  20.063  1.00  0.00    -0.084 Cl
BRANCH  23  26
ATOM     26  C   UNL A   1      33.310  27.177  22.687  1.00  0.00     0.073 C 
ATOM     27  O   UNL A   1      32.714  27.887  23.472  1.00  0.00    -0.545 OA
ATOM     28  O   UNL A   1      34.077  27.747  21.737  1.00  0.00    -0.545 OA
ENDBRANCH  23  26
ENDBRANCH  16  19
ENDBRANCH   4  12
BRANCH   8  29
ATOM     29  C   UNL A   1      40.070  25.653  26.212  1.00  0.00     0.206 C 
BRANCH  29  30
ATOM     30  C   UNL A   1      40.387  26.482  27.390  1.00  0.00     0.123 A 
ATOM     31  C   UNL A   1      40.281  26.282  28.750  1.00  0.00     0.047 A 
ATOM     32  O   UNL A   1      40.930  27.701  27.134  1.00  0.00    -0.467 OA
ATOM     33  C   UNL A   1      40.745  27.465  29.358  1.00  0.00     0.042 A 
ATOM     34  C   UNL A   1      41.141  28.292  28.335  1.00  0.00     0.195 A 
ENDBRANCH  29  30
ENDBRANCH   8  29
ENDBRANCH   2   3
ENDBRANCH   1   2
BRANCH   1  35
ATOM     35  C   UNL A   1      43.079  18.835  25.478  1.00  0.00     0.274 C 
BRANCH  35  36
ATOM     36  O   UNL A   1      43.604  19.074  24.070  1.00  0.00    -0.458 OA
BRANCH  36  37
ATOM     37  C   UNL A   1      44.899  19.597  23.913  1.00  0.00     0.338 C 
ATOM     38  O   UNL A   1      45.778  18.942  23.357  1.00  0.00    -0.246 OA
BRANCH  37  39
ATOM     39  C   UNL A   1      45.282  21.036  24.502  1.00  0.00     0.060 A 
ATOM     40  C   UNL A   1      45.708  21.203  25.820  1.00  0.00     0.016 A 
ATOM     41  C   UNL A   1      44.893  22.284  23.938  1.00  0.00     0.016 A 
ATOM     42  C   UNL A   1      45.834  22.532  26.469  1.00  0.00     0.010 A 
ATOM     43  C   UNL A   1      44.977  23.641  24.626  1.00  0.00     0.010 A 
ATOM     44  C   UNL A   1      45.476  23.841  25.931  1.00  0.00    -0.014 A 
BRANCH  44  45
ATOM     45  C   UNL A   1      45.273  25.163  27.030  1.00  0.00     0.031 A 
ATOM     46  C   UNL A   1      45.862  26.257  26.205  1.00  0.00     0.074 A 
ATOM     47  C   UNL A   1      44.923  25.623  28.348  1.00  0.00     0.049 A 
ATOM     48  N   UNL A   1      47.079  26.119  25.751  1.00  0.00    -0.248 NA
ATOM     49  C   UNL A   1      45.076  27.286  25.521  1.00  0.00     0.031 C 
ATOM     50  C   UNL A   1      44.526  24.822  29.533  1.00  0.00     0.029 A 
ATOM     51  N   UNL A   1      44.837  26.954  28.996  1.00  0.00    -0.354 N 
ATOM     52  C   UNL A   1      47.340  27.253  25.035  1.00  0.00     0.074 A 
ATOM     53  C   UNL A   1      46.018  27.767  24.699  1.00  0.00     0.031 C 
ATOM     54  C   UNL A   1      44.123  25.584  30.603  1.00  0.00     0.029 A 
ATOM     55  C   UNL A   1      44.242  27.027  30.353  1.00  0.00     0.049 A 
ATOM     56  H   UNL A   1      45.163  27.763  28.539  1.00  0.00     0.167 HD
ATOM     57  C   UNL A   1      48.443  27.940  25.457  1.00  0.00     0.037 A 
ATOM     58  C   UNL A   1      43.962  28.094  31.253  1.00  0.00     0.037 A 
ATOM     59  C   UNL A   1      48.103  29.110  26.218  1.00  0.00     0.049 A 
ATOM     60  C   UNL A   1      44.890  29.176  30.918  1.00  0.00     0.074 A 
ATOM     61  C   UNL A   1      47.083  30.039  26.130  1.00  0.00     0.029 A 
ATOM     62  N   UNL A   1      48.579  29.174  27.507  1.00  0.00    -0.354 N 
ATOM     63  N   UNL A   1      46.123  29.147  31.318  1.00  0.00    -0.248 NA
ATOM     64  C   UNL A   1      44.467  30.416  30.275  1.00  0.00     0.031 C 
ATOM     65  C   UNL A   1      46.621  30.170  27.455  1.00  0.00     0.029 A 
ATOM     66  C   UNL A   1      47.604  29.703  28.315  1.00  0.00     0.049 A 
ATOM     67  H   UNL A   1      49.473  28.886  27.802  1.00  0.00     0.167 HD
ATOM     68  C   UNL A   1      46.718  30.036  30.488  1.00  0.00     0.074 A 
ATOM     69  C   UNL A   1      45.671  30.965  30.096  1.00  0.00     0.031 C 
ATOM     70  C   UNL A   1      47.707  29.506  29.733  1.00  0.00     0.037 A 
BRANCH  57  71
ATOM     71  C   UNL A   1      49.618  27.049  25.784  1.00  0.00     0.057 A 
ATOM     72  C   UNL A   1      50.676  26.942  24.884  1.00  0.00     0.134 A 
ATOM     73  C   UNL A   1      49.657  26.205  26.915  1.00  0.00     0.134 A 
ATOM     74  F   UNL A   1      50.749  27.762  23.824  1.00  0.00    -0.206 F 
ATOM     75  C   UNL A   1      51.684  25.988  25.055  1.00  0.00     0.040 A 
ATOM     76  C   UNL A   1      50.614  25.204  27.061  1.00  0.00     0.040 A 
ATOM     77  F   UNL A   1      48.759  26.335  27.906  1.00  0.00    -0.206 F 
ATOM     78  C   UNL A   1      51.630  25.087  26.121  1.00  0.00     0.006 A 
ENDBRANCH  57  71
BRANCH  58  79
ATOM     79  C   UNL A   1      43.238  28.589  32.609  1.00  0.00     0.057 A 
ATOM     80  C   UNL A   1      41.924  29.209  32.607  1.00  0.00     0.134 A 
ATOM     81  C   UNL A   1      43.555  28.087  33.879  1.00  0.00     0.134 A 
ATOM     82  F   UNL A   1      41.422  29.799  31.513  1.00  0.00    -0.206 F 
ATOM     83  C   UNL A   1      41.010  29.220  33.694  1.00  0.00     0.040 A 
ATOM     84  C   UNL A   1      42.651  28.126  34.995  1.00  0.00     0.040 A 
ATOM     85  F   UNL A   1      44.720  27.461  34.080  1.00  0.00    -0.206 F 
ATOM     86  C   UNL A   1      41.364  28.656  34.898  1.00  0.00     0.006 A 
ENDBRANCH  58  79
BRANCH  70  87
ATOM     87  C   UNL A   1      48.673  28.563  30.423  1.00  0.00     0.057 A 
ATOM     88  C   UNL A   1      48.471  27.197  30.721  1.00  0.00     0.134 A 
ATOM     89  C   UNL A   1      49.884  29.107  30.864  1.00  0.00     0.134 A 
ATOM     90  F   UNL A   1      47.400  26.516  30.292  1.00  0.00    -0.206 F 
ATOM     91  C   UNL A   1      49.392  26.452  31.470  1.00  0.00     0.040 A 
ATOM     92  C   UNL A   1      50.832  28.359  31.569  1.00  0.00     0.040 A 
ATOM     93  F   UNL A   1      50.181  30.386  30.590  1.00  0.00    -0.206 F 
ATOM     94  C   UNL A   1      50.579  27.032  31.894  1.00  0.00     0.006 A 
ENDBRANCH  70  87
ENDBRANCH  44  45
ENDBRANCH  37  39
ENDBRANCH  36  37
ENDBRANCH  35  36
ENDBRANCH   1  35
TORSDOF 15
ENDMDL
