MODEL 1
REMARK VINA RESULT:     -13.6      0.000      0.000
REMARK SMILES O=C(OCCOC(=O)c1ccc(-c2c3nc(c(-c4c(F)cccc4F)c4ccc([nH]4)c(-c4c(F)cccc4F)c4nc(c(-c5c(F)cccc5F)c5ccc2[nH]5)C=C4)C=C3)cc1)C1=Cc2c(Cl)cc(Cl)cc2O[C@@H]1C(F)(F)F
REMARK SMILES IDX 5 1 4 2 3 3 2 4 1 5 63 6 64 7 74 8 65 9 73 10 66 11 72 12
REMARK SMILES IDX 67 13 68 14 71 15 69 16 70 17 75 18 76 19 77 20 78 21 6 22
REMARK SMILES IDX 7 23 8 24 9 25 10 26 62 27 11 28 61 29 12 30 13 31 14 32
REMARK SMILES IDX 55 33 15 34 60 35 54 36 56 37 16 38 59 39 53 40 52 41 17 43
REMARK SMILES IDX 43 44 26 45 42 46 27 47 30 48 41 49 57 50 28 51 29 52 40 54
REMARK SMILES IDX 58 55 31 56 18 57 19 58 24 59 20 60 21 61 23 62 25 63 22 64
REMARK SMILES IDX 44 65 45 66 50 67 46 68 47 69 49 70 51 71 48 72 32 73 33 74
REMARK SMILES IDX 38 75 34 76 35 77 37 78 39 79 36 80
REMARK H PARENT 56 42 30 53
REMARK Flexibility Score: inf
ROOT
ATOM      1  C   UNL A   1      31.617  32.361  26.526  1.00  0.00     0.275 C 
ENDROOT
BRANCH   1   2
ATOM      2  C   UNL A   1      31.480  30.207  26.878  1.00  0.00     0.275 C 
BRANCH   2   3
ATOM      3  O   UNL A   1      32.403  29.139  26.355  1.00  0.00    -0.459 OA
BRANCH   3   4
ATOM      4  C   UNL A   1      31.820  27.938  26.359  1.00  0.00     0.338 C 
ATOM      5  O   UNL A   1      31.364  27.343  27.306  1.00  0.00    -0.246 OA
BRANCH   4   6
ATOM      6  C   UNL A   1      32.393  27.427  25.112  1.00  0.00     0.087 C 
ATOM      7  C   UNL A   1      33.413  26.424  25.240  1.00  0.00     0.029 C 
ATOM      8  C   UNL A   1      30.649  27.130  24.401  1.00  0.00     0.316 C 
ATOM      9  C   UNL A   1      33.170  24.681  24.979  1.00  0.00     0.036 A 
ATOM     10  O   UNL A   1      30.260  25.216  24.270  1.00  0.00    -0.475 OA
ATOM     11  C   UNL A   1      34.215  23.825  25.183  1.00  0.00     0.053 A 
ATOM     12  C   UNL A   1      31.605  24.009  24.652  1.00  0.00     0.130 A 
ATOM     13  Cl  UNL A   1      35.830  24.347  25.422  1.00  0.00    -0.083 Cl
ATOM     14  C   UNL A   1      33.878  22.470  25.210  1.00  0.00     0.042 A 
ATOM     15  C   UNL A   1      31.350  22.670  24.696  1.00  0.00     0.067 A 
ATOM     16  C   UNL A   1      32.529  21.937  25.015  1.00  0.00     0.046 A 
ATOM     17  Cl  UNL A   1      32.390  20.221  25.248  1.00  0.00    -0.084 Cl
BRANCH   8  18
ATOM     18  C   UNL A   1      31.058  28.352  23.312  1.00  0.00     0.430 C 
ATOM     19  F   UNL A   1      32.272  28.181  22.807  1.00  0.00    -0.167 F 
ATOM     20  F   UNL A   1      30.292  28.268  22.174  1.00  0.00    -0.167 F 
ATOM     21  F   UNL A   1      30.876  29.639  23.682  1.00  0.00    -0.167 F 
ENDBRANCH   8  18
ENDBRANCH   4   6
ENDBRANCH   3   4
ENDBRANCH   2   3
ENDBRANCH   1   2
BRANCH   1  22
ATOM     22  O   UNL A   1      32.271  33.475  27.745  1.00  0.00    -0.458 OA
BRANCH  22  23
ATOM     23  C   UNL A   1      33.416  34.210  28.050  1.00  0.00     0.338 C 
ATOM     24  O   UNL A   1      33.520  35.306  28.571  1.00  0.00    -0.246 OA
BRANCH  23  25
ATOM     25  C   UNL A   1      34.561  33.245  28.070  1.00  0.00     0.060 A 
ATOM     26  C   UNL A   1      35.887  33.737  28.049  1.00  0.00     0.016 A 
ATOM     27  C   UNL A   1      34.308  31.953  28.511  1.00  0.00     0.016 A 
ATOM     28  C   UNL A   1      36.903  33.027  28.729  1.00  0.00     0.010 A 
ATOM     29  C   UNL A   1      35.310  31.259  29.185  1.00  0.00     0.010 A 
ATOM     30  C   UNL A   1      36.589  31.821  29.378  1.00  0.00    -0.014 A 
BRANCH  30  31
ATOM     31  C   UNL A   1      37.634  30.934  29.951  1.00  0.00     0.031 A 
ATOM     32  C   UNL A   1      37.897  31.194  31.400  1.00  0.00     0.074 A 
ATOM     33  C   UNL A   1      38.421  30.091  29.248  1.00  0.00     0.049 A 
ATOM     34  N   UNL A   1      38.897  30.832  32.152  1.00  0.00    -0.248 NA
ATOM     35  C   UNL A   1      36.919  32.077  32.063  1.00  0.00     0.031 C 
ATOM     36  C   UNL A   1      38.289  29.750  27.831  1.00  0.00     0.029 A 
ATOM     37  N   UNL A   1      39.533  29.379  29.650  1.00  0.00    -0.354 N 
ATOM     38  C   UNL A   1      38.678  31.480  33.358  1.00  0.00     0.074 A 
ATOM     39  C   UNL A   1      37.528  32.333  33.199  1.00  0.00     0.031 C 
ATOM     40  C   UNL A   1      39.280  28.902  27.486  1.00  0.00     0.029 A 
ATOM     41  C   UNL A   1      40.144  28.663  28.643  1.00  0.00     0.049 A 
ATOM     42  H   UNL A   1      39.862  29.381  30.578  1.00  0.00     0.167 HD
ATOM     43  C   UNL A   1      39.354  31.357  34.518  1.00  0.00     0.037 A 
ATOM     44  C   UNL A   1      41.276  27.921  28.664  1.00  0.00     0.037 A 
ATOM     45  C   UNL A   1      40.504  30.521  34.662  1.00  0.00     0.049 A 
ATOM     46  C   UNL A   1      42.060  27.822  29.959  1.00  0.00     0.074 A 
ATOM     47  C   UNL A   1      41.268  30.297  35.789  1.00  0.00     0.029 A 
ATOM     48  N   UNL A   1      41.064  29.781  33.630  1.00  0.00    -0.354 N 
ATOM     49  N   UNL A   1      41.818  28.388  31.120  1.00  0.00    -0.248 NA
ATOM     50  C   UNL A   1      43.272  26.986  29.953  1.00  0.00     0.031 C 
ATOM     51  C   UNL A   1      42.334  29.474  35.421  1.00  0.00     0.029 A 
ATOM     52  C   UNL A   1      42.181  29.114  34.089  1.00  0.00     0.049 A 
ATOM     53  H   UNL A   1      40.716  29.740  32.709  1.00  0.00     0.167 HD
ATOM     54  C   UNL A   1      42.812  27.940  31.986  1.00  0.00     0.074 A 
ATOM     55  C   UNL A   1      43.667  27.062  31.217  1.00  0.00     0.031 C 
ATOM     56  C   UNL A   1      42.995  28.221  33.301  1.00  0.00     0.037 A 
BRANCH  43  57
ATOM     57  C   UNL A   1      38.855  32.187  35.660  1.00  0.00     0.057 A 
ATOM     58  C   UNL A   1      39.214  33.537  35.810  1.00  0.00     0.134 A 
ATOM     59  C   UNL A   1      38.115  31.596  36.688  1.00  0.00     0.134 A 
ATOM     60  F   UNL A   1      39.962  34.150  34.878  1.00  0.00    -0.206 F 
ATOM     61  C   UNL A   1      38.918  34.244  36.974  1.00  0.00     0.040 A 
ATOM     62  C   UNL A   1      37.771  32.309  37.836  1.00  0.00     0.040 A 
ATOM     63  F   UNL A   1      37.750  30.307  36.614  1.00  0.00    -0.206 F 
ATOM     64  C   UNL A   1      38.191  33.629  37.990  1.00  0.00     0.006 A 
ENDBRANCH  43  57
BRANCH  44  65
ATOM     65  C   UNL A   1      41.752  27.196  27.447  1.00  0.00     0.057 A 
ATOM     66  C   UNL A   1      41.460  25.838  27.246  1.00  0.00     0.134 A 
ATOM     67  C   UNL A   1      42.548  27.818  26.477  1.00  0.00     0.134 A 
ATOM     68  F   UNL A   1      40.737  25.163  28.153  1.00  0.00    -0.206 F 
ATOM     69  C   UNL A   1      41.946  25.129  26.142  1.00  0.00     0.040 A 
ATOM     70  C   UNL A   1      43.021  27.127  25.355  1.00  0.00     0.040 A 
ATOM     71  F   UNL A   1      42.886  29.110  26.606  1.00  0.00    -0.206 F 
ATOM     72  C   UNL A   1      42.724  25.777  25.187  1.00  0.00     0.006 A 
ENDBRANCH  44  65
BRANCH  56  73
ATOM     73  C   UNL A   1      44.106  27.521  34.031  1.00  0.00     0.057 A 
ATOM     74  C   UNL A   1      45.378  28.081  34.175  1.00  0.00     0.134 A 
ATOM     75  C   UNL A   1      43.841  26.325  34.715  1.00  0.00     0.134 A 
ATOM     76  F   UNL A   1      45.696  29.222  33.548  1.00  0.00    -0.206 F 
ATOM     77  C   UNL A   1      46.353  27.473  34.971  1.00  0.00     0.040 A 
ATOM     78  C   UNL A   1      44.794  25.727  35.539  1.00  0.00     0.040 A 
ATOM     79  F   UNL A   1      42.632  25.747  34.635  1.00  0.00    -0.206 F 
ATOM     80  C   UNL A   1      46.056  26.302  35.666  1.00  0.00     0.006 A 
ENDBRANCH  56  73
ENDBRANCH  30  31
ENDBRANCH  23  25
ENDBRANCH  22  23
ENDBRANCH   1  22
TORSDOF 12
ENDMDL
MODEL 2
REMARK VINA RESULT:     -13.6      1.343      6.460
REMARK SMILES O=C(OCCOC(=O)c1ccc(-c2c3nc(c(-c4c(F)cccc4F)c4ccc([nH]4)c(-c4c(F)cccc4F)c4nc(c(-c5c(F)cccc5F)c5ccc2[nH]5)C=C4)C=C3)cc1)C1=Cc2c(Cl)cc(Cl)cc2O[C@@H]1C(F)(F)F
REMARK SMILES IDX 5 1 4 2 3 3 2 4 1 5 63 6 64 7 74 8 65 9 73 10 66 11 72 12
REMARK SMILES IDX 67 13 68 14 71 15 69 16 70 17 75 18 76 19 77 20 78 21 6 22
REMARK SMILES IDX 7 23 8 24 9 25 10 26 62 27 11 28 61 29 12 30 13 31 14 32
REMARK SMILES IDX 55 33 15 34 60 35 54 36 56 37 16 38 59 39 53 40 52 41 17 43
REMARK SMILES IDX 43 44 26 45 42 46 27 47 30 48 41 49 57 50 28 51 29 52 40 54
REMARK SMILES IDX 58 55 31 56 18 57 19 58 24 59 20 60 21 61 23 62 25 63 22 64
REMARK SMILES IDX 44 65 45 66 50 67 46 68 47 69 49 70 51 71 48 72 32 73 33 74
REMARK SMILES IDX 38 75 34 76 35 77 37 78 39 79 36 80
REMARK H PARENT 56 42 30 53
REMARK Flexibility Score: inf
ROOT
ATOM      1  C   UNL A   1      31.716  31.724  27.001  1.00  0.00     0.275 C 
ENDROOT
BRANCH   1   2
ATOM      2  C   UNL A   1      33.221  30.155  26.771  1.00  0.00     0.275 C 
BRANCH   2   3
ATOM      3  O   UNL A   1      33.174  28.759  27.335  1.00  0.00    -0.459 OA
BRANCH   3   4
ATOM      4  C   UNL A   1      32.080  28.105  26.942  1.00  0.00     0.338 C 
ATOM      5  O   UNL A   1      31.200  27.655  27.637  1.00  0.00    -0.246 OA
BRANCH   4   6
ATOM      6  C   UNL A   1      32.563  27.666  25.632  1.00  0.00     0.087 C 
ATOM      7  C   UNL A   1      33.540  26.614  25.629  1.00  0.00     0.029 C 
ATOM      8  C   UNL A   1      30.771  27.497  24.998  1.00  0.00     0.316 C 
ATOM      9  C   UNL A   1      33.204  24.907  25.255  1.00  0.00     0.036 A 
ATOM     10  O   UNL A   1      30.288  25.616  24.750  1.00  0.00    -0.475 OA
ATOM     11  C   UNL A   1      34.218  23.994  25.338  1.00  0.00     0.053 A 
ATOM     12  C   UNL A   1      31.594  24.328  24.969  1.00  0.00     0.130 A 
ATOM     13  Cl  UNL A   1      35.865  24.429  25.524  1.00  0.00    -0.083 Cl
ATOM     14  C   UNL A   1      33.821  22.657  25.284  1.00  0.00     0.042 A 
ATOM     15  C   UNL A   1      31.281  23.001  24.929  1.00  0.00     0.067 A 
ATOM     16  C   UNL A   1      32.439  22.197  25.127  1.00  0.00     0.046 A 
ATOM     17  Cl  UNL A   1      32.234  20.476  25.241  1.00  0.00    -0.084 Cl
BRANCH   8  18
ATOM     18  C   UNL A   1      31.179  28.778  23.980  1.00  0.00     0.430 C 
ATOM     19  F   UNL A   1      32.413  28.665  23.509  1.00  0.00    -0.167 F 
ATOM     20  F   UNL A   1      30.453  28.725  22.815  1.00  0.00    -0.167 F 
ATOM     21  F   UNL A   1      30.946  30.041  24.402  1.00  0.00    -0.167 F 
ENDBRANCH   8  18
ENDBRANCH   4   6
ENDBRANCH   3   4
ENDBRANCH   2   3
ENDBRANCH   1   2
BRANCH   1  22
ATOM     22  O   UNL A   1      32.160  33.423  27.272  1.00  0.00    -0.458 OA
BRANCH  22  23
ATOM     23  C   UNL A   1      32.893  34.235  28.135  1.00  0.00     0.338 C 
ATOM     24  O   UNL A   1      32.519  35.155  28.842  1.00  0.00    -0.246 OA
BRANCH  23  25
ATOM     25  C   UNL A   1      34.167  33.511  28.440  1.00  0.00     0.060 A 
ATOM     26  C   UNL A   1      35.393  34.027  27.959  1.00  0.00     0.016 A 
ATOM     27  C   UNL A   1      34.161  32.610  29.496  1.00  0.00     0.016 A 
ATOM     28  C   UNL A   1      36.570  33.847  28.722  1.00  0.00     0.010 A 
ATOM     29  C   UNL A   1      35.321  32.440  30.248  1.00  0.00     0.010 A 
ATOM     30  C   UNL A   1      36.512  33.121  29.923  1.00  0.00    -0.014 A 
BRANCH  30  31
ATOM     31  C   UNL A   1      37.734  32.738  30.677  1.00  0.00     0.031 A 
ATOM     32  C   UNL A   1      38.442  31.558  30.092  1.00  0.00     0.074 A 
ATOM     33  C   UNL A   1      38.113  33.247  31.869  1.00  0.00     0.049 A 
ATOM     34  N   UNL A   1      39.350  30.781  30.606  1.00  0.00    -0.248 NA
ATOM     35  C   UNL A   1      37.973  31.152  28.753  1.00  0.00     0.031 C 
ATOM     36  C   UNL A   1      37.511  34.386  32.564  1.00  0.00     0.029 A 
ATOM     37  N   UNL A   1      39.107  32.831  32.732  1.00  0.00    -0.354 N 
ATOM     38  C   UNL A   1      39.524  29.777  29.666  1.00  0.00     0.074 A 
ATOM     39  C   UNL A   1      38.558  29.983  28.617  1.00  0.00     0.031 C 
ATOM     40  C   UNL A   1      38.144  34.571  33.741  1.00  0.00     0.029 A 
ATOM     41  C   UNL A   1      39.175  33.545  33.909  1.00  0.00     0.049 A 
ATOM     42  H   UNL A   1      39.718  32.086  32.524  1.00  0.00     0.167 HD
ATOM     43  C   UNL A   1      40.432  28.781  29.652  1.00  0.00     0.037 A 
ATOM     44  C   UNL A   1      39.968  33.369  34.991  1.00  0.00     0.037 A 
ATOM     45  C   UNL A   1      41.377  28.575  30.705  1.00  0.00     0.049 A 
ATOM     46  C   UNL A   1      40.958  32.218  34.991  1.00  0.00     0.074 A 
ATOM     47  C   UNL A   1      42.358  27.612  30.801  1.00  0.00     0.029 A 
ATOM     48  N   UNL A   1      41.438  29.346  31.857  1.00  0.00    -0.354 N 
ATOM     49  N   UNL A   1      41.164  31.302  34.072  1.00  0.00    -0.248 NA
ATOM     50  C   UNL A   1      41.823  32.071  36.174  1.00  0.00     0.031 C 
ATOM     51  C   UNL A   1      42.973  27.757  32.047  1.00  0.00     0.029 A 
ATOM     52  C   UNL A   1      42.432  28.865  32.685  1.00  0.00     0.049 A 
ATOM     53  H   UNL A   1      40.860  30.119  32.054  1.00  0.00     0.167 HD
ATOM     54  C   UNL A   1      42.208  30.509  34.540  1.00  0.00     0.074 A 
ATOM     55  C   UNL A   1      42.587  31.043  35.830  1.00  0.00     0.031 C 
ATOM     56  C   UNL A   1      42.806  29.441  33.953  1.00  0.00     0.037 A 
BRANCH  43  57
ATOM     57  C   UNL A   1      40.376  27.858  28.474  1.00  0.00     0.057 A 
ATOM     58  C   UNL A   1      39.697  26.629  28.526  1.00  0.00     0.134 A 
ATOM     59  C   UNL A   1      41.115  28.141  27.322  1.00  0.00     0.134 A 
ATOM     60  F   UNL A   1      39.005  26.278  29.621  1.00  0.00    -0.206 F 
ATOM     61  C   UNL A   1      39.819  25.688  27.505  1.00  0.00     0.040 A 
ATOM     62  C   UNL A   1      41.204  27.227  26.274  1.00  0.00     0.040 A 
ATOM     63  F   UNL A   1      41.797  29.291  27.213  1.00  0.00    -0.206 F 
ATOM     64  C   UNL A   1      40.572  25.987  26.373  1.00  0.00     0.006 A 
ENDBRANCH  43  57
BRANCH  44  65
ATOM     65  C   UNL A   1      39.894  34.288  36.166  1.00  0.00     0.057 A 
ATOM     66  C   UNL A   1      39.099  33.982  37.282  1.00  0.00     0.134 A 
ATOM     67  C   UNL A   1      40.570  35.514  36.193  1.00  0.00     0.134 A 
ATOM     68  F   UNL A   1      38.388  32.845  37.312  1.00  0.00    -0.206 F 
ATOM     69  C   UNL A   1      38.972  34.858  38.367  1.00  0.00     0.040 A 
ATOM     70  C   UNL A   1      40.472  36.389  37.282  1.00  0.00     0.040 A 
ATOM     71  F   UNL A   1      41.336  35.887  35.158  1.00  0.00    -0.206 F 
ATOM     72  C   UNL A   1      39.667  36.064  38.371  1.00  0.00     0.006 A 
ENDBRANCH  44  65
BRANCH  56  73
ATOM     73  C   UNL A   1      43.986  28.817  34.642  1.00  0.00     0.057 A 
ATOM     74  C   UNL A   1      43.864  27.700  35.474  1.00  0.00     0.134 A 
ATOM     75  C   UNL A   1      45.281  29.271  34.348  1.00  0.00     0.134 A 
ATOM     76  F   UNL A   1      42.655  27.217  35.795  1.00  0.00    -0.206 F 
ATOM     77  C   UNL A   1      44.990  27.058  35.995  1.00  0.00     0.040 A 
ATOM     78  C   UNL A   1      46.412  28.617  34.834  1.00  0.00     0.040 A 
ATOM     79  F   UNL A   1      45.466  30.325  33.539  1.00  0.00    -0.206 F 
ATOM     80  C   UNL A   1      46.267  27.508  35.663  1.00  0.00     0.006 A 
ENDBRANCH  56  73
ENDBRANCH  30  31
ENDBRANCH  23  25
ENDBRANCH  22  23
ENDBRANCH   1  22
TORSDOF 12
ENDMDL
MODEL 3
REMARK VINA RESULT:     -13.5      4.654      8.082
REMARK SMILES O=C(OCCOC(=O)c1ccc(-c2c3nc(c(-c4c(F)cccc4F)c4ccc([nH]4)c(-c4c(F)cccc4F)c4nc(c(-c5c(F)cccc5F)c5ccc2[nH]5)C=C4)C=C3)cc1)C1=Cc2c(Cl)cc(Cl)cc2O[C@@H]1C(F)(F)F
REMARK SMILES IDX 5 1 4 2 3 3 2 4 1 5 63 6 64 7 74 8 65 9 73 10 66 11 72 12
REMARK SMILES IDX 67 13 68 14 71 15 69 16 70 17 75 18 76 19 77 20 78 21 6 22
REMARK SMILES IDX 7 23 8 24 9 25 10 26 62 27 11 28 61 29 12 30 13 31 14 32
REMARK SMILES IDX 55 33 15 34 60 35 54 36 56 37 16 38 59 39 53 40 52 41 17 43
REMARK SMILES IDX 43 44 26 45 42 46 27 47 30 48 41 49 57 50 28 51 29 52 40 54
REMARK SMILES IDX 58 55 31 56 18 57 19 58 24 59 20 60 21 61 23 62 25 63 22 64
REMARK SMILES IDX 44 65 45 66 50 67 46 68 47 69 49 70 51 71 48 72 32 73 33 74
REMARK SMILES IDX 38 75 34 76 35 77 37 78 39 79 36 80
REMARK H PARENT 56 42 30 53
REMARK Flexibility Score: inf
ROOT
ATOM      1  C   UNL A   1      37.401  20.876  24.965  1.00  0.00     0.275 C 
ENDROOT
BRANCH   1   2
ATOM      2  C   UNL A   1      36.564  22.602  23.917  1.00  0.00     0.275 C 
BRANCH   2   3
ATOM      3  O   UNL A   1      35.845  23.777  24.526  1.00  0.00    -0.459 OA
BRANCH   3   4
ATOM      4  C   UNL A   1      34.713  24.053  23.876  1.00  0.00     0.338 C 
ATOM      5  O   UNL A   1      34.584  24.363  22.716  1.00  0.00    -0.246 OA
BRANCH   4   6
ATOM      6  C   UNL A   1      33.886  24.388  25.038  1.00  0.00     0.087 C 
ATOM      7  C   UNL A   1      33.852  25.771  25.421  1.00  0.00     0.029 C 
ATOM      8  C   UNL A   1      32.416  23.419  24.305  1.00  0.00     0.316 C 
ATOM      9  C   UNL A   1      32.517  26.896  25.075  1.00  0.00     0.036 A 
ATOM     10  O   UNL A   1      30.991  24.632  23.731  1.00  0.00    -0.475 OA
ATOM     11  C   UNL A   1      32.632  28.204  25.452  1.00  0.00     0.053 A 
ATOM     12  C   UNL A   1      31.152  26.433  24.110  1.00  0.00     0.130 A 
ATOM     13  Cl  UNL A   1      33.876  28.783  26.480  1.00  0.00    -0.083 Cl
ATOM     14  C   UNL A   1      31.670  29.064  24.920  1.00  0.00     0.042 A 
ATOM     15  C   UNL A   1      30.250  27.333  23.625  1.00  0.00     0.067 A 
ATOM     16  C   UNL A   1      30.575  28.656  24.037  1.00  0.00     0.046 A 
ATOM     17  Cl  UNL A   1      29.621  29.968  23.416  1.00  0.00    -0.084 Cl
BRANCH   8  18
ATOM     18  C   UNL A   1      32.657  22.378  25.610  1.00  0.00     0.430 C 
ATOM     19  F   UNL A   1      32.486  22.992  26.773  1.00  0.00    -0.167 F 
ATOM     20  F   UNL A   1      31.662  21.432  25.670  1.00  0.00    -0.167 F 
ATOM     21  F   UNL A   1      33.773  21.617  25.636  1.00  0.00    -0.167 F 
ENDBRANCH   8  18
ENDBRANCH   4   6
ENDBRANCH   3   4
ENDBRANCH   2   3
ENDBRANCH   1   2
BRANCH   1  22
ATOM     22  O   UNL A   1      38.995  20.930  25.747  1.00  0.00    -0.458 OA
BRANCH  22  23
ATOM     23  C   UNL A   1      40.076  20.116  26.080  1.00  0.00     0.338 C 
ATOM     24  O   UNL A   1      40.334  18.981  25.719  1.00  0.00    -0.246 OA
BRANCH  23  25
ATOM     25  C   UNL A   1      41.156  21.014  26.598  1.00  0.00     0.060 A 
ATOM     26  C   UNL A   1      41.772  21.939  25.722  1.00  0.00     0.016 A 
ATOM     27  C   UNL A   1      41.236  21.202  27.971  1.00  0.00     0.016 A 
ATOM     28  C   UNL A   1      42.221  23.181  26.226  1.00  0.00     0.010 A 
ATOM     29  C   UNL A   1      41.674  22.429  28.463  1.00  0.00     0.010 A 
ATOM     30  C   UNL A   1      42.088  23.462  27.596  1.00  0.00    -0.014 A 
BRANCH  30  31
ATOM     31  C   UNL A   1      42.700  24.661  28.223  1.00  0.00     0.031 A 
ATOM     32  C   UNL A   1      41.710  25.744  28.515  1.00  0.00     0.074 A 
ATOM     33  C   UNL A   1      44.024  24.881  28.372  1.00  0.00     0.049 A 
ATOM     34  N   UNL A   1      41.895  27.002  28.788  1.00  0.00    -0.248 NA
ATOM     35  C   UNL A   1      40.296  25.346  28.381  1.00  0.00     0.031 C 
ATOM     36  C   UNL A   1      45.102  23.924  28.117  1.00  0.00     0.029 A 
ATOM     37  N   UNL A   1      44.692  26.026  28.757  1.00  0.00    -0.354 N 
ATOM     38  C   UNL A   1      40.620  27.545  28.817  1.00  0.00     0.074 A 
ATOM     39  C   UNL A   1      39.692  26.513  28.427  1.00  0.00     0.031 C 
ATOM     40  C   UNL A   1      46.289  24.523  28.349  1.00  0.00     0.029 A 
ATOM     41  C   UNL A   1      46.066  25.918  28.734  1.00  0.00     0.049 A 
ATOM     42  H   UNL A   1      44.227  26.850  29.027  1.00  0.00     0.167 HD
ATOM     43  C   UNL A   1      40.239  28.789  29.170  1.00  0.00     0.037 A 
ATOM     44  C   UNL A   1      47.018  26.848  28.980  1.00  0.00     0.037 A 
ATOM     45  C   UNL A   1      41.166  29.811  29.540  1.00  0.00     0.049 A 
ATOM     46  C   UNL A   1      46.586  28.259  29.332  1.00  0.00     0.074 A 
ATOM     47  C   UNL A   1      40.905  31.106  29.934  1.00  0.00     0.029 A 
ATOM     48  N   UNL A   1      42.545  29.647  29.544  1.00  0.00    -0.354 N 
ATOM     49  N   UNL A   1      45.373  28.757  29.419  1.00  0.00    -0.248 NA
ATOM     50  C   UNL A   1      47.647  29.239  29.618  1.00  0.00     0.031 C 
ATOM     51  C   UNL A   1      42.132  31.750  30.110  1.00  0.00     0.029 A 
ATOM     52  C   UNL A   1      43.152  30.829  29.913  1.00  0.00     0.049 A 
ATOM     53  H   UNL A   1      43.016  28.813  29.317  1.00  0.00     0.167 HD
ATOM     54  C   UNL A   1      45.524  30.083  29.815  1.00  0.00     0.074 A 
ATOM     55  C   UNL A   1      46.947  30.318  29.942  1.00  0.00     0.031 C 
ATOM     56  C   UNL A   1      44.574  31.020  30.061  1.00  0.00     0.037 A 
BRANCH  43  57
ATOM     57  C   UNL A   1      38.768  29.065  29.115  1.00  0.00     0.057 A 
ATOM     58  C   UNL A   1      38.147  29.556  27.954  1.00  0.00     0.134 A 
ATOM     59  C   UNL A   1      37.989  28.962  30.271  1.00  0.00     0.134 A 
ATOM     60  F   UNL A   1      38.850  29.720  26.823  1.00  0.00    -0.206 F 
ATOM     61  C   UNL A   1      36.827  30.003  27.969  1.00  0.00     0.040 A 
ATOM     62  C   UNL A   1      36.653  29.361  30.284  1.00  0.00     0.040 A 
ATOM     63  F   UNL A   1      38.522  28.512  31.417  1.00  0.00    -0.206 F 
ATOM     64  C   UNL A   1      36.075  29.903  29.137  1.00  0.00     0.006 A 
ENDBRANCH  43  57
BRANCH  44  65
ATOM     65  C   UNL A   1      48.471  26.505  28.923  1.00  0.00     0.057 A 
ATOM     66  C   UNL A   1      49.223  26.708  27.755  1.00  0.00     0.134 A 
ATOM     67  C   UNL A   1      49.140  25.925  30.008  1.00  0.00     0.134 A 
ATOM     68  F   UNL A   1      48.642  27.221  26.660  1.00  0.00    -0.206 F 
ATOM     69  C   UNL A   1      50.570  26.339  27.666  1.00  0.00     0.040 A 
ATOM     70  C   UNL A   1      50.494  25.575  29.942  1.00  0.00     0.040 A 
ATOM     71  F   UNL A   1      48.486  25.684  31.155  1.00  0.00    -0.206 F 
ATOM     72  C   UNL A   1      51.212  25.777  28.766  1.00  0.00     0.006 A 
ENDBRANCH  44  65
BRANCH  56  73
ATOM     73  C   UNL A   1      45.012  32.363  30.572  1.00  0.00     0.057 A 
ATOM     74  C   UNL A   1      45.232  33.453  29.725  1.00  0.00     0.134 A 
ATOM     75  C   UNL A   1      45.078  32.591  31.955  1.00  0.00     0.134 A 
ATOM     76  F   UNL A   1      45.185  33.303  28.393  1.00  0.00    -0.206 F 
ATOM     77  C   UNL A   1      45.508  34.724  30.236  1.00  0.00     0.040 A 
ATOM     78  C   UNL A   1      45.318  33.861  32.476  1.00  0.00     0.040 A 
ATOM     79  F   UNL A   1      44.856  31.591  32.822  1.00  0.00    -0.206 F 
ATOM     80  C   UNL A   1      45.537  34.932  31.613  1.00  0.00     0.006 A 
ENDBRANCH  56  73
ENDBRANCH  30  31
ENDBRANCH  23  25
ENDBRANCH  22  23
ENDBRANCH   1  22
TORSDOF 12
ENDMDL
