MODEL 1
REMARK VINA RESULT:     -10.5      0.000      0.000
REMARK SMILES CC[C@](C)(C(=O)OCCOC(=O)c1ccc(-c2c3nc(c(-c4c(F)cccc4F)c4ccc([nH]4)c(-c4c(F)cccc4F)c4nc(c(-c5c(F)cccc5F)c5ccc2[nH]5)C=C4)C=C3)cc1)n1nnnc1-c1ccco1
REMARK SMILES IDX 8 1 7 2 5 3 6 4 3 5 4 6 2 7 1 8 67 9 68 10 71 11 69 12 70 13
REMARK SMILES IDX 72 14 73 15 76 16 74 17 75 18 9 19 10 20 11 21 12 22 13 23
REMARK SMILES IDX 14 24 66 25 15 26 65 27 16 28 17 29 18 30 59 31 19 32 64 33
REMARK SMILES IDX 58 34 60 35 20 36 63 37 57 38 56 39 21 41 47 42 30 43 46 44
REMARK SMILES IDX 31 45 34 46 45 47 61 48 32 49 33 50 44 52 62 53 35 54 22 55
REMARK SMILES IDX 23 56 28 57 24 58 25 59 27 60 29 61 26 62 48 63 49 64 54 65
REMARK SMILES IDX 50 66 51 67 53 68 55 69 52 70 36 71 37 72 42 73 38 74 39 75
REMARK SMILES IDX 41 76 43 77 40 78
REMARK H PARENT 60 40 34 51
REMARK Flexibility Score: inf
ROOT
ATOM      1  C   UNL A   1      36.129  20.009  24.868  1.00  0.00     0.274 C 
ENDROOT
BRANCH   1   2
ATOM      2  O   UNL A   1      35.860  21.424  24.768  1.00  0.00    -0.460 OA
BRANCH   2   3
ATOM      3  C   UNL A   1      35.012  21.969  25.693  1.00  0.00     0.334 C 
ATOM      4  O   UNL A   1      34.910  21.525  26.830  1.00  0.00    -0.249 OA
BRANCH   3   5
ATOM      5  C   UNL A   1      34.088  23.063  25.068  1.00  0.00     0.161 C 
ATOM      6  C   UNL A   1      34.548  24.454  25.567  1.00  0.00     0.050 C 
BRANCH   5   7
ATOM      7  C   UNL A   1      34.237  22.857  23.527  1.00  0.00     0.039 C 
ATOM      8  C   UNL A   1      33.404  23.764  22.631  1.00  0.00     0.007 C 
ENDBRANCH   5   7
BRANCH   5   9
ATOM      9  N   UNL A   1      32.674  22.846  25.455  1.00  0.00    -0.205 N 
ATOM     10  N   UNL A   1      31.964  23.810  26.082  1.00  0.00    -0.043 NA
ATOM     11  C   UNL A   1      31.861  21.739  25.338  1.00  0.00     0.218 A 
ATOM     12  N   UNL A   1      30.759  23.313  26.292  1.00  0.00    -0.023 NA
ATOM     13  N   UNL A   1      30.676  22.034  25.832  1.00  0.00    -0.105 NA
BRANCH  11  14
ATOM     14  C   UNL A   1      32.190  20.441  24.860  1.00  0.00     0.172 A 
ATOM     15  C   UNL A   1      32.299  20.031  23.543  1.00  0.00     0.054 A 
ATOM     16  O   UNL A   1      32.535  19.398  25.677  1.00  0.00    -0.461 OA
ATOM     17  C   UNL A   1      32.717  18.680  23.560  1.00  0.00     0.043 A 
ATOM     18  C   UNL A   1      32.861  18.345  24.883  1.00  0.00     0.196 A 
ENDBRANCH  11  14
ENDBRANCH   5   9
ENDBRANCH   3   5
ENDBRANCH   2   3
ENDBRANCH   1   2
BRANCH   1  19
ATOM     19  C   UNL A   1      37.635  19.754  24.955  1.00  0.00     0.275 C 
BRANCH  19  20
ATOM     20  O   UNL A   1      38.316  20.910  25.480  1.00  0.00    -0.458 OA
BRANCH  20  21
ATOM     21  C   UNL A   1      39.462  20.648  26.144  1.00  0.00     0.338 C 
ATOM     22  O   UNL A   1      40.053  19.577  26.216  1.00  0.00    -0.246 OA
BRANCH  21  23
ATOM     23  C   UNL A   1      40.045  21.906  26.626  1.00  0.00     0.060 A 
ATOM     24  C   UNL A   1      39.553  23.082  26.063  1.00  0.00     0.016 A 
ATOM     25  C   UNL A   1      41.095  21.949  27.542  1.00  0.00     0.016 A 
ATOM     26  C   UNL A   1      40.086  24.314  26.415  1.00  0.00     0.010 A 
ATOM     27  C   UNL A   1      41.642  23.192  27.891  1.00  0.00     0.010 A 
ATOM     28  C   UNL A   1      41.142  24.381  27.325  1.00  0.00    -0.014 A 
BRANCH  28  29
ATOM     29  C   UNL A   1      41.763  25.696  27.597  1.00  0.00     0.031 A 
ATOM     30  C   UNL A   1      41.018  26.709  28.414  1.00  0.00     0.074 A 
ATOM     31  C   UNL A   1      43.021  25.949  27.196  1.00  0.00     0.049 A 
ATOM     32  N   UNL A   1      41.344  27.941  28.710  1.00  0.00    -0.248 NA
ATOM     33  C   UNL A   1      39.735  26.270  28.987  1.00  0.00     0.031 C 
ATOM     34  C   UNL A   1      43.893  25.004  26.500  1.00  0.00     0.029 A 
ATOM     35  N   UNL A   1      43.791  27.077  27.334  1.00  0.00    -0.354 N 
ATOM     36  C   UNL A   1      40.302  28.431  29.482  1.00  0.00     0.074 A 
ATOM     37  C   UNL A   1      39.328  27.368  29.607  1.00  0.00     0.031 C 
ATOM     38  C   UNL A   1      45.082  25.591  26.276  1.00  0.00     0.029 A 
ATOM     39  C   UNL A   1      45.036  26.965  26.766  1.00  0.00     0.049 A 
ATOM     40  H   UNL A   1      43.480  27.889  27.797  1.00  0.00     0.167 HD
ATOM     41  C   UNL A   1      40.169  29.660  30.035  1.00  0.00     0.037 A 
ATOM     42  C   UNL A   1      46.016  27.880  26.632  1.00  0.00     0.037 A 
ATOM     43  C   UNL A   1      41.147  30.710  29.923  1.00  0.00     0.049 A 
ATOM     44  C   UNL A   1      45.801  29.270  27.168  1.00  0.00     0.074 A 
ATOM     45  C   UNL A   1      41.092  32.000  30.424  1.00  0.00     0.029 A 
ATOM     46  N   UNL A   1      42.363  30.586  29.269  1.00  0.00    -0.354 N 
ATOM     47  N   UNL A   1      44.785  29.749  27.843  1.00  0.00    -0.248 NA
ATOM     48  C   UNL A   1      46.865  30.251  26.906  1.00  0.00     0.031 C 
ATOM     49  C   UNL A   1      42.260  32.667  30.040  1.00  0.00     0.029 A 
ATOM     50  C   UNL A   1      43.058  31.782  29.334  1.00  0.00     0.049 A 
ATOM     51  H   UNL A   1      42.686  29.769  28.824  1.00  0.00     0.167 HD
ATOM     52  C   UNL A   1      45.092  31.078  28.101  1.00  0.00     0.074 A 
ATOM     53  C   UNL A   1      46.396  31.327  27.522  1.00  0.00     0.031 C 
ATOM     54  C   UNL A   1      44.358  32.011  28.756  1.00  0.00     0.037 A 
BRANCH  41  55
ATOM     55  C   UNL A   1      38.893  29.948  30.764  1.00  0.00     0.057 A 
ATOM     56  C   UNL A   1      38.728  29.647  32.121  1.00  0.00     0.134 A 
ATOM     57  C   UNL A   1      37.816  30.542  30.093  1.00  0.00     0.134 A 
ATOM     58  F   UNL A   1      39.714  29.061  32.813  1.00  0.00    -0.206 F 
ATOM     59  C   UNL A   1      37.526  29.912  32.782  1.00  0.00     0.040 A 
ATOM     60  C   UNL A   1      36.618  30.829  30.749  1.00  0.00     0.040 A 
ATOM     61  F   UNL A   1      37.911  30.853  28.792  1.00  0.00    -0.206 F 
ATOM     62  C   UNL A   1      36.469  30.509  32.096  1.00  0.00     0.006 A 
ENDBRANCH  41  55
BRANCH  42  63
ATOM     63  C   UNL A   1      47.271  27.528  25.923  1.00  0.00     0.057 A 
ATOM     64  C   UNL A   1      47.389  27.676  24.537  1.00  0.00     0.134 A 
ATOM     65  C   UNL A   1      48.373  27.008  26.613  1.00  0.00     0.134 A 
ATOM     66  F   UNL A   1      46.357  28.139  23.817  1.00  0.00    -0.206 F 
ATOM     67  C   UNL A   1      48.555  27.312  23.860  1.00  0.00     0.040 A 
ATOM     68  C   UNL A   1      49.552  26.662  25.952  1.00  0.00     0.040 A 
ATOM     69  F   UNL A   1      48.320  26.831  27.941  1.00  0.00    -0.206 F 
ATOM     70  C   UNL A   1      49.643  26.808  24.570  1.00  0.00     0.006 A 
ENDBRANCH  42  63
BRANCH  54  71
ATOM     71  C   UNL A   1      44.958  33.377  28.901  1.00  0.00     0.057 A 
ATOM     72  C   UNL A   1      45.816  33.695  29.960  1.00  0.00     0.134 A 
ATOM     73  C   UNL A   1      44.704  34.372  27.948  1.00  0.00     0.134 A 
ATOM     74  F   UNL A   1      46.087  32.790  30.912  1.00  0.00    -0.206 F 
ATOM     75  C   UNL A   1      46.389  34.963  30.077  1.00  0.00     0.040 A 
ATOM     76  C   UNL A   1      45.288  35.636  28.043  1.00  0.00     0.040 A 
ATOM     77  F   UNL A   1      43.897  34.128  26.906  1.00  0.00    -0.206 F 
ATOM     78  C   UNL A   1      46.130  35.936  29.112  1.00  0.00     0.006 A 
ENDBRANCH  54  71
ENDBRANCH  28  29
ENDBRANCH  21  23
ENDBRANCH  20  21
ENDBRANCH  19  20
ENDBRANCH   1  19
TORSDOF 14
ENDMDL
MODEL 2
REMARK VINA RESULT:     -10.4      5.113      9.548
REMARK SMILES CC[C@](C)(C(=O)OCCOC(=O)c1ccc(-c2c3nc(c(-c4c(F)cccc4F)c4ccc([nH]4)c(-c4c(F)cccc4F)c4nc(c(-c5c(F)cccc5F)c5ccc2[nH]5)C=C4)C=C3)cc1)n1nnnc1-c1ccco1
REMARK SMILES IDX 8 1 7 2 5 3 6 4 3 5 4 6 2 7 1 8 67 9 68 10 71 11 69 12 70 13
REMARK SMILES IDX 72 14 73 15 76 16 74 17 75 18 9 19 10 20 11 21 12 22 13 23
REMARK SMILES IDX 14 24 66 25 15 26 65 27 16 28 17 29 18 30 59 31 19 32 64 33
REMARK SMILES IDX 58 34 60 35 20 36 63 37 57 38 56 39 21 41 47 42 30 43 46 44
REMARK SMILES IDX 31 45 34 46 45 47 61 48 32 49 33 50 44 52 62 53 35 54 22 55
REMARK SMILES IDX 23 56 28 57 24 58 25 59 27 60 29 61 26 62 48 63 49 64 54 65
REMARK SMILES IDX 50 66 51 67 53 68 55 69 52 70 36 71 37 72 42 73 38 74 39 75
REMARK SMILES IDX 41 76 43 77 40 78
REMARK H PARENT 60 40 34 51
REMARK Flexibility Score: inf
ROOT
ATOM      1  C   UNL A   1      31.029  30.591  25.291  1.00  0.00     0.274 C 
ENDROOT
BRANCH   1   2
ATOM      2  O   UNL A   1      31.442  29.239  25.585  1.00  0.00    -0.460 OA
BRANCH   2   3
ATOM      3  C   UNL A   1      32.398  28.685  24.778  1.00  0.00     0.334 C 
ATOM      4  O   UNL A   1      33.138  29.365  24.076  1.00  0.00    -0.249 OA
BRANCH   3   5
ATOM      5  C   UNL A   1      32.290  27.128  24.726  1.00  0.00     0.161 C 
ATOM      6  C   UNL A   1      33.594  26.515  25.292  1.00  0.00     0.050 C 
BRANCH   5   7
ATOM      7  C   UNL A   1      31.015  26.803  25.569  1.00  0.00     0.039 C 
ATOM      8  C   UNL A   1      30.621  25.336  25.676  1.00  0.00     0.007 C 
ENDBRANCH   5   7
BRANCH   5   9
ATOM      9  N   UNL A   1      32.091  26.656  23.336  1.00  0.00    -0.205 N 
ATOM     10  N   UNL A   1      32.902  25.725  22.789  1.00  0.00    -0.043 NA
ATOM     11  C   UNL A   1      31.185  27.039  22.370  1.00  0.00     0.218 A 
ATOM     12  N   UNL A   1      32.470  25.527  21.557  1.00  0.00    -0.023 NA
ATOM     13  N   UNL A   1      31.404  26.328  21.283  1.00  0.00    -0.105 NA
BRANCH  11  14
ATOM     14  C   UNL A   1      30.210  28.072  22.425  1.00  0.00     0.172 A 
ATOM     15  C   UNL A   1      29.017  28.068  23.127  1.00  0.00     0.054 A 
ATOM     16  O   UNL A   1      30.366  29.294  21.827  1.00  0.00    -0.461 OA
ATOM     17  C   UNL A   1      28.418  29.336  22.940  1.00  0.00     0.043 A 
ATOM     18  C   UNL A   1      29.286  30.051  22.152  1.00  0.00     0.196 A 
ENDBRANCH  11  14
ENDBRANCH   5   9
ENDBRANCH   3   5
ENDBRANCH   2   3
ENDBRANCH   1   2
BRANCH   1  19
ATOM     19  C   UNL A   1      31.378  31.524  26.451  1.00  0.00     0.275 C 
BRANCH  19  20
ATOM     20  O   UNL A   1      32.739  31.318  26.876  1.00  0.00    -0.458 OA
BRANCH  20  21
ATOM     21  C   UNL A   1      33.330  32.390  27.448  1.00  0.00     0.338 C 
ATOM     22  O   UNL A   1      32.847  33.502  27.621  1.00  0.00    -0.246 OA
BRANCH  21  23
ATOM     23  C   UNL A   1      34.608  31.982  28.044  1.00  0.00     0.060 A 
ATOM     24  C   UNL A   1      34.705  30.661  28.477  1.00  0.00     0.016 A 
ATOM     25  C   UNL A   1      35.662  32.870  28.250  1.00  0.00     0.016 A 
ATOM     26  C   UNL A   1      35.855  30.203  29.105  1.00  0.00     0.010 A 
ATOM     27  C   UNL A   1      36.820  32.414  28.894  1.00  0.00     0.010 A 
ATOM     28  C   UNL A   1      36.920  31.078  29.328  1.00  0.00    -0.014 A 
BRANCH  28  29
ATOM     29  C   UNL A   1      38.087  30.592  30.099  1.00  0.00     0.031 A 
ATOM     30  C   UNL A   1      39.082  29.686  29.437  1.00  0.00     0.074 A 
ATOM     31  C   UNL A   1      38.306  31.033  31.351  1.00  0.00     0.049 A 
ATOM     32  N   UNL A   1      40.131  29.091  29.946  1.00  0.00    -0.248 NA
ATOM     33  C   UNL A   1      38.874  29.423  28.004  1.00  0.00     0.031 C 
ATOM     34  C   UNL A   1      37.479  32.008  32.060  1.00  0.00     0.029 A 
ATOM     35  N   UNL A   1      39.306  30.728  32.241  1.00  0.00    -0.354 N 
ATOM     36  C   UNL A   1      40.695  28.368  28.905  1.00  0.00     0.074 A 
ATOM     37  C   UNL A   1      39.871  28.593  27.736  1.00  0.00     0.031 C 
ATOM     38  C   UNL A   1      38.008  32.225  33.277  1.00  0.00     0.029 A 
ATOM     39  C   UNL A   1      39.179  31.369  33.449  1.00  0.00     0.049 A 
ATOM     40  H   UNL A   1      40.043  30.109  32.033  1.00  0.00     0.167 HD
ATOM     41  C   UNL A   1      41.800  27.586  28.926  1.00  0.00     0.037 A 
ATOM     42  C   UNL A   1      39.909  31.253  34.574  1.00  0.00     0.037 A 
ATOM     43  C   UNL A   1      42.627  27.379  30.085  1.00  0.00     0.049 A 
ATOM     44  C   UNL A   1      41.073  30.299  34.600  1.00  0.00     0.074 A 
ATOM     45  C   UNL A   1      43.751  26.582  30.214  1.00  0.00     0.029 A 
ATOM     46  N   UNL A   1      42.420  27.982  31.316  1.00  0.00    -0.354 N 
ATOM     47  N   UNL A   1      41.564  29.567  33.631  1.00  0.00    -0.248 NA
ATOM     48  C   UNL A   1      41.771  30.142  35.885  1.00  0.00     0.031 C 
ATOM     49  C   UNL A   1      44.202  26.674  31.535  1.00  0.00     0.029 A 
ATOM     50  C   UNL A   1      43.383  27.558  32.217  1.00  0.00     0.049 A 
ATOM     51  H   UNL A   1      41.696  28.617  31.521  1.00  0.00     0.167 HD
ATOM     52  C   UNL A   1      42.638  28.878  34.181  1.00  0.00     0.074 A 
ATOM     53  C   UNL A   1      42.734  29.289  35.566  1.00  0.00     0.031 C 
ATOM     54  C   UNL A   1      43.466  27.982  33.592  1.00  0.00     0.037 A 
BRANCH  41  55
ATOM     55  C   UNL A   1      42.142  26.854  27.665  1.00  0.00     0.057 A 
ATOM     56  C   UNL A   1      42.921  27.434  26.656  1.00  0.00     0.134 A 
ATOM     57  C   UNL A   1      41.688  25.544  27.464  1.00  0.00     0.134 A 
ATOM     58  F   UNL A   1      43.369  28.691  26.780  1.00  0.00    -0.206 F 
ATOM     59  C   UNL A   1      43.221  26.741  25.482  1.00  0.00     0.040 A 
ATOM     60  C   UNL A   1      41.999  24.835  26.302  1.00  0.00     0.040 A 
ATOM     61  F   UNL A   1      40.937  24.933  28.392  1.00  0.00    -0.206 F 
ATOM     62  C   UNL A   1      42.763  25.436  25.305  1.00  0.00     0.006 A 
ENDBRANCH  41  55
BRANCH  42  63
ATOM     63  C   UNL A   1      39.537  32.025  35.785  1.00  0.00     0.057 A 
ATOM     64  C   UNL A   1      38.525  31.585  36.646  1.00  0.00     0.134 A 
ATOM     65  C   UNL A   1      40.167  33.237  36.095  1.00  0.00     0.134 A 
ATOM     66  F   UNL A   1      37.862  30.449  36.385  1.00  0.00    -0.206 F 
ATOM     67  C   UNL A   1      38.146  32.327  37.767  1.00  0.00     0.040 A 
ATOM     68  C   UNL A   1      39.814  33.976  37.225  1.00  0.00     0.040 A 
ATOM     69  F   UNL A   1      41.137  33.718  35.305  1.00  0.00    -0.206 F 
ATOM     70  C   UNL A   1      38.796  33.525  38.062  1.00  0.00     0.006 A 
ENDBRANCH  42  63
BRANCH  54  71
ATOM     71  C   UNL A   1      44.562  27.404  34.437  1.00  0.00     0.057 A 
ATOM     72  C   UNL A   1      45.804  28.038  34.565  1.00  0.00     0.134 A 
ATOM     73  C   UNL A   1      44.358  26.222  35.159  1.00  0.00     0.134 A 
ATOM     74  F   UNL A   1      46.065  29.166  33.888  1.00  0.00    -0.206 F 
ATOM     75  C   UNL A   1      46.812  27.506  35.371  1.00  0.00     0.040 A 
ATOM     76  C   UNL A   1      45.351  25.692  35.984  1.00  0.00     0.040 A 
ATOM     77  F   UNL A   1      43.188  25.571  35.084  1.00  0.00    -0.206 F 
ATOM     78  C   UNL A   1      46.583  26.332  36.089  1.00  0.00     0.006 A 
ENDBRANCH  54  71
ENDBRANCH  28  29
ENDBRANCH  21  23
ENDBRANCH  20  21
ENDBRANCH  19  20
ENDBRANCH   1  19
TORSDOF 14
ENDMDL
MODEL 3
REMARK VINA RESULT:     -10.4      4.287      8.881
REMARK SMILES CC[C@](C)(C(=O)OCCOC(=O)c1ccc(-c2c3nc(c(-c4c(F)cccc4F)c4ccc([nH]4)c(-c4c(F)cccc4F)c4nc(c(-c5c(F)cccc5F)c5ccc2[nH]5)C=C4)C=C3)cc1)n1nnnc1-c1ccco1
REMARK SMILES IDX 8 1 7 2 5 3 6 4 3 5 4 6 2 7 1 8 67 9 68 10 71 11 69 12 70 13
REMARK SMILES IDX 72 14 73 15 76 16 74 17 75 18 9 19 10 20 11 21 12 22 13 23
REMARK SMILES IDX 14 24 66 25 15 26 65 27 16 28 17 29 18 30 59 31 19 32 64 33
REMARK SMILES IDX 58 34 60 35 20 36 63 37 57 38 56 39 21 41 47 42 30 43 46 44
REMARK SMILES IDX 31 45 34 46 45 47 61 48 32 49 33 50 44 52 62 53 35 54 22 55
REMARK SMILES IDX 23 56 28 57 24 58 25 59 27 60 29 61 26 62 48 63 49 64 54 65
REMARK SMILES IDX 50 66 51 67 53 68 55 69 52 70 36 71 37 72 42 73 38 74 39 75
REMARK SMILES IDX 41 76 43 77 40 78
REMARK H PARENT 60 40 34 51
REMARK Flexibility Score: inf
ROOT
ATOM      1  C   UNL A   1      32.270  28.906  24.852  1.00  0.00     0.274 C 
ENDROOT
BRANCH   1   2
ATOM      2  O   UNL A   1      31.871  27.714  25.562  1.00  0.00    -0.460 OA
BRANCH   2   3
ATOM      3  C   UNL A   1      31.290  26.713  24.831  1.00  0.00     0.334 C 
ATOM      4  O   UNL A   1      30.315  26.905  24.114  1.00  0.00    -0.249 OA
BRANCH   3   5
ATOM      5  C   UNL A   1      31.890  25.313  25.175  1.00  0.00     0.161 C 
ATOM      6  C   UNL A   1      32.092  24.516  23.864  1.00  0.00     0.050 C 
BRANCH   5   7
ATOM      7  C   UNL A   1      33.218  25.639  25.933  1.00  0.00     0.039 C 
ATOM      8  C   UNL A   1      34.502  25.083  25.334  1.00  0.00     0.007 C 
ENDBRANCH   5   7
BRANCH   5   9
ATOM      9  N   UNL A   1      30.989  24.556  26.074  1.00  0.00    -0.205 N 
ATOM     10  N   UNL A   1      29.793  25.059  26.454  1.00  0.00    -0.043 NA
ATOM     11  C   UNL A   1      31.148  23.340  26.705  1.00  0.00     0.218 A 
ATOM     12  N   UNL A   1      29.241  24.158  27.247  1.00  0.00    -0.023 NA
ATOM     13  N   UNL A   1      30.064  23.086  27.409  1.00  0.00    -0.105 NA
BRANCH  11  14
ATOM     14  C   UNL A   1      32.287  22.488  26.719  1.00  0.00     0.172 A 
ATOM     15  C   UNL A   1      32.631  21.527  25.784  1.00  0.00     0.054 A 
ATOM     16  O   UNL A   1      33.279  22.564  27.660  1.00  0.00    -0.461 OA
ATOM     17  C   UNL A   1      33.878  20.989  26.178  1.00  0.00     0.043 A 
ATOM     18  C   UNL A   1      34.237  21.664  27.319  1.00  0.00     0.196 A 
ENDBRANCH  11  14
ENDBRANCH   5   9
ENDBRANCH   3   5
ENDBRANCH   2   3
ENDBRANCH   1   2
BRANCH   1  19
ATOM     19  C   UNL A   1      31.658  30.148  25.501  1.00  0.00     0.275 C 
BRANCH  19  20
ATOM     20  O   UNL A   1      32.166  30.325  26.837  1.00  0.00    -0.458 OA
BRANCH  20  21
ATOM     21  C   UNL A   1      32.728  31.528  27.083  1.00  0.00     0.338 C 
ATOM     22  O   UNL A   1      32.201  32.630  26.986  1.00  0.00    -0.246 OA
BRANCH  21  23
ATOM     23  C   UNL A   1      34.046  31.334  27.699  1.00  0.00     0.060 A 
ATOM     24  C   UNL A   1      34.414  30.023  27.993  1.00  0.00     0.016 A 
ATOM     25  C   UNL A   1      34.875  32.396  28.057  1.00  0.00     0.016 A 
ATOM     26  C   UNL A   1      35.618  29.749  28.629  1.00  0.00     0.010 A 
ATOM     27  C   UNL A   1      36.086  32.124  28.710  1.00  0.00     0.010 A 
ATOM     28  C   UNL A   1      36.460  30.798  29.002  1.00  0.00    -0.014 A 
BRANCH  28  29
ATOM     29  C   UNL A   1      37.682  30.485  29.778  1.00  0.00     0.031 A 
ATOM     30  C   UNL A   1      38.785  29.702  29.131  1.00  0.00     0.074 A 
ATOM     31  C   UNL A   1      37.843  30.976  31.020  1.00  0.00     0.049 A 
ATOM     32  N   UNL A   1      39.903  29.260  29.648  1.00  0.00    -0.248 NA
ATOM     33  C   UNL A   1      38.612  29.385  27.704  1.00  0.00     0.031 C 
ATOM     34  C   UNL A   1      36.896  31.849  31.713  1.00  0.00     0.029 A 
ATOM     35  N   UNL A   1      38.874  30.822  31.912  1.00  0.00    -0.354 N 
ATOM     36  C   UNL A   1      40.555  28.595  28.620  1.00  0.00     0.074 A 
ATOM     37  C   UNL A   1      39.708  28.686  27.449  1.00  0.00     0.031 C 
ATOM     38  C   UNL A   1      37.394  32.158  32.922  1.00  0.00     0.029 A 
ATOM     39  C   UNL A   1      38.666  31.465  33.107  1.00  0.00     0.049 A 
ATOM     40  H   UNL A   1      39.685  30.300  31.714  1.00  0.00     0.167 HD
ATOM     41  C   UNL A   1      41.753  27.964  28.652  1.00  0.00     0.037 A 
ATOM     42  C   UNL A   1      39.407  31.469  34.232  1.00  0.00     0.037 A 
ATOM     43  C   UNL A   1      42.601  27.891  29.812  1.00  0.00     0.049 A 
ATOM     44  C   UNL A   1      40.685  30.675  34.273  1.00  0.00     0.074 A 
ATOM     45  C   UNL A   1      43.820  27.249  29.953  1.00  0.00     0.029 A 
ATOM     46  N   UNL A   1      42.319  28.487  31.032  1.00  0.00    -0.354 N 
ATOM     47  N   UNL A   1      41.267  29.994  33.317  1.00  0.00    -0.248 NA
ATOM     48  C   UNL A   1      41.399  30.638  35.558  1.00  0.00     0.031 C 
ATOM     49  C   UNL A   1      44.257  27.427  31.270  1.00  0.00     0.029 A 
ATOM     50  C   UNL A   1      43.330  28.210  31.937  1.00  0.00     0.049 A 
ATOM     51  H   UNL A   1      41.518  29.026  31.226  1.00  0.00     0.167 HD
ATOM     52  C   UNL A   1      42.421  29.462  33.876  1.00  0.00     0.074 A 
ATOM     53  C   UNL A   1      42.464  29.911  35.252  1.00  0.00     0.031 C 
ATOM     54  C   UNL A   1      43.359  28.669  33.303  1.00  0.00     0.037 A 
BRANCH  41  55
ATOM     55  C   UNL A   1      42.186  27.257  27.404  1.00  0.00     0.057 A 
ATOM     56  C   UNL A   1      42.890  27.910  26.386  1.00  0.00     0.134 A 
ATOM     57  C   UNL A   1      41.898  25.898  27.227  1.00  0.00     0.134 A 
ATOM     58  F   UNL A   1      43.180  29.215  26.487  1.00  0.00    -0.206 F 
ATOM     59  C   UNL A   1      43.277  27.238  25.225  1.00  0.00     0.040 A 
ATOM     60  C   UNL A   1      42.297  25.212  26.079  1.00  0.00     0.040 A 
ATOM     61  F   UNL A   1      41.225  25.216  28.166  1.00  0.00    -0.206 F 
ATOM     62  C   UNL A   1      42.984  25.884  25.072  1.00  0.00     0.006 A 
ENDBRANCH  41  55
BRANCH  42  63
ATOM     63  C   UNL A   1      38.939  32.211  35.429  1.00  0.00     0.057 A 
ATOM     64  C   UNL A   1      38.194  31.579  36.431  1.00  0.00     0.134 A 
ATOM     65  C   UNL A   1      39.201  33.578  35.584  1.00  0.00     0.134 A 
ATOM     66  F   UNL A   1      37.883  30.279  36.324  1.00  0.00    -0.206 F 
ATOM     67  C   UNL A   1      37.720  32.281  37.541  1.00  0.00     0.040 A 
ATOM     68  C   UNL A   1      38.753  34.286  36.700  1.00  0.00     0.040 A 
ATOM     69  F   UNL A   1      39.900  34.244  34.654  1.00  0.00    -0.206 F 
ATOM     70  C   UNL A   1      38.005  33.639  37.680  1.00  0.00     0.006 A 
ENDBRANCH  42  63
BRANCH  54  71
ATOM     71  C   UNL A   1      44.521  28.257  34.155  1.00  0.00     0.057 A 
ATOM     72  C   UNL A   1      45.679  29.039  34.248  1.00  0.00     0.134 A 
ATOM     73  C   UNL A   1      44.465  27.085  34.919  1.00  0.00     0.134 A 
ATOM     74  F   UNL A   1      45.799  30.165  33.530  1.00  0.00    -0.206 F 
ATOM     75  C   UNL A   1      46.749  28.660  35.061  1.00  0.00     0.040 A 
ATOM     76  C   UNL A   1      45.520  26.707  35.752  1.00  0.00     0.040 A 
ATOM     77  F   UNL A   1      43.381  26.296  34.879  1.00  0.00    -0.206 F 
ATOM     78  C   UNL A   1      46.668  27.493  35.820  1.00  0.00     0.006 A 
ENDBRANCH  54  71
ENDBRANCH  28  29
ENDBRANCH  21  23
ENDBRANCH  20  21
ENDBRANCH  19  20
ENDBRANCH   1  19
TORSDOF 14
ENDMDL
