MODEL 1
REMARK VINA RESULT:     -12.3      0.000      0.000
REMARK SMILES CC(C)C[C@H](C(=O)OCCOC(=O)c1ccc(-c2c3nc(c(-c4c(F)cccc4F)c4ccc([nH]4)c(-c4c(F)cccc4F)c4nc(c(-c5c(F)cccc5F)c5ccc2[nH]5)C=C4)C=C3)cc1)N1C(=O)/C(=C2\C(=O)Nc3ccc(Br)cc32)SC1=S
REMARK SMILES IDX 9 1 8 2 6 3 7 4 5 5 4 6 2 7 1 8 3 9 68 10 69 11 84 12 70 13
REMARK SMILES IDX 71 14 83 15 85 16 72 17 73 18 82 19 74 20 75 21 76 22 81 23
REMARK SMILES IDX 77 25 79 26 78 27 80 28 10 29 11 30 12 31 13 32 14 33 15 34
REMARK SMILES IDX 67 35 16 36 66 37 17 38 18 39 19 40 60 41 20 42 65 43 59 44
REMARK SMILES IDX 61 45 21 46 64 47 58 48 57 49 22 51 48 52 31 53 47 54 32 55
REMARK SMILES IDX 35 56 46 57 62 58 33 59 34 60 45 62 63 63 36 64 23 65 24 66
REMARK SMILES IDX 29 67 25 68 26 69 28 70 30 71 27 72 49 73 50 74 55 75 51 76
REMARK SMILES IDX 52 77 54 78 56 79 53 80 37 81 38 82 43 83 39 84 40 85 42 86
REMARK SMILES IDX 44 87 41 88
REMARK H PARENT 75 24 61 50 35 61
REMARK Flexibility Score: inf
ROOT
ATOM      1  C   UNL A   1      38.146  19.809  24.749  1.00  0.00     0.274 C 
ENDROOT
BRANCH   1   2
ATOM      2  O   UNL A   1      37.336  20.772  25.458  1.00  0.00    -0.461 OA
BRANCH   2   3
ATOM      3  C   UNL A   1      36.756  21.796  24.778  1.00  0.00     0.329 C 
ATOM      4  O   UNL A   1      37.353  22.819  24.461  1.00  0.00    -0.250 OA
BRANCH   3   5
ATOM      5  C   UNL A   1      35.224  21.552  24.512  1.00  0.00     0.202 C 
BRANCH   5   6
ATOM      6  C   UNL A   1      34.846  20.146  25.069  1.00  0.00     0.040 C 
BRANCH   6   7
ATOM      7  C   UNL A   1      33.947  19.206  24.228  1.00  0.00    -0.015 C 
ATOM      8  C   UNL A   1      34.390  17.742  24.229  1.00  0.00     0.007 C 
ATOM      9  C   UNL A   1      32.509  19.235  24.776  1.00  0.00     0.007 C 
ENDBRANCH   6   7
ENDBRANCH   5   6
BRANCH   5  10
ATOM     10  N   UNL A   1      34.403  22.727  24.894  1.00  0.00    -0.278 N 
ATOM     11  C   UNL A   1      33.622  23.277  23.889  1.00  0.00     0.267 C 
ATOM     12  C   UNL A   1      33.794  23.044  26.071  1.00  0.00     0.149 C 
ATOM     13  O   UNL A   1      33.185  22.635  22.944  1.00  0.00    -0.268 OA
ATOM     14  C   UNL A   1      33.199  24.657  24.262  1.00  0.00     0.093 C 
ATOM     15  S   UNL A   1      33.304  24.746  25.985  1.00  0.00    -0.053 SA
ATOM     16  S   UNL A   1      33.290  22.048  27.308  1.00  0.00    -0.052 S 
ATOM     17  C   UNL A   1      32.732  25.588  23.420  1.00  0.00     0.069 C 
ATOM     18  C   UNL A   1      32.534  25.349  21.941  1.00  0.00     0.257 C 
ATOM     19  C   UNL A   1      32.154  26.915  23.695  1.00  0.00     0.013 A 
ATOM     20  O   UNL A   1      33.106  24.577  21.201  1.00  0.00    -0.269 OA
ATOM     21  N   UNL A   1      31.617  26.311  21.548  1.00  0.00    -0.321 N 
ATOM     22  C   UNL A   1      31.420  27.252  22.549  1.00  0.00     0.049 A 
ATOM     23  C   UNL A   1      32.277  27.835  24.722  1.00  0.00     0.026 A 
ATOM     24  H   UNL A   1      31.166  26.325  20.674  1.00  0.00     0.170 HD
ATOM     25  C   UNL A   1      30.706  28.427  22.426  1.00  0.00     0.028 A 
ATOM     26  C   UNL A   1      31.600  29.055  24.595  1.00  0.00     0.018 A 
ATOM     27  C   UNL A   1      30.799  29.341  23.475  1.00  0.00     0.018 A 
ATOM     28  Br  UNL A   1      31.805  30.376  25.936  1.00  0.00    -0.051 Br
ENDBRANCH   5  10
ENDBRANCH   3   5
ENDBRANCH   2   3
ENDBRANCH   1   2
BRANCH   1  29
ATOM     29  C   UNL A   1      39.074  19.133  25.755  1.00  0.00     0.275 C 
BRANCH  29  30
ATOM     30  O   UNL A   1      40.431  19.386  25.349  1.00  0.00    -0.458 OA
BRANCH  30  31
ATOM     31  C   UNL A   1      41.324  19.502  26.358  1.00  0.00     0.338 C 
ATOM     32  O   UNL A   1      42.044  18.639  26.833  1.00  0.00    -0.246 OA
BRANCH  31  33
ATOM     33  C   UNL A   1      41.406  20.916  26.746  1.00  0.00     0.060 A 
ATOM     34  C   UNL A   1      40.745  21.864  25.970  1.00  0.00     0.016 A 
ATOM     35  C   UNL A   1      42.255  21.317  27.775  1.00  0.00     0.016 A 
ATOM     36  C   UNL A   1      41.026  23.217  26.154  1.00  0.00     0.010 A 
ATOM     37  C   UNL A   1      42.447  22.683  28.020  1.00  0.00     0.010 A 
ATOM     38  C   UNL A   1      41.877  23.658  27.181  1.00  0.00    -0.014 A 
BRANCH  38  39
ATOM     39  C   UNL A   1      42.212  25.110  27.335  1.00  0.00     0.031 A 
ATOM     40  C   UNL A   1      43.474  25.677  26.724  1.00  0.00     0.074 A 
ATOM     41  C   UNL A   1      41.389  25.953  27.996  1.00  0.00     0.049 A 
ATOM     42  N   UNL A   1      44.063  26.826  26.949  1.00  0.00    -0.248 NA
ATOM     43  C   UNL A   1      44.176  24.833  25.743  1.00  0.00     0.031 C 
ATOM     44  C   UNL A   1      40.100  25.598  28.591  1.00  0.00     0.029 A 
ATOM     45  N   UNL A   1      41.510  27.298  28.263  1.00  0.00    -0.354 N 
ATOM     46  C   UNL A   1      45.240  26.806  26.210  1.00  0.00     0.074 A 
ATOM     47  C   UNL A   1      45.277  25.537  25.514  1.00  0.00     0.031 C 
ATOM     48  C   UNL A   1      39.521  26.701  29.086  1.00  0.00     0.029 A 
ATOM     49  C   UNL A   1      40.449  27.818  28.965  1.00  0.00     0.049 A 
ATOM     50  H   UNL A   1      42.284  27.837  27.979  1.00  0.00     0.167 HD
ATOM     51  C   UNL A   1      46.206  27.754  26.126  1.00  0.00     0.037 A 
ATOM     52  C   UNL A   1      40.257  29.034  29.511  1.00  0.00     0.037 A 
ATOM     53  C   UNL A   1      46.128  29.055  26.741  1.00  0.00     0.049 A 
ATOM     54  C   UNL A   1      41.349  30.061  29.430  1.00  0.00     0.074 A 
ATOM     55  C   UNL A   1      47.052  30.086  26.699  1.00  0.00     0.029 A 
ATOM     56  N   UNL A   1      45.054  29.515  27.486  1.00  0.00    -0.354 N 
ATOM     57  N   UNL A   1      42.508  29.987  28.824  1.00  0.00    -0.248 NA
ATOM     58  C   UNL A   1      41.121  31.326  30.144  1.00  0.00     0.031 C 
ATOM     59  C   UNL A   1      46.551  31.159  27.445  1.00  0.00     0.029 A 
ATOM     60  C   UNL A   1      45.295  30.810  27.916  1.00  0.00     0.049 A 
ATOM     61  H   UNL A   1      44.238  28.998  27.680  1.00  0.00     0.167 HD
ATOM     62  C   UNL A   1      43.146  31.193  29.081  1.00  0.00     0.074 A 
ATOM     63  C   UNL A   1      42.234  31.992  29.873  1.00  0.00     0.031 C 
ATOM     64  C   UNL A   1      44.382  31.597  28.703  1.00  0.00     0.037 A 
BRANCH  51  65
ATOM     65  C   UNL A   1      47.462  27.414  25.373  1.00  0.00     0.057 A 
ATOM     66  C   UNL A   1      47.605  27.646  24.001  1.00  0.00     0.134 A 
ATOM     67  C   UNL A   1      48.572  26.900  26.060  1.00  0.00     0.134 A 
ATOM     68  F   UNL A   1      46.579  28.125  23.282  1.00  0.00    -0.206 F 
ATOM     69  C   UNL A   1      48.800  27.363  23.334  1.00  0.00     0.040 A 
ATOM     70  C   UNL A   1      49.779  26.638  25.410  1.00  0.00     0.040 A 
ATOM     71  F   UNL A   1      48.507  26.664  27.379  1.00  0.00    -0.206 F 
ATOM     72  C   UNL A   1      49.894  26.866  24.042  1.00  0.00     0.006 A 
ENDBRANCH  51  65
BRANCH  52  73
ATOM     73  C   UNL A   1      39.000  29.325  30.251  1.00  0.00     0.057 A 
ATOM     74  C   UNL A   1      37.924  29.963  29.626  1.00  0.00     0.134 A 
ATOM     75  C   UNL A   1      38.845  28.970  31.598  1.00  0.00     0.134 A 
ATOM     76  F   UNL A   1      38.022  30.357  28.348  1.00  0.00    -0.206 F 
ATOM     77  C   UNL A   1      36.740  30.239  30.313  1.00  0.00     0.040 A 
ATOM     78  C   UNL A   1      37.657  29.209  32.286  1.00  0.00     0.040 A 
ATOM     79  F   UNL A   1      39.841  28.359  32.256  1.00  0.00    -0.206 F 
ATOM     80  C   UNL A   1      36.601  29.851  31.644  1.00  0.00     0.006 A 
ENDBRANCH  52  73
BRANCH  64  81
ATOM     81  C   UNL A   1      44.808  32.974  29.119  1.00  0.00     0.057 A 
ATOM     82  C   UNL A   1      45.487  33.202  30.322  1.00  0.00     0.134 A 
ATOM     83  C   UNL A   1      44.547  34.079  28.300  1.00  0.00     0.134 A 
ATOM     84  F   UNL A   1      45.751  32.187  31.157  1.00  0.00    -0.206 F 
ATOM     85  C   UNL A   1      45.873  34.487  30.706  1.00  0.00     0.040 A 
ATOM     86  C   UNL A   1      44.950  35.365  28.663  1.00  0.00     0.040 A 
ATOM     87  F   UNL A   1      43.906  33.926  27.131  1.00  0.00    -0.206 F 
ATOM     88  C   UNL A   1      45.609  35.572  29.873  1.00  0.00     0.006 A 
ENDBRANCH  64  81
ENDBRANCH  38  39
ENDBRANCH  31  33
ENDBRANCH  30  31
ENDBRANCH  29  30
ENDBRANCH   1  29
TORSDOF 14
ENDMDL
MODEL 2
REMARK VINA RESULT:     -12.2      3.135      8.104
REMARK SMILES CC(C)C[C@H](C(=O)OCCOC(=O)c1ccc(-c2c3nc(c(-c4c(F)cccc4F)c4ccc([nH]4)c(-c4c(F)cccc4F)c4nc(c(-c5c(F)cccc5F)c5ccc2[nH]5)C=C4)C=C3)cc1)N1C(=O)/C(=C2\C(=O)Nc3ccc(Br)cc32)SC1=S
REMARK SMILES IDX 9 1 8 2 6 3 7 4 5 5 4 6 2 7 1 8 3 9 68 10 69 11 84 12 70 13
REMARK SMILES IDX 71 14 83 15 85 16 72 17 73 18 82 19 74 20 75 21 76 22 81 23
REMARK SMILES IDX 77 25 79 26 78 27 80 28 10 29 11 30 12 31 13 32 14 33 15 34
REMARK SMILES IDX 67 35 16 36 66 37 17 38 18 39 19 40 60 41 20 42 65 43 59 44
REMARK SMILES IDX 61 45 21 46 64 47 58 48 57 49 22 51 48 52 31 53 47 54 32 55
REMARK SMILES IDX 35 56 46 57 62 58 33 59 34 60 45 62 63 63 36 64 23 65 24 66
REMARK SMILES IDX 29 67 25 68 26 69 28 70 30 71 27 72 49 73 50 74 55 75 51 76
REMARK SMILES IDX 52 77 54 78 56 79 53 80 37 81 38 82 43 83 39 84 40 85 42 86
REMARK SMILES IDX 44 87 41 88
REMARK H PARENT 75 24 61 50 35 61
REMARK Flexibility Score: inf
ROOT
ATOM      1  C   UNL A   1      33.316  29.511  26.268  1.00  0.00     0.274 C 
ENDROOT
BRANCH   1   2
ATOM      2  O   UNL A   1      31.927  29.348  26.627  1.00  0.00    -0.461 OA
BRANCH   2   3
ATOM      3  C   UNL A   1      31.395  28.101  26.714  1.00  0.00     0.329 C 
ATOM      4  O   UNL A   1      31.252  27.501  27.774  1.00  0.00    -0.250 OA
BRANCH   3   5
ATOM      5  C   UNL A   1      31.055  27.490  25.304  1.00  0.00     0.202 C 
BRANCH   5   6
ATOM      6  C   UNL A   1      30.689  28.657  24.338  1.00  0.00     0.040 C 
BRANCH   6   7
ATOM      7  C   UNL A   1      29.744  28.390  23.140  1.00  0.00    -0.015 C 
ATOM      8  C   UNL A   1      28.487  27.594  23.495  1.00  0.00     0.007 C 
ATOM      9  C   UNL A   1      29.269  29.727  22.545  1.00  0.00     0.007 C 
ENDBRANCH   6   7
ENDBRANCH   5   6
BRANCH   5  10
ATOM     10  N   UNL A   1      32.062  26.486  24.880  1.00  0.00    -0.278 N 
ATOM     11  C   UNL A   1      31.642  25.166  24.875  1.00  0.00     0.267 C 
ATOM     12  C   UNL A   1      33.076  26.569  23.973  1.00  0.00     0.149 C 
ATOM     13  O   UNL A   1      30.479  24.826  24.701  1.00  0.00    -0.268 OA
ATOM     14  C   UNL A   1      32.817  24.250  24.855  1.00  0.00     0.093 C 
ATOM     15  S   UNL A   1      34.135  25.169  24.215  1.00  0.00    -0.053 SA
ATOM     16  S   UNL A   1      33.244  27.579  22.657  1.00  0.00    -0.052 S 
ATOM     17  C   UNL A   1      32.803  22.949  25.174  1.00  0.00     0.069 C 
ATOM     18  C   UNL A   1      31.552  22.203  25.576  1.00  0.00     0.257 C 
ATOM     19  C   UNL A   1      33.859  21.928  25.051  1.00  0.00     0.013 A 
ATOM     20  O   UNL A   1      30.540  22.621  26.097  1.00  0.00    -0.269 OA
ATOM     21  N   UNL A   1      31.844  20.870  25.337  1.00  0.00    -0.321 N 
ATOM     22  C   UNL A   1      33.195  20.694  25.070  1.00  0.00     0.049 A 
ATOM     23  C   UNL A   1      35.243  21.959  25.029  1.00  0.00     0.026 A 
ATOM     24  H   UNL A   1      31.180  20.144  25.355  1.00  0.00     0.170 HD
ATOM     25  C   UNL A   1      33.845  19.482  24.957  1.00  0.00     0.028 A 
ATOM     26  C   UNL A   1      35.925  20.737  24.963  1.00  0.00     0.018 A 
ATOM     27  C   UNL A   1      35.239  19.511  24.898  1.00  0.00     0.018 A 
ATOM     28  Br  UNL A   1      37.818  20.726  25.014  1.00  0.00    -0.051 Br
ENDBRANCH   5  10
ENDBRANCH   3   5
ENDBRANCH   2   3
ENDBRANCH   1   2
BRANCH   1  29
ATOM     29  C   UNL A   1      34.151  29.435  27.544  1.00  0.00     0.275 C 
BRANCH  29  30
ATOM     30  O   UNL A   1      34.726  30.733  27.777  1.00  0.00    -0.458 OA
BRANCH  30  31
ATOM     31  C   UNL A   1      35.466  30.844  28.904  1.00  0.00     0.338 C 
ATOM     32  O   UNL A   1      35.161  31.377  29.958  1.00  0.00    -0.246 OA
BRANCH  31  33
ATOM     33  C   UNL A   1      36.710  30.086  28.719  1.00  0.00     0.060 A 
ATOM     34  C   UNL A   1      37.246  29.401  29.806  1.00  0.00     0.016 A 
ATOM     35  C   UNL A   1      37.422  30.178  27.525  1.00  0.00     0.016 A 
ATOM     36  C   UNL A   1      38.547  28.906  29.730  1.00  0.00     0.010 A 
ATOM     37  C   UNL A   1      38.686  29.584  27.426  1.00  0.00     0.010 A 
ATOM     38  C   UNL A   1      39.294  28.982  28.543  1.00  0.00    -0.014 A 
BRANCH  38  39
ATOM     39  C   UNL A   1      40.710  28.493  28.490  1.00  0.00     0.031 A 
ATOM     40  C   UNL A   1      41.856  29.425  28.815  1.00  0.00     0.074 A 
ATOM     41  C   UNL A   1      40.998  27.211  28.179  1.00  0.00     0.049 A 
ATOM     42  N   UNL A   1      43.139  29.274  28.590  1.00  0.00    -0.248 NA
ATOM     43  C   UNL A   1      41.515  30.701  29.464  1.00  0.00     0.031 C 
ATOM     44  C   UNL A   1      40.020  26.158  27.903  1.00  0.00     0.029 A 
ATOM     45  N   UNL A   1      42.209  26.568  28.061  1.00  0.00    -0.354 N 
ATOM     46  C   UNL A   1      43.742  30.463  28.986  1.00  0.00     0.074 A 
ATOM     47  C   UNL A   1      42.687  31.321  29.483  1.00  0.00     0.031 C 
ATOM     48  C   UNL A   1      40.660  24.994  27.720  1.00  0.00     0.029 A 
ATOM     49  C   UNL A   1      42.097  25.238  27.732  1.00  0.00     0.049 A 
ATOM     50  H   UNL A   1      43.075  27.018  28.197  1.00  0.00     0.167 HD
ATOM     51  C   UNL A   1      45.051  30.810  28.933  1.00  0.00     0.037 A 
ATOM     52  C   UNL A   1      43.031  24.321  27.413  1.00  0.00     0.037 A 
ATOM     53  C   UNL A   1      46.114  29.924  28.528  1.00  0.00     0.049 A 
ATOM     54  C   UNL A   1      44.472  24.732  27.334  1.00  0.00     0.074 A 
ATOM     55  C   UNL A   1      47.473  30.184  28.455  1.00  0.00     0.029 A 
ATOM     56  N   UNL A   1      45.942  28.601  28.155  1.00  0.00    -0.354 N 
ATOM     57  N   UNL A   1      45.015  25.894  27.601  1.00  0.00    -0.248 NA
ATOM     58  C   UNL A   1      45.425  23.714  26.869  1.00  0.00     0.031 C 
ATOM     59  C   UNL A   1      48.120  29.027  28.008  1.00  0.00     0.029 A 
ATOM     60  C   UNL A   1      47.168  28.034  27.843  1.00  0.00     0.049 A 
ATOM     61  H   UNL A   1      45.077  28.132  28.118  1.00  0.00     0.167 HD
ATOM     62  C   UNL A   1      46.371  25.746  27.339  1.00  0.00     0.074 A 
ATOM     63  C   UNL A   1      46.572  24.375  26.920  1.00  0.00     0.031 C 
ATOM     64  C   UNL A   1      47.358  26.669  27.427  1.00  0.00     0.037 A 
BRANCH  51  65
ATOM     65  C   UNL A   1      45.419  32.225  29.281  1.00  0.00     0.057 A 
ATOM     66  C   UNL A   1      45.819  32.605  30.566  1.00  0.00     0.134 A 
ATOM     67  C   UNL A   1      45.428  33.211  28.284  1.00  0.00     0.134 A 
ATOM     68  F   UNL A   1      45.822  31.715  31.569  1.00  0.00    -0.206 F 
ATOM     69  C   UNL A   1      46.199  33.919  30.852  1.00  0.00     0.040 A 
ATOM     70  C   UNL A   1      45.831  34.521  28.551  1.00  0.00     0.040 A 
ATOM     71  F   UNL A   1      45.065  32.912  27.027  1.00  0.00    -0.206 F 
ATOM     72  C   UNL A   1      46.214  34.878  29.841  1.00  0.00     0.006 A 
ENDBRANCH  51  65
BRANCH  52  73
ATOM     73  C   UNL A   1      42.621  22.933  27.071  1.00  0.00     0.057 A 
ATOM     74  C   UNL A   1      42.273  22.015  28.067  1.00  0.00     0.134 A 
ATOM     75  C   UNL A   1      42.565  22.494  25.741  1.00  0.00     0.134 A 
ATOM     76  F   UNL A   1      42.337  22.365  29.360  1.00  0.00    -0.206 F 
ATOM     77  C   UNL A   1      41.886  20.711  27.755  1.00  0.00     0.040 A 
ATOM     78  C   UNL A   1      42.149  21.205  25.413  1.00  0.00     0.040 A 
ATOM     79  F   UNL A   1      42.890  23.324  24.740  1.00  0.00    -0.206 F 
ATOM     80  C   UNL A   1      41.813  20.306  26.423  1.00  0.00     0.006 A 
ENDBRANCH  52  73
BRANCH  64  81
ATOM     81  C   UNL A   1      48.748  26.217  27.091  1.00  0.00     0.057 A 
ATOM     82  C   UNL A   1      49.583  25.632  28.050  1.00  0.00     0.134 A 
ATOM     83  C   UNL A   1      49.248  26.354  25.791  1.00  0.00     0.134 A 
ATOM     84  F   UNL A   1      49.168  25.487  29.317  1.00  0.00    -0.206 F 
ATOM     85  C   UNL A   1      50.879  25.220  27.732  1.00  0.00     0.040 A 
ATOM     86  C   UNL A   1      50.534  25.924  25.456  1.00  0.00     0.040 A 
ATOM     87  F   UNL A   1      48.495  26.901  24.824  1.00  0.00    -0.206 F 
ATOM     88  C   UNL A   1      51.354  25.361  26.430  1.00  0.00     0.006 A 
ENDBRANCH  64  81
ENDBRANCH  38  39
ENDBRANCH  31  33
ENDBRANCH  30  31
ENDBRANCH  29  30
ENDBRANCH   1  29
TORSDOF 14
ENDMDL
MODEL 3
REMARK VINA RESULT:     -12.2      4.132      6.083
REMARK SMILES CC(C)C[C@H](C(=O)OCCOC(=O)c1ccc(-c2c3nc(c(-c4c(F)cccc4F)c4ccc([nH]4)c(-c4c(F)cccc4F)c4nc(c(-c5c(F)cccc5F)c5ccc2[nH]5)C=C4)C=C3)cc1)N1C(=O)/C(=C2\C(=O)Nc3ccc(Br)cc32)SC1=S
REMARK SMILES IDX 9 1 8 2 6 3 7 4 5 5 4 6 2 7 1 8 3 9 68 10 69 11 84 12 70 13
REMARK SMILES IDX 71 14 83 15 85 16 72 17 73 18 82 19 74 20 75 21 76 22 81 23
REMARK SMILES IDX 77 25 79 26 78 27 80 28 10 29 11 30 12 31 13 32 14 33 15 34
REMARK SMILES IDX 67 35 16 36 66 37 17 38 18 39 19 40 60 41 20 42 65 43 59 44
REMARK SMILES IDX 61 45 21 46 64 47 58 48 57 49 22 51 48 52 31 53 47 54 32 55
REMARK SMILES IDX 35 56 46 57 62 58 33 59 34 60 45 62 63 63 36 64 23 65 24 66
REMARK SMILES IDX 29 67 25 68 26 69 28 70 30 71 27 72 49 73 50 74 55 75 51 76
REMARK SMILES IDX 52 77 54 78 56 79 53 80 37 81 38 82 43 83 39 84 40 85 42 86
REMARK SMILES IDX 44 87 41 88
REMARK H PARENT 75 24 61 50 35 61
REMARK Flexibility Score: inf
ROOT
ATOM      1  C   UNL A   1      38.352  21.066  25.374  1.00  0.00     0.274 C 
ENDROOT
BRANCH   1   2
ATOM      2  O   UNL A   1      37.283  22.037  25.378  1.00  0.00    -0.461 OA
BRANCH   2   3
ATOM      3  C   UNL A   1      36.576  22.266  24.241  1.00  0.00     0.329 C 
ATOM      4  O   UNL A   1      37.061  22.770  23.234  1.00  0.00    -0.250 OA
BRANCH   3   5
ATOM      5  C   UNL A   1      35.056  21.884  24.388  1.00  0.00     0.202 C 
BRANCH   5   6
ATOM      6  C   UNL A   1      34.960  20.547  25.184  1.00  0.00     0.040 C 
BRANCH   6   7
ATOM      7  C   UNL A   1      34.219  19.338  24.560  1.00  0.00    -0.015 C 
ATOM      8  C   UNL A   1      35.038  18.046  24.525  1.00  0.00     0.007 C 
ATOM      9  C   UNL A   1      32.946  19.035  25.370  1.00  0.00     0.007 C 
ENDBRANCH   6   7
ENDBRANCH   5   6
BRANCH   5  10
ATOM     10  N   UNL A   1      34.234  23.043  24.818  1.00  0.00    -0.278 N 
ATOM     11  C   UNL A   1      33.451  23.631  23.838  1.00  0.00     0.267 C 
ATOM     12  C   UNL A   1      33.626  23.313  26.008  1.00  0.00     0.149 C 
ATOM     13  O   UNL A   1      33.012  23.027  22.869  1.00  0.00    -0.268 OA
ATOM     14  C   UNL A   1      33.027  24.994  24.265  1.00  0.00     0.093 C 
ATOM     15  S   UNL A   1      33.135  25.015  25.990  1.00  0.00    -0.053 SA
ATOM     16  S   UNL A   1      33.126  22.267  27.206  1.00  0.00    -0.052 S 
ATOM     17  C   UNL A   1      32.557  25.958  23.461  1.00  0.00     0.069 C 
ATOM     18  C   UNL A   1      32.357  25.777  21.975  1.00  0.00     0.257 C 
ATOM     19  C   UNL A   1      31.979  27.272  23.789  1.00  0.00     0.013 A 
ATOM     20  O   UNL A   1      32.928  25.036  21.204  1.00  0.00    -0.269 OA
ATOM     21  N   UNL A   1      31.439  26.753  21.622  1.00  0.00    -0.321 N 
ATOM     22  C   UNL A   1      31.242  27.653  22.660  1.00  0.00     0.049 A 
ATOM     23  C   UNL A   1      32.103  28.151  24.852  1.00  0.00     0.026 A 
ATOM     24  H   UNL A   1      30.985  26.801  20.749  1.00  0.00     0.170 HD
ATOM     25  C   UNL A   1      30.527  28.831  22.584  1.00  0.00     0.028 A 
ATOM     26  C   UNL A   1      31.424  29.374  24.774  1.00  0.00     0.018 A 
ATOM     27  C   UNL A   1      30.621  29.704  23.668  1.00  0.00     0.018 A 
ATOM     28  Br  UNL A   1      31.631  30.641  26.167  1.00  0.00    -0.051 Br
ENDBRANCH   5  10
ENDBRANCH   3   5
ENDBRANCH   2   3
ENDBRANCH   1   2
BRANCH   1  29
ATOM     29  C   UNL A   1      39.460  21.572  26.293  1.00  0.00     0.275 C 
BRANCH  29  30
ATOM     30  O   UNL A   1      39.310  22.996  26.429  1.00  0.00    -0.458 OA
BRANCH  30  31
ATOM     31  C   UNL A   1      40.464  23.701  26.447  1.00  0.00     0.338 C 
ATOM     32  O   UNL A   1      41.508  23.455  25.867  1.00  0.00    -0.246 OA
BRANCH  31  33
ATOM     33  C   UNL A   1      40.240  24.940  27.204  1.00  0.00     0.060 A 
ATOM     34  C   UNL A   1      41.035  26.048  26.926  1.00  0.00     0.016 A 
ATOM     35  C   UNL A   1      39.360  24.957  28.283  1.00  0.00     0.016 A 
ATOM     36  C   UNL A   1      41.027  27.134  27.802  1.00  0.00     0.010 A 
ATOM     37  C   UNL A   1      39.284  26.097  29.094  1.00  0.00     0.010 A 
ATOM     38  C   UNL A   1      40.154  27.185  28.900  1.00  0.00    -0.014 A 
BRANCH  38  39
ATOM     39  C   UNL A   1      40.192  28.333  29.863  1.00  0.00     0.031 A 
ATOM     40  C   UNL A   1      41.269  28.411  30.922  1.00  0.00     0.074 A 
ATOM     41  C   UNL A   1      39.291  29.336  29.796  1.00  0.00     0.049 A 
ATOM     42  N   UNL A   1      41.333  29.171  31.988  1.00  0.00    -0.248 NA
ATOM     43  C   UNL A   1      42.418  27.503  30.773  1.00  0.00     0.031 C 
ATOM     44  C   UNL A   1      38.225  29.462  28.800  1.00  0.00     0.029 A 
ATOM     45  N   UNL A   1      39.138  30.458  30.577  1.00  0.00    -0.354 N 
ATOM     46  C   UNL A   1      42.474  28.774  32.676  1.00  0.00     0.074 A 
ATOM     47  C   UNL A   1      43.084  27.716  31.899  1.00  0.00     0.031 C 
ATOM     48  C   UNL A   1      37.580  30.622  28.984  1.00  0.00     0.029 A 
ATOM     49  C   UNL A   1      38.093  31.263  30.188  1.00  0.00     0.049 A 
ATOM     50  H   UNL A   1      39.721  30.665  31.343  1.00  0.00     0.167 HD
ATOM     51  C   UNL A   1      42.963  29.242  33.851  1.00  0.00     0.037 A 
ATOM     52  C   UNL A   1      37.557  32.358  30.759  1.00  0.00     0.037 A 
ATOM     53  C   UNL A   1      42.410  30.357  34.578  1.00  0.00     0.049 A 
ATOM     54  C   UNL A   1      38.096  32.845  32.073  1.00  0.00     0.074 A 
ATOM     55  C   UNL A   1      42.847  30.911  35.771  1.00  0.00     0.029 A 
ATOM     56  N   UNL A   1      41.320  31.107  34.168  1.00  0.00    -0.354 N 
ATOM     57  N   UNL A   1      39.106  32.388  32.771  1.00  0.00    -0.248 NA
ATOM     58  C   UNL A   1      37.394  33.975  32.698  1.00  0.00     0.031 C 
ATOM     59  C   UNL A   1      42.001  31.976  36.098  1.00  0.00     0.029 A 
ATOM     60  C   UNL A   1      41.064  32.112  35.088  1.00  0.00     0.049 A 
ATOM     61  H   UNL A   1      40.804  30.949  33.345  1.00  0.00     0.167 HD
ATOM     62  C   UNL A   1      39.161  33.174  33.915  1.00  0.00     0.074 A 
ATOM     63  C   UNL A   1      38.102  34.155  33.803  1.00  0.00     0.031 C 
ATOM     64  C   UNL A   1      40.008  33.083  34.968  1.00  0.00     0.037 A 
BRANCH  51  65
ATOM     65  C   UNL A   1      44.136  28.526  34.460  1.00  0.00     0.057 A 
ATOM     66  C   UNL A   1      43.990  27.409  35.289  1.00  0.00     0.134 A 
ATOM     67  C   UNL A   1      45.442  28.937  34.155  1.00  0.00     0.134 A 
ATOM     68  F   UNL A   1      42.770  26.970  35.630  1.00  0.00    -0.206 F 
ATOM     69  C   UNL A   1      45.100  26.734  35.806  1.00  0.00     0.040 A 
ATOM     70  C   UNL A   1      46.558  28.256  34.643  1.00  0.00     0.040 A 
ATOM     71  F   UNL A   1      45.654  29.995  33.357  1.00  0.00    -0.206 F 
ATOM     72  C   UNL A   1      46.388  27.153  35.476  1.00  0.00     0.006 A 
ENDBRANCH  51  65
BRANCH  52  73
ATOM     73  C   UNL A   1      36.394  33.032  30.124  1.00  0.00     0.057 A 
ATOM     74  C   UNL A   1      36.565  33.921  29.059  1.00  0.00     0.134 A 
ATOM     75  C   UNL A   1      35.084  32.800  30.566  1.00  0.00     0.134 A 
ATOM     76  F   UNL A   1      37.796  34.210  28.611  1.00  0.00    -0.206 F 
ATOM     77  C   UNL A   1      35.478  34.557  28.456  1.00  0.00     0.040 A 
ATOM     78  C   UNL A   1      33.987  33.402  29.951  1.00  0.00     0.040 A 
ATOM     79  F   UNL A   1      34.852  31.961  31.586  1.00  0.00    -0.206 F 
ATOM     80  C   UNL A   1      34.183  34.289  28.895  1.00  0.00     0.006 A 
ENDBRANCH  52  73
BRANCH  64  81
ATOM     81  C   UNL A   1      39.840  34.088  36.068  1.00  0.00     0.057 A 
ATOM     82  C   UNL A   1      40.400  35.368  35.987  1.00  0.00     0.134 A 
ATOM     83  C   UNL A   1      39.096  33.775  37.213  1.00  0.00     0.134 A 
ATOM     84  F   UNL A   1      41.137  35.723  34.924  1.00  0.00    -0.206 F 
ATOM     85  C   UNL A   1      40.246  36.297  37.019  1.00  0.00     0.040 A 
ATOM     86  C   UNL A   1      38.916  34.704  38.240  1.00  0.00     0.040 A 
ATOM     87  F   UNL A   1      38.527  32.567  37.348  1.00  0.00    -0.206 F 
ATOM     88  C   UNL A   1      39.497  35.966  38.146  1.00  0.00     0.006 A 
ENDBRANCH  64  81
ENDBRANCH  38  39
ENDBRANCH  31  33
ENDBRANCH  30  31
ENDBRANCH  29  30
ENDBRANCH   1  29
TORSDOF 14
ENDMDL
