MODEL 1
REMARK VINA RESULT:     -11.1      0.000      0.000
REMARK SMILES Cn1cc(CCC(=O)N2C[C@@H](C(=O)OCCOC(=O)c3ccc(-c4c5nc(c(-c6c(F)cccc6F)c6ccc([nH]6)c(-c6c(F)cccc6F)c6nc(c(-c7c(F)cccc7F)c7ccc4[nH]7)C=C6)C=C5)cc3)[C@H](C3CC3)C2)cn1
REMARK SMILES IDX 15 1 14 2 12 3 13 4 11 5 9 6 10 7 78 8 74 9 7 10 8 11 6 12
REMARK SMILES IDX 5 13 4 14 1 15 2 16 3 17 80 18 79 19 75 20 76 21 77 22 16 23
REMARK SMILES IDX 17 24 18 25 19 26 20 27 21 28 73 29 22 30 72 31 23 32 24 33
REMARK SMILES IDX 25 34 66 35 26 36 71 37 65 38 67 39 27 40 70 41 64 42 63 43
REMARK SMILES IDX 28 45 54 46 37 47 53 48 38 49 41 50 52 51 68 52 39 53 40 54
REMARK SMILES IDX 51 56 69 57 42 58 29 59 30 60 35 61 31 62 32 63 34 64 36 65
REMARK SMILES IDX 33 66 55 67 56 68 61 69 57 70 58 71 60 72 62 73 59 74 43 75
REMARK SMILES IDX 44 76 49 77 45 78 46 79 48 80 50 81 47 82
REMARK H PARENT 67 44 41 55
REMARK Flexibility Score: inf
ROOT
ATOM      1  C   UNL A   1      35.261  20.923  25.211  1.00  0.00     0.274 C 
ENDROOT
BRANCH   1   2
ATOM      2  O   UNL A   1      34.297  19.995  24.661  1.00  0.00    -0.462 OA
BRANCH   2   3
ATOM      3  C   UNL A   1      32.981  20.292  24.861  1.00  0.00     0.311 C 
ATOM      4  O   UNL A   1      32.096  19.455  24.975  1.00  0.00    -0.252 OA
BRANCH   3   5
ATOM      5  C   UNL A   1      32.743  21.792  24.855  1.00  0.00     0.124 C 
ATOM      6  N   UNL A   1      31.052  23.335  25.464  1.00  0.00    -0.341 N 
ATOM      7  C   UNL A   1      31.785  22.199  25.963  1.00  0.00     0.135 C 
ATOM      8  C   UNL A   1      31.031  23.338  24.017  1.00  0.00     0.124 C 
ATOM      9  C   UNL A   1      32.079  22.302  23.555  1.00  0.00     0.028 C 
BRANCH   6  10
ATOM     10  C   UNL A   1      30.305  24.238  26.188  1.00  0.00     0.222 C 
ATOM     11  O   UNL A   1      29.837  23.944  27.290  1.00  0.00    -0.275 OA
BRANCH  10  12
ATOM     12  C   UNL A   1      29.949  25.572  25.548  1.00  0.00     0.105 C 
BRANCH  12  13
ATOM     13  C   UNL A   1      31.129  26.485  25.212  1.00  0.00     0.048 C 
BRANCH  13  14
ATOM     14  C   UNL A   1      30.859  27.406  24.069  1.00  0.00    -0.009 A 
ATOM     15  C   UNL A   1      29.567  30.347  22.468  1.00  0.00     0.173 C 
ATOM     16  N   UNL A   1      30.217  29.116  22.849  1.00  0.00    -0.276 N 
ATOM     17  C   UNL A   1      30.591  28.763  24.112  1.00  0.00     0.112 A 
ATOM     18  N   UNL A   1      30.352  28.122  21.957  1.00  0.00    -0.182 NA
ATOM     19  C   UNL A   1      30.767  27.087  22.693  1.00  0.00     0.138 A 
ENDBRANCH  13  14
ENDBRANCH  12  13
ENDBRANCH  10  12
ENDBRANCH   6  10
BRANCH   9  20
ATOM     20  C   UNL A   1      33.020  22.886  22.519  1.00  0.00    -0.005 C 
ATOM     21  C   UNL A   1      33.171  24.359  22.207  1.00  0.00     0.004 C 
ATOM     22  C   UNL A   1      34.241  23.650  22.980  1.00  0.00     0.004 C 
ENDBRANCH   9  20
ENDBRANCH   3   5
ENDBRANCH   2   3
ENDBRANCH   1   2
BRANCH   1  23
ATOM     23  C   UNL A   1      36.694  20.459  24.950  1.00  0.00     0.275 C 
BRANCH  23  24
ATOM     24  O   UNL A   1      37.590  21.516  25.325  1.00  0.00    -0.458 OA
BRANCH  24  25
ATOM     25  C   UNL A   1      38.774  21.139  25.856  1.00  0.00     0.338 C 
ATOM     26  O   UNL A   1      39.266  20.027  25.890  1.00  0.00    -0.246 OA
BRANCH  25  27
ATOM     27  C   UNL A   1      39.429  22.348  26.377  1.00  0.00     0.060 A 
ATOM     28  C   UNL A   1      38.901  23.594  26.036  1.00  0.00     0.016 A 
ATOM     29  C   UNL A   1      40.590  22.257  27.142  1.00  0.00     0.016 A 
ATOM     30  C   UNL A   1      39.531  24.762  26.453  1.00  0.00     0.010 A 
ATOM     31  C   UNL A   1      41.206  23.431  27.588  1.00  0.00     0.010 A 
ATOM     32  C   UNL A   1      40.692  24.692  27.232  1.00  0.00    -0.014 A 
BRANCH  32  33
ATOM     33  C   UNL A   1      41.422  25.938  27.578  1.00  0.00     0.031 A 
ATOM     34  C   UNL A   1      40.762  26.957  28.464  1.00  0.00     0.074 A 
ATOM     35  C   UNL A   1      42.684  26.139  27.156  1.00  0.00     0.049 A 
ATOM     36  N   UNL A   1      41.163  28.159  28.791  1.00  0.00    -0.248 NA
ATOM     37  C   UNL A   1      39.473  26.569  29.057  1.00  0.00     0.031 C 
ATOM     38  C   UNL A   1      43.470  25.199  26.358  1.00  0.00     0.029 A 
ATOM     39  N   UNL A   1      43.533  27.198  27.358  1.00  0.00    -0.354 N 
ATOM     40  C   UNL A   1      40.153  28.691  29.581  1.00  0.00     0.074 A 
ATOM     41  C   UNL A   1      39.123  27.679  29.689  1.00  0.00     0.031 C 
ATOM     42  C   UNL A   1      44.701  25.705  26.172  1.00  0.00     0.029 A 
ATOM     43  C   UNL A   1      44.767  27.033  26.779  1.00  0.00     0.049 A 
ATOM     44  H   UNL A   1      43.282  28.000  27.871  1.00  0.00     0.167 HD
ATOM     45  C   UNL A   1      40.088  29.913  30.162  1.00  0.00     0.037 A 
ATOM     46  C   UNL A   1      45.823  27.867  26.723  1.00  0.00     0.037 A 
ATOM     47  C   UNL A   1      41.136  30.897  30.097  1.00  0.00     0.049 A 
ATOM     48  C   UNL A   1      45.715  29.233  27.340  1.00  0.00     0.074 A 
ATOM     49  C   UNL A   1      41.168  32.165  30.653  1.00  0.00     0.029 A 
ATOM     50  N   UNL A   1      42.347  30.715  29.447  1.00  0.00    -0.354 N 
ATOM     51  N   UNL A   1      44.725  29.758  28.021  1.00  0.00    -0.248 NA
ATOM     52  C   UNL A   1      46.863  30.133  27.157  1.00  0.00     0.031 C 
ATOM     53  C   UNL A   1      42.388  32.760  30.315  1.00  0.00     0.029 A 
ATOM     54  C   UNL A   1      43.130  31.852  29.577  1.00  0.00     0.049 A 
ATOM     55  H   UNL A   1      42.612  29.900  28.964  1.00  0.00     0.167 HD
ATOM     56  C   UNL A   1      45.128  31.045  28.349  1.00  0.00     0.074 A 
ATOM     57  C   UNL A   1      46.465  31.214  27.812  1.00  0.00     0.031 C 
ATOM     58  C   UNL A   1      44.452  32.005  29.027  1.00  0.00     0.037 A 
BRANCH  45  59
ATOM     59  C   UNL A   1      38.812  30.263  30.868  1.00  0.00     0.057 A 
ATOM     60  C   UNL A   1      37.752  30.909  30.221  1.00  0.00     0.134 A 
ATOM     61  C   UNL A   1      38.653  29.958  32.226  1.00  0.00     0.134 A 
ATOM     62  F   UNL A   1      37.850  31.247  28.927  1.00  0.00    -0.206 F 
ATOM     63  C   UNL A   1      36.591  31.268  30.908  1.00  0.00     0.040 A 
ATOM     64  C   UNL A   1      37.487  30.289  32.917  1.00  0.00     0.040 A 
ATOM     65  F   UNL A   1      39.631  29.337  32.903  1.00  0.00    -0.206 F 
ATOM     66  C   UNL A   1      36.455  30.955  32.260  1.00  0.00     0.006 A 
ENDBRANCH  45  59
BRANCH  46  67
ATOM     67  C   UNL A   1      47.067  27.441  26.035  1.00  0.00     0.057 A 
ATOM     68  C   UNL A   1      47.222  27.613  24.655  1.00  0.00     0.134 A 
ATOM     69  C   UNL A   1      48.129  26.860  26.738  1.00  0.00     0.134 A 
ATOM     70  F   UNL A   1      46.227  28.138  23.925  1.00  0.00    -0.206 F 
ATOM     71  C   UNL A   1      48.390  27.224  23.997  1.00  0.00     0.040 A 
ATOM     72  C   UNL A   1      49.312  26.487  26.097  1.00  0.00     0.040 A 
ATOM     73  F   UNL A   1      48.038  26.663  28.061  1.00  0.00    -0.206 F 
ATOM     74  C   UNL A   1      49.442  26.666  24.722  1.00  0.00     0.006 A 
ENDBRANCH  46  67
BRANCH  58  75
ATOM     75  C   UNL A   1      45.153  33.313  29.230  1.00  0.00     0.057 A 
ATOM     76  C   UNL A   1      45.986  33.536  30.333  1.00  0.00     0.134 A 
ATOM     77  C   UNL A   1      45.006  34.355  28.306  1.00  0.00     0.134 A 
ATOM     78  F   UNL A   1      46.155  32.582  31.261  1.00  0.00    -0.206 F 
ATOM     79  C   UNL A   1      46.634  34.758  30.521  1.00  0.00     0.040 A 
ATOM     80  C   UNL A   1      45.664  35.574  28.472  1.00  0.00     0.040 A 
ATOM     81  F   UNL A   1      44.225  34.202  27.226  1.00  0.00    -0.206 F 
ATOM     82  C   UNL A   1      46.477  35.779  29.585  1.00  0.00     0.006 A 
ENDBRANCH  58  75
ENDBRANCH  32  33
ENDBRANCH  25  27
ENDBRANCH  24  25
ENDBRANCH  23  24
ENDBRANCH   1  23
TORSDOF 16
ENDMDL
MODEL 2
REMARK VINA RESULT:     -11.1      1.287      6.597
REMARK SMILES Cn1cc(CCC(=O)N2C[C@@H](C(=O)OCCOC(=O)c3ccc(-c4c5nc(c(-c6c(F)cccc6F)c6ccc([nH]6)c(-c6c(F)cccc6F)c6nc(c(-c7c(F)cccc7F)c7ccc4[nH]7)C=C6)C=C5)cc3)[C@H](C3CC3)C2)cn1
REMARK SMILES IDX 15 1 14 2 12 3 13 4 11 5 9 6 10 7 78 8 74 9 7 10 8 11 6 12
REMARK SMILES IDX 5 13 4 14 1 15 2 16 3 17 80 18 79 19 75 20 76 21 77 22 16 23
REMARK SMILES IDX 17 24 18 25 19 26 20 27 21 28 73 29 22 30 72 31 23 32 24 33
REMARK SMILES IDX 25 34 66 35 26 36 71 37 65 38 67 39 27 40 70 41 64 42 63 43
REMARK SMILES IDX 28 45 54 46 37 47 53 48 38 49 41 50 52 51 68 52 39 53 40 54
REMARK SMILES IDX 51 56 69 57 42 58 29 59 30 60 35 61 31 62 32 63 34 64 36 65
REMARK SMILES IDX 33 66 55 67 56 68 61 69 57 70 58 71 60 72 62 73 59 74 43 75
REMARK SMILES IDX 44 76 49 77 45 78 46 79 48 80 50 81 47 82
REMARK H PARENT 67 44 41 55
REMARK Flexibility Score: inf
ROOT
ATOM      1  C   UNL A   1      37.677  19.971  24.514  1.00  0.00     0.274 C 
ENDROOT
BRANCH   1   2
ATOM      2  O   UNL A   1      36.764  20.772  25.300  1.00  0.00    -0.462 OA
BRANCH   2   3
ATOM      3  C   UNL A   1      36.357  21.952  24.750  1.00  0.00     0.311 C 
ATOM      4  O   UNL A   1      37.116  22.820  24.342  1.00  0.00    -0.252 OA
BRANCH   3   5
ATOM      5  C   UNL A   1      34.843  22.081  24.771  1.00  0.00     0.124 C 
ATOM      6  N   UNL A   1      33.146  22.983  26.154  1.00  0.00    -0.341 N 
ATOM      7  C   UNL A   1      34.410  23.314  25.546  1.00  0.00     0.135 C 
ATOM      8  C   UNL A   1      33.014  21.552  26.318  1.00  0.00     0.124 C 
ATOM      9  C   UNL A   1      34.137  20.903  25.480  1.00  0.00     0.028 C 
BRANCH   6  10
ATOM     10  C   UNL A   1      32.217  23.850  26.689  1.00  0.00     0.222 C 
ATOM     11  O   UNL A   1      31.447  23.491  27.582  1.00  0.00    -0.275 OA
BRANCH  10  12
ATOM     12  C   UNL A   1      32.065  25.231  26.069  1.00  0.00     0.105 C 
BRANCH  12  13
ATOM     13  C   UNL A   1      30.843  25.427  25.171  1.00  0.00     0.048 C 
BRANCH  13  14
ATOM     14  C   UNL A   1      30.672  26.834  24.701  1.00  0.00    -0.009 A 
ATOM     15  C   UNL A   1      29.823  29.424  22.366  1.00  0.00     0.173 C 
ATOM     16  N   UNL A   1      30.190  28.607  23.498  1.00  0.00    -0.276 N 
ATOM     17  C   UNL A   1      29.852  27.299  23.687  1.00  0.00     0.112 A 
ATOM     18  N   UNL A   1      31.071  29.065  24.402  1.00  0.00    -0.182 NA
ATOM     19  C   UNL A   1      31.346  27.993  25.151  1.00  0.00     0.138 A 
ENDBRANCH  13  14
ENDBRANCH  12  13
ENDBRANCH  10  12
ENDBRANCH   6  10
BRANCH   9  20
ATOM     20  C   UNL A   1      33.597  19.815  24.572  1.00  0.00    -0.005 C 
ATOM     21  C   UNL A   1      34.154  18.412  24.462  1.00  0.00     0.004 C 
ATOM     22  C   UNL A   1      32.861  18.644  25.183  1.00  0.00     0.004 C 
ENDBRANCH   9  20
ENDBRANCH   3   5
ENDBRANCH   2   3
ENDBRANCH   1   2
BRANCH   1  23
ATOM     23  C   UNL A   1      38.495  19.030  25.398  1.00  0.00     0.275 C 
BRANCH  23  24
ATOM     24  O   UNL A   1      39.132  19.807  26.422  1.00  0.00    -0.458 OA
BRANCH  24  25
ATOM     25  C   UNL A   1      40.473  19.942  26.326  1.00  0.00     0.338 C 
ATOM     26  O   UNL A   1      41.289  19.123  25.947  1.00  0.00    -0.246 OA
BRANCH  25  27
ATOM     27  C   UNL A   1      40.809  21.315  26.734  1.00  0.00     0.060 A 
ATOM     28  C   UNL A   1      40.097  22.373  26.169  1.00  0.00     0.016 A 
ATOM     29  C   UNL A   1      41.859  21.560  27.617  1.00  0.00     0.016 A 
ATOM     30  C   UNL A   1      40.430  23.687  26.477  1.00  0.00     0.010 A 
ATOM     31  C   UNL A   1      42.174  22.881  27.952  1.00  0.00     0.010 A 
ATOM     32  C   UNL A   1      41.474  23.955  27.371  1.00  0.00    -0.014 A 
BRANCH  32  33
ATOM     33  C   UNL A   1      41.898  25.358  27.609  1.00  0.00     0.031 A 
ATOM     34  C   UNL A   1      43.206  25.839  27.044  1.00  0.00     0.074 A 
ATOM     35  C   UNL A   1      41.103  26.217  28.273  1.00  0.00     0.049 A 
ATOM     36  N   UNL A   1      43.824  26.976  27.232  1.00  0.00    -0.248 NA
ATOM     37  C   UNL A   1      43.914  24.907  26.152  1.00  0.00     0.031 C 
ATOM     38  C   UNL A   1      39.777  25.905  28.804  1.00  0.00     0.029 A 
ATOM     39  N   UNL A   1      41.292  27.537  28.597  1.00  0.00    -0.354 N 
ATOM     40  C   UNL A   1      45.017  26.877  26.527  1.00  0.00     0.074 A 
ATOM     41  C   UNL A   1      45.033  25.570  25.905  1.00  0.00     0.031 C 
ATOM     42  C   UNL A   1      39.254  27.015  29.353  1.00  0.00     0.029 A 
ATOM     43  C   UNL A   1      40.235  28.095  29.272  1.00  0.00     0.049 A 
ATOM     44  H   UNL A   1      42.108  28.038  28.367  1.00  0.00     0.167 HD
ATOM     45  C   UNL A   1      46.010  27.791  26.413  1.00  0.00     0.037 A 
ATOM     46  C   UNL A   1      40.084  29.329  29.789  1.00  0.00     0.037 A 
ATOM     47  C   UNL A   1      45.970  29.108  26.989  1.00  0.00     0.049 A 
ATOM     48  C   UNL A   1      41.214  30.314  29.684  1.00  0.00     0.074 A 
ATOM     49  C   UNL A   1      46.924  30.110  26.928  1.00  0.00     0.029 A 
ATOM     50  N   UNL A   1      44.905  29.615  27.720  1.00  0.00    -0.354 N 
ATOM     51  N   UNL A   1      42.370  30.186  29.082  1.00  0.00    -0.248 NA
ATOM     52  C   UNL A   1      41.026  31.608  30.357  1.00  0.00     0.031 C 
ATOM     53  C   UNL A   1      46.448  31.212  27.648  1.00  0.00     0.029 A 
ATOM     54  C   UNL A   1      45.184  30.910  28.128  1.00  0.00     0.049 A 
ATOM     55  H   UNL A   1      44.075  29.127  27.920  1.00  0.00     0.167 HD
ATOM     56  C   UNL A   1      43.048  31.378  29.299  1.00  0.00     0.074 A 
ATOM     57  C   UNL A   1      42.162  32.228  30.069  1.00  0.00     0.031 C 
ATOM     58  C   UNL A   1      44.294  31.736  28.902  1.00  0.00     0.037 A 
BRANCH  45  59
ATOM     59  C   UNL A   1      47.246  27.362  25.679  1.00  0.00     0.057 A 
ATOM     60  C   UNL A   1      48.334  26.768  26.328  1.00  0.00     0.134 A 
ATOM     61  C   UNL A   1      47.349  27.565  24.297  1.00  0.00     0.134 A 
ATOM     62  F   UNL A   1      48.306  26.565  27.654  1.00  0.00    -0.206 F 
ATOM     63  C   UNL A   1      49.495  26.419  25.634  1.00  0.00     0.040 A 
ATOM     64  C   UNL A   1      48.494  27.198  23.588  1.00  0.00     0.040 A 
ATOM     65  F   UNL A   1      46.341  28.128  23.614  1.00  0.00    -0.206 F 
ATOM     66  C   UNL A   1      49.575  26.631  24.259  1.00  0.00     0.006 A 
ENDBRANCH  45  59
BRANCH  46  67
ATOM     67  C   UNL A   1      38.819  29.695  30.474  1.00  0.00     0.057 A 
ATOM     68  C   UNL A   1      38.626  29.409  31.830  1.00  0.00     0.134 A 
ATOM     69  C   UNL A   1      37.780  30.341  29.796  1.00  0.00     0.134 A 
ATOM     70  F   UNL A   1      39.575  28.765  32.526  1.00  0.00    -0.206 F 
ATOM     71  C   UNL A   1      37.444  29.755  32.489  1.00  0.00     0.040 A 
ATOM     72  C   UNL A   1      36.602  30.713  30.446  1.00  0.00     0.040 A 
ATOM     73  F   UNL A   1      37.902  30.637  28.493  1.00  0.00    -0.206 F 
ATOM     74  C   UNL A   1      36.432  30.417  31.796  1.00  0.00     0.006 A 
ENDBRANCH  46  67
BRANCH  58  75
ATOM     75  C   UNL A   1      44.762  33.105  29.290  1.00  0.00     0.057 A 
ATOM     76  C   UNL A   1      44.500  34.224  28.490  1.00  0.00     0.134 A 
ATOM     77  C   UNL A   1      45.466  33.310  30.483  1.00  0.00     0.134 A 
ATOM     78  F   UNL A   1      43.843  34.089  27.328  1.00  0.00    -0.206 F 
ATOM     79  C   UNL A   1      44.941  35.498  28.852  1.00  0.00     0.040 A 
ATOM     80  C   UNL A   1      45.895  34.581  30.866  1.00  0.00     0.040 A 
ATOM     81  F   UNL A   1      45.744  32.279  31.295  1.00  0.00    -0.206 F 
ATOM     82  C   UNL A   1      45.637  35.679  30.047  1.00  0.00     0.006 A 
ENDBRANCH  58  75
ENDBRANCH  32  33
ENDBRANCH  25  27
ENDBRANCH  24  25
ENDBRANCH  23  24
ENDBRANCH   1  23
TORSDOF 16
ENDMDL
MODEL 3
REMARK VINA RESULT:     -11.0      1.586      2.248
REMARK SMILES Cn1cc(CCC(=O)N2C[C@@H](C(=O)OCCOC(=O)c3ccc(-c4c5nc(c(-c6c(F)cccc6F)c6ccc([nH]6)c(-c6c(F)cccc6F)c6nc(c(-c7c(F)cccc7F)c7ccc4[nH]7)C=C6)C=C5)cc3)[C@H](C3CC3)C2)cn1
REMARK SMILES IDX 15 1 14 2 12 3 13 4 11 5 9 6 10 7 78 8 74 9 7 10 8 11 6 12
REMARK SMILES IDX 5 13 4 14 1 15 2 16 3 17 80 18 79 19 75 20 76 21 77 22 16 23
REMARK SMILES IDX 17 24 18 25 19 26 20 27 21 28 73 29 22 30 72 31 23 32 24 33
REMARK SMILES IDX 25 34 66 35 26 36 71 37 65 38 67 39 27 40 70 41 64 42 63 43
REMARK SMILES IDX 28 45 54 46 37 47 53 48 38 49 41 50 52 51 68 52 39 53 40 54
REMARK SMILES IDX 51 56 69 57 42 58 29 59 30 60 35 61 31 62 32 63 34 64 36 65
REMARK SMILES IDX 33 66 55 67 56 68 61 69 57 70 58 71 60 72 62 73 59 74 43 75
REMARK SMILES IDX 44 76 49 77 45 78 46 79 48 80 50 81 47 82
REMARK H PARENT 67 44 41 55
REMARK Flexibility Score: inf
ROOT
ATOM      1  C   UNL A   1      34.336  21.857  24.723  1.00  0.00     0.274 C 
ENDROOT
BRANCH   1   2
ATOM      2  O   UNL A   1      34.531  23.248  25.070  1.00  0.00    -0.462 OA
BRANCH   2   3
ATOM      3  C   UNL A   1      33.687  23.768  26.006  1.00  0.00     0.311 C 
ATOM      4  O   UNL A   1      33.510  23.288  27.117  1.00  0.00    -0.252 OA
BRANCH   3   5
ATOM      5  C   UNL A   1      32.942  24.979  25.471  1.00  0.00     0.124 C 
ATOM      6  N   UNL A   1      32.464  26.008  23.392  1.00  0.00    -0.341 N 
ATOM      7  C   UNL A   1      32.435  24.731  24.060  1.00  0.00     0.135 C 
ATOM      8  C   UNL A   1      33.430  26.890  24.010  1.00  0.00     0.124 C 
ATOM      9  C   UNL A   1      33.828  26.241  25.354  1.00  0.00     0.028 C 
BRANCH   6  10
ATOM     10  C   UNL A   1      31.824  26.361  22.224  1.00  0.00     0.222 C 
ATOM     11  O   UNL A   1      31.939  25.682  21.201  1.00  0.00    -0.275 OA
BRANCH  10  12
ATOM     12  C   UNL A   1      31.072  27.683  22.173  1.00  0.00     0.105 C 
BRANCH  12  13
ATOM     13  C   UNL A   1      29.789  27.752  23.002  1.00  0.00     0.048 C 
BRANCH  13  14
ATOM     14  C   UNL A   1      28.983  28.981  22.746  1.00  0.00    -0.009 A 
ATOM     15  C   UNL A   1      28.450  32.473  22.108  1.00  0.00     0.173 C 
ATOM     16  N   UNL A   1      28.372  31.046  22.312  1.00  0.00    -0.276 N 
ATOM     17  C   UNL A   1      29.387  30.153  22.131  1.00  0.00     0.112 A 
ATOM     18  N   UNL A   1      27.283  30.505  22.879  1.00  0.00    -0.182 NA
ATOM     19  C   UNL A   1      27.643  29.241  23.121  1.00  0.00     0.138 A 
ENDBRANCH  13  14
ENDBRANCH  12  13
ENDBRANCH  10  12
ENDBRANCH   6  10
BRANCH   9  20
ATOM     20  C   UNL A   1      33.726  27.228  26.501  1.00  0.00    -0.005 C 
ATOM     21  C   UNL A   1      34.385  28.589  26.544  1.00  0.00     0.004 C 
ATOM     22  C   UNL A   1      32.906  28.485  26.320  1.00  0.00     0.004 C 
ENDBRANCH   9  20
ENDBRANCH   3   5
ENDBRANCH   2   3
ENDBRANCH   1   2
BRANCH   1  23
ATOM     23  C   UNL A   1      35.630  21.057  24.874  1.00  0.00     0.275 C 
BRANCH  23  24
ATOM     24  O   UNL A   1      36.502  21.769  25.765  1.00  0.00    -0.458 OA
BRANCH  24  25
ATOM     25  C   UNL A   1      37.803  21.404  25.748  1.00  0.00     0.338 C 
ATOM     26  O   UNL A   1      38.290  20.363  25.352  1.00  0.00    -0.246 OA
BRANCH  25  27
ATOM     27  C   UNL A   1      38.584  22.535  26.273  1.00  0.00     0.060 A 
ATOM     28  C   UNL A   1      38.079  23.826  26.117  1.00  0.00     0.016 A 
ATOM     29  C   UNL A   1      39.833  22.330  26.856  1.00  0.00     0.016 A 
ATOM     30  C   UNL A   1      38.819  24.926  26.538  1.00  0.00     0.010 A 
ATOM     31  C   UNL A   1      40.564  23.433  27.309  1.00  0.00     0.010 A 
ATOM     32  C   UNL A   1      40.071  24.740  27.137  1.00  0.00    -0.014 A 
BRANCH  32  33
ATOM     33  C   UNL A   1      40.904  25.920  27.482  1.00  0.00     0.031 A 
ATOM     34  C   UNL A   1      40.333  26.994  28.365  1.00  0.00     0.074 A 
ATOM     35  C   UNL A   1      42.179  26.012  27.060  1.00  0.00     0.049 A 
ATOM     36  N   UNL A   1      40.835  28.157  28.690  1.00  0.00    -0.248 NA
ATOM     37  C   UNL A   1      39.015  26.718  28.958  1.00  0.00     0.031 C 
ATOM     38  C   UNL A   1      42.882  25.007  26.264  1.00  0.00     0.029 A 
ATOM     39  N   UNL A   1      43.115  26.995  27.261  1.00  0.00    -0.354 N 
ATOM     40  C   UNL A   1      39.873  28.775  29.478  1.00  0.00     0.074 A 
ATOM     41  C   UNL A   1      38.760  27.855  29.587  1.00  0.00     0.031 C 
ATOM     42  C   UNL A   1      44.152  25.406  26.079  1.00  0.00     0.029 A 
ATOM     43  C   UNL A   1      44.331  26.724  26.683  1.00  0.00     0.049 A 
ATOM     44  H   UNL A   1      42.933  27.817  27.772  1.00  0.00     0.167 HD
ATOM     45  C   UNL A   1      39.912  30.000  30.056  1.00  0.00     0.037 A 
ATOM     46  C   UNL A   1      45.453  27.465  26.626  1.00  0.00     0.037 A 
ATOM     47  C   UNL A   1      41.040  30.891  29.991  1.00  0.00     0.049 A 
ATOM     48  C   UNL A   1      45.462  28.837  27.241  1.00  0.00     0.074 A 
ATOM     49  C   UNL A   1      41.179  32.152  30.544  1.00  0.00     0.029 A 
ATOM     50  N   UNL A   1      42.232  30.605  29.342  1.00  0.00    -0.354 N 
ATOM     51  N   UNL A   1      44.521  29.446  27.920  1.00  0.00    -0.248 NA
ATOM     52  C   UNL A   1      46.683  29.635  27.056  1.00  0.00     0.031 C 
ATOM     53  C   UNL A   1      42.447  32.641  30.206  1.00  0.00     0.029 A 
ATOM     54  C   UNL A   1      43.108  31.671  29.470  1.00  0.00     0.049 A 
ATOM     55  H   UNL A   1      42.426  29.769  28.861  1.00  0.00     0.167 HD
ATOM     56  C   UNL A   1      45.032  30.694  28.246  1.00  0.00     0.074 A 
ATOM     57  C   UNL A   1      46.378  30.747  27.710  1.00  0.00     0.031 C 
ATOM     58  C   UNL A   1      44.439  31.709  28.921  1.00  0.00     0.037 A 
BRANCH  45  59
ATOM     59  C   UNL A   1      38.670  30.458  30.761  1.00  0.00     0.057 A 
ATOM     60  C   UNL A   1      37.667  31.186  30.111  1.00  0.00     0.134 A 
ATOM     61  C   UNL A   1      38.488  30.175  32.120  1.00  0.00     0.134 A 
ATOM     62  F   UNL A   1      37.792  31.508  28.814  1.00  0.00    -0.206 F 
ATOM     63  C   UNL A   1      36.540  31.645  30.796  1.00  0.00     0.040 A 
ATOM     64  C   UNL A   1      37.354  30.607  32.810  1.00  0.00     0.040 A 
ATOM     65  F   UNL A   1      39.411  29.480  32.801  1.00  0.00    -0.206 F 
ATOM     66  C   UNL A   1      36.379  31.352  32.150  1.00  0.00     0.006 A 
ENDBRANCH  45  59
BRANCH  46  67
ATOM     67  C   UNL A   1      46.657  26.933  25.941  1.00  0.00     0.057 A 
ATOM     68  C   UNL A   1      46.901  27.215  24.592  1.00  0.00     0.134 A 
ATOM     69  C   UNL A   1      47.593  26.140  26.614  1.00  0.00     0.134 A 
ATOM     70  F   UNL A   1      46.026  27.947  23.886  1.00  0.00    -0.206 F 
ATOM     71  C   UNL A   1      48.033  26.728  23.937  1.00  0.00     0.040 A 
ATOM     72  C   UNL A   1      48.741  25.665  25.978  1.00  0.00     0.040 A 
ATOM     73  F   UNL A   1      47.412  25.830  27.906  1.00  0.00    -0.206 F 
ATOM     74  C   UNL A   1      48.961  25.956  24.634  1.00  0.00     0.006 A 
ENDBRANCH  46  67
BRANCH  58  75
ATOM     75  C   UNL A   1      45.249  32.954  29.122  1.00  0.00     0.057 A 
ATOM     76  C   UNL A   1      46.133  33.089  30.200  1.00  0.00     0.134 A 
ATOM     77  C   UNL A   1      45.157  34.021  28.221  1.00  0.00     0.134 A 
ATOM     78  F   UNL A   1      46.254  32.106  31.106  1.00  0.00    -0.206 F 
ATOM     79  C   UNL A   1      46.882  34.251  30.386  1.00  0.00     0.040 A 
ATOM     80  C   UNL A   1      45.915  35.181  28.385  1.00  0.00     0.040 A 
ATOM     81  F   UNL A   1      44.332  33.952  27.165  1.00  0.00    -0.206 F 
ATOM     82  C   UNL A   1      46.777  35.300  29.473  1.00  0.00     0.006 A 
ENDBRANCH  58  75
ENDBRANCH  32  33
ENDBRANCH  25  27
ENDBRANCH  24  25
ENDBRANCH  23  24
ENDBRANCH   1  23
TORSDOF 16
ENDMDL
