MODEL 1
REMARK VINA RESULT:     -10.6      0.000      0.000
REMARK SMILES CCc1cc(Nc2cccc(C(=O)OCCOC(=O)c3ccc(-c4c5nc(c(-c6c(F)cccc6F)c6ccc([nH]6)c(-c6c(F)cccc6F)c6nc(c(-c7c(F)cccc7F)c7ccc4[nH]7)C=C6)C=C5)cc3)c2)nc(C(C)C)n1
REMARK SMILES IDX 15 1 14 2 12 3 13 4 11 5 7 6 8 7 74 8 9 9 10 10 6 11 5 13
REMARK SMILES IDX 3 14 4 15 80 16 76 17 75 18 2 19 1 20 77 21 78 22 79 23
REMARK SMILES IDX 16 24 17 25 18 26 19 27 20 28 21 29 73 30 22 31 72 32 23 33
REMARK SMILES IDX 24 34 25 35 66 36 26 37 71 38 65 39 67 40 27 41 70 42 64 43
REMARK SMILES IDX 63 44 28 46 54 47 37 48 53 49 38 50 41 51 52 52 68 53 39 54
REMARK SMILES IDX 40 55 51 57 69 58 42 59 29 60 30 61 35 62 31 63 32 64 34 65
REMARK SMILES IDX 36 66 33 67 55 68 56 69 61 70 57 71 58 72 60 73 62 74 59 75
REMARK SMILES IDX 43 76 44 77 49 78 45 79 46 80 48 81 50 82 47 83
REMARK H PARENT 6 12 67 45 41 56
REMARK Flexibility Score: inf
ROOT
ATOM      1  C   UNL A   1      33.322  33.825  27.990  1.00  0.00     0.275 C 
ENDROOT
BRANCH   1   2
ATOM      2  O   UNL A   1      32.869  34.232  29.297  1.00  0.00    -0.458 OA
BRANCH   2   3
ATOM      3  C   UNL A   1      32.836  35.569  29.532  1.00  0.00     0.338 C 
ATOM      4  O   UNL A   1      32.373  36.427  28.800  1.00  0.00    -0.246 OA
BRANCH   3   5
ATOM      5  C   UNL A   1      33.343  35.856  30.896  1.00  0.00     0.062 A 
ATOM      6  C   UNL A   1      34.585  35.201  32.875  1.00  0.00     0.040 A 
ATOM      7  C   UNL A   1      34.331  36.458  33.440  1.00  0.00     0.026 A 
ATOM      8  C   UNL A   1      34.038  34.891  31.622  1.00  0.00     0.041 A 
ATOM      9  C   UNL A   1      33.628  37.424  32.721  1.00  0.00     0.003 A 
ATOM     10  C   UNL A   1      33.176  37.136  31.435  1.00  0.00     0.016 A 
BRANCH   6  11
ATOM     11  N   UNL A   1      35.569  34.366  33.448  1.00  0.00    -0.340 N 
ATOM     12  H   UNL A   1      35.299  33.734  34.153  1.00  0.00     0.168 HD
BRANCH  11  13
ATOM     13  C   UNL A   1      36.925  34.400  33.055  1.00  0.00     0.134 A 
ATOM     14  C   UNL A   1      39.223  34.397  33.549  1.00  0.00     0.046 A 
ATOM     15  C   UNL A   1      37.918  34.336  34.005  1.00  0.00     0.071 A 
ATOM     16  N   UNL A   1      39.530  34.466  32.236  1.00  0.00    -0.238 NA
ATOM     17  C   UNL A   1      38.502  34.502  31.375  1.00  0.00     0.133 A 
ATOM     18  N   UNL A   1      37.218  34.474  31.745  1.00  0.00    -0.216 NA
BRANCH  14  19
ATOM     19  C   UNL A   1      40.377  34.360  34.518  1.00  0.00     0.053 C 
ATOM     20  C   UNL A   1      40.618  35.718  35.166  1.00  0.00     0.011 C 
ENDBRANCH  14  19
BRANCH  17  21
ATOM     21  C   UNL A   1      38.776  34.579  29.891  1.00  0.00     0.051 C 
ATOM     22  C   UNL A   1      40.273  34.686  29.611  1.00  0.00     0.016 C 
ATOM     23  C   UNL A   1      38.149  33.397  29.156  1.00  0.00     0.016 C 
ENDBRANCH  17  21
ENDBRANCH  11  13
ENDBRANCH   6  11
ENDBRANCH   3   5
ENDBRANCH   2   3
ENDBRANCH   1   2
BRANCH   1  24
ATOM     24  C   UNL A   1      34.693  33.158  28.100  1.00  0.00     0.275 C 
BRANCH  24  25
ATOM     25  O   UNL A   1      34.556  31.944  28.859  1.00  0.00    -0.458 OA
BRANCH  25  26
ATOM     26  C   UNL A   1      34.639  30.788  28.167  1.00  0.00     0.338 C 
ATOM     27  O   UNL A   1      33.782  30.275  27.464  1.00  0.00    -0.246 OA
BRANCH  26  28
ATOM     28  C   UNL A   1      35.971  30.199  28.387  1.00  0.00     0.060 A 
ATOM     29  C   UNL A   1      36.277  29.624  29.619  1.00  0.00     0.016 A 
ATOM     30  C   UNL A   1      36.948  30.279  27.398  1.00  0.00     0.016 A 
ATOM     31  C   UNL A   1      37.567  29.177  29.895  1.00  0.00     0.010 A 
ATOM     32  C   UNL A   1      38.223  29.757  27.644  1.00  0.00     0.010 A 
ATOM     33  C   UNL A   1      38.555  29.224  28.905  1.00  0.00    -0.014 A 
BRANCH  33  34
ATOM     34  C   UNL A   1      39.943  28.772  29.198  1.00  0.00     0.031 A 
ATOM     35  C   UNL A   1      40.868  29.663  29.985  1.00  0.00     0.074 A 
ATOM     36  C   UNL A   1      40.385  27.572  28.777  1.00  0.00     0.049 A 
ATOM     37  N   UNL A   1      42.157  29.551  30.184  1.00  0.00    -0.248 NA
ATOM     38  C   UNL A   1      40.262  30.842  30.625  1.00  0.00     0.031 C 
ATOM     39  C   UNL A   1      39.591  26.577  28.054  1.00  0.00     0.029 A 
ATOM     40  N   UNL A   1      41.619  26.979  28.904  1.00  0.00    -0.354 N 
ATOM     41  C   UNL A   1      42.528  30.677  30.908  1.00  0.00     0.074 A 
ATOM     42  C   UNL A   1      41.326  31.454  31.126  1.00  0.00     0.031 C 
ATOM     43  C   UNL A   1      40.344  25.488  27.833  1.00  0.00     0.029 A 
ATOM     44  C   UNL A   1      41.695  25.735  28.326  1.00  0.00     0.049 A 
ATOM     45  H   UNL A   1      42.376  27.406  29.366  1.00  0.00     0.167 HD
ATOM     46  C   UNL A   1      43.758  31.033  31.347  1.00  0.00     0.037 A 
ATOM     47  C   UNL A   1      42.742  24.902  28.174  1.00  0.00     0.037 A 
ATOM     48  C   UNL A   1      44.941  30.228  31.196  1.00  0.00     0.049 A 
ATOM     49  C   UNL A   1      44.101  25.325  28.655  1.00  0.00     0.074 A 
ATOM     50  C   UNL A   1      46.228  30.495  31.632  1.00  0.00     0.029 A 
ATOM     51  N   UNL A   1      44.978  28.988  30.577  1.00  0.00    -0.354 N 
ATOM     52  N   UNL A   1      44.451  26.422  29.280  1.00  0.00    -0.248 NA
ATOM     53  C   UNL A   1      45.216  24.406  28.383  1.00  0.00     0.031 C 
ATOM     54  C   UNL A   1      47.049  29.426  31.256  1.00  0.00     0.029 A 
ATOM     55  C   UNL A   1      46.265  28.481  30.613  1.00  0.00     0.049 A 
ATOM     56  H   UNL A   1      44.203  28.536  30.173  1.00  0.00     0.167 HD
ATOM     57  C   UNL A   1      45.821  26.323  29.482  1.00  0.00     0.074 A 
ATOM     58  C   UNL A   1      46.237  25.050  28.930  1.00  0.00     0.031 C 
ATOM     59  C   UNL A   1      46.661  27.211  30.063  1.00  0.00     0.037 A 
BRANCH  46  60
ATOM     60  C   UNL A   1      43.897  32.373  32.004  1.00  0.00     0.057 A 
ATOM     61  C   UNL A   1      44.058  33.551  31.267  1.00  0.00     0.134 A 
ATOM     62  C   UNL A   1      43.832  32.482  33.399  1.00  0.00     0.134 A 
ATOM     63  F   UNL A   1      44.143  33.511  29.929  1.00  0.00    -0.206 F 
ATOM     64  C   UNL A   1      44.165  34.793  31.897  1.00  0.00     0.040 A 
ATOM     65  C   UNL A   1      43.916  33.719  34.039  1.00  0.00     0.040 A 
ATOM     66  F   UNL A   1      43.675  31.389  34.161  1.00  0.00    -0.206 F 
ATOM     67  C   UNL A   1      44.087  34.880  33.286  1.00  0.00     0.006 A 
ENDBRANCH  46  60
BRANCH  47  68
ATOM     68  C   UNL A   1      42.558  23.594  27.499  1.00  0.00     0.057 A 
ATOM     69  C   UNL A   1      42.268  22.439  28.234  1.00  0.00     0.134 A 
ATOM     70  C   UNL A   1      42.676  23.463  26.110  1.00  0.00     0.134 A 
ATOM     71  F   UNL A   1      42.171  22.495  29.570  1.00  0.00    -0.206 F 
ATOM     72  C   UNL A   1      42.107  21.199  27.612  1.00  0.00     0.040 A 
ATOM     73  C   UNL A   1      42.495  22.234  25.473  1.00  0.00     0.040 A 
ATOM     74  F   UNL A   1      42.957  24.533  25.351  1.00  0.00    -0.206 F 
ATOM     75  C   UNL A   1      42.214  21.097  26.227  1.00  0.00     0.006 A 
ENDBRANCH  47  68
BRANCH  59  76
ATOM     76  C   UNL A   1      48.106  26.827  30.152  1.00  0.00     0.057 A 
ATOM     77  C   UNL A   1      48.591  26.043  31.204  1.00  0.00     0.134 A 
ATOM     78  C   UNL A   1      49.013  27.222  29.161  1.00  0.00     0.134 A 
ATOM     79  F   UNL A   1      47.774  25.646  32.191  1.00  0.00    -0.206 F 
ATOM     80  C   UNL A   1      49.936  25.675  31.277  1.00  0.00     0.040 A 
ATOM     81  C   UNL A   1      50.356  26.846  29.213  1.00  0.00     0.040 A 
ATOM     82  F   UNL A   1      48.606  27.971  28.124  1.00  0.00    -0.206 F 
ATOM     83  C   UNL A   1      50.821  26.073  30.276  1.00  0.00     0.006 A 
ENDBRANCH  59  76
ENDBRANCH  33  34
ENDBRANCH  26  28
ENDBRANCH  25  26
ENDBRANCH  24  25
ENDBRANCH   1  24
TORSDOF 15
ENDMDL
MODEL 2
REMARK VINA RESULT:     -10.4      5.271     11.619
REMARK SMILES CCc1cc(Nc2cccc(C(=O)OCCOC(=O)c3ccc(-c4c5nc(c(-c6c(F)cccc6F)c6ccc([nH]6)c(-c6c(F)cccc6F)c6nc(c(-c7c(F)cccc7F)c7ccc4[nH]7)C=C6)C=C5)cc3)c2)nc(C(C)C)n1
REMARK SMILES IDX 15 1 14 2 12 3 13 4 11 5 7 6 8 7 74 8 9 9 10 10 6 11 5 13
REMARK SMILES IDX 3 14 4 15 80 16 76 17 75 18 2 19 1 20 77 21 78 22 79 23
REMARK SMILES IDX 16 24 17 25 18 26 19 27 20 28 21 29 73 30 22 31 72 32 23 33
REMARK SMILES IDX 24 34 25 35 66 36 26 37 71 38 65 39 67 40 27 41 70 42 64 43
REMARK SMILES IDX 63 44 28 46 54 47 37 48 53 49 38 50 41 51 52 52 68 53 39 54
REMARK SMILES IDX 40 55 51 57 69 58 42 59 29 60 30 61 35 62 31 63 32 64 34 65
REMARK SMILES IDX 36 66 33 67 55 68 56 69 61 70 57 71 58 72 60 73 62 74 59 75
REMARK SMILES IDX 43 76 44 77 49 78 45 79 46 80 48 81 50 82 47 83
REMARK H PARENT 6 12 67 45 41 56
REMARK Flexibility Score: inf
ROOT
ATOM      1  C   UNL A   1      43.020  20.983  26.176  1.00  0.00     0.275 C 
ENDROOT
BRANCH   1   2
ATOM      2  O   UNL A   1      41.639  20.791  25.807  1.00  0.00    -0.458 OA
BRANCH   2   3
ATOM      3  C   UNL A   1      40.727  20.920  26.805  1.00  0.00     0.338 C 
ATOM      4  O   UNL A   1      40.778  20.407  27.911  1.00  0.00    -0.246 OA
BRANCH   3   5
ATOM      5  C   UNL A   1      39.683  21.897  26.414  1.00  0.00     0.062 A 
ATOM      6  C   UNL A   1      37.714  22.492  25.125  1.00  0.00     0.040 A 
ATOM      7  C   UNL A   1      37.695  23.746  25.749  1.00  0.00     0.026 A 
ATOM      8  C   UNL A   1      38.748  21.593  25.427  1.00  0.00     0.041 A 
ATOM      9  C   UNL A   1      38.633  24.058  26.732  1.00  0.00     0.003 A 
ATOM     10  C   UNL A   1      39.595  23.118  27.093  1.00  0.00     0.016 A 
BRANCH   6  11
ATOM     11  N   UNL A   1      36.584  22.057  24.400  1.00  0.00    -0.340 N 
ATOM     12  H   UNL A   1      36.593  22.141  23.419  1.00  0.00     0.168 HD
BRANCH  11  13
ATOM     13  C   UNL A   1      35.440  21.509  25.020  1.00  0.00     0.134 A 
ATOM     14  C   UNL A   1      33.656  21.629  26.547  1.00  0.00     0.046 A 
ATOM     15  C   UNL A   1      34.754  22.238  25.966  1.00  0.00     0.071 A 
ATOM     16  N   UNL A   1      33.232  20.400  26.184  1.00  0.00    -0.238 NA
ATOM     17  C   UNL A   1      33.943  19.768  25.239  1.00  0.00     0.133 A 
ATOM     18  N   UNL A   1      35.029  20.283  24.653  1.00  0.00    -0.216 NA
BRANCH  14  19
ATOM     19  C   UNL A   1      32.860  22.339  27.612  1.00  0.00     0.053 C 
ATOM     20  C   UNL A   1      32.195  23.600  27.078  1.00  0.00     0.011 C 
ENDBRANCH  14  19
BRANCH  17  21
ATOM     21  C   UNL A   1      33.522  18.389  24.786  1.00  0.00     0.051 C 
ATOM     22  C   UNL A   1      32.411  18.469  23.740  1.00  0.00     0.016 C 
ATOM     23  C   UNL A   1      34.718  17.591  24.275  1.00  0.00     0.016 C 
ENDBRANCH  17  21
ENDBRANCH  11  13
ENDBRANCH   6  11
ENDBRANCH   3   5
ENDBRANCH   2   3
ENDBRANCH   1   2
BRANCH   1  24
ATOM     24  C   UNL A   1      43.731  21.816  25.110  1.00  0.00     0.275 C 
BRANCH  24  25
ATOM     25  O   UNL A   1      43.085  23.097  25.018  1.00  0.00    -0.458 OA
BRANCH  25  26
ATOM     26  C   UNL A   1      43.882  24.182  25.121  1.00  0.00     0.338 C 
ATOM     27  O   UNL A   1      44.915  24.412  24.511  1.00  0.00    -0.246 OA
BRANCH  26  28
ATOM     28  C   UNL A   1      43.307  25.098  26.122  1.00  0.00     0.060 A 
ATOM     29  C   UNL A   1      43.575  26.464  26.042  1.00  0.00     0.016 A 
ATOM     30  C   UNL A   1      42.561  24.600  27.186  1.00  0.00     0.016 A 
ATOM     31  C   UNL A   1      43.151  27.332  27.044  1.00  0.00     0.010 A 
ATOM     32  C   UNL A   1      42.065  25.482  28.153  1.00  0.00     0.010 A 
ATOM     33  C   UNL A   1      42.377  26.854  28.108  1.00  0.00    -0.014 A 
BRANCH  33  34
ATOM     34  C   UNL A   1      41.941  27.769  29.199  1.00  0.00     0.031 A 
ATOM     35  C   UNL A   1      42.735  27.841  30.476  1.00  0.00     0.074 A 
ATOM     36  C   UNL A   1      40.849  28.545  29.058  1.00  0.00     0.049 A 
ATOM     37  N   UNL A   1      42.430  28.417  31.611  1.00  0.00    -0.248 NA
ATOM     38  C   UNL A   1      44.043  27.165  30.479  1.00  0.00     0.031 C 
ATOM     39  C   UNL A   1      40.010  28.627  27.861  1.00  0.00     0.029 A 
ATOM     40  N   UNL A   1      40.256  29.422  29.936  1.00  0.00    -0.354 N 
ATOM     41  C   UNL A   1      43.471  28.114  32.481  1.00  0.00     0.074 A 
ATOM     42  C   UNL A   1      44.423  27.314  31.740  1.00  0.00     0.031 C 
ATOM     43  C   UNL A   1      39.037  29.529  28.066  1.00  0.00     0.029 A 
ATOM     44  C   UNL A   1      39.132  30.029  29.434  1.00  0.00     0.049 A 
ATOM     45  H   UNL A   1      40.606  29.597  30.839  1.00  0.00     0.167 HD
ATOM     46  C   UNL A   1      43.616  28.465  33.780  1.00  0.00     0.037 A 
ATOM     47  C   UNL A   1      38.252  30.865  30.017  1.00  0.00     0.037 A 
ATOM     48  C   UNL A   1      42.709  29.320  34.499  1.00  0.00     0.049 A 
ATOM     49  C   UNL A   1      38.425  31.229  31.465  1.00  0.00     0.074 A 
ATOM     50  C   UNL A   1      42.788  29.754  35.812  1.00  0.00     0.029 A 
ATOM     51  N   UNL A   1      41.566  29.890  33.959  1.00  0.00    -0.354 N 
ATOM     52  N   UNL A   1      39.377  30.883  32.294  1.00  0.00    -0.248 NA
ATOM     53  C   UNL A   1      37.384  32.078  32.063  1.00  0.00     0.031 C 
ATOM     54  C   UNL A   1      41.680  30.568  36.073  1.00  0.00     0.029 A 
ATOM     55  C   UNL A   1      40.928  30.664  34.913  1.00  0.00     0.049 A 
ATOM     56  H   UNL A   1      41.255  29.762  33.034  1.00  0.00     0.167 HD
ATOM     57  C   UNL A   1      39.056  31.475  33.509  1.00  0.00     0.074 A 
ATOM     58  C   UNL A   1      37.830  32.218  33.303  1.00  0.00     0.031 C 
ATOM     59  C   UNL A   1      39.712  31.400  34.691  1.00  0.00     0.037 A 
BRANCH  46  60
ATOM     60  C   UNL A   1      44.785  27.896  34.525  1.00  0.00     0.057 A 
ATOM     61  C   UNL A   1      44.699  26.697  35.242  1.00  0.00     0.134 A 
ATOM     62  C   UNL A   1      46.025  28.545  34.489  1.00  0.00     0.134 A 
ATOM     63  F   UNL A   1      43.535  26.036  35.326  1.00  0.00    -0.206 F 
ATOM     64  C   UNL A   1      45.806  26.171  35.912  1.00  0.00     0.040 A 
ATOM     65  C   UNL A   1      47.144  28.019  35.137  1.00  0.00     0.040 A 
ATOM     66  F   UNL A   1      46.173  29.697  33.817  1.00  0.00    -0.206 F 
ATOM     67  C   UNL A   1      47.034  26.829  35.855  1.00  0.00     0.006 A 
ENDBRANCH  46  60
BRANCH  47  68
ATOM     68  C   UNL A   1      37.099  31.388  29.243  1.00  0.00     0.057 A 
ATOM     69  C   UNL A   1      35.974  30.592  29.001  1.00  0.00     0.134 A 
ATOM     70  C   UNL A   1      37.096  32.688  28.721  1.00  0.00     0.134 A 
ATOM     71  F   UNL A   1      35.930  29.330  29.451  1.00  0.00    -0.206 F 
ATOM     72  C   UNL A   1      34.889  31.068  28.262  1.00  0.00     0.040 A 
ATOM     73  C   UNL A   1      36.009  33.183  28.001  1.00  0.00     0.040 A 
ATOM     74  F   UNL A   1      38.148  33.497  28.917  1.00  0.00    -0.206 F 
ATOM     75  C   UNL A   1      34.903  32.370  27.766  1.00  0.00     0.006 A 
ENDBRANCH  47  68
BRANCH  59  76
ATOM     76  C   UNL A   1      39.129  32.159  35.844  1.00  0.00     0.057 A 
ATOM     77  C   UNL A   1      38.259  31.551  36.755  1.00  0.00     0.134 A 
ATOM     78  C   UNL A   1      39.466  33.501  36.059  1.00  0.00     0.134 A 
ATOM     79  F   UNL A   1      37.889  30.272  36.593  1.00  0.00    -0.206 F 
ATOM     80  C   UNL A   1      37.729  32.257  37.836  1.00  0.00     0.040 A 
ATOM     81  C   UNL A   1      38.956  34.212  37.146  1.00  0.00     0.040 A 
ATOM     82  F   UNL A   1      40.300  34.137  35.222  1.00  0.00    -0.206 F 
ATOM     83  C   UNL A   1      38.082  33.590  38.036  1.00  0.00     0.006 A 
ENDBRANCH  59  76
ENDBRANCH  33  34
ENDBRANCH  26  28
ENDBRANCH  25  26
ENDBRANCH  24  25
ENDBRANCH   1  24
TORSDOF 15
ENDMDL
MODEL 3
REMARK VINA RESULT:     -10.4      5.420     11.692
REMARK SMILES CCc1cc(Nc2cccc(C(=O)OCCOC(=O)c3ccc(-c4c5nc(c(-c6c(F)cccc6F)c6ccc([nH]6)c(-c6c(F)cccc6F)c6nc(c(-c7c(F)cccc7F)c7ccc4[nH]7)C=C6)C=C5)cc3)c2)nc(C(C)C)n1
REMARK SMILES IDX 15 1 14 2 12 3 13 4 11 5 7 6 8 7 74 8 9 9 10 10 6 11 5 13
REMARK SMILES IDX 3 14 4 15 80 16 76 17 75 18 2 19 1 20 77 21 78 22 79 23
REMARK SMILES IDX 16 24 17 25 18 26 19 27 20 28 21 29 73 30 22 31 72 32 23 33
REMARK SMILES IDX 24 34 25 35 66 36 26 37 71 38 65 39 67 40 27 41 70 42 64 43
REMARK SMILES IDX 63 44 28 46 54 47 37 48 53 49 38 50 41 51 52 52 68 53 39 54
REMARK SMILES IDX 40 55 51 57 69 58 42 59 29 60 30 61 35 62 31 63 32 64 34 65
REMARK SMILES IDX 36 66 33 67 55 68 56 69 61 70 57 71 58 72 60 73 62 74 59 75
REMARK SMILES IDX 43 76 44 77 49 78 45 79 46 80 48 81 50 82 47 83
REMARK H PARENT 6 12 67 45 41 56
REMARK Flexibility Score: inf
ROOT
ATOM      1  C   UNL A   1      41.923  20.153  26.902  1.00  0.00     0.275 C 
ENDROOT
BRANCH   1   2
ATOM      2  O   UNL A   1      40.534  20.500  27.073  1.00  0.00    -0.458 OA
BRANCH   2   3
ATOM      3  C   UNL A   1      39.721  20.269  26.011  1.00  0.00     0.338 C 
ATOM      4  O   UNL A   1      39.605  19.221  25.396  1.00  0.00    -0.246 OA
BRANCH   3   5
ATOM      5  C   UNL A   1      38.868  21.455  25.757  1.00  0.00     0.062 A 
ATOM      6  C   UNL A   1      36.970  22.505  24.669  1.00  0.00     0.040 A 
ATOM      7  C   UNL A   1      37.248  23.696  25.352  1.00  0.00     0.026 A 
ATOM      8  C   UNL A   1      37.822  21.404  24.839  1.00  0.00     0.041 A 
ATOM      9  C   UNL A   1      38.299  23.755  26.265  1.00  0.00     0.003 A 
ATOM     10  C   UNL A   1      39.077  22.623  26.499  1.00  0.00     0.016 A 
BRANCH   6  11
ATOM     11  N   UNL A   1      35.725  22.348  24.021  1.00  0.00    -0.340 N 
ATOM     12  H   UNL A   1      35.650  22.608  23.074  1.00  0.00     0.168 HD
BRANCH  11  13
ATOM     13  C   UNL A   1      34.583  21.835  24.673  1.00  0.00     0.134 A 
ATOM     14  C   UNL A   1      33.162  20.059  25.269  1.00  0.00     0.046 A 
ATOM     15  C   UNL A   1      34.311  20.486  24.626  1.00  0.00     0.071 A 
ATOM     16  N   UNL A   1      32.359  20.900  25.955  1.00  0.00    -0.238 NA
ATOM     17  C   UNL A   1      32.709  22.195  25.969  1.00  0.00     0.133 A 
ATOM     18  N   UNL A   1      33.788  22.683  25.350  1.00  0.00    -0.216 NA
BRANCH  14  19
ATOM     19  C   UNL A   1      32.768  18.605  25.248  1.00  0.00     0.053 C 
ATOM     20  C   UNL A   1      32.535  18.099  23.831  1.00  0.00     0.011 C 
ENDBRANCH  14  19
BRANCH  17  21
ATOM     21  C   UNL A   1      31.854  23.189  26.720  1.00  0.00     0.051 C 
ATOM     22  C   UNL A   1      32.204  24.623  26.328  1.00  0.00     0.016 C 
ATOM     23  C   UNL A   1      30.369  22.898  26.517  1.00  0.00     0.016 C 
ENDBRANCH  17  21
ENDBRANCH  11  13
ENDBRANCH   6  11
ENDBRANCH   3   5
ENDBRANCH   2   3
ENDBRANCH   1   2
BRANCH   1  24
ATOM     24  C   UNL A   1      42.527  20.972  25.761  1.00  0.00     0.275 C 
BRANCH  24  25
ATOM     25  O   UNL A   1      43.283  22.058  26.323  1.00  0.00    -0.458 OA
BRANCH  25  26
ATOM     26  C   UNL A   1      43.220  23.238  25.670  1.00  0.00     0.338 C 
ATOM     27  O   UNL A   1      43.504  23.464  24.504  1.00  0.00    -0.246 OA
BRANCH  26  28
ATOM     28  C   UNL A   1      42.736  24.270  26.604  1.00  0.00     0.060 A 
ATOM     29  C   UNL A   1      43.125  25.598  26.427  1.00  0.00     0.016 A 
ATOM     30  C   UNL A   1      41.955  23.917  27.701  1.00  0.00     0.016 A 
ATOM     31  C   UNL A   1      42.788  26.568  27.367  1.00  0.00     0.010 A 
ATOM     32  C   UNL A   1      41.548  24.906  28.603  1.00  0.00     0.010 A 
ATOM     33  C   UNL A   1      41.982  26.238  28.462  1.00  0.00    -0.014 A 
BRANCH  33  34
ATOM     34  C   UNL A   1      41.637  27.263  29.485  1.00  0.00     0.031 A 
ATOM     35  C   UNL A   1      42.449  27.359  30.750  1.00  0.00     0.074 A 
ATOM     36  C   UNL A   1      40.612  28.117  29.294  1.00  0.00     0.049 A 
ATOM     37  N   UNL A   1      42.206  28.039  31.842  1.00  0.00    -0.248 NA
ATOM     38  C   UNL A   1      43.694  26.576  30.795  1.00  0.00     0.031 C 
ATOM     39  C   UNL A   1      39.770  28.184  28.098  1.00  0.00     0.029 A 
ATOM     40  N   UNL A   1      40.106  29.102  30.109  1.00  0.00    -0.354 N 
ATOM     41  C   UNL A   1      43.227  27.711  32.726  1.00  0.00     0.074 A 
ATOM     42  C   UNL A   1      44.099  26.783  32.040  1.00  0.00     0.031 C 
ATOM     43  C   UNL A   1      38.879  29.178  28.243  1.00  0.00     0.029 A 
ATOM     44  C   UNL A   1      39.032  29.765  29.570  1.00  0.00     0.049 A 
ATOM     45  H   UNL A   1      40.480  29.311  30.995  1.00  0.00     0.167 HD
ATOM     46  C   UNL A   1      43.416  28.142  33.995  1.00  0.00     0.037 A 
ATOM     47  C   UNL A   1      38.232  30.713  30.096  1.00  0.00     0.037 A 
ATOM     48  C   UNL A   1      42.593  29.121  34.655  1.00  0.00     0.049 A 
ATOM     49  C   UNL A   1      38.452  31.164  31.512  1.00  0.00     0.074 A 
ATOM     50  C   UNL A   1      42.723  29.639  35.932  1.00  0.00     0.029 A 
ATOM     51  N   UNL A   1      41.496  29.745  34.081  1.00  0.00    -0.354 N 
ATOM     52  N   UNL A   1      39.381  30.799  32.360  1.00  0.00    -0.248 NA
ATOM     53  C   UNL A   1      37.493  32.139  32.052  1.00  0.00     0.031 C 
ATOM     54  C   UNL A   1      41.691  30.561  36.139  1.00  0.00     0.029 A 
ATOM     55  C   UNL A   1      40.937  30.637  34.979  1.00  0.00     0.049 A 
ATOM     56  H   UNL A   1      41.165  29.578  33.169  1.00  0.00     0.167 HD
ATOM     57  C   UNL A   1      39.125  31.502  33.529  1.00  0.00     0.074 A 
ATOM     58  C   UNL A   1      37.964  32.330  33.277  1.00  0.00     0.031 C 
ATOM     59  C   UNL A   1      39.785  31.457  34.710  1.00  0.00     0.037 A 
BRANCH  46  60
ATOM     60  C   UNL A   1      44.541  27.530  34.773  1.00  0.00     0.057 A 
ATOM     61  C   UNL A   1      44.385  26.348  35.505  1.00  0.00     0.134 A 
ATOM     62  C   UNL A   1      45.811  28.120  34.755  1.00  0.00     0.134 A 
ATOM     63  F   UNL A   1      43.189  25.744  35.575  1.00  0.00    -0.206 F 
ATOM     64  C   UNL A   1      45.451  25.781  36.207  1.00  0.00     0.040 A 
ATOM     65  C   UNL A   1      46.890  27.552  35.435  1.00  0.00     0.040 A 
ATOM     66  F   UNL A   1      46.027  29.253  34.069  1.00  0.00    -0.206 F 
ATOM     67  C   UNL A   1      46.709  26.380  36.166  1.00  0.00     0.006 A 
ENDBRANCH  46  60
BRANCH  47  68
ATOM     68  C   UNL A   1      37.119  31.275  29.292  1.00  0.00     0.057 A 
ATOM     69  C   UNL A   1      37.202  32.560  28.746  1.00  0.00     0.134 A 
ATOM     70  C   UNL A   1      35.944  30.548  29.058  1.00  0.00     0.134 A 
ATOM     71  F   UNL A   1      38.290  33.316  28.960  1.00  0.00    -0.206 F 
ATOM     72  C   UNL A   1      36.155  33.107  28.001  1.00  0.00     0.040 A 
ATOM     73  C   UNL A   1      34.900  31.073  28.296  1.00  0.00     0.040 A 
ATOM     74  F   UNL A   1      35.803  29.312  29.559  1.00  0.00    -0.206 F 
ATOM     75  C   UNL A   1      35.003  32.358  27.769  1.00  0.00     0.006 A 
ENDBRANCH  47  68
BRANCH  59  76
ATOM     76  C   UNL A   1      39.282  32.343  35.808  1.00  0.00     0.057 A 
ATOM     77  C   UNL A   1      39.764  33.647  35.974  1.00  0.00     0.134 A 
ATOM     78  C   UNL A   1      38.288  31.899  36.687  1.00  0.00     0.134 A 
ATOM     79  F   UNL A   1      40.727  34.124  35.171  1.00  0.00    -0.206 F 
ATOM     80  C   UNL A   1      39.283  34.476  36.989  1.00  0.00     0.040 A 
ATOM     81  C   UNL A   1      37.787  32.724  37.695  1.00  0.00     0.040 A 
ATOM     82  F   UNL A   1      37.783  30.660  36.576  1.00  0.00    -0.206 F 
ATOM     83  C   UNL A   1      38.288  34.015  37.850  1.00  0.00     0.006 A 
ENDBRANCH  59  76
ENDBRANCH  33  34
ENDBRANCH  26  28
ENDBRANCH  25  26
ENDBRANCH  24  25
ENDBRANCH   1  24
TORSDOF 15
ENDMDL
