MODEL 1
REMARK VINA RESULT:     -10.6      0.000      0.000
REMARK SMILES O=C(C[C@H]([NH2+]Cc1ccccc1C1CC1)c1cccs1)OCCOC(=O)c1ccc(-c2c3nc(c(-c4c(F)cccc4F)c4ccc([nH]4)c(-c4c(F)cccc4F)c4nc(c(-c5c(F)cccc5F)c5ccc2[nH]5)C=C4)C=C3)cc1
REMARK SMILES IDX 21 1 2 2 1 3 3 4 4 5 16 6 17 7 20 8 18 9 19 10 5 11 6 14
REMARK SMILES IDX 7 15 8 16 12 17 9 18 11 19 10 20 13 21 14 22 15 23 22 24
REMARK SMILES IDX 23 25 24 26 25 27 26 28 27 29 28 30 80 31 29 32 79 33 30 34
REMARK SMILES IDX 31 35 32 36 73 37 33 38 78 39 72 40 74 41 34 42 77 43 71 44
REMARK SMILES IDX 70 45 35 47 61 48 44 49 60 50 45 51 48 52 59 53 75 54 46 55
REMARK SMILES IDX 47 56 58 58 76 59 49 60 36 61 37 62 42 63 38 64 39 65 41 66
REMARK SMILES IDX 43 67 40 68 62 69 63 70 68 71 64 72 65 73 67 74 69 75 66 76
REMARK SMILES IDX 50 77 51 78 56 79 52 80 53 81 55 82 57 83 54 84
REMARK H PARENT 5 12 5 13 74 46 48 57
REMARK Flexibility Score: inf
ROOT
ATOM      1  O   UNL A   1      33.072  30.437  26.640  1.00  0.00    -0.462 OA
ENDROOT
BRANCH   1   2
ATOM      2  C   UNL A   1      33.283  29.118  26.896  1.00  0.00     0.312 C 
ATOM      3  O   UNL A   1      34.431  28.711  27.041  1.00  0.00    -0.252 OA
BRANCH   2   4
ATOM      4  C   UNL A   1      32.097  28.177  26.832  1.00  0.00     0.193 C 
BRANCH   4   5
ATOM      5  C   UNL A   1      32.099  27.115  25.731  1.00  0.00     0.235 C 
BRANCH   5   6
ATOM      6  C   UNL A   1      31.257  27.538  24.542  1.00  0.00     0.062 A 
ATOM      7  C   UNL A   1      29.978  27.092  24.251  1.00  0.00     0.021 A 
ATOM      8  S   UNL A   1      31.781  28.680  23.376  1.00  0.00    -0.143 S 
ATOM      9  C   UNL A   1      29.415  27.724  23.108  1.00  0.00     0.012 A 
ATOM     10  C   UNL A   1      30.296  28.610  22.533  1.00  0.00     0.065 A 
ENDBRANCH   5   6
BRANCH   5  11
ATOM     11  N   UNL A   1      33.424  26.639  25.366  1.00  0.00    -0.335 N 
ATOM     12  H   UNL A   1      33.964  26.532  26.225  1.00  0.00     0.347 HD
ATOM     13  H   UNL A   1      33.799  27.337  24.723  1.00  0.00     0.347 HD
BRANCH  11  14
ATOM     14  C   UNL A   1      33.471  25.372  24.645  1.00  0.00     0.298 C 
BRANCH  14  15
ATOM     15  C   UNL A   1      33.584  24.211  25.615  1.00  0.00     0.010 A 
ATOM     16  C   UNL A   1      32.368  23.709  26.144  1.00  0.00     0.010 A 
ATOM     17  C   UNL A   1      34.815  23.671  26.058  1.00  0.00    -0.036 A 
ATOM     18  C   UNL A   1      32.344  22.776  27.176  1.00  0.00     0.001 A 
ATOM     19  C   UNL A   1      34.743  22.752  27.136  1.00  0.00     0.004 A 
ATOM     20  C   UNL A   1      33.539  22.320  27.697  1.00  0.00     0.000 A 
BRANCH  17  21
ATOM     21  C   UNL A   1      36.214  23.898  25.489  1.00  0.00     0.020 C 
ATOM     22  C   UNL A   1      37.363  22.934  25.400  1.00  0.00     0.009 C 
ATOM     23  C   UNL A   1      36.588  23.282  24.162  1.00  0.00     0.009 C 
ENDBRANCH  17  21
ENDBRANCH  14  15
ENDBRANCH  11  14
ENDBRANCH   5  11
ENDBRANCH   4   5
ENDBRANCH   2   4
ENDBRANCH   1   2
BRANCH   1  24
ATOM     24  C   UNL A   1      31.772  31.002  26.398  1.00  0.00     0.274 C 
BRANCH  24  25
ATOM     25  C   UNL A   1      31.564  32.359  27.075  1.00  0.00     0.275 C 
BRANCH  25  26
ATOM     26  O   UNL A   1      32.699  33.213  26.862  1.00  0.00    -0.458 OA
BRANCH  26  27
ATOM     27  C   UNL A   1      33.151  33.836  27.981  1.00  0.00     0.338 C 
ATOM     28  O   UNL A   1      32.568  34.688  28.628  1.00  0.00    -0.246 OA
BRANCH  27  29
ATOM     29  C   UNL A   1      34.398  33.181  28.431  1.00  0.00     0.060 A 
ATOM     30  C   UNL A   1      34.289  31.934  29.062  1.00  0.00     0.016 A 
ATOM     31  C   UNL A   1      35.655  33.756  28.215  1.00  0.00     0.016 A 
ATOM     32  C   UNL A   1      35.432  31.280  29.523  1.00  0.00     0.010 A 
ATOM     33  C   UNL A   1      36.797  33.106  28.690  1.00  0.00     0.010 A 
ATOM     34  C   UNL A   1      36.685  31.886  29.381  1.00  0.00    -0.014 A 
BRANCH  34  35
ATOM     35  C   UNL A   1      37.846  31.385  30.154  1.00  0.00     0.031 A 
ATOM     36  C   UNL A   1      38.724  30.352  29.508  1.00  0.00     0.074 A 
ATOM     37  C   UNL A   1      38.102  31.798  31.406  1.00  0.00     0.049 A 
ATOM     38  N   UNL A   1      39.738  29.693  30.004  1.00  0.00    -0.248 NA
ATOM     39  C   UNL A   1      38.403  30.010  28.112  1.00  0.00     0.031 C 
ATOM     40  C   UNL A   1      37.347  32.815  32.131  1.00  0.00     0.029 A 
ATOM     41  N   UNL A   1      39.060  31.386  32.299  1.00  0.00    -0.354 N 
ATOM     42  C   UNL A   1      40.173  28.858  28.984  1.00  0.00     0.074 A 
ATOM     43  C   UNL A   1      39.295  29.068  27.854  1.00  0.00     0.031 C 
ATOM     44  C   UNL A   1      37.842  32.920  33.377  1.00  0.00     0.029 A 
ATOM     45  C   UNL A   1      38.938  31.964  33.539  1.00  0.00     0.049 A 
ATOM     46  H   UNL A   1      39.766  30.739  32.072  1.00  0.00     0.167 HD
ATOM     47  C   UNL A   1      41.215  27.994  28.985  1.00  0.00     0.037 A 
ATOM     48  C   UNL A   1      39.618  31.726  34.678  1.00  0.00     0.037 A 
ATOM     49  C   UNL A   1      42.078  27.773  30.112  1.00  0.00     0.049 A 
ATOM     50  C   UNL A   1      40.733  30.714  34.682  1.00  0.00     0.074 A 
ATOM     51  C   UNL A   1      43.180  26.942  30.203  1.00  0.00     0.029 A 
ATOM     52  N   UNL A   1      41.924  28.377  31.351  1.00  0.00    -0.354 N 
ATOM     53  N   UNL A   1      41.171  29.964  33.699  1.00  0.00    -0.248 NA
ATOM     54  C   UNL A   1      41.452  30.517  35.950  1.00  0.00     0.031 C 
ATOM     55  C   UNL A   1      43.662  27.003  31.515  1.00  0.00     0.029 A 
ATOM     56  C   UNL A   1      42.891  27.911  32.224  1.00  0.00     0.049 A 
ATOM     57  H   UNL A   1      41.231  29.038  31.575  1.00  0.00     0.167 HD
ATOM     58  C   UNL A   1      42.232  29.231  34.219  1.00  0.00     0.074 A 
ATOM     59  C   UNL A   1      42.372  29.625  35.606  1.00  0.00     0.031 C 
ATOM     60  C   UNL A   1      43.022  28.319  33.601  1.00  0.00     0.037 A 
BRANCH  47  61
ATOM     61  C   UNL A   1      41.437  27.201  27.734  1.00  0.00     0.057 A 
ATOM     62  C   UNL A   1      40.873  25.932  27.552  1.00  0.00     0.134 A 
ATOM     63  C   UNL A   1      42.248  27.703  26.709  1.00  0.00     0.134 A 
ATOM     64  F   UNL A   1      40.104  25.386  28.507  1.00  0.00    -0.206 F 
ATOM     65  C   UNL A   1      41.135  25.176  26.409  1.00  0.00     0.040 A 
ATOM     66  C   UNL A   1      42.497  26.968  25.551  1.00  0.00     0.040 A 
ATOM     67  F   UNL A   1      42.820  28.911  26.824  1.00  0.00    -0.206 F 
ATOM     68  C   UNL A   1      41.947  25.695  25.403  1.00  0.00     0.006 A 
ENDBRANCH  47  61
BRANCH  48  69
ATOM     69  C   UNL A   1      39.247  32.452  35.918  1.00  0.00     0.057 A 
ATOM     70  C   UNL A   1      38.346  31.906  36.839  1.00  0.00     0.134 A 
ATOM     71  C   UNL A   1      39.788  33.709  36.212  1.00  0.00     0.134 A 
ATOM     72  F   UNL A   1      37.776  30.715  36.601  1.00  0.00    -0.206 F 
ATOM     73  C   UNL A   1      37.992  32.586  38.006  1.00  0.00     0.040 A 
ATOM     74  C   UNL A   1      39.459  34.392  37.384  1.00  0.00     0.040 A 
ATOM     75  F   UNL A   1      40.657  34.285  35.368  1.00  0.00    -0.206 F 
ATOM     76  C   UNL A   1      38.555  33.832  38.283  1.00  0.00     0.006 A 
ENDBRANCH  48  69
BRANCH  60  77
ATOM     77  C   UNL A   1      44.135  27.704  34.398  1.00  0.00     0.057 A 
ATOM     78  C   UNL A   1      45.384  28.322  34.522  1.00  0.00     0.134 A 
ATOM     79  C   UNL A   1      43.923  26.521  35.117  1.00  0.00     0.134 A 
ATOM     80  F   UNL A   1      45.654  29.452  33.852  1.00  0.00    -0.206 F 
ATOM     81  C   UNL A   1      46.387  27.781  35.330  1.00  0.00     0.040 A 
ATOM     82  C   UNL A   1      44.908  25.982  35.944  1.00  0.00     0.040 A 
ATOM     83  F   UNL A   1      42.743  25.884  35.048  1.00  0.00    -0.206 F 
ATOM     84  C   UNL A   1      46.146  26.613  36.051  1.00  0.00     0.006 A 
ENDBRANCH  60  77
ENDBRANCH  34  35
ENDBRANCH  27  29
ENDBRANCH  26  27
ENDBRANCH  25  26
ENDBRANCH  24  25
ENDBRANCH   1  24
TORSDOF 17
ENDMDL
MODEL 2
REMARK VINA RESULT:     -10.4      4.917      9.732
REMARK SMILES O=C(C[C@H]([NH2+]Cc1ccccc1C1CC1)c1cccs1)OCCOC(=O)c1ccc(-c2c3nc(c(-c4c(F)cccc4F)c4ccc([nH]4)c(-c4c(F)cccc4F)c4nc(c(-c5c(F)cccc5F)c5ccc2[nH]5)C=C4)C=C3)cc1
REMARK SMILES IDX 21 1 2 2 1 3 3 4 4 5 16 6 17 7 20 8 18 9 19 10 5 11 6 14
REMARK SMILES IDX 7 15 8 16 12 17 9 18 11 19 10 20 13 21 14 22 15 23 22 24
REMARK SMILES IDX 23 25 24 26 25 27 26 28 27 29 28 30 80 31 29 32 79 33 30 34
REMARK SMILES IDX 31 35 32 36 73 37 33 38 78 39 72 40 74 41 34 42 77 43 71 44
REMARK SMILES IDX 70 45 35 47 61 48 44 49 60 50 45 51 48 52 59 53 75 54 46 55
REMARK SMILES IDX 47 56 58 58 76 59 49 60 36 61 37 62 42 63 38 64 39 65 41 66
REMARK SMILES IDX 43 67 40 68 62 69 63 70 68 71 64 72 65 73 67 74 69 75 66 76
REMARK SMILES IDX 50 77 51 78 56 79 52 80 53 81 55 82 57 83 54 84
REMARK H PARENT 5 12 5 13 74 46 48 57
REMARK Flexibility Score: inf
ROOT
ATOM      1  O   UNL A   1      37.358  22.023  24.672  1.00  0.00    -0.462 OA
ENDROOT
BRANCH   1   2
ATOM      2  C   UNL A   1      36.593  22.898  23.968  1.00  0.00     0.312 C 
ATOM      3  O   UNL A   1      36.712  22.955  22.749  1.00  0.00    -0.252 OA
BRANCH   2   4
ATOM      4  C   UNL A   1      35.737  23.884  24.740  1.00  0.00     0.193 C 
BRANCH   4   5
ATOM      5  C   UNL A   1      34.236  23.897  24.443  1.00  0.00     0.235 C 
BRANCH   5   6
ATOM      6  C   UNL A   1      33.620  22.520  24.608  1.00  0.00     0.062 A 
ATOM      7  C   UNL A   1      32.974  21.794  23.621  1.00  0.00     0.021 A 
ATOM      8  S   UNL A   1      33.665  21.639  26.078  1.00  0.00    -0.143 S 
ATOM      9  C   UNL A   1      32.566  20.503  24.057  1.00  0.00     0.012 A 
ATOM     10  C   UNL A   1      32.878  20.292  25.380  1.00  0.00     0.065 A 
ENDBRANCH   5   6
BRANCH   5  11
ATOM     11  N   UNL A   1      33.504  24.949  25.130  1.00  0.00    -0.335 N 
ATOM     12  H   UNL A   1      34.087  25.287  25.895  1.00  0.00     0.347 HD
ATOM     13  H   UNL A   1      32.628  24.522  25.432  1.00  0.00     0.347 HD
BRANCH  11  14
ATOM     14  C   UNL A   1      33.123  26.097  24.315  1.00  0.00     0.298 C 
BRANCH  14  15
ATOM     15  C   UNL A   1      32.984  27.339  25.176  1.00  0.00     0.010 A 
ATOM     16  C   UNL A   1      34.028  27.584  26.104  1.00  0.00     0.010 A 
ATOM     17  C   UNL A   1      31.860  28.197  25.144  1.00  0.00    -0.036 A 
ATOM     18  C   UNL A   1      33.933  28.579  27.072  1.00  0.00     0.001 A 
ATOM     19  C   UNL A   1      31.788  29.172  26.173  1.00  0.00     0.004 A 
ATOM     20  C   UNL A   1      32.791  29.355  27.127  1.00  0.00     0.000 A 
BRANCH  17  21
ATOM     21  C   UNL A   1      30.737  28.258  24.112  1.00  0.00     0.020 C 
ATOM     22  C   UNL A   1      30.079  29.464  23.504  1.00  0.00     0.009 C 
ATOM     23  C   UNL A   1      31.050  28.659  22.691  1.00  0.00     0.009 C 
ENDBRANCH  17  21
ENDBRANCH  14  15
ENDBRANCH  11  14
ENDBRANCH   5  11
ENDBRANCH   4   5
ENDBRANCH   2   4
ENDBRANCH   1   2
BRANCH   1  24
ATOM     24  C   UNL A   1      37.082  20.613  24.756  1.00  0.00     0.274 C 
BRANCH  24  25
ATOM     25  C   UNL A   1      38.332  19.764  25.001  1.00  0.00     0.275 C 
BRANCH  25  26
ATOM     26  O   UNL A   1      39.106  20.297  26.088  1.00  0.00    -0.458 OA
BRANCH  26  27
ATOM     27  C   UNL A   1      40.400  19.888  26.111  1.00  0.00     0.338 C 
ATOM     28  O   UNL A   1      40.829  18.805  25.751  1.00  0.00    -0.246 OA
BRANCH  27  29
ATOM     29  C   UNL A   1      41.267  21.034  26.458  1.00  0.00     0.060 A 
ATOM     30  C   UNL A   1      41.502  21.286  27.816  1.00  0.00     0.016 A 
ATOM     31  C   UNL A   1      41.866  21.831  25.478  1.00  0.00     0.016 A 
ATOM     32  C   UNL A   1      42.297  22.366  28.202  1.00  0.00     0.010 A 
ATOM     33  C   UNL A   1      42.652  22.920  25.865  1.00  0.00     0.010 A 
ATOM     34  C   UNL A   1      42.836  23.215  27.228  1.00  0.00    -0.014 A 
BRANCH  34  35
ATOM     35  C   UNL A   1      43.382  24.537  27.614  1.00  0.00     0.031 A 
ATOM     36  C   UNL A   1      42.406  25.610  28.005  1.00  0.00     0.074 A 
ATOM     37  C   UNL A   1      44.698  24.802  27.588  1.00  0.00     0.049 A 
ATOM     38  N   UNL A   1      42.622  26.866  28.293  1.00  0.00    -0.248 NA
ATOM     39  C   UNL A   1      40.991  25.207  28.068  1.00  0.00     0.031 C 
ATOM     40  C   UNL A   1      45.746  23.841  27.259  1.00  0.00     0.029 A 
ATOM     41  N   UNL A   1      45.373  25.975  27.819  1.00  0.00    -0.354 N 
ATOM     42  C   UNL A   1      41.372  27.405  28.566  1.00  0.00     0.074 A 
ATOM     43  C   UNL A   1      40.401  26.349  28.379  1.00  0.00     0.031 C 
ATOM     44  C   UNL A   1      46.934  24.473  27.265  1.00  0.00     0.029 A 
ATOM     45  C   UNL A   1      46.723  25.885  27.583  1.00  0.00     0.049 A 
ATOM     46  H   UNL A   1      44.933  26.800  28.124  1.00  0.00     0.167 HD
ATOM     47  C   UNL A   1      41.058  28.665  28.946  1.00  0.00     0.037 A 
ATOM     48  C   UNL A   1      47.672  26.842  27.598  1.00  0.00     0.037 A 
ATOM     49  C   UNL A   1      42.020  29.719  29.118  1.00  0.00     0.049 A 
ATOM     50  C   UNL A   1      47.298  28.256  27.958  1.00  0.00     0.074 A 
ATOM     51  C   UNL A   1      41.807  31.021  29.528  1.00  0.00     0.029 A 
ATOM     52  N   UNL A   1      43.378  29.590  28.870  1.00  0.00    -0.354 N 
ATOM     53  N   UNL A   1      46.121  28.746  28.265  1.00  0.00    -0.248 NA
ATOM     54  C   UNL A   1      48.383  29.249  27.979  1.00  0.00     0.031 C 
ATOM     55  C   UNL A   1      43.030  31.698  29.480  1.00  0.00     0.029 A 
ATOM     56  C   UNL A   1      44.012  30.801  29.088  1.00  0.00     0.049 A 
ATOM     57  H   UNL A   1      43.825  28.762  28.583  1.00  0.00     0.167 HD
ATOM     58  C   UNL A   1      46.327  30.092  28.543  1.00  0.00     0.074 A 
ATOM     59  C   UNL A   1      47.743  30.344  28.369  1.00  0.00     0.031 C 
ATOM     60  C   UNL A   1      45.425  31.033  28.917  1.00  0.00     0.037 A 
BRANCH  47  61
ATOM     61  C   UNL A   1      39.606  28.967  29.154  1.00  0.00     0.057 A 
ATOM     62  C   UNL A   1      38.996  28.840  30.409  1.00  0.00     0.134 A 
ATOM     63  C   UNL A   1      38.801  29.363  28.079  1.00  0.00     0.134 A 
ATOM     64  F   UNL A   1      39.708  28.442  31.474  1.00  0.00    -0.206 F 
ATOM     65  C   UNL A   1      37.630  29.065  30.581  1.00  0.00     0.040 A 
ATOM     66  C   UNL A   1      37.439  29.615  28.243  1.00  0.00     0.040 A 
ATOM     67  F   UNL A   1      39.324  29.500  26.852  1.00  0.00    -0.206 F 
ATOM     68  C   UNL A   1      36.847  29.456  29.496  1.00  0.00     0.006 A 
ENDBRANCH  47  61
BRANCH  48  69
ATOM     69  C   UNL A   1      49.071  26.494  27.241  1.00  0.00     0.057 A 
ATOM     70  C   UNL A   1      49.502  26.487  25.911  1.00  0.00     0.134 A 
ATOM     71  C   UNL A   1      50.008  26.163  28.226  1.00  0.00     0.134 A 
ATOM     72  F   UNL A   1      48.643  26.773  24.921  1.00  0.00    -0.206 F 
ATOM     73  C   UNL A   1      50.815  26.157  25.571  1.00  0.00     0.040 A 
ATOM     74  C   UNL A   1      51.330  25.850  27.904  1.00  0.00     0.040 A 
ATOM     75  F   UNL A   1      49.655  26.151  29.520  1.00  0.00    -0.206 F 
ATOM     76  C   UNL A   1      51.736  25.844  26.571  1.00  0.00     0.006 A 
ENDBRANCH  48  69
BRANCH  60  77
ATOM     77  C   UNL A   1      45.934  32.416  29.199  1.00  0.00     0.057 A 
ATOM     78  C   UNL A   1      45.954  33.411  28.215  1.00  0.00     0.134 A 
ATOM     79  C   UNL A   1      46.329  32.777  30.494  1.00  0.00     0.134 A 
ATOM     80  F   UNL A   1      45.598  33.128  26.954  1.00  0.00    -0.206 F 
ATOM     81  C   UNL A   1      46.356  34.716  28.509  1.00  0.00     0.040 A 
ATOM     82  C   UNL A   1      46.711  34.082  30.805  1.00  0.00     0.040 A 
ATOM     83  F   UNL A   1      46.322  31.871  31.485  1.00  0.00    -0.206 F 
ATOM     84  C   UNL A   1      46.726  35.057  29.808  1.00  0.00     0.006 A 
ENDBRANCH  60  77
ENDBRANCH  34  35
ENDBRANCH  27  29
ENDBRANCH  26  27
ENDBRANCH  25  26
ENDBRANCH  24  25
ENDBRANCH   1  24
TORSDOF 17
ENDMDL
MODEL 3
REMARK VINA RESULT:     -10.3      4.685      9.197
REMARK SMILES O=C(C[C@H]([NH2+]Cc1ccccc1C1CC1)c1cccs1)OCCOC(=O)c1ccc(-c2c3nc(c(-c4c(F)cccc4F)c4ccc([nH]4)c(-c4c(F)cccc4F)c4nc(c(-c5c(F)cccc5F)c5ccc2[nH]5)C=C4)C=C3)cc1
REMARK SMILES IDX 21 1 2 2 1 3 3 4 4 5 16 6 17 7 20 8 18 9 19 10 5 11 6 14
REMARK SMILES IDX 7 15 8 16 12 17 9 18 11 19 10 20 13 21 14 22 15 23 22 24
REMARK SMILES IDX 23 25 24 26 25 27 26 28 27 29 28 30 80 31 29 32 79 33 30 34
REMARK SMILES IDX 31 35 32 36 73 37 33 38 78 39 72 40 74 41 34 42 77 43 71 44
REMARK SMILES IDX 70 45 35 47 61 48 44 49 60 50 45 51 48 52 59 53 75 54 46 55
REMARK SMILES IDX 47 56 58 58 76 59 49 60 36 61 37 62 42 63 38 64 39 65 41 66
REMARK SMILES IDX 43 67 40 68 62 69 63 70 68 71 64 72 65 73 67 74 69 75 66 76
REMARK SMILES IDX 50 77 51 78 56 79 52 80 53 81 55 82 57 83 54 84
REMARK H PARENT 5 12 5 13 74 46 48 57
REMARK Flexibility Score: inf
ROOT
ATOM      1  O   UNL A   1      38.057  21.710  26.107  1.00  0.00    -0.462 OA
ENDROOT
BRANCH   1   2
ATOM      2  C   UNL A   1      37.540  22.926  25.786  1.00  0.00     0.312 C 
ATOM      3  O   UNL A   1      38.231  23.929  25.932  1.00  0.00    -0.252 OA
BRANCH   2   4
ATOM      4  C   UNL A   1      36.073  23.006  25.413  1.00  0.00     0.193 C 
BRANCH   4   5
ATOM      5  C   UNL A   1      35.067  22.358  26.366  1.00  0.00     0.235 C 
BRANCH   5   6
ATOM      6  C   UNL A   1      33.769  23.141  26.429  1.00  0.00     0.062 A 
ATOM      7  C   UNL A   1      32.564  22.680  26.933  1.00  0.00     0.021 A 
ATOM      8  S   UNL A   1      33.622  24.763  25.893  1.00  0.00    -0.143 S 
ATOM      9  C   UNL A   1      31.543  23.670  26.925  1.00  0.00     0.012 A 
ATOM     10  C   UNL A   1      31.985  24.852  26.380  1.00  0.00     0.065 A 
ENDBRANCH   5   6
BRANCH   5  11
ATOM     11  N   UNL A   1      34.876  20.932  26.149  1.00  0.00    -0.335 N 
ATOM     12  H   UNL A   1      33.891  20.722  26.308  1.00  0.00     0.347 HD
ATOM     13  H   UNL A   1      35.511  20.468  26.799  1.00  0.00     0.347 HD
BRANCH  11  14
ATOM     14  C   UNL A   1      35.233  20.435  24.825  1.00  0.00     0.298 C 
BRANCH  14  15
ATOM     15  C   UNL A   1      34.352  19.262  24.441  1.00  0.00     0.010 A 
ATOM     16  C   UNL A   1      34.880  17.968  24.685  1.00  0.00     0.010 A 
ATOM     17  C   UNL A   1      33.095  19.396  23.804  1.00  0.00    -0.036 A 
ATOM     18  C   UNL A   1      34.256  16.818  24.213  1.00  0.00     0.001 A 
ATOM     19  C   UNL A   1      32.516  18.200  23.307  1.00  0.00     0.004 A 
ATOM     20  C   UNL A   1      33.084  16.938  23.491  1.00  0.00     0.000 A 
BRANCH  17  21
ATOM     21  C   UNL A   1      32.245  20.652  23.631  1.00  0.00     0.020 C 
ATOM     22  C   UNL A   1      32.677  22.038  23.245  1.00  0.00     0.009 C 
ATOM     23  C   UNL A   1      31.963  21.177  22.245  1.00  0.00     0.009 C 
ENDBRANCH  17  21
ENDBRANCH  14  15
ENDBRANCH  11  14
ENDBRANCH   5  11
ENDBRANCH   4   5
ENDBRANCH   2   4
ENDBRANCH   1   2
BRANCH   1  24
ATOM     24  C   UNL A   1      38.519  20.760  25.131  1.00  0.00     0.274 C 
BRANCH  24  25
ATOM     25  C   UNL A   1      39.309  19.598  25.741  1.00  0.00     0.275 C 
BRANCH  25  26
ATOM     26  O   UNL A   1      40.629  19.529  25.179  1.00  0.00    -0.458 OA
BRANCH  26  27
ATOM     27  C   UNL A   1      41.630  19.528  26.096  1.00  0.00     0.338 C 
ATOM     28  O   UNL A   1      42.413  18.621  26.321  1.00  0.00    -0.246 OA
BRANCH  27  29
ATOM     29  C   UNL A   1      41.769  20.885  26.666  1.00  0.00     0.060 A 
ATOM     30  C   UNL A   1      42.019  21.942  25.779  1.00  0.00     0.016 A 
ATOM     31  C   UNL A   1      41.627  21.131  28.035  1.00  0.00     0.016 A 
ATOM     32  C   UNL A   1      42.177  23.241  26.263  1.00  0.00     0.010 A 
ATOM     33  C   UNL A   1      41.799  22.431  28.520  1.00  0.00     0.010 A 
ATOM     34  C   UNL A   1      42.114  23.482  27.641  1.00  0.00    -0.014 A 
BRANCH  34  35
ATOM     35  C   UNL A   1      42.613  24.762  28.195  1.00  0.00     0.031 A 
ATOM     36  C   UNL A   1      41.613  25.858  28.434  1.00  0.00     0.074 A 
ATOM     37  C   UNL A   1      43.915  24.972  28.449  1.00  0.00     0.049 A 
ATOM     38  N   UNL A   1      41.807  27.091  28.821  1.00  0.00    -0.248 NA
ATOM     39  C   UNL A   1      40.203  25.513  28.188  1.00  0.00     0.031 C 
ATOM     40  C   UNL A   1      44.976  23.983  28.291  1.00  0.00     0.029 A 
ATOM     41  N   UNL A   1      44.567  26.105  28.870  1.00  0.00    -0.354 N 
ATOM     42  C   UNL A   1      40.545  27.670  28.862  1.00  0.00     0.074 A 
ATOM     43  C   UNL A   1      39.599  26.664  28.430  1.00  0.00     0.031 C 
ATOM     44  C   UNL A   1      46.157  24.563  28.569  1.00  0.00     0.029 A 
ATOM     45  C   UNL A   1      45.932  25.968  28.908  1.00  0.00     0.049 A 
ATOM     46  H   UNL A   1      44.100  26.934  29.120  1.00  0.00     0.167 HD
ATOM     47  C   UNL A   1      40.203  28.925  29.233  1.00  0.00     0.037 A 
ATOM     48  C   UNL A   1      46.889  26.883  29.162  1.00  0.00     0.037 A 
ATOM     49  C   UNL A   1      41.143  29.929  29.648  1.00  0.00     0.049 A 
ATOM     50  C   UNL A   1      46.496  28.295  29.509  1.00  0.00     0.074 A 
ATOM     51  C   UNL A   1      40.893  31.221  30.071  1.00  0.00     0.029 A 
ATOM     52  N   UNL A   1      42.518  29.754  29.675  1.00  0.00    -0.354 N 
ATOM     53  N   UNL A   1      45.297  28.821  29.595  1.00  0.00    -0.248 NA
ATOM     54  C   UNL A   1      47.586  29.240  29.798  1.00  0.00     0.031 C 
ATOM     55  C   UNL A   1      42.122  31.846  30.306  1.00  0.00     0.029 A 
ATOM     56  C   UNL A   1      43.134  30.927  30.076  1.00  0.00     0.049 A 
ATOM     57  H   UNL A   1      42.987  28.920  29.443  1.00  0.00     0.167 HD
ATOM     58  C   UNL A   1      45.486  30.145  29.976  1.00  0.00     0.074 A 
ATOM     59  C   UNL A   1      46.915  30.343  30.105  1.00  0.00     0.031 C 
ATOM     60  C   UNL A   1      44.558  31.106  30.206  1.00  0.00     0.037 A 
BRANCH  47  61
ATOM     61  C   UNL A   1      38.749  29.279  29.158  1.00  0.00     0.057 A 
ATOM     62  C   UNL A   1      37.925  29.265  30.291  1.00  0.00     0.134 A 
ATOM     63  C   UNL A   1      38.161  29.611  27.932  1.00  0.00     0.134 A 
ATOM     64  F   UNL A   1      38.423  28.932  31.491  1.00  0.00    -0.206 F 
ATOM     65  C   UNL A   1      36.559  29.537  30.200  1.00  0.00     0.040 A 
ATOM     66  C   UNL A   1      36.802  29.909  27.833  1.00  0.00     0.040 A 
ATOM     67  F   UNL A   1      38.896  29.639  26.810  1.00  0.00    -0.206 F 
ATOM     68  C   UNL A   1      35.994  29.863  28.968  1.00  0.00     0.006 A 
ENDBRANCH  47  61
BRANCH  48  69
ATOM     69  C   UNL A   1      48.319  26.492  29.079  1.00  0.00     0.057 A 
ATOM     70  C   UNL A   1      49.060  26.687  27.909  1.00  0.00     0.134 A 
ATOM     71  C   UNL A   1      48.977  25.915  30.172  1.00  0.00     0.134 A 
ATOM     72  F   UNL A   1      48.478  27.214  26.821  1.00  0.00    -0.206 F 
ATOM     73  C   UNL A   1      50.403  26.318  27.826  1.00  0.00     0.040 A 
ATOM     74  C   UNL A   1      50.325  25.559  30.110  1.00  0.00     0.040 A 
ATOM     75  F   UNL A   1      48.320  25.702  31.322  1.00  0.00    -0.206 F 
ATOM     76  C   UNL A   1      51.041  25.757  28.932  1.00  0.00     0.006 A 
ENDBRANCH  48  69
BRANCH  60  77
ATOM     77  C   UNL A   1      45.044  32.453  30.654  1.00  0.00     0.057 A 
ATOM     78  C   UNL A   1      45.269  32.746  32.005  1.00  0.00     0.134 A 
ATOM     79  C   UNL A   1      45.369  33.439  29.715  1.00  0.00     0.134 A 
ATOM     80  F   UNL A   1      44.970  31.848  32.955  1.00  0.00    -0.206 F 
ATOM     81  C   UNL A   1      45.796  33.977  32.404  1.00  0.00     0.040 A 
ATOM     82  C   UNL A   1      45.916  34.664  30.099  1.00  0.00     0.040 A 
ATOM     83  F   UNL A   1      45.185  33.217  28.403  1.00  0.00    -0.206 F 
ATOM     84  C   UNL A   1      46.129  34.936  31.449  1.00  0.00     0.006 A 
ENDBRANCH  60  77
ENDBRANCH  34  35
ENDBRANCH  27  29
ENDBRANCH  26  27
ENDBRANCH  25  26
ENDBRANCH  24  25
ENDBRANCH   1  24
TORSDOF 17
ENDMDL
