MODEL 1
REMARK VINA RESULT:      -9.9      0.000      0.000
REMARK SMILES C=CC[NH+](CC=C)[C@@H](C(=O)OCCOC(=O)c1ccc(-c2c3nc(c(-c4c(F)cccc4F)c4ccc([nH]4)c(-c4c(F)cccc4F)c4nc(c(-c5c(F)cccc5F)c5ccc2[nH]5)C=C4)C=C3)cc1)c1ccc(F)c(C)c1
REMARK SMILES IDX 12 1 11 2 9 3 10 4 8 5 4 6 3 8 2 9 1 10 5 11 6 12 7 13 71 14
REMARK SMILES IDX 72 15 78 16 73 17 76 18 74 19 77 20 75 21 13 22 14 23 15 24
REMARK SMILES IDX 16 25 17 26 18 27 70 28 19 29 69 30 20 31 21 32 22 33 63 34
REMARK SMILES IDX 23 35 68 36 62 37 64 38 24 39 67 40 61 41 60 42 25 44 51 45
REMARK SMILES IDX 34 46 50 47 35 48 38 49 49 50 65 51 36 52 37 53 48 55 66 56
REMARK SMILES IDX 39 57 26 58 27 59 32 60 28 61 29 62 31 63 33 64 30 65 52 66
REMARK SMILES IDX 53 67 58 68 54 69 55 70 57 71 59 72 56 73 40 74 41 75 46 76
REMARK SMILES IDX 42 77 43 78 45 79 47 80 44 81
REMARK H PARENT 4 7 64 43 38 54
REMARK Flexibility Score: inf
ROOT
ATOM      1  C   UNL A   1      36.400  23.117  23.670  1.00  0.00     0.274 C 
ENDROOT
BRANCH   1   2
ATOM      2  O   UNL A   1      35.195  23.017  22.881  1.00  0.00    -0.457 OA
BRANCH   2   3
ATOM      3  C   UNL A   1      34.212  23.924  23.118  1.00  0.00     0.370 C 
ATOM      4  O   UNL A   1      34.322  25.109  22.809  1.00  0.00    -0.245 OA
BRANCH   3   5
ATOM      5  C   UNL A   1      32.959  23.352  23.847  1.00  0.00     0.326 C 
BRANCH   5   6
ATOM      6  N   UNL A   1      32.767  23.783  25.272  1.00  0.00    -0.313 N 
ATOM      7  H   UNL A   1      32.576  22.875  25.695  1.00  0.00     0.349 HD
BRANCH   6   8
ATOM      8  C   UNL A   1      33.927  24.170  26.079  1.00  0.00     0.291 C 
BRANCH   8   9
ATOM      9  C   UNL A   1      34.442  23.087  26.981  1.00  0.00     0.025 C 
ATOM     10  C   UNL A   1      33.677  22.338  27.786  1.00  0.00     0.010 C 
ENDBRANCH   8   9
ENDBRANCH   6   8
BRANCH   6  11
ATOM     11  C   UNL A   1      31.589  24.634  25.476  1.00  0.00     0.291 C 
BRANCH  11  12
ATOM     12  C   UNL A   1      30.524  24.102  26.393  1.00  0.00     0.025 C 
ATOM     13  C   UNL A   1      30.255  22.806  26.598  1.00  0.00     0.010 C 
ENDBRANCH  11  12
ENDBRANCH   6  11
ENDBRANCH   5   6
BRANCH   5  14
ATOM     14  C   UNL A   1      32.651  21.855  23.581  1.00  0.00     0.021 A 
ATOM     15  C   UNL A   1      32.250  21.428  22.300  1.00  0.00     0.013 A 
ATOM     16  C   UNL A   1      32.898  20.842  24.532  1.00  0.00     0.017 A 
ATOM     17  C   UNL A   1      31.970  20.086  22.023  1.00  0.00     0.040 A 
ATOM     18  C   UNL A   1      32.673  19.480  24.251  1.00  0.00    -0.015 A 
ATOM     19  C   UNL A   1      32.170  19.127  23.001  1.00  0.00     0.126 A 
ATOM     20  C   UNL A   1      32.930  18.435  25.295  1.00  0.00     0.047 C 
ATOM     21  F   UNL A   1      31.895  17.846  22.721  1.00  0.00    -0.207 F 
ENDBRANCH   5  14
ENDBRANCH   3   5
ENDBRANCH   2   3
ENDBRANCH   1   2
BRANCH   1  22
ATOM     22  C   UNL A   1      36.700  21.749  24.266  1.00  0.00     0.275 C 
BRANCH  22  23
ATOM     23  O   UNL A   1      37.149  21.958  25.615  1.00  0.00    -0.458 OA
BRANCH  23  24
ATOM     24  C   UNL A   1      38.422  21.593  25.879  1.00  0.00     0.338 C 
ATOM     25  O   UNL A   1      38.945  20.507  25.684  1.00  0.00    -0.246 OA
BRANCH  24  26
ATOM     26  C   UNL A   1      39.138  22.752  26.437  1.00  0.00     0.060 A 
ATOM     27  C   UNL A   1      38.764  24.046  26.066  1.00  0.00     0.016 A 
ATOM     28  C   UNL A   1      40.255  22.547  27.247  1.00  0.00     0.016 A 
ATOM     29  C   UNL A   1      39.522  25.136  26.483  1.00  0.00     0.010 A 
ATOM     30  C   UNL A   1      40.977  23.646  27.719  1.00  0.00     0.010 A 
ATOM     31  C   UNL A   1      40.623  24.951  27.332  1.00  0.00    -0.014 A 
BRANCH  31  32
ATOM     32  C   UNL A   1      41.415  26.116  27.797  1.00  0.00     0.031 A 
ATOM     33  C   UNL A   1      40.801  27.126  28.722  1.00  0.00     0.074 A 
ATOM     34  C   UNL A   1      42.693  26.266  27.399  1.00  0.00     0.049 A 
ATOM     35  N   UNL A   1      41.255  28.298  29.084  1.00  0.00    -0.248 NA
ATOM     36  C   UNL A   1      39.500  26.773  29.312  1.00  0.00     0.031 C 
ATOM     37  C   UNL A   1      43.435  25.324  26.560  1.00  0.00     0.029 A 
ATOM     38  N   UNL A   1      43.598  27.264  27.659  1.00  0.00    -0.354 N 
ATOM     39  C   UNL A   1      40.276  28.845  29.903  1.00  0.00     0.074 A 
ATOM     40  C   UNL A   1      39.210  27.871  29.997  1.00  0.00     0.031 C 
ATOM     41  C   UNL A   1      44.694  25.767  26.412  1.00  0.00     0.029 A 
ATOM     42  C   UNL A   1      44.824  27.061  27.073  1.00  0.00     0.049 A 
ATOM     43  H   UNL A   1      43.389  28.051  28.212  1.00  0.00     0.167 HD
ATOM     44  C   UNL A   1      40.265  30.058  30.505  1.00  0.00     0.037 A 
ATOM     45  C   UNL A   1      45.916  27.846  27.039  1.00  0.00     0.037 A 
ATOM     46  C   UNL A   1      41.343  31.010  30.436  1.00  0.00     0.049 A 
ATOM     47  C   UNL A   1      45.864  29.204  27.681  1.00  0.00     0.074 A 
ATOM     48  C   UNL A   1      41.411  32.281  30.984  1.00  0.00     0.029 A 
ATOM     49  N   UNL A   1      42.549  30.788  29.792  1.00  0.00    -0.354 N 
ATOM     50  N   UNL A   1      44.894  29.756  28.367  1.00  0.00    -0.248 NA
ATOM     51  C   UNL A   1      47.046  30.062  27.509  1.00  0.00     0.031 C 
ATOM     52  C   UNL A   1      42.651  32.836  30.647  1.00  0.00     0.029 A 
ATOM     53  C   UNL A   1      43.366  31.900  29.918  1.00  0.00     0.049 A 
ATOM     54  H   UNL A   1      42.791  29.961  29.314  1.00  0.00     0.167 HD
ATOM     55  C   UNL A   1      45.342  31.027  28.700  1.00  0.00     0.074 A 
ATOM     56  C   UNL A   1      46.684  31.152  28.169  1.00  0.00     0.031 C 
ATOM     57  C   UNL A   1      44.693  32.008  29.373  1.00  0.00     0.037 A 
BRANCH  44  58
ATOM     58  C   UNL A   1      39.024  30.445  31.249  1.00  0.00     0.057 A 
ATOM     59  C   UNL A   1      38.862  30.182  32.614  1.00  0.00     0.134 A 
ATOM     60  C   UNL A   1      37.988  31.119  30.589  1.00  0.00     0.134 A 
ATOM     61  F   UNL A   1      39.810  29.524  33.297  1.00  0.00    -0.206 F 
ATOM     62  C   UNL A   1      37.704  30.566  33.295  1.00  0.00     0.040 A 
ATOM     63  C   UNL A   1      36.835  31.522  31.263  1.00  0.00     0.040 A 
ATOM     64  F   UNL A   1      38.084  31.401  29.281  1.00  0.00    -0.206 F 
ATOM     65  C   UNL A   1      36.689  31.243  32.620  1.00  0.00     0.006 A 
ENDBRANCH  44  58
BRANCH  45  66
ATOM     66  C   UNL A   1      47.139  27.389  26.336  1.00  0.00     0.057 A 
ATOM     67  C   UNL A   1      48.137  26.682  27.017  1.00  0.00     0.134 A 
ATOM     68  C   UNL A   1      47.343  27.646  24.974  1.00  0.00     0.134 A 
ATOM     69  F   UNL A   1      48.011  26.431  28.328  1.00  0.00    -0.206 F 
ATOM     70  C   UNL A   1      49.295  26.248  26.370  1.00  0.00     0.040 A 
ATOM     71  C   UNL A   1      48.485  27.197  24.310  1.00  0.00     0.040 A 
ATOM     72  F   UNL A   1      46.426  28.320  24.267  1.00  0.00    -0.206 F 
ATOM     73  C   UNL A   1      49.468  26.500  25.009  1.00  0.00     0.006 A 
ENDBRANCH  45  66
BRANCH  57  74
ATOM     74  C   UNL A   1      45.427  33.300  29.561  1.00  0.00     0.057 A 
ATOM     75  C   UNL A   1      45.309  34.347  28.638  1.00  0.00     0.134 A 
ATOM     76  C   UNL A   1      46.237  33.509  30.683  1.00  0.00     0.134 A 
ATOM     77  F   UNL A   1      44.559  34.200  27.536  1.00  0.00    -0.206 F 
ATOM     78  C   UNL A   1      45.984  35.555  28.818  1.00  0.00     0.040 A 
ATOM     79  C   UNL A   1      46.903  34.719  30.882  1.00  0.00     0.040 A 
ATOM     80  F   UNL A   1      46.387  32.546  31.604  1.00  0.00    -0.206 F 
ATOM     81  C   UNL A   1      46.781  35.744  29.946  1.00  0.00     0.006 A 
ENDBRANCH  57  74
ENDBRANCH  31  32
ENDBRANCH  24  26
ENDBRANCH  23  24
ENDBRANCH  22  23
ENDBRANCH   1  22
TORSDOF 17
ENDMDL
MODEL 2
REMARK VINA RESULT:      -9.8      4.134      8.599
REMARK SMILES C=CC[NH+](CC=C)[C@@H](C(=O)OCCOC(=O)c1ccc(-c2c3nc(c(-c4c(F)cccc4F)c4ccc([nH]4)c(-c4c(F)cccc4F)c4nc(c(-c5c(F)cccc5F)c5ccc2[nH]5)C=C4)C=C3)cc1)c1ccc(F)c(C)c1
REMARK SMILES IDX 12 1 11 2 9 3 10 4 8 5 4 6 3 8 2 9 1 10 5 11 6 12 7 13 71 14
REMARK SMILES IDX 72 15 78 16 73 17 76 18 74 19 77 20 75 21 13 22 14 23 15 24
REMARK SMILES IDX 16 25 17 26 18 27 70 28 19 29 69 30 20 31 21 32 22 33 63 34
REMARK SMILES IDX 23 35 68 36 62 37 64 38 24 39 67 40 61 41 60 42 25 44 51 45
REMARK SMILES IDX 34 46 50 47 35 48 38 49 49 50 65 51 36 52 37 53 48 55 66 56
REMARK SMILES IDX 39 57 26 58 27 59 32 60 28 61 29 62 31 63 33 64 30 65 52 66
REMARK SMILES IDX 53 67 58 68 54 69 55 70 57 71 59 72 56 73 40 74 41 75 46 76
REMARK SMILES IDX 42 77 43 78 45 79 47 80 44 81
REMARK H PARENT 4 7 64 43 38 54
REMARK Flexibility Score: inf
ROOT
ATOM      1  C   UNL A   1      31.562  28.714  27.219  1.00  0.00     0.274 C 
ENDROOT
BRANCH   1   2
ATOM      2  O   UNL A   1      32.314  27.503  26.994  1.00  0.00    -0.457 OA
BRANCH   2   3
ATOM      3  C   UNL A   1      31.886  26.672  26.008  1.00  0.00     0.370 C 
ATOM      4  O   UNL A   1      30.724  26.275  25.940  1.00  0.00    -0.245 OA
BRANCH   3   5
ATOM      5  C   UNL A   1      32.991  26.231  25.000  1.00  0.00     0.326 C 
BRANCH   5   6
ATOM      6  N   UNL A   1      32.628  26.305  23.546  1.00  0.00    -0.313 N 
ATOM      7  H   UNL A   1      33.559  26.221  23.139  1.00  0.00     0.349 HD
BRANCH   6   8
ATOM      8  C   UNL A   1      31.991  25.158  22.895  1.00  0.00     0.291 C 
BRANCH   8   9
ATOM      9  C   UNL A   1      32.905  24.363  22.009  1.00  0.00     0.025 C 
ATOM     10  C   UNL A   1      33.278  23.097  22.238  1.00  0.00     0.010 C 
ENDBRANCH   8   9
ENDBRANCH   6   8
BRANCH   6  11
ATOM     11  C   UNL A   1      32.072  27.602  23.144  1.00  0.00     0.291 C 
BRANCH  11  12
ATOM     12  C   UNL A   1      30.660  27.599  22.627  1.00  0.00     0.025 C 
ATOM     13  C   UNL A   1      29.700  28.462  22.989  1.00  0.00     0.010 C 
ENDBRANCH  11  12
ENDBRANCH   6  11
ENDBRANCH   5   6
BRANCH   5  14
ATOM     14  C   UNL A   1      33.798  24.968  25.399  1.00  0.00     0.021 A 
ATOM     15  C   UNL A   1      35.140  24.824  24.997  1.00  0.00     0.013 A 
ATOM     16  C   UNL A   1      33.302  23.992  26.290  1.00  0.00     0.017 A 
ATOM     17  C   UNL A   1      35.899  23.701  25.342  1.00  0.00     0.040 A 
ATOM     18  C   UNL A   1      34.073  22.883  26.691  1.00  0.00    -0.015 A 
ATOM     19  C   UNL A   1      35.357  22.736  26.173  1.00  0.00     0.126 A 
ATOM     20  C   UNL A   1      33.503  21.858  27.625  1.00  0.00     0.047 C 
ATOM     21  F   UNL A   1      36.096  21.664  26.493  1.00  0.00    -0.207 F 
ENDBRANCH   5  14
ENDBRANCH   3   5
ENDBRANCH   2   3
ENDBRANCH   1   2
BRANCH   1  22
ATOM     22  C   UNL A   1      31.754  29.630  26.019  1.00  0.00     0.275 C 
BRANCH  22  23
ATOM     23  O   UNL A   1      33.105  30.117  26.062  1.00  0.00    -0.458 OA
BRANCH  23  24
ATOM     24  C   UNL A   1      33.342  31.132  26.919  1.00  0.00     0.338 C 
ATOM     25  O   UNL A   1      32.645  32.114  27.127  1.00  0.00    -0.246 OA
BRANCH  24  26
ATOM     26  C   UNL A   1      34.605  30.867  27.627  1.00  0.00     0.060 A 
ATOM     27  C   UNL A   1      34.924  29.563  28.016  1.00  0.00     0.016 A 
ATOM     28  C   UNL A   1      35.423  31.933  28.001  1.00  0.00     0.016 A 
ATOM     29  C   UNL A   1      36.048  29.327  28.802  1.00  0.00     0.010 A 
ATOM     30  C   UNL A   1      36.587  31.687  28.734  1.00  0.00     0.010 A 
ATOM     31  C   UNL A   1      36.904  30.383  29.151  1.00  0.00    -0.014 A 
BRANCH  31  32
ATOM     32  C   UNL A   1      38.116  30.126  29.967  1.00  0.00     0.031 A 
ATOM     33  C   UNL A   1      39.245  29.311  29.407  1.00  0.00     0.074 A 
ATOM     34  C   UNL A   1      38.213  30.633  31.211  1.00  0.00     0.049 A 
ATOM     35  N   UNL A   1      40.292  28.818  30.018  1.00  0.00    -0.248 NA
ATOM     36  C   UNL A   1      39.184  29.003  27.969  1.00  0.00     0.031 C 
ATOM     37  C   UNL A   1      37.222  31.500  31.852  1.00  0.00     0.029 A 
ATOM     38  N   UNL A   1      39.200  30.501  32.155  1.00  0.00    -0.354 N 
ATOM     39  C   UNL A   1      40.988  28.101  29.055  1.00  0.00     0.074 A 
ATOM     40  C   UNL A   1      40.255  28.235  27.814  1.00  0.00     0.031 C 
ATOM     41  C   UNL A   1      37.673  31.858  33.064  1.00  0.00     0.029 A 
ATOM     42  C   UNL A   1      38.940  31.180  33.320  1.00  0.00     0.049 A 
ATOM     43  H   UNL A   1      40.015  29.970  32.012  1.00  0.00     0.167 HD
ATOM     44  C   UNL A   1      42.128  27.384  29.201  1.00  0.00     0.037 A 
ATOM     45  C   UNL A   1      39.625  31.223  34.478  1.00  0.00     0.037 A 
ATOM     46  C   UNL A   1      42.872  27.281  30.429  1.00  0.00     0.049 A 
ATOM     47  C   UNL A   1      40.864  30.386  34.627  1.00  0.00     0.074 A 
ATOM     48  C   UNL A   1      44.020  26.550  30.687  1.00  0.00     0.029 A 
ATOM     49  N   UNL A   1      42.550  27.946  31.602  1.00  0.00    -0.354 N 
ATOM     50  N   UNL A   1      41.460  29.628  33.741  1.00  0.00    -0.248 NA
ATOM     51  C   UNL A   1      41.502  30.382  35.952  1.00  0.00     0.031 C 
ATOM     52  C   UNL A   1      44.376  26.753  32.025  1.00  0.00     0.029 A 
ATOM     53  C   UNL A   1      43.470  27.634  32.590  1.00  0.00     0.049 A 
ATOM     54  H   UNL A   1      41.781  28.550  31.717  1.00  0.00     0.167 HD
ATOM     55  C   UNL A   1      42.536  29.049  34.400  1.00  0.00     0.074 A 
ATOM     56  C   UNL A   1      42.530  29.569  35.752  1.00  0.00     0.031 C 
ATOM     57  C   UNL A   1      43.439  28.154  33.931  1.00  0.00     0.037 A 
BRANCH  44  58
ATOM     58  C   UNL A   1      42.610  26.609  28.014  1.00  0.00     0.057 A 
ATOM     59  C   UNL A   1      43.540  27.134  27.110  1.00  0.00     0.134 A 
ATOM     60  C   UNL A   1      42.153  25.303  27.791  1.00  0.00     0.134 A 
ATOM     61  F   UNL A   1      44.001  28.385  27.258  1.00  0.00    -0.206 F 
ATOM     62  C   UNL A   1      43.990  26.389  26.017  1.00  0.00     0.040 A 
ATOM     63  C   UNL A   1      42.609  24.544  26.713  1.00  0.00     0.040 A 
ATOM     64  F   UNL A   1      41.261  24.743  28.623  1.00  0.00    -0.206 F 
ATOM     65  C   UNL A   1      43.529  25.089  25.820  1.00  0.00     0.006 A 
ENDBRANCH  44  58
BRANCH  45  66
ATOM     66  C   UNL A   1      39.133  32.053  35.604  1.00  0.00     0.057 A 
ATOM     67  C   UNL A   1      38.251  31.525  36.552  1.00  0.00     0.134 A 
ATOM     68  C   UNL A   1      39.527  33.388  35.760  1.00  0.00     0.134 A 
ATOM     69  F   UNL A   1      37.816  30.261  36.440  1.00  0.00    -0.206 F 
ATOM     70  C   UNL A   1      37.776  32.294  37.616  1.00  0.00     0.040 A 
ATOM     71  C   UNL A   1      39.079  34.161  36.831  1.00  0.00     0.040 A 
ATOM     72  F   UNL A   1      40.368  33.953  34.882  1.00  0.00    -0.206 F 
ATOM     73  C   UNL A   1      38.197  33.615  37.761  1.00  0.00     0.006 A 
ENDBRANCH  45  66
BRANCH  57  74
ATOM     74  C   UNL A   1      44.486  27.680  34.894  1.00  0.00     0.057 A 
ATOM     75  C   UNL A   1      44.293  26.533  35.673  1.00  0.00     0.134 A 
ATOM     76  C   UNL A   1      45.702  28.360  35.024  1.00  0.00     0.134 A 
ATOM     77  F   UNL A   1      43.141  25.849  35.602  1.00  0.00    -0.206 F 
ATOM     78  C   UNL A   1      45.270  26.085  36.562  1.00  0.00     0.040 A 
ATOM     79  C   UNL A   1      46.694  27.911  35.897  1.00  0.00     0.040 A 
ATOM     80  F   UNL A   1      45.947  29.462  34.302  1.00  0.00    -0.206 F 
ATOM     81  C   UNL A   1      46.478  26.773  36.671  1.00  0.00     0.006 A 
ENDBRANCH  57  74
ENDBRANCH  31  32
ENDBRANCH  24  26
ENDBRANCH  23  24
ENDBRANCH  22  23
ENDBRANCH   1  22
TORSDOF 17
ENDMDL
MODEL 3
REMARK VINA RESULT:      -9.7      2.893      6.904
REMARK SMILES C=CC[NH+](CC=C)[C@@H](C(=O)OCCOC(=O)c1ccc(-c2c3nc(c(-c4c(F)cccc4F)c4ccc([nH]4)c(-c4c(F)cccc4F)c4nc(c(-c5c(F)cccc5F)c5ccc2[nH]5)C=C4)C=C3)cc1)c1ccc(F)c(C)c1
REMARK SMILES IDX 12 1 11 2 9 3 10 4 8 5 4 6 3 8 2 9 1 10 5 11 6 12 7 13 71 14
REMARK SMILES IDX 72 15 78 16 73 17 76 18 74 19 77 20 75 21 13 22 14 23 15 24
REMARK SMILES IDX 16 25 17 26 18 27 70 28 19 29 69 30 20 31 21 32 22 33 63 34
REMARK SMILES IDX 23 35 68 36 62 37 64 38 24 39 67 40 61 41 60 42 25 44 51 45
REMARK SMILES IDX 34 46 50 47 35 48 38 49 49 50 65 51 36 52 37 53 48 55 66 56
REMARK SMILES IDX 39 57 26 58 27 59 32 60 28 61 29 62 31 63 33 64 30 65 52 66
REMARK SMILES IDX 53 67 58 68 54 69 55 70 57 71 59 72 56 73 40 74 41 75 46 76
REMARK SMILES IDX 42 77 43 78 45 79 47 80 44 81
REMARK H PARENT 4 7 64 43 38 54
REMARK Flexibility Score: inf
ROOT
ATOM      1  C   UNL A   1      33.101  29.407  26.205  1.00  0.00     0.274 C 
ENDROOT
BRANCH   1   2
ATOM      2  O   UNL A   1      33.182  28.086  26.782  1.00  0.00    -0.457 OA
BRANCH   2   3
ATOM      3  C   UNL A   1      32.169  27.221  26.516  1.00  0.00     0.370 C 
ATOM      4  O   UNL A   1      31.155  27.163  27.209  1.00  0.00    -0.245 OA
BRANCH   3   5
ATOM      5  C   UNL A   1      32.413  26.285  25.293  1.00  0.00     0.326 C 
BRANCH   5   6
ATOM      6  N   UNL A   1      31.203  25.923  24.484  1.00  0.00    -0.313 N 
ATOM      7  H   UNL A   1      30.514  26.521  24.939  1.00  0.00     0.349 HD
BRANCH   6   8
ATOM      8  C   UNL A   1      31.066  26.421  23.113  1.00  0.00     0.291 C 
BRANCH   8   9
ATOM      9  C   UNL A   1      32.351  26.892  22.496  1.00  0.00     0.025 C 
ATOM     10  C   UNL A   1      33.059  26.204  21.591  1.00  0.00     0.010 C 
ENDBRANCH   8   9
ENDBRANCH   6   8
BRANCH   6  11
ATOM     11  C   UNL A   1      30.776  24.529  24.656  1.00  0.00     0.291 C 
BRANCH  11  12
ATOM     12  C   UNL A   1      30.876  23.640  23.448  1.00  0.00     0.025 C 
ATOM     13  C   UNL A   1      31.976  22.980  23.060  1.00  0.00     0.010 C 
ENDBRANCH  11  12
ENDBRANCH   6  11
ENDBRANCH   5   6
BRANCH   5  14
ATOM     14  C   UNL A   1      33.402  25.114  25.531  1.00  0.00     0.021 A 
ATOM     15  C   UNL A   1      34.656  25.098  24.889  1.00  0.00     0.013 A 
ATOM     16  C   UNL A   1      33.178  24.106  26.494  1.00  0.00     0.017 A 
ATOM     17  C   UNL A   1      35.573  24.061  25.085  1.00  0.00     0.040 A 
ATOM     18  C   UNL A   1      34.116  23.085  26.743  1.00  0.00    -0.015 A 
ATOM     19  C   UNL A   1      35.291  23.058  25.997  1.00  0.00     0.126 A 
ATOM     20  C   UNL A   1      33.832  22.022  27.761  1.00  0.00     0.047 C 
ATOM     21  F   UNL A   1      36.180  22.070  26.171  1.00  0.00    -0.207 F 
ENDBRANCH   5  14
ENDBRANCH   3   5
ENDBRANCH   2   3
ENDBRANCH   1   2
BRANCH   1  22
ATOM     22  C   UNL A   1      33.676  30.403  27.202  1.00  0.00     0.275 C 
BRANCH  22  23
ATOM     23  O   UNL A   1      34.615  29.694  28.026  1.00  0.00    -0.458 OA
BRANCH  23  24
ATOM     24  C   UNL A   1      35.444  30.456  28.769  1.00  0.00     0.338 C 
ATOM     25  O   UNL A   1      35.162  31.446  29.427  1.00  0.00    -0.246 OA
BRANCH  24  26
ATOM     26  C   UNL A   1      36.800  29.887  28.698  1.00  0.00     0.060 A 
ATOM     27  C   UNL A   1      37.391  29.350  29.845  1.00  0.00     0.016 A 
ATOM     28  C   UNL A   1      37.527  29.984  27.512  1.00  0.00     0.016 A 
ATOM     29  C   UNL A   1      38.719  28.935  29.814  1.00  0.00     0.010 A 
ATOM     30  C   UNL A   1      38.840  29.507  27.464  1.00  0.00     0.010 A 
ATOM     31  C   UNL A   1      39.451  28.988  28.619  1.00  0.00    -0.014 A 
BRANCH  31  32
ATOM     32  C   UNL A   1      40.858  28.521  28.582  1.00  0.00     0.031 A 
ATOM     33  C   UNL A   1      41.976  29.463  28.922  1.00  0.00     0.074 A 
ATOM     34  C   UNL A   1      41.138  27.245  28.254  1.00  0.00     0.049 A 
ATOM     35  N   UNL A   1      43.265  29.307  28.765  1.00  0.00    -0.248 NA
ATOM     36  C   UNL A   1      41.591  30.756  29.509  1.00  0.00     0.031 C 
ATOM     37  C   UNL A   1      40.147  26.206  27.971  1.00  0.00     0.029 A 
ATOM     38  N   UNL A   1      42.343  26.602  28.116  1.00  0.00    -0.354 N 
ATOM     39  C   UNL A   1      43.843  30.497  29.186  1.00  0.00     0.074 A 
ATOM     40  C   UNL A   1      42.766  31.361  29.620  1.00  0.00     0.031 C 
ATOM     41  C   UNL A   1      40.782  25.046  27.737  1.00  0.00     0.029 A 
ATOM     42  C   UNL A   1      42.222  25.278  27.770  1.00  0.00     0.049 A 
ATOM     43  H   UNL A   1      43.210  27.047  28.250  1.00  0.00     0.167 HD
ATOM     44  C   UNL A   1      45.154  30.839  29.192  1.00  0.00     0.037 A 
ATOM     45  C   UNL A   1      43.164  24.363  27.477  1.00  0.00     0.037 A 
ATOM     46  C   UNL A   1      46.225  29.964  28.791  1.00  0.00     0.049 A 
ATOM     47  C   UNL A   1      44.608  24.779  27.451  1.00  0.00     0.074 A 
ATOM     48  C   UNL A   1      47.582  30.230  28.729  1.00  0.00     0.029 A 
ATOM     49  N   UNL A   1      46.059  28.644  28.401  1.00  0.00    -0.354 N 
ATOM     50  N   UNL A   1      45.139  25.938  27.751  1.00  0.00    -0.248 NA
ATOM     51  C   UNL A   1      45.579  23.768  27.008  1.00  0.00     0.031 C 
ATOM     52  C   UNL A   1      48.234  29.078  28.276  1.00  0.00     0.029 A 
ATOM     53  C   UNL A   1      47.286  28.086  28.086  1.00  0.00     0.049 A 
ATOM     54  H   UNL A   1      45.195  28.173  28.354  1.00  0.00     0.167 HD
ATOM     55  C   UNL A   1      46.502  25.802  27.525  1.00  0.00     0.074 A 
ATOM     56  C   UNL A   1      46.720  24.436  27.094  1.00  0.00     0.031 C 
ATOM     57  C   UNL A   1      47.481  26.729  27.649  1.00  0.00     0.037 A 
BRANCH  44  58
ATOM     58  C   UNL A   1      45.497  32.240  29.597  1.00  0.00     0.057 A 
ATOM     59  C   UNL A   1      45.509  33.297  28.680  1.00  0.00     0.134 A 
ATOM     60  C   UNL A   1      45.792  32.535  30.934  1.00  0.00     0.134 A 
ATOM     61  F   UNL A   1      45.253  33.075  27.382  1.00  0.00    -0.206 F 
ATOM     62  C   UNL A   1      45.816  34.600  29.079  1.00  0.00     0.040 A 
ATOM     63  C   UNL A   1      46.083  33.836  31.347  1.00  0.00     0.040 A 
ATOM     64  F   UNL A   1      45.796  31.565  31.860  1.00  0.00    -0.206 F 
ATOM     65  C   UNL A   1      46.098  34.873  30.417  1.00  0.00     0.006 A 
ENDBRANCH  44  58
BRANCH  45  66
ATOM     66  C   UNL A   1      42.772  22.973  27.138  1.00  0.00     0.057 A 
ATOM     67  C   UNL A   1      42.614  22.577  25.806  1.00  0.00     0.134 A 
ATOM     68  C   UNL A   1      42.545  22.011  28.130  1.00  0.00     0.134 A 
ATOM     69  F   UNL A   1      42.790  23.461  24.813  1.00  0.00    -0.206 F 
ATOM     70  C   UNL A   1      42.242  21.274  25.471  1.00  0.00     0.040 A 
ATOM     71  C   UNL A   1      42.196  20.700  27.809  1.00  0.00     0.040 A 
ATOM     72  F   UNL A   1      42.678  22.330  29.426  1.00  0.00    -0.206 F 
ATOM     73  C   UNL A   1      42.039  20.328  26.476  1.00  0.00     0.006 A 
ENDBRANCH  45  66
BRANCH  57  74
ATOM     74  C   UNL A   1      48.873  26.294  27.304  1.00  0.00     0.057 A 
ATOM     75  C   UNL A   1      49.706  25.696  28.258  1.00  0.00     0.134 A 
ATOM     76  C   UNL A   1      49.375  26.450  26.007  1.00  0.00     0.134 A 
ATOM     77  F   UNL A   1      49.286  25.534  29.522  1.00  0.00    -0.206 F 
ATOM     78  C   UNL A   1      50.999  25.281  27.937  1.00  0.00     0.040 A 
ATOM     79  C   UNL A   1      50.659  26.022  25.669  1.00  0.00     0.040 A 
ATOM     80  F   UNL A   1      48.623  27.012  25.049  1.00  0.00    -0.206 F 
ATOM     81  C   UNL A   1      51.476  25.440  26.637  1.00  0.00     0.006 A 
ENDBRANCH  57  74
ENDBRANCH  31  32
ENDBRANCH  24  26
ENDBRANCH  23  24
ENDBRANCH  22  23
ENDBRANCH   1  22
TORSDOF 17
ENDMDL
