MODEL 1
REMARK VINA RESULT:     -12.9      0.000      0.000
REMARK SMILES O=C(OCCOC(=O)[C@H]1CCN(c2ccc(F)cc2)[C@@H]1c1ccc(C(F)(F)F)cc1)c1ccc(-c2c3nc(c(-c4c(F)cccc4F)c4ccc([nH]4)c(-c4c(F)cccc4F)c4nc(c(-c5c(F)cccc5F)c5ccc2[nH]5)C=C4)C=C3)cc1
REMARK SMILES IDX 4 1 3 2 2 3 1 4 31 5 32 6 84 7 33 8 83 9 34 10 35 11 36 12
REMARK SMILES IDX 77 13 37 14 82 15 76 16 78 17 38 18 81 19 75 20 74 21 39 23
REMARK SMILES IDX 65 24 48 25 64 26 49 27 52 28 63 29 79 30 50 31 51 32 62 34
REMARK SMILES IDX 80 35 53 36 40 37 41 38 46 39 42 40 43 41 45 42 47 43 44 44
REMARK SMILES IDX 66 45 67 46 72 47 68 48 69 49 71 50 73 51 70 52 54 53 55 54
REMARK SMILES IDX 60 55 56 56 57 57 59 58 61 59 58 60 5 61 6 62 7 63 8 64 9 65
REMARK SMILES IDX 10 66 20 67 11 68 12 69 21 70 22 71 30 72 23 73 29 74 24 75
REMARK SMILES IDX 25 76 26 77 27 78 28 79 13 80 14 81 19 82 15 83 18 84 16 85
REMARK SMILES IDX 17 86
REMARK H PARENT 78 22 52 33
REMARK Flexibility Score: inf
ROOT
ATOM      1  C   UNL A   1      31.394  32.193  26.877  1.00  0.00     0.275 C 
ENDROOT
BRANCH   1   2
ATOM      2  O   UNL A   1      32.325  33.283  26.891  1.00  0.00    -0.458 OA
BRANCH   2   3
ATOM      3  C   UNL A   1      33.035  33.768  27.931  1.00  0.00     0.338 C 
ATOM      4  O   UNL A   1      32.682  34.823  28.462  1.00  0.00    -0.246 OA
BRANCH   3   5
ATOM      5  C   UNL A   1      34.338  33.175  28.352  1.00  0.00     0.060 A 
ATOM      6  C   UNL A   1      35.617  33.685  28.104  1.00  0.00     0.016 A 
ATOM      7  C   UNL A   1      34.238  31.994  29.086  1.00  0.00     0.016 A 
ATOM      8  C   UNL A   1      36.759  33.101  28.686  1.00  0.00     0.010 A 
ATOM      9  C   UNL A   1      35.369  31.430  29.676  1.00  0.00     0.010 A 
ATOM     10  C   UNL A   1      36.645  31.981  29.508  1.00  0.00    -0.014 A 
BRANCH  10  11
ATOM     11  C   UNL A   1      37.813  31.282  30.121  1.00  0.00     0.031 A 
ATOM     12  C   UNL A   1      38.237  31.700  31.512  1.00  0.00     0.074 A 
ATOM     13  C   UNL A   1      38.540  30.367  29.441  1.00  0.00     0.049 A 
ATOM     14  N   UNL A   1      39.301  31.364  32.195  1.00  0.00    -0.248 NA
ATOM     15  C   UNL A   1      37.360  32.659  32.214  1.00  0.00     0.031 C 
ATOM     16  C   UNL A   1      38.274  29.893  28.079  1.00  0.00     0.029 A 
ATOM     17  N   UNL A   1      39.696  29.702  29.787  1.00  0.00    -0.354 N 
ATOM     18  C   UNL A   1      39.186  32.041  33.403  1.00  0.00     0.074 A 
ATOM     19  C   UNL A   1      38.073  32.950  33.288  1.00  0.00     0.031 C 
ATOM     20  C   UNL A   1      39.259  29.059  27.694  1.00  0.00     0.029 A 
ATOM     21  C   UNL A   1      40.225  28.926  28.776  1.00  0.00     0.049 A 
ATOM     22  H   UNL A   1      40.109  29.775  30.678  1.00  0.00     0.167 HD
ATOM     23  C   UNL A   1      39.851  31.826  34.561  1.00  0.00     0.037 A 
ATOM     24  C   UNL A   1      41.370  28.212  28.733  1.00  0.00     0.037 A 
ATOM     25  C   UNL A   1      40.896  30.857  34.703  1.00  0.00     0.049 A 
ATOM     26  C   UNL A   1      42.196  28.108  29.986  1.00  0.00     0.074 A 
ATOM     27  C   UNL A   1      41.539  30.442  35.853  1.00  0.00     0.029 A 
ATOM     28  N   UNL A   1      41.438  30.141  33.649  1.00  0.00    -0.354 N 
ATOM     29  N   UNL A   1      42.036  28.715  31.135  1.00  0.00    -0.248 NA
ATOM     30  C   UNL A   1      43.321  27.160  29.953  1.00  0.00     0.031 C 
ATOM     31  C   UNL A   1      42.491  29.483  35.491  1.00  0.00     0.029 A 
ATOM     32  C   UNL A   1      42.414  29.285  34.121  1.00  0.00     0.049 A 
ATOM     33  H   UNL A   1      41.168  30.228  32.706  1.00  0.00     0.167 HD
ATOM     34  C   UNL A   1      42.993  28.174  31.980  1.00  0.00     0.074 A 
ATOM     35  C   UNL A   1      43.769  27.236  31.196  1.00  0.00     0.031 C 
ATOM     36  C   UNL A   1      43.180  28.385  33.304  1.00  0.00     0.037 A 
BRANCH  23  37
ATOM     37  C   UNL A   1      39.357  32.545  35.783  1.00  0.00     0.057 A 
ATOM     38  C   UNL A   1      39.854  33.799  36.149  1.00  0.00     0.134 A 
ATOM     39  C   UNL A   1      38.400  31.955  36.625  1.00  0.00     0.134 A 
ATOM     40  F   UNL A   1      40.778  34.414  35.399  1.00  0.00    -0.206 F 
ATOM     41  C   UNL A   1      39.411  34.443  37.309  1.00  0.00     0.040 A 
ATOM     42  C   UNL A   1      37.930  32.601  37.767  1.00  0.00     0.040 A 
ATOM     43  F   UNL A   1      37.877  30.755  36.326  1.00  0.00    -0.206 F 
ATOM     44  C   UNL A   1      38.443  33.847  38.116  1.00  0.00     0.006 A 
ENDBRANCH  23  37
BRANCH  24  45
ATOM     45  C   UNL A   1      41.817  27.478  27.516  1.00  0.00     0.057 A 
ATOM     46  C   UNL A   1      41.449  26.140  27.317  1.00  0.00     0.134 A 
ATOM     47  C   UNL A   1      42.497  28.112  26.473  1.00  0.00     0.134 A 
ATOM     48  F   UNL A   1      40.741  25.494  28.256  1.00  0.00    -0.206 F 
ATOM     49  C   UNL A   1      41.758  25.454  26.138  1.00  0.00     0.040 A 
ATOM     50  C   UNL A   1      42.821  27.438  25.291  1.00  0.00     0.040 A 
ATOM     51  F   UNL A   1      42.828  29.408  26.572  1.00  0.00    -0.206 F 
ATOM     52  C   UNL A   1      42.454  26.103  25.122  1.00  0.00     0.006 A 
ENDBRANCH  24  45
BRANCH  36  53
ATOM     53  C   UNL A   1      44.209  27.542  33.983  1.00  0.00     0.057 A 
ATOM     54  C   UNL A   1      43.845  26.316  34.555  1.00  0.00     0.134 A 
ATOM     55  C   UNL A   1      45.542  27.948  34.095  1.00  0.00     0.134 A 
ATOM     56  F   UNL A   1      42.581  25.875  34.475  1.00  0.00    -0.206 F 
ATOM     57  C   UNL A   1      44.772  25.529  35.233  1.00  0.00     0.040 A 
ATOM     58  C   UNL A   1      46.485  27.156  34.746  1.00  0.00     0.040 A 
ATOM     59  F   UNL A   1      45.950  29.101  33.541  1.00  0.00    -0.206 F 
ATOM     60  C   UNL A   1      46.098  25.948  35.326  1.00  0.00     0.006 A 
ENDBRANCH  36  53
ENDBRANCH  10  11
ENDBRANCH   3   5
ENDBRANCH   2   3
ENDBRANCH   1   2
BRANCH   1  61
ATOM     61  C   UNL A   1      31.940  30.836  26.412  1.00  0.00     0.274 C 
BRANCH  61  62
ATOM     62  O   UNL A   1      32.163  29.851  27.444  1.00  0.00    -0.462 OA
BRANCH  62  63
ATOM     63  C   UNL A   1      31.891  28.576  27.070  1.00  0.00     0.311 C 
ATOM     64  O   UNL A   1      31.320  27.769  27.801  1.00  0.00    -0.252 OA
BRANCH  63  65
ATOM     65  C   UNL A   1      32.403  28.161  25.705  1.00  0.00     0.128 C 
ATOM     66  C   UNL A   1      33.703  27.383  25.882  1.00  0.00     0.039 C 
ATOM     67  C   UNL A   1      31.548  27.255  24.772  1.00  0.00     0.127 C 
ATOM     68  C   UNL A   1      33.930  26.807  24.501  1.00  0.00     0.118 C 
ATOM     69  N   UNL A   1      32.593  26.407  24.069  1.00  0.00    -0.364 N 
BRANCH  67  70
ATOM     70  C   UNL A   1      30.679  28.026  23.772  1.00  0.00    -0.025 A 
ATOM     71  C   UNL A   1      31.262  28.975  22.922  1.00  0.00     0.006 A 
ATOM     72  C   UNL A   1      29.298  27.836  23.629  1.00  0.00     0.006 A 
ATOM     73  C   UNL A   1      30.500  29.882  22.182  1.00  0.00     0.013 A 
ATOM     74  C   UNL A   1      28.526  28.700  22.847  1.00  0.00     0.013 A 
ATOM     75  C   UNL A   1      29.112  29.780  22.182  1.00  0.00     0.056 A 
BRANCH  75  76
ATOM     76  C   UNL A   1      28.250  30.765  21.448  1.00  0.00     0.416 C 
ATOM     77  F   UNL A   1      28.927  31.843  20.971  1.00  0.00    -0.166 F 
ATOM     78  F   UNL A   1      27.626  30.194  20.382  1.00  0.00    -0.166 F 
ATOM     79  F   UNL A   1      27.254  31.274  22.225  1.00  0.00    -0.166 F 
ENDBRANCH  75  76
ENDBRANCH  67  70
BRANCH  69  80
ATOM     80  C   UNL A   1      32.435  25.085  23.669  1.00  0.00     0.037 A 
ATOM     81  C   UNL A   1      33.492  24.310  23.156  1.00  0.00     0.029 A 
ATOM     82  C   UNL A   1      31.177  24.464  23.694  1.00  0.00     0.029 A 
ATOM     83  C   UNL A   1      33.318  22.965  22.791  1.00  0.00     0.041 A 
ATOM     84  C   UNL A   1      30.996  23.111  23.377  1.00  0.00     0.041 A 
ATOM     85  C   UNL A   1      32.075  22.369  22.934  1.00  0.00     0.123 A 
ATOM     86  F   UNL A   1      31.915  21.076  22.624  1.00  0.00    -0.207 F 
ENDBRANCH  69  80
ENDBRANCH  63  65
ENDBRANCH  62  63
ENDBRANCH  61  62
ENDBRANCH   1  61
TORSDOF 14
ENDMDL
MODEL 2
REMARK VINA RESULT:     -12.6      0.700      6.086
REMARK SMILES O=C(OCCOC(=O)[C@H]1CCN(c2ccc(F)cc2)[C@@H]1c1ccc(C(F)(F)F)cc1)c1ccc(-c2c3nc(c(-c4c(F)cccc4F)c4ccc([nH]4)c(-c4c(F)cccc4F)c4nc(c(-c5c(F)cccc5F)c5ccc2[nH]5)C=C4)C=C3)cc1
REMARK SMILES IDX 4 1 3 2 2 3 1 4 31 5 32 6 84 7 33 8 83 9 34 10 35 11 36 12
REMARK SMILES IDX 77 13 37 14 82 15 76 16 78 17 38 18 81 19 75 20 74 21 39 23
REMARK SMILES IDX 65 24 48 25 64 26 49 27 52 28 63 29 79 30 50 31 51 32 62 34
REMARK SMILES IDX 80 35 53 36 40 37 41 38 46 39 42 40 43 41 45 42 47 43 44 44
REMARK SMILES IDX 66 45 67 46 72 47 68 48 69 49 71 50 73 51 70 52 54 53 55 54
REMARK SMILES IDX 60 55 56 56 57 57 59 58 61 59 58 60 5 61 6 62 7 63 8 64 9 65
REMARK SMILES IDX 10 66 20 67 11 68 12 69 21 70 22 71 30 72 23 73 29 74 24 75
REMARK SMILES IDX 25 76 26 77 27 78 28 79 13 80 14 81 19 82 15 83 18 84 16 85
REMARK SMILES IDX 17 86
REMARK H PARENT 78 22 52 33
REMARK Flexibility Score: inf
ROOT
ATOM      1  C   UNL A   1      31.413  32.162  26.779  1.00  0.00     0.275 C 
ENDROOT
BRANCH   1   2
ATOM      2  O   UNL A   1      32.315  33.276  26.808  1.00  0.00    -0.458 OA
BRANCH   2   3
ATOM      3  C   UNL A   1      32.920  33.837  27.876  1.00  0.00     0.338 C 
ATOM      4  O   UNL A   1      32.475  34.891  28.335  1.00  0.00    -0.246 OA
BRANCH   3   5
ATOM      5  C   UNL A   1      34.217  33.332  28.414  1.00  0.00     0.060 A 
ATOM      6  C   UNL A   1      35.502  33.743  28.044  1.00  0.00     0.016 A 
ATOM      7  C   UNL A   1      34.105  32.357  29.404  1.00  0.00     0.016 A 
ATOM      8  C   UNL A   1      36.640  33.288  28.737  1.00  0.00     0.010 A 
ATOM      9  C   UNL A   1      35.233  31.923  30.100  1.00  0.00     0.010 A 
ATOM     10  C   UNL A   1      36.516  32.394  29.798  1.00  0.00    -0.014 A 
BRANCH  10  11
ATOM     11  C   UNL A   1      37.678  31.832  30.548  1.00  0.00     0.031 A 
ATOM     12  C   UNL A   1      38.396  30.641  29.952  1.00  0.00     0.074 A 
ATOM     13  C   UNL A   1      38.040  32.296  31.766  1.00  0.00     0.049 A 
ATOM     14  N   UNL A   1      39.322  29.879  30.474  1.00  0.00    -0.248 NA
ATOM     15  C   UNL A   1      37.985  30.229  28.594  1.00  0.00     0.031 C 
ATOM     16  C   UNL A   1      37.416  33.412  32.483  1.00  0.00     0.029 A 
ATOM     17  N   UNL A   1      38.997  31.847  32.649  1.00  0.00    -0.354 N 
ATOM     18  C   UNL A   1      39.615  28.939  29.493  1.00  0.00     0.074 A 
ATOM     19  C   UNL A   1      38.645  29.095  28.437  1.00  0.00     0.031 C 
ATOM     20  C   UNL A   1      37.971  33.527  33.705  1.00  0.00     0.029 A 
ATOM     21  C   UNL A   1      38.996  32.504  33.863  1.00  0.00     0.049 A 
ATOM     22  H   UNL A   1      39.627  31.122  32.433  1.00  0.00     0.167 HD
ATOM     23  C   UNL A   1      40.683  28.114  29.402  1.00  0.00     0.037 A 
ATOM     24  C   UNL A   1      39.728  32.280  34.975  1.00  0.00     0.037 A 
ATOM     25  C   UNL A   1      41.698  28.023  30.408  1.00  0.00     0.049 A 
ATOM     26  C   UNL A   1      40.815  31.241  34.920  1.00  0.00     0.074 A 
ATOM     27  C   UNL A   1      42.899  27.342  30.365  1.00  0.00     0.029 A 
ATOM     28  N   UNL A   1      41.628  28.655  31.639  1.00  0.00    -0.354 N 
ATOM     29  N   UNL A   1      41.109  30.402  33.960  1.00  0.00    -0.248 NA
ATOM     30  C   UNL A   1      41.717  31.174  36.081  1.00  0.00     0.031 C 
ATOM     31  C   UNL A   1      43.552  27.545  31.585  1.00  0.00     0.029 A 
ATOM     32  C   UNL A   1      42.767  28.376  32.370  1.00  0.00     0.049 A 
ATOM     33  H   UNL A   1      40.881  29.217  31.947  1.00  0.00     0.167 HD
ATOM     34  C   UNL A   1      42.267  29.756  34.369  1.00  0.00     0.074 A 
ATOM     35  C   UNL A   1      42.586  30.256  35.689  1.00  0.00     0.031 C 
ATOM     36  C   UNL A   1      43.036  28.873  33.690  1.00  0.00     0.037 A 
BRANCH  23  37
ATOM     37  C   UNL A   1      40.872  27.371  28.111  1.00  0.00     0.057 A 
ATOM     38  C   UNL A   1      41.578  27.927  27.040  1.00  0.00     0.134 A 
ATOM     39  C   UNL A   1      40.306  26.099  27.924  1.00  0.00     0.134 A 
ATOM     40  F   UNL A   1      42.133  29.142  27.144  1.00  0.00    -0.206 F 
ATOM     41  C   UNL A   1      41.718  27.240  25.830  1.00  0.00     0.040 A 
ATOM     42  C   UNL A   1      40.465  25.394  26.733  1.00  0.00     0.040 A 
ATOM     43  F   UNL A   1      39.623  25.507  28.916  1.00  0.00    -0.206 F 
ATOM     44  C   UNL A   1      41.166  25.968  25.678  1.00  0.00     0.006 A 
ENDBRANCH  23  37
BRANCH  24  45
ATOM     45  C   UNL A   1      39.543  33.059  36.232  1.00  0.00     0.057 A 
ATOM     46  C   UNL A   1      40.186  34.293  36.407  1.00  0.00     0.134 A 
ATOM     47  C   UNL A   1      38.635  32.670  37.220  1.00  0.00     0.134 A 
ATOM     48  F   UNL A   1      41.023  34.749  35.464  1.00  0.00    -0.206 F 
ATOM     49  C   UNL A   1      39.950  35.100  37.524  1.00  0.00     0.040 A 
ATOM     50  C   UNL A   1      38.393  33.462  38.347  1.00  0.00     0.040 A 
ATOM     51  F   UNL A   1      37.940  31.530  37.089  1.00  0.00    -0.206 F 
ATOM     52  C   UNL A   1      39.055  34.680  38.504  1.00  0.00     0.006 A 
ENDBRANCH  24  45
BRANCH  36  53
ATOM     53  C   UNL A   1      44.314  28.454  34.340  1.00  0.00     0.057 A 
ATOM     54  C   UNL A   1      44.354  27.292  35.121  1.00  0.00     0.134 A 
ATOM     55  C   UNL A   1      45.486  29.205  34.220  1.00  0.00     0.134 A 
ATOM     56  F   UNL A   1      43.259  26.531  35.269  1.00  0.00    -0.206 F 
ATOM     57  C   UNL A   1      45.518  26.899  35.776  1.00  0.00     0.040 A 
ATOM     58  C   UNL A   1      46.665  28.807  34.848  1.00  0.00     0.040 A 
ATOM     59  F   UNL A   1      45.510  30.312  33.461  1.00  0.00    -0.206 F 
ATOM     60  C   UNL A   1      46.680  27.656  35.636  1.00  0.00     0.006 A 
ENDBRANCH  36  53
ENDBRANCH  10  11
ENDBRANCH   3   5
ENDBRANCH   2   3
ENDBRANCH   1   2
BRANCH   1  61
ATOM     61  C   UNL A   1      32.025  30.798  26.431  1.00  0.00     0.274 C 
BRANCH  61  62
ATOM     62  O   UNL A   1      32.060  29.825  27.497  1.00  0.00    -0.462 OA
BRANCH  62  63
ATOM     63  C   UNL A   1      31.830  28.548  27.099  1.00  0.00     0.311 C 
ATOM     64  O   UNL A   1      31.279  27.712  27.811  1.00  0.00    -0.252 OA
BRANCH  63  65
ATOM     65  C   UNL A   1      32.367  28.174  25.732  1.00  0.00     0.128 C 
ATOM     66  C   UNL A   1      33.679  27.417  25.908  1.00  0.00     0.039 C 
ATOM     67  C   UNL A   1      31.541  27.272  24.769  1.00  0.00     0.127 C 
ATOM     68  C   UNL A   1      33.934  26.876  24.518  1.00  0.00     0.118 C 
ATOM     69  N   UNL A   1      32.610  26.460  24.060  1.00  0.00    -0.364 N 
BRANCH  67  70
ATOM     70  C   UNL A   1      30.669  28.049  23.775  1.00  0.00    -0.025 A 
ATOM     71  C   UNL A   1      31.249  29.004  22.931  1.00  0.00     0.006 A 
ATOM     72  C   UNL A   1      29.287  27.857  23.634  1.00  0.00     0.006 A 
ATOM     73  C   UNL A   1      30.484  29.914  22.198  1.00  0.00     0.013 A 
ATOM     74  C   UNL A   1      28.513  28.725  22.858  1.00  0.00     0.013 A 
ATOM     75  C   UNL A   1      29.097  29.810  22.199  1.00  0.00     0.056 A 
BRANCH  75  76
ATOM     76  C   UNL A   1      28.232  30.798  21.473  1.00  0.00     0.416 C 
ATOM     77  F   UNL A   1      28.905  31.885  21.008  1.00  0.00    -0.166 F 
ATOM     78  F   UNL A   1      27.613  30.236  20.400  1.00  0.00    -0.166 F 
ATOM     79  F   UNL A   1      27.231  31.296  22.252  1.00  0.00    -0.166 F 
ENDBRANCH  75  76
ENDBRANCH  67  70
BRANCH  69  80
ATOM     80  C   UNL A   1      32.482  25.145  23.630  1.00  0.00     0.037 A 
ATOM     81  C   UNL A   1      33.567  24.390  23.146  1.00  0.00     0.029 A 
ATOM     82  C   UNL A   1      31.231  24.511  23.592  1.00  0.00     0.029 A 
ATOM     83  C   UNL A   1      33.422  23.050  22.749  1.00  0.00     0.041 A 
ATOM     84  C   UNL A   1      31.077  23.162  23.244  1.00  0.00     0.041 A 
ATOM     85  C   UNL A   1      32.181  22.439  22.831  1.00  0.00     0.123 A 
ATOM     86  F   UNL A   1      32.048  21.151  22.490  1.00  0.00    -0.207 F 
ENDBRANCH  69  80
ENDBRANCH  63  65
ENDBRANCH  62  63
ENDBRANCH  61  62
ENDBRANCH   1  61
TORSDOF 14
ENDMDL
MODEL 3
REMARK VINA RESULT:     -12.4      4.049      8.728
REMARK SMILES O=C(OCCOC(=O)[C@H]1CCN(c2ccc(F)cc2)[C@@H]1c1ccc(C(F)(F)F)cc1)c1ccc(-c2c3nc(c(-c4c(F)cccc4F)c4ccc([nH]4)c(-c4c(F)cccc4F)c4nc(c(-c5c(F)cccc5F)c5ccc2[nH]5)C=C4)C=C3)cc1
REMARK SMILES IDX 4 1 3 2 2 3 1 4 31 5 32 6 84 7 33 8 83 9 34 10 35 11 36 12
REMARK SMILES IDX 77 13 37 14 82 15 76 16 78 17 38 18 81 19 75 20 74 21 39 23
REMARK SMILES IDX 65 24 48 25 64 26 49 27 52 28 63 29 79 30 50 31 51 32 62 34
REMARK SMILES IDX 80 35 53 36 40 37 41 38 46 39 42 40 43 41 45 42 47 43 44 44
REMARK SMILES IDX 66 45 67 46 72 47 68 48 69 49 71 50 73 51 70 52 54 53 55 54
REMARK SMILES IDX 60 55 56 56 57 57 59 58 61 59 58 60 5 61 6 62 7 63 8 64 9 65
REMARK SMILES IDX 10 66 20 67 11 68 12 69 21 70 22 71 30 72 23 73 29 74 24 75
REMARK SMILES IDX 25 76 26 77 27 78 28 79 13 80 14 81 19 82 15 83 18 84 16 85
REMARK SMILES IDX 17 86
REMARK H PARENT 78 22 52 33
REMARK Flexibility Score: inf
ROOT
ATOM      1  C   UNL A   1      29.798  25.826  24.651  1.00  0.00     0.275 C 
ENDROOT
BRANCH   1   2
ATOM      2  O   UNL A   1      29.659  27.237  24.442  1.00  0.00    -0.458 OA
BRANCH   2   3
ATOM      3  C   UNL A   1      30.553  28.099  23.913  1.00  0.00     0.338 C 
ATOM      4  O   UNL A   1      30.505  28.351  22.707  1.00  0.00    -0.246 OA
BRANCH   3   5
ATOM      5  C   UNL A   1      31.712  28.624  24.692  1.00  0.00     0.060 A 
ATOM      6  C   UNL A   1      32.927  29.095  24.183  1.00  0.00     0.016 A 
ATOM      7  C   UNL A   1      31.530  28.651  26.074  1.00  0.00     0.016 A 
ATOM      8  C   UNL A   1      33.882  29.700  25.022  1.00  0.00     0.010 A 
ATOM      9  C   UNL A   1      32.470  29.268  26.899  1.00  0.00     0.010 A 
ATOM     10  C   UNL A   1      33.651  29.823  26.391  1.00  0.00    -0.014 A 
BRANCH  10  11
ATOM     11  C   UNL A   1      34.635  30.408  27.349  1.00  0.00     0.031 A 
ATOM     12  C   UNL A   1      35.911  29.638  27.610  1.00  0.00     0.074 A 
ATOM     13  C   UNL A   1      34.377  31.541  28.041  1.00  0.00     0.049 A 
ATOM     14  N   UNL A   1      36.843  29.848  28.504  1.00  0.00    -0.248 NA
ATOM     15  C   UNL A   1      36.150  28.445  26.773  1.00  0.00     0.031 C 
ATOM     16  C   UNL A   1      33.172  32.368  27.923  1.00  0.00     0.029 A 
ATOM     17  N   UNL A   1      35.098  32.170  29.032  1.00  0.00    -0.354 N 
ATOM     18  C   UNL A   1      37.776  28.839  28.299  1.00  0.00     0.074 A 
ATOM     19  C   UNL A   1      37.215  27.913  27.348  1.00  0.00     0.031 C 
ATOM     20  C   UNL A   1      33.218  33.359  28.834  1.00  0.00     0.029 A 
ATOM     21  C   UNL A   1      34.453  33.250  29.599  1.00  0.00     0.049 A 
ATOM     22  H   UNL A   1      35.994  31.874  29.312  1.00  0.00     0.167 HD
ATOM     23  C   UNL A   1      39.051  28.761  28.747  1.00  0.00     0.037 A 
ATOM     24  C   UNL A   1      34.818  34.040  30.632  1.00  0.00     0.037 A 
ATOM     25  C   UNL A   1      39.642  29.731  29.620  1.00  0.00     0.049 A 
ATOM     26  C   UNL A   1      36.181  33.842  31.238  1.00  0.00     0.074 A 
ATOM     27  C   UNL A   1      40.959  29.844  30.020  1.00  0.00     0.029 A 
ATOM     28  N   UNL A   1      38.942  30.768  30.213  1.00  0.00    -0.354 N 
ATOM     29  N   UNL A   1      37.070  32.914  30.989  1.00  0.00    -0.248 NA
ATOM     30  C   UNL A   1      36.616  34.850  32.217  1.00  0.00     0.031 C 
ATOM     31  C   UNL A   1      41.054  30.944  30.878  1.00  0.00     0.029 A 
ATOM     32  C   UNL A   1      39.801  31.527  30.983  1.00  0.00     0.049 A 
ATOM     33  H   UNL A   1      37.979  30.939  30.103  1.00  0.00     0.167 HD
ATOM     34  C   UNL A   1      38.192  33.262  31.726  1.00  0.00     0.074 A 
ATOM     35  C   UNL A   1      37.850  34.451  32.478  1.00  0.00     0.031 C 
ATOM     36  C   UNL A   1      39.417  32.689  31.737  1.00  0.00     0.037 A 
BRANCH  23  37
ATOM     37  C   UNL A   1      39.916  27.677  28.175  1.00  0.00     0.057 A 
ATOM     38  C   UNL A   1      40.641  27.860  26.994  1.00  0.00     0.134 A 
ATOM     39  C   UNL A   1      39.994  26.418  28.793  1.00  0.00     0.134 A 
ATOM     40  F   UNL A   1      40.603  29.032  26.344  1.00  0.00    -0.206 F 
ATOM     41  C   UNL A   1      41.417  26.831  26.452  1.00  0.00     0.040 A 
ATOM     42  C   UNL A   1      40.786  25.394  28.278  1.00  0.00     0.040 A 
ATOM     43  F   UNL A   1      39.327  26.178  29.934  1.00  0.00    -0.206 F 
ATOM     44  C   UNL A   1      41.495  25.598  27.097  1.00  0.00     0.006 A 
ENDBRANCH  23  37
BRANCH  24  45
ATOM     45  C   UNL A   1      33.953  35.133  31.155  1.00  0.00     0.057 A 
ATOM     46  C   UNL A   1      33.405  35.053  32.444  1.00  0.00     0.134 A 
ATOM     47  C   UNL A   1      33.757  36.327  30.455  1.00  0.00     0.134 A 
ATOM     48  F   UNL A   1      33.609  33.957  33.189  1.00  0.00    -0.206 F 
ATOM     49  C   UNL A   1      32.679  36.107  33.007  1.00  0.00     0.040 A 
ATOM     50  C   UNL A   1      33.027  37.388  31.002  1.00  0.00     0.040 A 
ATOM     51  F   UNL A   1      34.302  36.495  29.242  1.00  0.00    -0.206 F 
ATOM     52  C   UNL A   1      32.481  37.278  32.280  1.00  0.00     0.006 A 
ENDBRANCH  24  45
BRANCH  36  53
ATOM     53  C   UNL A   1      40.478  33.380  32.530  1.00  0.00     0.057 A 
ATOM     54  C   UNL A   1      40.660  33.062  33.882  1.00  0.00     0.134 A 
ATOM     55  C   UNL A   1      41.292  34.370  31.972  1.00  0.00     0.134 A 
ATOM     56  F   UNL A   1      39.908  32.119  34.468  1.00  0.00    -0.206 F 
ATOM     57  C   UNL A   1      41.609  33.721  34.659  1.00  0.00     0.040 A 
ATOM     58  C   UNL A   1      42.265  35.015  32.734  1.00  0.00     0.040 A 
ATOM     59  F   UNL A   1      41.178  34.693  30.675  1.00  0.00    -0.206 F 
ATOM     60  C   UNL A   1      42.418  34.698  34.083  1.00  0.00     0.006 A 
ENDBRANCH  36  53
ENDBRANCH  10  11
ENDBRANCH   3   5
ENDBRANCH   2   3
ENDBRANCH   1   2
BRANCH   1  61
ATOM     61  C   UNL A   1      29.793  25.348  26.109  1.00  0.00     0.274 C 
BRANCH  61  62
ATOM     62  O   UNL A   1      31.071  25.343  26.782  1.00  0.00    -0.462 OA
BRANCH  62  63
ATOM     63  C   UNL A   1      31.696  24.138  26.787  1.00  0.00     0.311 C 
ATOM     64  O   UNL A   1      31.519  23.294  27.664  1.00  0.00    -0.252 OA
BRANCH  63  65
ATOM     65  C   UNL A   1      32.703  23.908  25.678  1.00  0.00     0.128 C 
ATOM     66  C   UNL A   1      33.542  25.169  25.505  1.00  0.00     0.039 C 
ATOM     67  C   UNL A   1      33.757  22.768  25.780  1.00  0.00     0.127 C 
ATOM     68  C   UNL A   1      34.655  24.700  24.593  1.00  0.00     0.118 C 
ATOM     69  N   UNL A   1      34.974  23.365  25.096  1.00  0.00    -0.364 N 
BRANCH  67  70
ATOM     70  C   UNL A   1      33.326  21.453  25.121  1.00  0.00    -0.025 A 
ATOM     71  C   UNL A   1      33.564  20.233  25.767  1.00  0.00     0.006 A 
ATOM     72  C   UNL A   1      32.674  21.378  23.882  1.00  0.00     0.006 A 
ATOM     73  C   UNL A   1      33.432  19.005  25.115  1.00  0.00     0.013 A 
ATOM     74  C   UNL A   1      32.482  20.152  23.239  1.00  0.00     0.013 A 
ATOM     75  C   UNL A   1      32.934  18.962  23.816  1.00  0.00     0.056 A 
BRANCH  75  76
ATOM     76  C   UNL A   1      32.827  17.673  23.056  1.00  0.00     0.416 C 
ATOM     77  F   UNL A   1      33.973  17.309  22.422  1.00  0.00    -0.166 F 
ATOM     78  F   UNL A   1      32.483  16.636  23.865  1.00  0.00    -0.166 F 
ATOM     79  F   UNL A   1      31.871  17.711  22.085  1.00  0.00    -0.166 F 
ENDBRANCH  75  76
ENDBRANCH  67  70
BRANCH  69  80
ATOM     80  C   UNL A   1      36.299  23.126  25.437  1.00  0.00     0.037 A 
ATOM     81  C   UNL A   1      37.101  24.074  26.101  1.00  0.00     0.029 A 
ATOM     82  C   UNL A   1      36.941  21.932  25.071  1.00  0.00     0.029 A 
ATOM     83  C   UNL A   1      38.429  23.798  26.468  1.00  0.00     0.041 A 
ATOM     84  C   UNL A   1      38.248  21.624  25.469  1.00  0.00     0.041 A 
ATOM     85  C   UNL A   1      38.980  22.561  26.174  1.00  0.00     0.123 A 
ATOM     86  F   UNL A   1      40.233  22.282  26.557  1.00  0.00    -0.207 F 
ENDBRANCH  69  80
ENDBRANCH  63  65
ENDBRANCH  62  63
ENDBRANCH  61  62
ENDBRANCH   1  61
TORSDOF 14
ENDMDL
