MODEL 1
REMARK VINA RESULT:     -12.7      0.000      0.000
REMARK SMILES O=C(OCCOC(=O)[C@@H]1CCCN1S(=O)(=O)c1ccc2[nH]c(=O)c(=O)[nH]c2c1)c1ccc(-c2c3nc(c(-c4c(F)cccc4F)c4ccc([nH]4)c(-c4c(F)cccc4F)c4nc(c(-c5c(F)cccc5F)c5ccc2[nH]5)C=C4)C=C3)cc1
REMARK SMILES IDX 4 1 3 2 2 3 1 4 29 5 30 6 82 7 31 8 81 9 32 10 33 11 34 12
REMARK SMILES IDX 75 13 35 14 80 15 74 16 76 17 36 18 79 19 73 20 72 21 37 23
REMARK SMILES IDX 63 24 46 25 62 26 47 27 50 28 61 29 77 30 48 31 49 32 60 34
REMARK SMILES IDX 78 35 51 36 38 37 39 38 44 39 40 40 41 41 43 42 45 43 42 44
REMARK SMILES IDX 64 45 65 46 70 47 66 48 67 49 69 50 71 51 68 52 52 53 53 54
REMARK SMILES IDX 58 55 54 56 55 57 57 58 59 59 56 60 5 61 6 62 7 63 8 64 9 65
REMARK SMILES IDX 10 66 13 67 11 68 12 69 14 70 15 71 16 72 17 73 18 74 28 75
REMARK SMILES IDX 19 76 27 77 20 78 26 79 21 80 24 81 22 83 25 85 23 86
REMARK H PARENT 76 22 50 33 26 82 21 84
REMARK Flexibility Score: inf
ROOT
ATOM      1  C   UNL A   1      47.095  23.406  39.485  1.00  0.00     0.275 C 
ENDROOT
BRANCH   1   2
ATOM      2  O   UNL A   1      46.413  24.244  38.519  1.00  0.00    -0.458 OA
BRANCH   2   3
ATOM      3  C   UNL A   1      46.652  24.510  37.216  1.00  0.00     0.338 C 
ATOM      4  O   UNL A   1      47.725  24.186  36.715  1.00  0.00    -0.246 OA
BRANCH   3   5
ATOM      5  C   UNL A   1      45.707  25.249  36.315  1.00  0.00     0.060 A 
ATOM      6  C   UNL A   1      44.013  24.766  35.882  1.00  0.00     0.016 A 
ATOM      7  C   UNL A   1      46.309  26.861  35.769  1.00  0.00     0.016 A 
ATOM      8  C   UNL A   1      42.928  25.907  34.989  1.00  0.00     0.010 A 
ATOM      9  C   UNL A   1      45.252  27.964  34.824  1.00  0.00     0.010 A 
ATOM     10  C   UNL A   1      43.533  27.499  34.429  1.00  0.00    -0.014 A 
BRANCH  10  11
ATOM     11  C   UNL A   1      42.561  28.400  33.684  1.00  0.00     0.031 A 
ATOM     12  C   UNL A   1      42.219  28.250  32.215  1.00  0.00     0.074 A 
ATOM     13  C   UNL A   1      41.933  29.400  34.350  1.00  0.00     0.049 A 
ATOM     14  N   UNL A   1      41.213  28.784  31.555  1.00  0.00    -0.248 NA
ATOM     15  C   UNL A   1      43.076  27.412  31.374  1.00  0.00     0.031 C 
ATOM     16  C   UNL A   1      42.159  29.755  35.745  1.00  0.00     0.029 A 
ATOM     17  N   UNL A   1      40.983  30.318  33.954  1.00  0.00    -0.354 N 
ATOM     18  C   UNL A   1      41.263  28.249  30.272  1.00  0.00     0.074 A 
ATOM     19  C   UNL A   1      42.451  27.435  30.207  1.00  0.00     0.031 C 
ATOM     20  C   UNL A   1      41.390  30.787  36.100  1.00  0.00     0.029 A 
ATOM     21  C   UNL A   1      40.602  31.191  34.949  1.00  0.00     0.049 A 
ATOM     22  H   UNL A   1      40.612  30.348  33.043  1.00  0.00     0.167 HD
ATOM     23  C   UNL A   1      40.396  28.387  29.240  1.00  0.00     0.037 A 
ATOM     24  C   UNL A   1      39.713  32.202  34.978  1.00  0.00     0.037 A 
ATOM     25  C   UNL A   1      39.289  29.303  29.217  1.00  0.00     0.049 A 
ATOM     26  C   UNL A   1      38.864  32.461  33.778  1.00  0.00     0.074 A 
ATOM     27  C   UNL A   1      38.368  29.524  28.207  1.00  0.00     0.029 A 
ATOM     28  N   UNL A   1      38.995  30.200  30.230  1.00  0.00    -0.354 N 
ATOM     29  N   UNL A   1      38.834  31.810  32.643  1.00  0.00    -0.248 NA
ATOM     30  C   UNL A   1      37.911  33.574  33.867  1.00  0.00     0.031 C 
ATOM     31  C   UNL A   1      37.559  30.605  28.583  1.00  0.00     0.029 A 
ATOM     32  C   UNL A   1      37.950  31.023  29.844  1.00  0.00     0.049 A 
ATOM     33  H   UNL A   1      39.459  30.245  31.096  1.00  0.00     0.167 HD
ATOM     34  C   UNL A   1      37.841  32.414  31.889  1.00  0.00     0.074 A 
ATOM     35  C   UNL A   1      37.290  33.483  32.698  1.00  0.00     0.031 C 
ATOM     36  C   UNL A   1      37.421  32.098  30.641  1.00  0.00     0.037 A 
BRANCH  23  37
ATOM     37  C   UNL A   1      40.634  27.512  28.043  1.00  0.00     0.057 A 
ATOM     38  C   UNL A   1      41.396  27.970  26.957  1.00  0.00     0.134 A 
ATOM     39  C   UNL A   1      40.097  26.224  27.960  1.00  0.00     0.134 A 
ATOM     40  F   UNL A   1      41.929  29.200  26.971  1.00  0.00    -0.206 F 
ATOM     41  C   UNL A   1      41.594  27.183  25.822  1.00  0.00     0.040 A 
ATOM     42  C   UNL A   1      40.301  25.421  26.834  1.00  0.00     0.040 A 
ATOM     43  F   UNL A   1      39.357  25.729  28.962  1.00  0.00    -0.206 F 
ATOM     44  C   UNL A   1      41.047  25.904  25.759  1.00  0.00     0.006 A 
ENDBRANCH  23  37
BRANCH  24  45
ATOM     45  C   UNL A   1      39.568  33.006  36.221  1.00  0.00     0.057 A 
ATOM     46  C   UNL A   1      40.289  34.189  36.412  1.00  0.00     0.134 A 
ATOM     47  C   UNL A   1      38.649  32.642  37.213  1.00  0.00     0.134 A 
ATOM     48  F   UNL A   1      41.189  34.586  35.501  1.00  0.00    -0.206 F 
ATOM     49  C   UNL A   1      40.101  34.983  37.545  1.00  0.00     0.040 A 
ATOM     50  C   UNL A   1      38.435  33.437  38.340  1.00  0.00     0.040 A 
ATOM     51  F   UNL A   1      37.915  31.528  37.080  1.00  0.00    -0.206 F 
ATOM     52  C   UNL A   1      39.164  34.613  38.508  1.00  0.00     0.006 A 
ENDBRANCH  24  45
BRANCH  36  53
ATOM     53  C   UNL A   1      36.311  32.926  30.076  1.00  0.00     0.057 A 
ATOM     54  C   UNL A   1      34.991  32.782  30.521  1.00  0.00     0.134 A 
ATOM     55  C   UNL A   1      36.564  33.881  29.085  1.00  0.00     0.134 A 
ATOM     56  F   UNL A   1      34.684  31.869  31.455  1.00  0.00    -0.206 F 
ATOM     57  C   UNL A   1      33.956  33.546  29.982  1.00  0.00     0.040 A 
ATOM     58  C   UNL A   1      35.541  34.665  28.553  1.00  0.00     0.040 A 
ATOM     59  F   UNL A   1      37.809  34.065  28.619  1.00  0.00    -0.206 F 
ATOM     60  C   UNL A   1      34.232  34.495  28.999  1.00  0.00     0.006 A 
ENDBRANCH  36  53
ENDBRANCH  10  11
ENDBRANCH   3   5
ENDBRANCH   2   3
ENDBRANCH   1   2
BRANCH   1  61
ATOM     61  C   UNL A   1      46.805  21.912  39.308  1.00  0.00     0.274 C 
BRANCH  61  62
ATOM     62  O   UNL A   1      47.994  21.234  38.874  1.00  0.00    -0.461 OA
BRANCH  62  63
ATOM     63  C   UNL A   1      47.923  20.792  37.599  1.00  0.00     0.324 C 
ATOM     64  O   UNL A   1      48.702  21.168  36.726  1.00  0.00    -0.250 OA
BRANCH  63  65
ATOM     65  C   UNL A   1      46.825  19.798  37.308  1.00  0.00     0.183 C 
ATOM     66  C   UNL A   1      45.956  20.454  36.240  1.00  0.00     0.034 C 
ATOM     67  N   UNL A   1      45.687  18.710  38.109  1.00  0.00    -0.184 NA
ATOM     68  C   UNL A   1      45.253  19.314  35.550  1.00  0.00     0.019 C 
ATOM     69  C   UNL A   1      45.134  18.133  36.526  1.00  0.00     0.103 C 
BRANCH  67  70
ATOM     70  S   UNL A   1      45.293  17.935  40.415  1.00  0.00     0.243 S 
ATOM     71  O   UNL A   1      46.264  16.931  40.899  1.00  0.00    -0.207 OA
ATOM     72  O   UNL A   1      45.082  18.988  41.418  1.00  0.00    -0.207 OA
BRANCH  70  73
ATOM     73  C   UNL A   1      43.717  16.841  40.858  1.00  0.00     0.084 A 
ATOM     74  C   UNL A   1      43.107  16.109  39.825  1.00  0.00     0.024 A 
ATOM     75  C   UNL A   1      43.639  16.310  42.161  1.00  0.00     0.050 A 
ATOM     76  C   UNL A   1      42.185  15.099  40.072  1.00  0.00     0.030 A 
ATOM     77  C   UNL A   1      42.888  15.138  42.376  1.00  0.00     0.066 A 
ATOM     78  C   UNL A   1      42.104  14.592  41.352  1.00  0.00     0.065 A 
ATOM     79  N   UNL A   1      43.022  14.418  43.570  1.00  0.00    -0.316 N 
ATOM     80  N   UNL A   1      41.331  13.453  41.571  1.00  0.00    -0.316 N 
ATOM     81  C   UNL A   1      42.415  13.195  43.788  1.00  0.00     0.314 A 
ATOM     82  H   UNL A   1      43.576  14.801  44.289  1.00  0.00     0.170 HD
ATOM     83  C   UNL A   1      41.393  12.717  42.728  1.00  0.00     0.314 A 
ATOM     84  H   UNL A   1      40.712  13.162  40.861  1.00  0.00     0.170 HD
ATOM     85  O   UNL A   1      42.678  12.506  44.766  1.00  0.00    -0.263 OA
ATOM     86  O   UNL A   1      40.701  11.723  42.895  1.00  0.00    -0.263 OA
ENDBRANCH  70  73
ENDBRANCH  67  70
ENDBRANCH  63  65
ENDBRANCH  62  63
ENDBRANCH  61  62
ENDBRANCH   1  61
TORSDOF 13
ENDMDL
MODEL 2
REMARK VINA RESULT:     -12.6      1.326      2.032
REMARK SMILES O=C(OCCOC(=O)[C@@H]1CCCN1S(=O)(=O)c1ccc2[nH]c(=O)c(=O)[nH]c2c1)c1ccc(-c2c3nc(c(-c4c(F)cccc4F)c4ccc([nH]4)c(-c4c(F)cccc4F)c4nc(c(-c5c(F)cccc5F)c5ccc2[nH]5)C=C4)C=C3)cc1
REMARK SMILES IDX 4 1 3 2 2 3 1 4 29 5 30 6 82 7 31 8 81 9 32 10 33 11 34 12
REMARK SMILES IDX 75 13 35 14 80 15 74 16 76 17 36 18 79 19 73 20 72 21 37 23
REMARK SMILES IDX 63 24 46 25 62 26 47 27 50 28 61 29 77 30 48 31 49 32 60 34
REMARK SMILES IDX 78 35 51 36 38 37 39 38 44 39 40 40 41 41 43 42 45 43 42 44
REMARK SMILES IDX 64 45 65 46 70 47 66 48 67 49 69 50 71 51 68 52 52 53 53 54
REMARK SMILES IDX 58 55 54 56 55 57 57 58 59 59 56 60 5 61 6 62 7 63 8 64 9 65
REMARK SMILES IDX 10 66 13 67 11 68 12 69 14 70 15 71 16 72 17 73 18 74 28 75
REMARK SMILES IDX 19 76 27 77 20 78 26 79 21 80 24 81 22 83 25 85 23 86
REMARK H PARENT 76 22 50 33 26 82 21 84
REMARK Flexibility Score: inf
ROOT
ATOM      1  C   UNL A   1      47.263  23.609  39.216  1.00  0.00     0.275 C 
ENDROOT
BRANCH   1   2
ATOM      2  O   UNL A   1      47.429  24.108  37.865  1.00  0.00    -0.458 OA
BRANCH   2   3
ATOM      3  C   UNL A   1      46.686  23.967  36.745  1.00  0.00     0.338 C 
ATOM      4  O   UNL A   1      46.751  22.926  36.098  1.00  0.00    -0.246 OA
BRANCH   3   5
ATOM      5  C   UNL A   1      45.805  25.040  36.173  1.00  0.00     0.060 A 
ATOM      6  C   UNL A   1      46.341  26.582  35.383  1.00  0.00     0.016 A 
ATOM      7  C   UNL A   1      44.049  24.621  36.143  1.00  0.00     0.016 A 
ATOM      8  C   UNL A   1      45.152  27.638  34.520  1.00  0.00     0.010 A 
ATOM      9  C   UNL A   1      42.861  25.706  35.344  1.00  0.00     0.010 A 
ATOM     10  C   UNL A   1      43.405  27.233  34.508  1.00  0.00    -0.014 A 
BRANCH  10  11
ATOM     11  C   UNL A   1      42.469  28.171  33.763  1.00  0.00     0.031 A 
ATOM     12  C   UNL A   1      42.155  28.059  32.284  1.00  0.00     0.074 A 
ATOM     13  C   UNL A   1      41.851  29.171  34.437  1.00  0.00     0.049 A 
ATOM     14  N   UNL A   1      41.174  28.630  31.615  1.00  0.00    -0.248 NA
ATOM     15  C   UNL A   1      43.010  27.219  31.443  1.00  0.00     0.031 C 
ATOM     16  C   UNL A   1      42.056  29.492  35.842  1.00  0.00     0.029 A 
ATOM     17  N   UNL A   1      40.930  30.119  34.041  1.00  0.00    -0.354 N 
ATOM     18  C   UNL A   1      41.239  28.120  30.323  1.00  0.00     0.074 A 
ATOM     19  C   UNL A   1      42.410  27.281  30.264  1.00  0.00     0.031 C 
ATOM     20  C   UNL A   1      41.304  30.534  36.204  1.00  0.00     0.029 A 
ATOM     21  C   UNL A   1      40.548  30.980  35.047  1.00  0.00     0.049 A 
ATOM     22  H   UNL A   1      40.578  30.176  33.124  1.00  0.00     0.167 HD
ATOM     23  C   UNL A   1      40.397  28.300  29.276  1.00  0.00     0.037 A 
ATOM     24  C   UNL A   1      39.682  32.010  35.079  1.00  0.00     0.037 A 
ATOM     25  C   UNL A   1      39.312  29.241  29.250  1.00  0.00     0.049 A 
ATOM     26  C   UNL A   1      38.864  32.313  33.867  1.00  0.00     0.074 A 
ATOM     27  C   UNL A   1      38.417  29.504  28.227  1.00  0.00     0.029 A 
ATOM     28  N   UNL A   1      39.017  30.123  30.276  1.00  0.00    -0.354 N 
ATOM     29  N   UNL A   1      38.843  31.686  32.719  1.00  0.00    -0.248 NA
ATOM     30  C   UNL A   1      37.934  33.446  33.960  1.00  0.00     0.031 C 
ATOM     31  C   UNL A   1      37.625  30.595  28.609  1.00  0.00     0.029 A 
ATOM     32  C   UNL A   1      37.998  30.978  29.886  1.00  0.00     0.049 A 
ATOM     33  H   UNL A   1      39.464  30.140  31.152  1.00  0.00     0.167 HD
ATOM     34  C   UNL A   1      37.879  32.329  31.958  1.00  0.00     0.074 A 
ATOM     35  C   UNL A   1      37.336  33.393  32.778  1.00  0.00     0.031 C 
ATOM     36  C   UNL A   1      37.478  32.048  30.695  1.00  0.00     0.037 A 
BRANCH  23  37
ATOM     37  C   UNL A   1      40.640  27.444  28.066  1.00  0.00     0.057 A 
ATOM     38  C   UNL A   1      40.108  26.148  27.983  1.00  0.00     0.134 A 
ATOM     39  C   UNL A   1      41.410  27.898  26.992  1.00  0.00     0.134 A 
ATOM     40  F   UNL A   1      39.369  25.651  28.985  1.00  0.00    -0.206 F 
ATOM     41  C   UNL A   1      40.356  25.327  26.882  1.00  0.00     0.040 A 
ATOM     42  C   UNL A   1      41.653  27.091  25.877  1.00  0.00     0.040 A 
ATOM     43  F   UNL A   1      41.950  29.126  27.011  1.00  0.00    -0.206 F 
ATOM     44  C   UNL A   1      41.130  25.799  25.825  1.00  0.00     0.006 A 
ENDBRANCH  23  37
BRANCH  24  45
ATOM     45  C   UNL A   1      39.530  32.792  36.335  1.00  0.00     0.057 A 
ATOM     46  C   UNL A   1      40.299  33.933  36.581  1.00  0.00     0.134 A 
ATOM     47  C   UNL A   1      38.557  32.450  37.284  1.00  0.00     0.134 A 
ATOM     48  F   UNL A   1      41.251  34.306  35.714  1.00  0.00    -0.206 F 
ATOM     49  C   UNL A   1      40.107  34.709  37.726  1.00  0.00     0.040 A 
ATOM     50  C   UNL A   1      38.340  33.229  38.422  1.00  0.00     0.040 A 
ATOM     51  F   UNL A   1      37.776  31.377  37.096  1.00  0.00    -0.206 F 
ATOM     52  C   UNL A   1      39.118  34.363  38.645  1.00  0.00     0.006 A 
ENDBRANCH  24  45
BRANCH  36  53
ATOM     53  C   UNL A   1      36.398  32.913  30.125  1.00  0.00     0.057 A 
ATOM     54  C   UNL A   1      35.066  32.785  30.536  1.00  0.00     0.134 A 
ATOM     55  C   UNL A   1      36.695  33.886  29.165  1.00  0.00     0.134 A 
ATOM     56  F   UNL A   1      34.718  31.856  31.440  1.00  0.00    -0.206 F 
ATOM     57  C   UNL A   1      34.060  33.584  29.993  1.00  0.00     0.040 A 
ATOM     58  C   UNL A   1      35.701  34.704  28.629  1.00  0.00     0.040 A 
ATOM     59  F   UNL A   1      37.953  34.055  28.732  1.00  0.00    -0.206 F 
ATOM     60  C   UNL A   1      34.378  34.550  29.040  1.00  0.00     0.006 A 
ENDBRANCH  36  53
ENDBRANCH  10  11
ENDBRANCH   3   5
ENDBRANCH   2   3
ENDBRANCH   1   2
BRANCH   1  61
ATOM     61  C   UNL A   1      47.731  22.161  39.392  1.00  0.00     0.274 C 
BRANCH  61  62
ATOM     62  O   UNL A   1      46.696  21.387  40.017  1.00  0.00    -0.461 OA
BRANCH  62  63
ATOM     63  C   UNL A   1      46.365  20.277  39.321  1.00  0.00     0.324 C 
ATOM     64  O   UNL A   1      45.999  20.318  38.148  1.00  0.00    -0.250 OA
BRANCH  63  65
ATOM     65  C   UNL A   1      46.475  18.972  40.072  1.00  0.00     0.183 C 
ATOM     66  C   UNL A   1      47.935  18.550  39.941  1.00  0.00     0.034 C 
ATOM     67  N   UNL A   1      45.651  17.427  40.300  1.00  0.00    -0.184 NA
ATOM     68  C   UNL A   1      48.184  17.627  41.104  1.00  0.00     0.019 C 
ATOM     69  C   UNL A   1      46.857  16.970  41.518  1.00  0.00     0.103 C 
BRANCH  67  70
ATOM     70  S   UNL A   1      43.501  16.439  39.608  1.00  0.00     0.243 S 
ATOM     71  O   UNL A   1      42.361  17.378  39.627  1.00  0.00    -0.207 OA
ATOM     72  O   UNL A   1      43.525  15.665  38.359  1.00  0.00    -0.207 OA
BRANCH  70  73
ATOM     73  C   UNL A   1      42.602  15.091  40.726  1.00  0.00     0.084 A 
ATOM     74  C   UNL A   1      41.979  14.006  40.085  1.00  0.00     0.024 A 
ATOM     75  C   UNL A   1      43.118  14.870  42.018  1.00  0.00     0.050 A 
ATOM     76  C   UNL A   1      41.573  12.869  40.772  1.00  0.00     0.030 A 
ATOM     77  C   UNL A   1      42.908  13.620  42.632  1.00  0.00     0.066 A 
ATOM     78  C   UNL A   1      42.071  12.664  42.042  1.00  0.00     0.065 A 
ATOM     79  N   UNL A   1      43.641  13.254  43.769  1.00  0.00    -0.316 N 
ATOM     80  N   UNL A   1      41.832  11.439  42.663  1.00  0.00    -0.316 N 
ATOM     81  C   UNL A   1      43.577  11.995  44.338  1.00  0.00     0.314 A 
ATOM     82  H   UNL A   1      44.231  13.925  44.182  1.00  0.00     0.170 HD
ATOM     83  C   UNL A   1      42.494  11.031  43.794  1.00  0.00     0.314 A 
ATOM     84  H   UNL A   1      41.156  10.838  42.271  1.00  0.00     0.170 HD
ATOM     85  O   UNL A   1      44.346  11.644  45.223  1.00  0.00    -0.263 OA
ATOM     86  O   UNL A   1      42.262   9.952  44.320  1.00  0.00    -0.263 OA
ENDBRANCH  70  73
ENDBRANCH  67  70
ENDBRANCH  63  65
ENDBRANCH  62  63
ENDBRANCH  61  62
ENDBRANCH   1  61
TORSDOF 13
ENDMDL
MODEL 3
REMARK VINA RESULT:     -12.6      1.655      2.385
REMARK SMILES O=C(OCCOC(=O)[C@@H]1CCCN1S(=O)(=O)c1ccc2[nH]c(=O)c(=O)[nH]c2c1)c1ccc(-c2c3nc(c(-c4c(F)cccc4F)c4ccc([nH]4)c(-c4c(F)cccc4F)c4nc(c(-c5c(F)cccc5F)c5ccc2[nH]5)C=C4)C=C3)cc1
REMARK SMILES IDX 4 1 3 2 2 3 1 4 29 5 30 6 82 7 31 8 81 9 32 10 33 11 34 12
REMARK SMILES IDX 75 13 35 14 80 15 74 16 76 17 36 18 79 19 73 20 72 21 37 23
REMARK SMILES IDX 63 24 46 25 62 26 47 27 50 28 61 29 77 30 48 31 49 32 60 34
REMARK SMILES IDX 78 35 51 36 38 37 39 38 44 39 40 40 41 41 43 42 45 43 42 44
REMARK SMILES IDX 64 45 65 46 70 47 66 48 67 49 69 50 71 51 68 52 52 53 53 54
REMARK SMILES IDX 58 55 54 56 55 57 57 58 59 59 56 60 5 61 6 62 7 63 8 64 9 65
REMARK SMILES IDX 10 66 13 67 11 68 12 69 14 70 15 71 16 72 17 73 18 74 28 75
REMARK SMILES IDX 19 76 27 77 20 78 26 79 21 80 24 81 22 83 25 85 23 86
REMARK H PARENT 76 22 50 33 26 82 21 84
REMARK Flexibility Score: inf
ROOT
ATOM      1  C   UNL A   1      48.108  23.565  35.765  1.00  0.00     0.275 C 
ENDROOT
BRANCH   1   2
ATOM      2  O   UNL A   1      47.316  23.523  36.978  1.00  0.00    -0.458 OA
BRANCH   2   3
ATOM      3  C   UNL A   1      46.235  24.225  37.384  1.00  0.00     0.338 C 
ATOM      4  O   UNL A   1      45.908  24.208  38.567  1.00  0.00    -0.246 OA
BRANCH   3   5
ATOM      5  C   UNL A   1      45.333  24.998  36.467  1.00  0.00     0.060 A 
ATOM      6  C   UNL A   1      43.641  24.561  35.981  1.00  0.00     0.016 A 
ATOM      7  C   UNL A   1      45.989  26.601  35.959  1.00  0.00     0.016 A 
ATOM      8  C   UNL A   1      42.609  25.738  35.073  1.00  0.00     0.010 A 
ATOM      9  C   UNL A   1      44.985  27.740  34.998  1.00  0.00     0.010 A 
ATOM     10  C   UNL A   1      43.267  27.322  34.550  1.00  0.00    -0.014 A 
BRANCH  10  11
ATOM     11  C   UNL A   1      42.338  28.255  33.790  1.00  0.00     0.031 A 
ATOM     12  C   UNL A   1      42.053  28.145  32.305  1.00  0.00     0.074 A 
ATOM     13  C   UNL A   1      41.699  29.248  34.455  1.00  0.00     0.049 A 
ATOM     14  N   UNL A   1      41.081  28.710  31.619  1.00  0.00    -0.248 NA
ATOM     15  C   UNL A   1      42.931  27.315  31.478  1.00  0.00     0.031 C 
ATOM     16  C   UNL A   1      41.874  29.566  35.865  1.00  0.00     0.029 A 
ATOM     17  N   UNL A   1      40.778  30.190  34.045  1.00  0.00    -0.354 N 
ATOM     18  C   UNL A   1      41.175  28.205  30.327  1.00  0.00     0.074 A 
ATOM     19  C   UNL A   1      42.353  27.375  30.288  1.00  0.00     0.031 C 
ATOM     20  C   UNL A   1      41.107  30.601  36.215  1.00  0.00     0.029 A 
ATOM     21  C   UNL A   1      40.370  31.044  35.045  1.00  0.00     0.049 A 
ATOM     22  H   UNL A   1      40.444  30.247  33.121  1.00  0.00     0.167 HD
ATOM     23  C   UNL A   1      40.351  28.381  29.265  1.00  0.00     0.037 A 
ATOM     24  C   UNL A   1      39.496  32.067  35.064  1.00  0.00     0.037 A 
ATOM     25  C   UNL A   1      39.259  29.313  29.221  1.00  0.00     0.049 A 
ATOM     26  C   UNL A   1      38.698  32.368  33.837  1.00  0.00     0.074 A 
ATOM     27  C   UNL A   1      38.382  29.572  28.181  1.00  0.00     0.029 A 
ATOM     28  N   UNL A   1      38.937  30.190  30.244  1.00  0.00    -0.354 N 
ATOM     29  N   UNL A   1      38.705  31.744  32.687  1.00  0.00    -0.248 NA
ATOM     30  C   UNL A   1      37.758  33.492  33.916  1.00  0.00     0.031 C 
ATOM     31  C   UNL A   1      37.574  30.656  28.551  1.00  0.00     0.029 A 
ATOM     32  C   UNL A   1      37.920  31.038  29.837  1.00  0.00     0.049 A 
ATOM     33  H   UNL A   1      39.368  30.208  31.128  1.00  0.00     0.167 HD
ATOM     34  C   UNL A   1      37.750  32.382  31.909  1.00  0.00     0.074 A 
ATOM     35  C   UNL A   1      37.183  33.439  32.722  1.00  0.00     0.031 C 
ATOM     36  C   UNL A   1      37.375  32.101  30.639  1.00  0.00     0.037 A 
BRANCH  23  37
ATOM     37  C   UNL A   1      40.624  27.531  28.058  1.00  0.00     0.057 A 
ATOM     38  C   UNL A   1      41.424  28.008  27.008  1.00  0.00     0.134 A 
ATOM     39  C   UNL A   1      40.084  26.248  27.929  1.00  0.00     0.134 A 
ATOM     40  F   UNL A   1      41.962  29.235  27.067  1.00  0.00    -0.206 F 
ATOM     41  C   UNL A   1      41.655  27.246  25.862  1.00  0.00     0.040 A 
ATOM     42  C   UNL A   1      40.321  25.469  26.792  1.00  0.00     0.040 A 
ATOM     43  F   UNL A   1      39.309  25.735  28.895  1.00  0.00    -0.206 F 
ATOM     44  C   UNL A   1      41.104  25.972  25.753  1.00  0.00     0.006 A 
ENDBRANCH  23  37
BRANCH  24  45
ATOM     45  C   UNL A   1      39.313  32.844  36.319  1.00  0.00     0.057 A 
ATOM     46  C   UNL A   1      39.985  34.051  36.534  1.00  0.00     0.134 A 
ATOM     47  C   UNL A   1      38.404  32.426  37.300  1.00  0.00     0.134 A 
ATOM     48  F   UNL A   1      40.873  34.499  35.635  1.00  0.00    -0.206 F 
ATOM     49  C   UNL A   1      39.760  34.817  37.679  1.00  0.00     0.040 A 
ATOM     50  C   UNL A   1      38.153  33.193  38.439  1.00  0.00     0.040 A 
ATOM     51  F   UNL A   1      37.715  31.287  37.144  1.00  0.00    -0.206 F 
ATOM     52  C   UNL A   1      38.834  34.394  38.631  1.00  0.00     0.006 A 
ENDBRANCH  24  45
BRANCH  36  53
ATOM     53  C   UNL A   1      36.300  32.959  30.050  1.00  0.00     0.057 A 
ATOM     54  C   UNL A   1      34.966  32.840  30.457  1.00  0.00     0.134 A 
ATOM     55  C   UNL A   1      36.603  33.918  29.078  1.00  0.00     0.134 A 
ATOM     56  F   UNL A   1      34.612  31.925  31.372  1.00  0.00    -0.206 F 
ATOM     57  C   UNL A   1      33.964  33.632  29.896  1.00  0.00     0.040 A 
ATOM     58  C   UNL A   1      35.613  34.730  28.525  1.00  0.00     0.040 A 
ATOM     59  F   UNL A   1      37.864  34.078  28.649  1.00  0.00    -0.206 F 
ATOM     60  C   UNL A   1      34.288  34.584  28.931  1.00  0.00     0.006 A 
ENDBRANCH  36  53
ENDBRANCH  10  11
ENDBRANCH   3   5
ENDBRANCH   2   3
ENDBRANCH   1   2
BRANCH   1  61
ATOM     61  C   UNL A   1      47.798  22.419  34.796  1.00  0.00     0.274 C 
BRANCH  61  62
ATOM     62  O   UNL A   1      48.970  22.097  34.033  1.00  0.00    -0.461 OA
BRANCH  62  63
ATOM     63  C   UNL A   1      49.324  20.796  34.120  1.00  0.00     0.324 C 
ATOM     64  O   UNL A   1      49.370  20.057  33.138  1.00  0.00    -0.250 OA
BRANCH  63  65
ATOM     65  C   UNL A   1      49.668  20.298  35.503  1.00  0.00     0.183 C 
ATOM     66  C   UNL A   1      50.851  19.356  35.314  1.00  0.00     0.034 C 
ATOM     67  N   UNL A   1      48.924  19.684  36.983  1.00  0.00    -0.184 NA
ATOM     68  C   UNL A   1      51.543  19.318  36.651  1.00  0.00     0.019 C 
ATOM     69  C   UNL A   1      50.519  19.630  37.755  1.00  0.00     0.103 C 
BRANCH  67  70
ATOM     70  S   UNL A   1      46.629  19.419  37.841  1.00  0.00     0.243 S 
ATOM     71  O   UNL A   1      46.116  20.586  38.588  1.00  0.00    -0.207 OA
ATOM     72  O   UNL A   1      45.635  18.935  36.874  1.00  0.00    -0.207 OA
BRANCH  70  73
ATOM     73  C   UNL A   1      46.230  18.136  39.281  1.00  0.00     0.084 A 
ATOM     74  C   UNL A   1      46.501  18.521  40.605  1.00  0.00     0.024 A 
ATOM     75  C   UNL A   1      45.167  17.235  39.073  1.00  0.00     0.050 A 
ATOM     76  C   UNL A   1      46.002  17.825  41.700  1.00  0.00     0.030 A 
ATOM     77  C   UNL A   1      44.497  16.701  40.190  1.00  0.00     0.066 A 
ATOM     78  C   UNL A   1      44.970  16.934  41.488  1.00  0.00     0.065 A 
ATOM     79  N   UNL A   1      43.267  16.049  40.036  1.00  0.00    -0.316 N 
ATOM     80  N   UNL A   1      44.331  16.379  42.595  1.00  0.00    -0.316 N 
ATOM     81  C   UNL A   1      42.498  15.621  41.103  1.00  0.00     0.314 A 
ATOM     82  H   UNL A   1      42.933  15.888  39.124  1.00  0.00     0.170 HD
ATOM     83  C   UNL A   1      43.139  15.703  42.510  1.00  0.00     0.314 A 
ATOM     84  H   UNL A   1      44.754  16.476  43.480  1.00  0.00     0.170 HD
ATOM     85  O   UNL A   1      41.356  15.207  40.954  1.00  0.00    -0.263 OA
ATOM     86  O   UNL A   1      42.601  15.223  43.497  1.00  0.00    -0.263 OA
ENDBRANCH  70  73
ENDBRANCH  67  70
ENDBRANCH  63  65
ENDBRANCH  62  63
ENDBRANCH  61  62
ENDBRANCH   1  61
TORSDOF 13
ENDMDL
