MODEL 1
REMARK VINA RESULT:     -12.2      0.000      0.000
REMARK SMILES COc1cc(-c2ccc(F)c(C(F)(F)F)c2)ccc1C(=O)OCCOC(=O)c1ccc(-c2c3nc(c(-c4c(F)cccc4F)c4ccc([nH]4)c(-c4c(F)cccc4F)c4nc(c(-c5c(F)cccc5F)c5ccc2[nH]5)C=C4)C=C3)cc1
REMARK SMILES IDX 23 1 22 2 20 3 21 4 19 5 3 6 4 7 5 8 18 9 17 10 2 11 1 12
REMARK SMILES IDX 6 13 7 14 16 15 8 16 11 17 9 18 10 19 12 20 13 21 14 22
REMARK SMILES IDX 15 23 24 24 25 25 26 26 27 27 28 28 29 29 81 30 30 31 80 32
REMARK SMILES IDX 31 33 32 34 33 35 74 36 34 37 79 38 73 39 75 40 35 41 78 42
REMARK SMILES IDX 72 43 71 44 36 46 62 47 45 48 61 49 46 50 49 51 60 52 76 53
REMARK SMILES IDX 47 54 48 55 59 57 77 58 50 59 37 60 38 61 43 62 39 63 40 64
REMARK SMILES IDX 42 65 44 66 41 67 63 68 64 69 69 70 65 71 66 72 68 73 70 74
REMARK SMILES IDX 67 75 51 76 52 77 57 78 53 79 54 80 56 81 58 82 55 83
REMARK H PARENT 75 45 49 56
REMARK Flexibility Score: inf
ROOT
ATOM      1  C   UNL A   1      42.448  20.873  26.150  1.00  0.00     0.275 C 
ENDROOT
BRANCH   1   2
ATOM      2  O   UNL A   1      41.110  21.195  25.710  1.00  0.00    -0.458 OA
BRANCH   2   3
ATOM      3  C   UNL A   1      40.208  21.472  26.680  1.00  0.00     0.342 C 
ATOM      4  O   UNL A   1      40.403  21.424  27.885  1.00  0.00    -0.246 OA
BRANCH   3   5
ATOM      5  C   UNL A   1      38.944  21.981  26.106  1.00  0.00     0.102 A 
ATOM      6  C   UNL A   1      38.048  21.273  25.298  1.00  0.00     0.134 A 
ATOM      7  C   UNL A   1      36.907  21.951  24.815  1.00  0.00     0.056 A 
ATOM      8  C   UNL A   1      36.633  23.295  25.120  1.00  0.00    -0.015 A 
ATOM      9  C   UNL A   1      38.640  23.312  26.464  1.00  0.00     0.020 A 
ATOM     10  C   UNL A   1      37.520  23.970  25.955  1.00  0.00     0.010 A 
BRANCH   6  11
ATOM     11  O   UNL A   1      38.058  19.973  24.882  1.00  0.00    -0.496 OA
ATOM     12  C   UNL A   1      36.875  19.195  24.886  1.00  0.00     0.278 C 
ENDBRANCH   6  11
BRANCH   8  13
ATOM     13  C   UNL A   1      35.429  23.959  24.611  1.00  0.00    -0.017 A 
ATOM     14  C   UNL A   1      34.821  23.522  23.424  1.00  0.00     0.012 A 
ATOM     15  C   UNL A   1      34.850  25.038  25.303  1.00  0.00     0.025 A 
ATOM     16  C   UNL A   1      33.673  24.147  22.938  1.00  0.00     0.040 A 
ATOM     17  C   UNL A   1      33.694  25.676  24.819  1.00  0.00     0.092 A 
ATOM     18  C   UNL A   1      33.125  25.218  23.635  1.00  0.00     0.135 A 
ATOM     19  F   UNL A   1      32.030  25.812  23.144  1.00  0.00    -0.206 F 
BRANCH  17  20
ATOM     20  C   UNL A   1      33.075  26.846  25.522  1.00  0.00     0.419 C 
ATOM     21  F   UNL A   1      33.857  27.327  26.528  1.00  0.00    -0.166 F 
ATOM     22  F   UNL A   1      32.823  27.898  24.696  1.00  0.00    -0.166 F 
ATOM     23  F   UNL A   1      31.878  26.545  26.103  1.00  0.00    -0.166 F 
ENDBRANCH  17  20
ENDBRANCH   8  13
ENDBRANCH   3   5
ENDBRANCH   2   3
ENDBRANCH   1   2
BRANCH   1  24
ATOM     24  C   UNL A   1      43.479  21.672  25.358  1.00  0.00     0.275 C 
BRANCH  24  25
ATOM     25  O   UNL A   1      42.868  22.880  24.870  1.00  0.00    -0.458 OA
BRANCH  25  26
ATOM     26  C   UNL A   1      43.609  23.996  25.036  1.00  0.00     0.338 C 
ATOM     27  O   UNL A   1      44.672  24.280  24.515  1.00  0.00    -0.246 OA
BRANCH  26  28
ATOM     28  C   UNL A   1      42.872  24.940  25.884  1.00  0.00     0.060 A 
ATOM     29  C   UNL A   1      43.301  26.264  25.895  1.00  0.00     0.016 A 
ATOM     30  C   UNL A   1      41.906  24.500  26.784  1.00  0.00     0.016 A 
ATOM     31  C   UNL A   1      42.846  27.138  26.878  1.00  0.00     0.010 A 
ATOM     32  C   UNL A   1      41.390  25.402  27.722  1.00  0.00     0.010 A 
ATOM     33  C   UNL A   1      41.893  26.715  27.817  1.00  0.00    -0.014 A 
BRANCH  33  34
ATOM     34  C   UNL A   1      41.505  27.603  28.952  1.00  0.00     0.031 A 
ATOM     35  C   UNL A   1      42.307  27.580  30.231  1.00  0.00     0.074 A 
ATOM     36  C   UNL A   1      40.464  28.453  28.846  1.00  0.00     0.049 A 
ATOM     37  N   UNL A   1      42.044  28.134  31.389  1.00  0.00    -0.248 NA
ATOM     38  C   UNL A   1      43.567  26.819  30.209  1.00  0.00     0.031 C 
ATOM     39  C   UNL A   1      39.626  28.629  27.659  1.00  0.00     0.029 A 
ATOM     40  N   UNL A   1      39.940  29.342  29.754  1.00  0.00    -0.354 N 
ATOM     41  C   UNL A   1      43.059  27.724  32.247  1.00  0.00     0.074 A 
ATOM     42  C   UNL A   1      43.947  26.881  31.477  1.00  0.00     0.031 C 
ATOM     43  C   UNL A   1      38.722  29.594  27.896  1.00  0.00     0.029 A 
ATOM     44  C   UNL A   1      38.860  30.046  29.276  1.00  0.00     0.049 A 
ATOM     45  H   UNL A   1      40.303  29.462  30.661  1.00  0.00     0.167 HD
ATOM     46  C   UNL A   1      43.233  28.022  33.557  1.00  0.00     0.037 A 
ATOM     47  C   UNL A   1      38.049  30.930  29.888  1.00  0.00     0.037 A 
ATOM     48  C   UNL A   1      42.401  28.932  34.302  1.00  0.00     0.049 A 
ATOM     49  C   UNL A   1      38.269  31.250  31.342  1.00  0.00     0.074 A 
ATOM     50  C   UNL A   1      42.516  29.319  35.627  1.00  0.00     0.029 A 
ATOM     51  N   UNL A   1      41.316  29.618  33.778  1.00  0.00    -0.354 N 
ATOM     52  N   UNL A   1      39.196  30.809  32.155  1.00  0.00    -0.248 NA
ATOM     53  C   UNL A   1      37.315  32.180  31.964  1.00  0.00     0.031 C 
ATOM     54  C   UNL A   1      41.483  30.220  35.911  1.00  0.00     0.029 A 
ATOM     55  C   UNL A   1      40.751  30.423  34.753  1.00  0.00     0.049 A 
ATOM     56  H   UNL A   1      40.995  29.543  32.851  1.00  0.00     0.167 HD
ATOM     57  C   UNL A   1      38.954  31.426  33.376  1.00  0.00     0.074 A 
ATOM     58  C   UNL A   1      37.803  32.285  33.191  1.00  0.00     0.031 C 
ATOM     59  C   UNL A   1      39.621  31.289  34.548  1.00  0.00     0.037 A 
BRANCH  46  60
ATOM     60  C   UNL A   1      44.351  27.335  34.288  1.00  0.00     0.057 A 
ATOM     61  C   UNL A   1      45.620  27.909  34.430  1.00  0.00     0.134 A 
ATOM     62  C   UNL A   1      44.133  26.093  34.899  1.00  0.00     0.134 A 
ATOM     63  F   UNL A   1      45.901  29.090  33.857  1.00  0.00    -0.206 F 
ATOM     64  C   UNL A   1      46.637  27.263  35.137  1.00  0.00     0.040 A 
ATOM     65  C   UNL A   1      45.132  25.450  35.630  1.00  0.00     0.040 A 
ATOM     66  F   UNL A   1      42.937  25.490  34.807  1.00  0.00    -0.206 F 
ATOM     67  C   UNL A   1      46.392  26.033  35.746  1.00  0.00     0.006 A 
ENDBRANCH  46  60
BRANCH  47  68
ATOM     68  C   UNL A   1      36.928  31.559  29.143  1.00  0.00     0.057 A 
ATOM     69  C   UNL A   1      37.006  32.888  28.709  1.00  0.00     0.134 A 
ATOM     70  C   UNL A   1      35.744  30.863  28.876  1.00  0.00     0.134 A 
ATOM     71  F   UNL A   1      38.105  33.616  28.958  1.00  0.00    -0.206 F 
ATOM     72  C   UNL A   1      35.942  33.506  28.051  1.00  0.00     0.040 A 
ATOM     73  C   UNL A   1      34.683  31.460  28.193  1.00  0.00     0.040 A 
ATOM     74  F   UNL A   1      35.605  29.588  29.266  1.00  0.00    -0.206 F 
ATOM     75  C   UNL A   1      34.777  32.789  27.787  1.00  0.00     0.006 A 
ENDBRANCH  47  68
BRANCH  59  76
ATOM     76  C   UNL A   1      39.156  32.133  35.698  1.00  0.00     0.057 A 
ATOM     77  C   UNL A   1      39.564  33.463  35.855  1.00  0.00     0.134 A 
ATOM     78  C   UNL A   1      38.283  31.604  36.658  1.00  0.00     0.134 A 
ATOM     79  F   UNL A   1      40.411  34.022  34.978  1.00  0.00    -0.206 F 
ATOM     80  C   UNL A   1      39.144  34.229  36.944  1.00  0.00     0.040 A 
ATOM     81  C   UNL A   1      37.837  32.368  37.736  1.00  0.00     0.040 A 
ATOM     82  F   UNL A   1      37.848  30.338  36.561  1.00  0.00    -0.206 F 
ATOM     83  C   UNL A   1      38.275  33.682  37.887  1.00  0.00     0.006 A 
ENDBRANCH  59  76
ENDBRANCH  33  34
ENDBRANCH  26  28
ENDBRANCH  25  26
ENDBRANCH  24  25
ENDBRANCH   1  24
TORSDOF 14
ENDMDL
MODEL 2
REMARK VINA RESULT:     -12.0      5.096      9.941
REMARK SMILES COc1cc(-c2ccc(F)c(C(F)(F)F)c2)ccc1C(=O)OCCOC(=O)c1ccc(-c2c3nc(c(-c4c(F)cccc4F)c4ccc([nH]4)c(-c4c(F)cccc4F)c4nc(c(-c5c(F)cccc5F)c5ccc2[nH]5)C=C4)C=C3)cc1
REMARK SMILES IDX 23 1 22 2 20 3 21 4 19 5 3 6 4 7 5 8 18 9 17 10 2 11 1 12
REMARK SMILES IDX 6 13 7 14 16 15 8 16 11 17 9 18 10 19 12 20 13 21 14 22
REMARK SMILES IDX 15 23 24 24 25 25 26 26 27 27 28 28 29 29 81 30 30 31 80 32
REMARK SMILES IDX 31 33 32 34 33 35 74 36 34 37 79 38 73 39 75 40 35 41 78 42
REMARK SMILES IDX 72 43 71 44 36 46 62 47 45 48 61 49 46 50 49 51 60 52 76 53
REMARK SMILES IDX 47 54 48 55 59 57 77 58 50 59 37 60 38 61 43 62 39 63 40 64
REMARK SMILES IDX 42 65 44 66 41 67 63 68 64 69 69 70 65 71 66 72 68 73 70 74
REMARK SMILES IDX 67 75 51 76 52 77 57 78 53 79 54 80 56 81 58 82 55 83
REMARK H PARENT 75 45 49 56
REMARK Flexibility Score: inf
ROOT
ATOM      1  C   UNL A   1      34.155  34.063  29.984  1.00  0.00     0.275 C 
ENDROOT
BRANCH   1   2
ATOM      2  O   UNL A   1      33.862  32.783  29.382  1.00  0.00    -0.458 OA
BRANCH   2   3
ATOM      3  C   UNL A   1      34.436  32.538  28.181  1.00  0.00     0.342 C 
ATOM      4  O   UNL A   1      35.318  33.197  27.652  1.00  0.00    -0.246 OA
BRANCH   3   5
ATOM      5  C   UNL A   1      33.951  31.265  27.605  1.00  0.00     0.102 A 
ATOM      6  C   UNL A   1      32.687  31.023  27.057  1.00  0.00     0.134 A 
ATOM      7  C   UNL A   1      32.400  29.721  26.590  1.00  0.00     0.056 A 
ATOM      8  C   UNL A   1      33.331  28.670  26.645  1.00  0.00    -0.015 A 
ATOM      9  C   UNL A   1      34.907  30.228  27.606  1.00  0.00     0.020 A 
ATOM     10  C   UNL A   1      34.595  28.942  27.163  1.00  0.00     0.010 A 
BRANCH   6  11
ATOM     11  O   UNL A   1      31.626  31.859  26.858  1.00  0.00    -0.496 OA
ATOM     12  C   UNL A   1      30.756  31.685  25.754  1.00  0.00     0.278 C 
ENDBRANCH   6  11
BRANCH   8  13
ATOM     13  C   UNL A   1      33.001  27.335  26.136  1.00  0.00    -0.017 A 
ATOM     14  C   UNL A   1      31.672  26.993  25.842  1.00  0.00     0.012 A 
ATOM     15  C   UNL A   1      34.004  26.374  25.920  1.00  0.00     0.025 A 
ATOM     16  C   UNL A   1      31.353  25.727  25.352  1.00  0.00     0.040 A 
ATOM     17  C   UNL A   1      33.691  25.094  25.430  1.00  0.00     0.092 A 
ATOM     18  C   UNL A   1      32.362  24.790  25.157  1.00  0.00     0.135 A 
ATOM     19  F   UNL A   1      32.031  23.575  24.698  1.00  0.00    -0.206 F 
BRANCH  17  20
ATOM     20  C   UNL A   1      34.739  24.042  25.220  1.00  0.00     0.419 C 
ATOM     21  F   UNL A   1      34.811  23.625  23.925  1.00  0.00    -0.166 F 
ATOM     22  F   UNL A   1      35.990  24.454  25.560  1.00  0.00    -0.166 F 
ATOM     23  F   UNL A   1      34.515  22.914  25.954  1.00  0.00    -0.166 F 
ENDBRANCH  17  20
ENDBRANCH   8  13
ENDBRANCH   3   5
ENDBRANCH   2   3
ENDBRANCH   1   2
BRANCH   1  24
ATOM     24  C   UNL A   1      34.539  33.889  31.450  1.00  0.00     0.275 C 
BRANCH  24  25
ATOM     25  O   UNL A   1      34.662  32.487  31.745  1.00  0.00    -0.458 OA
BRANCH  25  26
ATOM     26  C   UNL A   1      35.689  32.167  32.560  1.00  0.00     0.338 C 
ATOM     27  O   UNL A   1      35.808  32.400  33.750  1.00  0.00    -0.246 OA
BRANCH  26  28
ATOM     28  C   UNL A   1      36.654  31.347  31.820  1.00  0.00     0.060 A 
ATOM     29  C   UNL A   1      37.562  30.596  32.560  1.00  0.00     0.016 A 
ATOM     30  C   UNL A   1      36.784  31.456  30.438  1.00  0.00     0.016 A 
ATOM     31  C   UNL A   1      38.674  30.033  31.940  1.00  0.00     0.010 A 
ATOM     32  C   UNL A   1      37.859  30.822  29.804  1.00  0.00     0.010 A 
ATOM     33  C   UNL A   1      38.848  30.151  30.553  1.00  0.00    -0.014 A 
BRANCH  33  34
ATOM     34  C   UNL A   1      40.102  29.669  29.905  1.00  0.00     0.031 A 
ATOM     35  C   UNL A   1      41.285  30.598  29.776  1.00  0.00     0.074 A 
ATOM     36  C   UNL A   1      40.213  28.401  29.457  1.00  0.00     0.049 A 
ATOM     37  N   UNL A   1      42.397  30.442  29.100  1.00  0.00    -0.248 NA
ATOM     38  C   UNL A   1      41.200  31.883  30.490  1.00  0.00     0.031 C 
ATOM     39  C   UNL A   1      39.178  27.371  29.557  1.00  0.00     0.029 A 
ATOM     40  N   UNL A   1      41.257  27.761  28.836  1.00  0.00    -0.354 N 
ATOM     41  C   UNL A   1      43.101  31.633  29.244  1.00  0.00     0.074 A 
ATOM     42  C   UNL A   1      42.297  32.500  30.077  1.00  0.00     0.031 C 
ATOM     43  C   UNL A   1      39.653  26.219  29.055  1.00  0.00     0.029 A 
ATOM     44  C   UNL A   1      40.992  26.449  28.523  1.00  0.00     0.049 A 
ATOM     45  H   UNL A   1      42.115  28.200  28.634  1.00  0.00     0.167 HD
ATOM     46  C   UNL A   1      44.307  31.973  28.728  1.00  0.00     0.037 A 
ATOM     47  C   UNL A   1      41.726  25.541  27.851  1.00  0.00     0.037 A 
ATOM     48  C   UNL A   1      45.149  31.080  27.974  1.00  0.00     0.049 A 
ATOM     49  C   UNL A   1      43.066  25.941  27.295  1.00  0.00     0.074 A 
ATOM     50  C   UNL A   1      46.401  31.325  27.434  1.00  0.00     0.029 A 
ATOM     51  N   UNL A   1      44.837  29.763  27.677  1.00  0.00    -0.354 N 
ATOM     52  N   UNL A   1      43.692  27.089  27.389  1.00  0.00    -0.248 NA
ATOM     53  C   UNL A   1      43.792  24.921  26.525  1.00  0.00     0.031 C 
ATOM     54  C   UNL A   1      46.834  30.162  26.787  1.00  0.00     0.029 A 
ATOM     55  C   UNL A   1      45.870  29.183  26.959  1.00  0.00     0.049 A 
ATOM     56  H   UNL A   1      44.004  29.308  27.937  1.00  0.00     0.167 HD
ATOM     57  C   UNL A   1      44.894  26.920  26.714  1.00  0.00     0.074 A 
ATOM     58  C   UNL A   1      44.916  25.555  26.231  1.00  0.00     0.031 C 
ATOM     59  C   UNL A   1      45.888  27.818  26.506  1.00  0.00     0.037 A 
BRANCH  46  60
ATOM     60  C   UNL A   1      44.783  33.383  28.932  1.00  0.00     0.057 A 
ATOM     61  C   UNL A   1      45.589  33.754  30.015  1.00  0.00     0.134 A 
ATOM     62  C   UNL A   1      44.461  34.375  27.997  1.00  0.00     0.134 A 
ATOM     63  F   UNL A   1      45.922  32.856  30.955  1.00  0.00    -0.206 F 
ATOM     64  C   UNL A   1      46.041  35.067  30.170  1.00  0.00     0.040 A 
ATOM     65  C   UNL A   1      44.929  35.683  28.126  1.00  0.00     0.040 A 
ATOM     66  F   UNL A   1      43.698  34.085  26.931  1.00  0.00    -0.206 F 
ATOM     67  C   UNL A   1      45.718  36.034  29.219  1.00  0.00     0.006 A 
ENDBRANCH  46  60
BRANCH  47  68
ATOM     68  C   UNL A   1      41.205  24.167  27.635  1.00  0.00     0.057 A 
ATOM     69  C   UNL A   1      41.718  23.079  28.351  1.00  0.00     0.134 A 
ATOM     70  C   UNL A   1      40.208  23.903  26.688  1.00  0.00     0.134 A 
ATOM     71  F   UNL A   1      42.693  23.264  29.253  1.00  0.00    -0.206 F 
ATOM     72  C   UNL A   1      41.271  21.777  28.122  1.00  0.00     0.040 A 
ATOM     73  C   UNL A   1      39.732  22.609  26.470  1.00  0.00     0.040 A 
ATOM     74  F   UNL A   1      39.676  24.901  25.968  1.00  0.00    -0.206 F 
ATOM     75  C   UNL A   1      40.271  21.540  27.182  1.00  0.00     0.006 A 
ENDBRANCH  47  68
BRANCH  59  76
ATOM     76  C   UNL A   1      47.105  27.329  25.777  1.00  0.00     0.057 A 
ATOM     77  C   UNL A   1      47.270  27.516  24.399  1.00  0.00     0.134 A 
ATOM     78  C   UNL A   1      48.127  26.667  26.469  1.00  0.00     0.134 A 
ATOM     79  F   UNL A   1      46.320  28.129  23.678  1.00  0.00    -0.206 F 
ATOM     80  C   UNL A   1      48.395  27.033  23.729  1.00  0.00     0.040 A 
ATOM     81  C   UNL A   1      49.268  26.202  25.814  1.00  0.00     0.040 A 
ATOM     82  F   UNL A   1      48.034  26.463  27.792  1.00  0.00    -0.206 F 
ATOM     83  C   UNL A   1      49.400  26.377  24.439  1.00  0.00     0.006 A 
ENDBRANCH  59  76
ENDBRANCH  33  34
ENDBRANCH  26  28
ENDBRANCH  25  26
ENDBRANCH  24  25
ENDBRANCH   1  24
TORSDOF 14
ENDMDL
MODEL 3
REMARK VINA RESULT:     -11.8      3.761      6.585
REMARK SMILES COc1cc(-c2ccc(F)c(C(F)(F)F)c2)ccc1C(=O)OCCOC(=O)c1ccc(-c2c3nc(c(-c4c(F)cccc4F)c4ccc([nH]4)c(-c4c(F)cccc4F)c4nc(c(-c5c(F)cccc5F)c5ccc2[nH]5)C=C4)C=C3)cc1
REMARK SMILES IDX 23 1 22 2 20 3 21 4 19 5 3 6 4 7 5 8 18 9 17 10 2 11 1 12
REMARK SMILES IDX 6 13 7 14 16 15 8 16 11 17 9 18 10 19 12 20 13 21 14 22
REMARK SMILES IDX 15 23 24 24 25 25 26 26 27 27 28 28 29 29 81 30 30 31 80 32
REMARK SMILES IDX 31 33 32 34 33 35 74 36 34 37 79 38 73 39 75 40 35 41 78 42
REMARK SMILES IDX 72 43 71 44 36 46 62 47 45 48 61 49 46 50 49 51 60 52 76 53
REMARK SMILES IDX 47 54 48 55 59 57 77 58 50 59 37 60 38 61 43 62 39 63 40 64
REMARK SMILES IDX 42 65 44 66 41 67 63 68 64 69 69 70 65 71 66 72 68 73 70 74
REMARK SMILES IDX 67 75 51 76 52 77 57 78 53 79 54 80 56 81 58 82 55 83
REMARK H PARENT 75 45 49 56
REMARK Flexibility Score: inf
ROOT
ATOM      1  C   UNL A   1      35.161  20.841  24.850  1.00  0.00     0.275 C 
ENDROOT
BRANCH   1   2
ATOM      2  O   UNL A   1      35.107  22.057  24.073  1.00  0.00    -0.458 OA
BRANCH   2   3
ATOM      3  C   UNL A   1      33.873  22.524  23.771  1.00  0.00     0.342 C 
ATOM      4  O   UNL A   1      32.942  21.871  23.323  1.00  0.00    -0.246 OA
BRANCH   3   5
ATOM      5  C   UNL A   1      33.722  23.939  24.171  1.00  0.00     0.102 A 
ATOM      6  C   UNL A   1      33.674  25.048  23.320  1.00  0.00     0.134 A 
ATOM      7  C   UNL A   1      33.564  26.330  23.901  1.00  0.00     0.056 A 
ATOM      8  C   UNL A   1      33.490  26.535  25.289  1.00  0.00    -0.015 A 
ATOM      9  C   UNL A   1      33.588  24.137  25.562  1.00  0.00     0.020 A 
ATOM     10  C   UNL A   1      33.504  25.414  26.116  1.00  0.00     0.010 A 
BRANCH   6  11
ATOM     11  O   UNL A   1      33.694  25.128  21.957  1.00  0.00    -0.496 OA
ATOM     12  C   UNL A   1      32.599  25.669  21.241  1.00  0.00     0.278 C 
ENDBRANCH   6  11
BRANCH   8  13
ATOM     13  C   UNL A   1      33.360  27.882  25.854  1.00  0.00    -0.017 A 
ATOM     14  C   UNL A   1      32.183  28.623  25.667  1.00  0.00     0.012 A 
ATOM     15  C   UNL A   1      34.403  28.456  26.602  1.00  0.00     0.025 A 
ATOM     16  C   UNL A   1      32.053  29.902  26.207  1.00  0.00     0.040 A 
ATOM     17  C   UNL A   1      34.281  29.746  27.148  1.00  0.00     0.092 A 
ATOM     18  C   UNL A   1      33.102  30.453  26.935  1.00  0.00     0.135 A 
ATOM     19  F   UNL A   1      32.960  31.688  27.433  1.00  0.00    -0.206 F 
BRANCH  17  20
ATOM     20  C   UNL A   1      35.389  30.392  27.924  1.00  0.00     0.419 C 
ATOM     21  F   UNL A   1      35.627  29.772  29.113  1.00  0.00    -0.166 F 
ATOM     22  F   UNL A   1      36.575  30.409  27.256  1.00  0.00    -0.166 F 
ATOM     23  F   UNL A   1      35.130  31.694  28.238  1.00  0.00    -0.166 F 
ENDBRANCH  17  20
ENDBRANCH   8  13
ENDBRANCH   3   5
ENDBRANCH   2   3
ENDBRANCH   1   2
BRANCH   1  24
ATOM     24  C   UNL A   1      36.602  20.356  24.986  1.00  0.00     0.275 C 
BRANCH  24  25
ATOM     25  O   UNL A   1      37.471  21.492  25.142  1.00  0.00    -0.458 OA
BRANCH  25  26
ATOM     26  C   UNL A   1      38.641  21.229  25.761  1.00  0.00     0.338 C 
ATOM     27  O   UNL A   1      39.307  20.211  25.714  1.00  0.00    -0.246 OA
BRANCH  26  28
ATOM     28  C   UNL A   1      39.105  22.441  26.447  1.00  0.00     0.060 A 
ATOM     29  C   UNL A   1      38.488  23.643  26.116  1.00  0.00     0.016 A 
ATOM     30  C   UNL A   1      40.238  22.424  27.254  1.00  0.00     0.016 A 
ATOM     31  C   UNL A   1      39.061  24.852  26.501  1.00  0.00     0.010 A 
ATOM     32  C   UNL A   1      40.768  23.637  27.708  1.00  0.00     0.010 A 
ATOM     33  C   UNL A   1      40.220  24.867  27.291  1.00  0.00    -0.014 A 
BRANCH  33  34
ATOM     34  C   UNL A   1      40.913  26.155  27.591  1.00  0.00     0.031 A 
ATOM     35  C   UNL A   1      42.307  26.397  27.064  1.00  0.00     0.074 A 
ATOM     36  C   UNL A   1      40.303  27.125  28.301  1.00  0.00     0.049 A 
ATOM     37  N   UNL A   1      43.149  27.360  27.349  1.00  0.00    -0.248 NA
ATOM     38  C   UNL A   1      42.831  25.415  26.100  1.00  0.00     0.031 C 
ATOM     39  C   UNL A   1      38.940  27.062  28.833  1.00  0.00     0.029 A 
ATOM     40  N   UNL A   1      40.751  28.364  28.689  1.00  0.00    -0.354 N 
ATOM     41  C   UNL A   1      44.321  27.056  26.664  1.00  0.00     0.074 A 
ATOM     42  C   UNL A   1      44.081  25.825  25.944  1.00  0.00     0.031 C 
ATOM     43  C   UNL A   1      38.649  28.225  29.439  1.00  0.00     0.029 A 
ATOM     44  C   UNL A   1      39.829  29.082  29.415  1.00  0.00     0.049 A 
ATOM     45  H   UNL A   1      41.647  28.707  28.469  1.00  0.00     0.167 HD
ATOM     46  C   UNL A   1      45.490  27.741  26.638  1.00  0.00     0.037 A 
ATOM     47  C   UNL A   1      39.932  30.279  30.023  1.00  0.00     0.037 A 
ATOM     48  C   UNL A   1      45.701  29.012  27.282  1.00  0.00     0.049 A 
ATOM     49  C   UNL A   1      41.238  31.023  29.974  1.00  0.00     0.074 A 
ATOM     50  C   UNL A   1      46.843  29.796  27.289  1.00  0.00     0.029 A 
ATOM     51  N   UNL A   1      44.742  29.698  28.009  1.00  0.00    -0.354 N 
ATOM     52  N   UNL A   1      42.355  30.696  29.372  1.00  0.00    -0.248 NA
ATOM     53  C   UNL A   1      41.300  32.298  30.704  1.00  0.00     0.031 C 
ATOM     54  C   UNL A   1      46.581  30.945  28.045  1.00  0.00     0.029 A 
ATOM     55  C   UNL A   1      45.265  30.894  28.473  1.00  0.00     0.049 A 
ATOM     56  H   UNL A   1      43.824  29.381  28.173  1.00  0.00     0.167 HD
ATOM     57  C   UNL A   1      43.242  31.733  29.629  1.00  0.00     0.074 A 
ATOM     58  C   UNL A   1      42.528  32.708  30.427  1.00  0.00     0.031 C 
ATOM     59  C   UNL A   1      44.536  31.864  29.245  1.00  0.00     0.037 A 
BRANCH  46  60
ATOM     60  C   UNL A   1      46.650  27.118  25.916  1.00  0.00     0.057 A 
ATOM     61  C   UNL A   1      46.934  27.394  24.573  1.00  0.00     0.134 A 
ATOM     62  C   UNL A   1      47.522  26.259  26.597  1.00  0.00     0.134 A 
ATOM     63  F   UNL A   1      46.130  28.196  23.859  1.00  0.00    -0.206 F 
ATOM     64  C   UNL A   1      48.034  26.823  23.929  1.00  0.00     0.040 A 
ATOM     65  C   UNL A   1      48.640  25.704  25.972  1.00  0.00     0.040 A 
ATOM     66  F   UNL A   1      47.312  25.957  27.888  1.00  0.00    -0.206 F 
ATOM     67  C   UNL A   1      48.896  25.981  24.631  1.00  0.00     0.006 A 
ENDBRANCH  46  60
BRANCH  47  68
ATOM     68  C   UNL A   1      38.774  30.846  30.763  1.00  0.00     0.057 A 
ATOM     69  C   UNL A   1      37.934  31.797  30.171  1.00  0.00     0.134 A 
ATOM     70  C   UNL A   1      38.498  30.477  32.085  1.00  0.00     0.134 A 
ATOM     71  F   UNL A   1      38.162  32.210  28.916  1.00  0.00    -0.206 F 
ATOM     72  C   UNL A   1      36.873  32.372  30.871  1.00  0.00     0.040 A 
ATOM     73  C   UNL A   1      37.423  31.023  32.787  1.00  0.00     0.040 A 
ATOM     74  F   UNL A   1      39.266  29.572  32.710  1.00  0.00    -0.206 F 
ATOM     75  C   UNL A   1      36.612  31.981  32.183  1.00  0.00     0.006 A 
ENDBRANCH  47  68
BRANCH  59  76
ATOM     76  C   UNL A   1      45.236  33.133  29.632  1.00  0.00     0.057 A 
ATOM     77  C   UNL A   1      45.966  33.245  30.821  1.00  0.00     0.134 A 
ATOM     78  C   UNL A   1      45.180  34.256  28.797  1.00  0.00     0.134 A 
ATOM     79  F   UNL A   1      46.044  32.210  31.671  1.00  0.00    -0.206 F 
ATOM     80  C   UNL A   1      46.591  34.440  31.182  1.00  0.00     0.040 A 
ATOM     81  C   UNL A   1      45.821  35.448  29.135  1.00  0.00     0.040 A 
ATOM     82  F   UNL A   1      44.503  34.212  27.639  1.00  0.00    -0.206 F 
ATOM     83  C   UNL A   1      46.522  35.545  30.335  1.00  0.00     0.006 A 
ENDBRANCH  59  76
ENDBRANCH  33  34
ENDBRANCH  26  28
ENDBRANCH  25  26
ENDBRANCH  24  25
ENDBRANCH   1  24
TORSDOF 14
ENDMDL
