MODEL 1
REMARK VINA RESULT:     -12.3      0.000      0.000
REMARK SMILES O=C(OCCOC(=O)[C@H]1C[C@@H](C(=O)N2CCCC2)C[N@@H+](Cc2cccnc2)C1)c1ccc(-c2c3nc(c(-c4c(F)cccc4F)c4ccc([nH]4)c(-c4c(F)cccc4F)c4nc(c(-c5c(F)cccc5F)c5ccc2[nH]5)C=C4)C=C3)cc1
REMARK SMILES IDX 4 1 3 2 2 3 1 4 29 5 30 6 82 7 31 8 81 9 32 10 33 11 34 12
REMARK SMILES IDX 75 13 35 14 80 15 74 16 76 17 36 18 79 19 73 20 72 21 37 23
REMARK SMILES IDX 63 24 46 25 62 26 47 27 50 28 61 29 77 30 48 31 49 32 60 34
REMARK SMILES IDX 78 35 51 36 38 37 39 38 44 39 40 40 41 41 43 42 45 43 42 44
REMARK SMILES IDX 64 45 65 46 70 47 66 48 67 49 69 50 71 51 68 52 52 53 53 54
REMARK SMILES IDX 58 55 54 56 55 57 57 58 59 59 56 60 5 61 6 62 7 63 8 64 9 65
REMARK SMILES IDX 10 66 28 67 11 68 20 69 19 70 12 72 13 73 14 74 15 75 18 76
REMARK SMILES IDX 16 77 17 78 21 79 22 80 23 81 27 82 24 83 26 84 25 85
REMARK H PARENT 76 22 50 33 20 71
REMARK Flexibility Score: inf
ROOT
ATOM      1  C   UNL A   1      31.393  32.061  26.871  1.00  0.00     0.275 C 
ENDROOT
BRANCH   1   2
ATOM      2  O   UNL A   1      32.261  33.187  26.975  1.00  0.00    -0.458 OA
BRANCH   2   3
ATOM      3  C   UNL A   1      33.086  33.509  27.994  1.00  0.00     0.338 C 
ATOM      4  O   UNL A   1      32.723  34.389  28.764  1.00  0.00    -0.246 OA
BRANCH   3   5
ATOM      5  C   UNL A   1      34.480  32.960  28.154  1.00  0.00     0.060 A 
ATOM      6  C   UNL A   1      35.719  33.578  27.959  1.00  0.00     0.016 A 
ATOM      7  C   UNL A   1      34.502  31.679  28.697  1.00  0.00     0.016 A 
ATOM      8  C   UNL A   1      36.909  33.012  28.461  1.00  0.00     0.010 A 
ATOM      9  C   UNL A   1      35.657  31.164  29.275  1.00  0.00     0.010 A 
ATOM     10  C   UNL A   1      36.881  31.824  29.189  1.00  0.00    -0.014 A 
BRANCH  10  11
ATOM     11  C   UNL A   1      38.084  31.240  29.847  1.00  0.00     0.031 A 
ATOM     12  C   UNL A   1      38.478  31.701  31.234  1.00  0.00     0.074 A 
ATOM     13  C   UNL A   1      38.908  30.405  29.175  1.00  0.00     0.049 A 
ATOM     14  N   UNL A   1      39.488  31.326  31.976  1.00  0.00    -0.248 NA
ATOM     15  C   UNL A   1      37.687  32.792  31.834  1.00  0.00     0.031 C 
ATOM     16  C   UNL A   1      38.795  30.030  27.761  1.00  0.00     0.029 A 
ATOM     17  N   UNL A   1      40.028  29.725  29.597  1.00  0.00    -0.354 N 
ATOM     18  C   UNL A   1      39.436  32.137  33.102  1.00  0.00     0.074 A 
ATOM     19  C   UNL A   1      38.444  33.150  32.855  1.00  0.00     0.031 C 
ATOM     20  C   UNL A   1      39.780  29.169  27.446  1.00  0.00     0.029 A 
ATOM     21  C   UNL A   1      40.583  28.910  28.637  1.00  0.00     0.049 A 
ATOM     22  H   UNL A   1      40.398  29.815  30.504  1.00  0.00     0.167 HD
ATOM     23  C   UNL A   1      40.049  31.980  34.298  1.00  0.00     0.037 A 
ATOM     24  C   UNL A   1      41.593  28.022  28.729  1.00  0.00     0.037 A 
ATOM     25  C   UNL A   1      40.973  30.920  34.572  1.00  0.00     0.049 A 
ATOM     26  C   UNL A   1      42.218  27.786  30.082  1.00  0.00     0.074 A 
ATOM     27  C   UNL A   1      41.574  30.574  35.765  1.00  0.00     0.029 A 
ATOM     28  N   UNL A   1      41.415  30.019  33.615  1.00  0.00    -0.354 N 
ATOM     29  N   UNL A   1      42.005  28.416  31.213  1.00  0.00    -0.248 NA
ATOM     30  C   UNL A   1      43.179  26.678  30.187  1.00  0.00     0.031 C 
ATOM     31  C   UNL A   1      42.393  29.465  35.527  1.00  0.00     0.029 A 
ATOM     32  C   UNL A   1      42.277  29.108  34.193  1.00  0.00     0.049 A 
ATOM     33  H   UNL A   1      41.153  30.028  32.666  1.00  0.00     0.167 HD
ATOM     34  C   UNL A   1      42.766  27.754  32.168  1.00  0.00     0.074 A 
ATOM     35  C   UNL A   1      43.434  26.664  31.487  1.00  0.00     0.031 C 
ATOM     36  C   UNL A   1      42.903  28.018  33.492  1.00  0.00     0.037 A 
BRANCH  23  37
ATOM     37  C   UNL A   1      39.626  32.908  35.401  1.00  0.00     0.057 A 
ATOM     38  C   UNL A   1      40.301  34.120  35.627  1.00  0.00     0.134 A 
ATOM     39  C   UNL A   1      38.574  32.590  36.264  1.00  0.00     0.134 A 
ATOM     40  F   UNL A   1      41.330  34.481  34.844  1.00  0.00    -0.206 F 
ATOM     41  C   UNL A   1      39.983  34.950  36.701  1.00  0.00     0.040 A 
ATOM     42  C   UNL A   1      38.222  33.431  37.323  1.00  0.00     0.040 A 
ATOM     43  F   UNL A   1      37.879  31.453  36.105  1.00  0.00    -0.206 F 
ATOM     44  C   UNL A   1      38.938  34.607  37.553  1.00  0.00     0.006 A 
ENDBRANCH  23  37
BRANCH  24  45
ATOM     45  C   UNL A   1      41.995  27.195  27.559  1.00  0.00     0.057 A 
ATOM     46  C   UNL A   1      42.952  27.657  26.643  1.00  0.00     0.134 A 
ATOM     47  C   UNL A   1      41.413  25.950  27.300  1.00  0.00     0.134 A 
ATOM     48  F   UNL A   1      43.538  28.849  26.827  1.00  0.00    -0.206 F 
ATOM     49  C   UNL A   1      43.284  26.933  25.496  1.00  0.00     0.040 A 
ATOM     50  C   UNL A   1      41.753  25.203  26.166  1.00  0.00     0.040 A 
ATOM     51  F   UNL A   1      40.501  25.440  28.140  1.00  0.00    -0.206 F 
ATOM     52  C   UNL A   1      42.683  25.700  25.255  1.00  0.00     0.006 A 
ENDBRANCH  24  45
BRANCH  36  53
ATOM     53  C   UNL A   1      43.764  27.091  34.293  1.00  0.00     0.057 A 
ATOM     54  C   UNL A   1      45.133  27.318  34.463  1.00  0.00     0.134 A 
ATOM     55  C   UNL A   1      43.200  25.986  34.945  1.00  0.00     0.134 A 
ATOM     56  F   UNL A   1      45.731  28.355  33.856  1.00  0.00    -0.206 F 
ATOM     57  C   UNL A   1      45.920  26.465  35.236  1.00  0.00     0.040 A 
ATOM     58  C   UNL A   1      43.971  25.142  35.743  1.00  0.00     0.040 A 
ATOM     59  F   UNL A   1      41.890  25.722  34.830  1.00  0.00    -0.206 F 
ATOM     60  C   UNL A   1      45.337  25.378  35.885  1.00  0.00     0.006 A 
ENDBRANCH  36  53
ENDBRANCH  10  11
ENDBRANCH   3   5
ENDBRANCH   2   3
ENDBRANCH   1   2
BRANCH   1  61
ATOM     61  C   UNL A   1      32.050  30.779  26.340  1.00  0.00     0.274 C 
BRANCH  61  62
ATOM     62  O   UNL A   1      32.030  29.624  27.222  1.00  0.00    -0.462 OA
BRANCH  62  63
ATOM     63  C   UNL A   1      32.899  28.637  26.865  1.00  0.00     0.314 C 
ATOM     64  O   UNL A   1      34.040  28.586  27.318  1.00  0.00    -0.252 OA
BRANCH  63  65
ATOM     65  C   UNL A   1      32.394  27.676  25.758  1.00  0.00     0.155 C 
ATOM     66  C   UNL A   1      32.561  26.283  26.360  1.00  0.00     0.040 C 
ATOM     67  C   UNL A   1      30.930  27.853  25.307  1.00  0.00     0.277 C 
ATOM     68  C   UNL A   1      31.875  25.134  25.635  1.00  0.00     0.134 C 
ATOM     69  N   UNL A   1      30.400  26.716  24.531  1.00  0.00    -0.330 N 
ATOM     70  C   UNL A   1      30.440  25.441  25.250  1.00  0.00     0.276 C 
ATOM     71  H   UNL A   1      31.089  26.665  23.780  1.00  0.00     0.348 HD
BRANCH  68  72
ATOM     72  C   UNL A   1      32.009  23.842  26.441  1.00  0.00     0.231 C 
ATOM     73  O   UNL A   1      31.249  23.631  27.388  1.00  0.00    -0.274 OA
ATOM     74  N   UNL A   1      32.842  22.853  25.962  1.00  0.00    -0.342 N 
ATOM     75  C   UNL A   1      34.193  22.945  25.424  1.00  0.00     0.119 C 
ATOM     76  C   UNL A   1      32.246  21.573  25.635  1.00  0.00     0.119 C 
ATOM     77  C   UNL A   1      34.177  21.993  24.237  1.00  0.00     0.023 C 
ATOM     78  C   UNL A   1      33.232  20.886  24.694  1.00  0.00     0.023 C 
ENDBRANCH  68  72
BRANCH  69  79
ATOM     79  C   UNL A   1      29.152  26.910  23.777  1.00  0.00     0.300 C 
BRANCH  79  80
ATOM     80  C   UNL A   1      28.945  28.185  22.979  1.00  0.00     0.025 A 
ATOM     81  C   UNL A   1      27.797  28.967  23.077  1.00  0.00     0.013 A 
ATOM     82  C   UNL A   1      29.959  28.705  22.179  1.00  0.00     0.120 A 
ATOM     83  C   UNL A   1      27.723  30.226  22.486  1.00  0.00     0.021 A 
ATOM     84  N   UNL A   1      29.910  29.909  21.551  1.00  0.00    -0.264 NA
ATOM     85  C   UNL A   1      28.801  30.652  21.737  1.00  0.00     0.111 A 
ENDBRANCH  79  80
ENDBRANCH  69  79
ENDBRANCH  63  65
ENDBRANCH  62  63
ENDBRANCH  61  62
ENDBRANCH   1  61
TORSDOF 14
ENDMDL
MODEL 2
REMARK VINA RESULT:     -12.3      6.610     12.121
REMARK SMILES O=C(OCCOC(=O)[C@H]1C[C@@H](C(=O)N2CCCC2)C[N@@H+](Cc2cccnc2)C1)c1ccc(-c2c3nc(c(-c4c(F)cccc4F)c4ccc([nH]4)c(-c4c(F)cccc4F)c4nc(c(-c5c(F)cccc5F)c5ccc2[nH]5)C=C4)C=C3)cc1
REMARK SMILES IDX 4 1 3 2 2 3 1 4 29 5 30 6 82 7 31 8 81 9 32 10 33 11 34 12
REMARK SMILES IDX 75 13 35 14 80 15 74 16 76 17 36 18 79 19 73 20 72 21 37 23
REMARK SMILES IDX 63 24 46 25 62 26 47 27 50 28 61 29 77 30 48 31 49 32 60 34
REMARK SMILES IDX 78 35 51 36 38 37 39 38 44 39 40 40 41 41 43 42 45 43 42 44
REMARK SMILES IDX 64 45 65 46 70 47 66 48 67 49 69 50 71 51 68 52 52 53 53 54
REMARK SMILES IDX 58 55 54 56 55 57 57 58 59 59 56 60 5 61 6 62 7 63 8 64 9 65
REMARK SMILES IDX 10 66 28 67 11 68 20 69 19 70 12 72 13 73 14 74 15 75 18 76
REMARK SMILES IDX 16 77 17 78 21 79 22 80 23 81 27 82 24 83 26 84 25 85
REMARK H PARENT 76 22 50 33 20 71
REMARK Flexibility Score: inf
ROOT
ATOM      1  C   UNL A   1      45.121  19.576  24.970  1.00  0.00     0.275 C 
ENDROOT
BRANCH   1   2
ATOM      2  O   UNL A   1      43.774  19.900  24.632  1.00  0.00    -0.458 OA
BRANCH   2   3
ATOM      3  C   UNL A   1      42.707  19.981  25.455  1.00  0.00     0.338 C 
ATOM      4  O   UNL A   1      41.903  19.058  25.436  1.00  0.00    -0.246 OA
BRANCH   3   5
ATOM      5  C   UNL A   1      42.371  21.196  26.281  1.00  0.00     0.060 A 
ATOM      6  C   UNL A   1      42.026  21.298  27.633  1.00  0.00     0.016 A 
ATOM      7  C   UNL A   1      42.558  22.391  25.595  1.00  0.00     0.016 A 
ATOM      8  C   UNL A   1      42.057  22.536  28.307  1.00  0.00     0.010 A 
ATOM      9  C   UNL A   1      42.682  23.598  26.275  1.00  0.00     0.010 A 
ATOM     10  C   UNL A   1      42.454  23.698  27.645  1.00  0.00    -0.014 A 
BRANCH  10  11
ATOM     11  C   UNL A   1      42.623  25.010  28.330  1.00  0.00     0.031 A 
ATOM     12  C   UNL A   1      43.958  25.368  28.947  1.00  0.00     0.074 A 
ATOM     13  C   UNL A   1      41.568  25.832  28.529  1.00  0.00     0.049 A 
ATOM     14  N   UNL A   1      44.309  26.451  29.590  1.00  0.00    -0.248 NA
ATOM     15  C   UNL A   1      45.014  24.338  28.916  1.00  0.00     0.031 C 
ATOM     16  C   UNL A   1      40.170  25.542  28.192  1.00  0.00     0.029 A 
ATOM     17  N   UNL A   1      41.507  27.089  29.085  1.00  0.00    -0.354 N 
ATOM     18  C   UNL A   1      45.606  26.212  30.028  1.00  0.00     0.074 A 
ATOM     19  C   UNL A   1      45.897  24.827  29.768  1.00  0.00     0.031 C 
ATOM     20  C   UNL A   1      39.402  26.598  28.519  1.00  0.00     0.029 A 
ATOM     21  C   UNL A   1      40.251  27.650  29.067  1.00  0.00     0.049 A 
ATOM     22  H   UNL A   1      42.293  27.545  29.463  1.00  0.00     0.167 HD
ATOM     23  C   UNL A   1      46.533  27.091  30.476  1.00  0.00     0.037 A 
ATOM     24  C   UNL A   1      39.849  28.891  29.408  1.00  0.00     0.037 A 
ATOM     25  C   UNL A   1      46.267  28.487  30.653  1.00  0.00     0.049 A 
ATOM     26  C   UNL A   1      40.895  29.895  29.825  1.00  0.00     0.074 A 
ATOM     27  C   UNL A   1      47.139  29.505  30.985  1.00  0.00     0.029 A 
ATOM     28  N   UNL A   1      45.015  29.058  30.493  1.00  0.00    -0.354 N 
ATOM     29  N   UNL A   1      42.179  29.716  30.028  1.00  0.00    -0.248 NA
ATOM     30  C   UNL A   1      40.450  31.285  30.002  1.00  0.00     0.031 C 
ATOM     31  C   UNL A   1      46.408  30.696  31.037  1.00  0.00     0.029 A 
ATOM     32  C   UNL A   1      45.089  30.420  30.710  1.00  0.00     0.049 A 
ATOM     33  H   UNL A   1      44.195  28.567  30.259  1.00  0.00     0.167 HD
ATOM     34  C   UNL A   1      42.701  30.972  30.309  1.00  0.00     0.074 A 
ATOM     35  C   UNL A   1      41.597  31.907  30.237  1.00  0.00     0.031 C 
ATOM     36  C   UNL A   1      43.977  31.326  30.601  1.00  0.00     0.037 A 
BRANCH  23  37
ATOM     37  C   UNL A   1      47.926  26.562  30.670  1.00  0.00     0.057 A 
ATOM     38  C   UNL A   1      48.840  26.521  29.603  1.00  0.00     0.134 A 
ATOM     39  C   UNL A   1      48.354  26.060  31.902  1.00  0.00     0.134 A 
ATOM     40  F   UNL A   1      48.489  26.973  28.389  1.00  0.00    -0.206 F 
ATOM     41  C   UNL A   1      50.105  25.949  29.740  1.00  0.00     0.040 A 
ATOM     42  C   UNL A   1      49.632  25.517  32.060  1.00  0.00     0.040 A 
ATOM     43  F   UNL A   1      47.539  26.074  32.967  1.00  0.00    -0.206 F 
ATOM     44  C   UNL A   1      50.505  25.447  30.974  1.00  0.00     0.006 A 
ENDBRANCH  23  37
BRANCH  24  45
ATOM     45  C   UNL A   1      38.428  29.305  29.250  1.00  0.00     0.057 A 
ATOM     46  C   UNL A   1      37.927  29.709  28.004  1.00  0.00     0.134 A 
ATOM     47  C   UNL A   1      37.547  29.350  30.336  1.00  0.00     0.134 A 
ATOM     48  F   UNL A   1      38.724  29.703  26.925  1.00  0.00    -0.206 F 
ATOM     49  C   UNL A   1      36.621  30.180  27.851  1.00  0.00     0.040 A 
ATOM     50  C   UNL A   1      36.229  29.797  30.193  1.00  0.00     0.040 A 
ATOM     51  F   UNL A   1      37.954  28.966  31.554  1.00  0.00    -0.206 F 
ATOM     52  C   UNL A   1      35.767  30.224  28.949  1.00  0.00     0.006 A 
ENDBRANCH  24  45
BRANCH  36  53
ATOM     53  C   UNL A   1      44.254  32.782  30.813  1.00  0.00     0.057 A 
ATOM     54  C   UNL A   1      44.579  33.634  29.752  1.00  0.00     0.134 A 
ATOM     55  C   UNL A   1      44.140  33.347  32.091  1.00  0.00     0.134 A 
ATOM     56  F   UNL A   1      44.712  33.149  28.508  1.00  0.00    -0.206 F 
ATOM     57  C   UNL A   1      44.806  34.994  29.956  1.00  0.00     0.040 A 
ATOM     58  C   UNL A   1      44.337  34.711  32.303  1.00  0.00     0.040 A 
ATOM     59  F   UNL A   1      43.819  32.585  33.147  1.00  0.00    -0.206 F 
ATOM     60  C   UNL A   1      44.677  35.537  31.233  1.00  0.00     0.006 A 
ENDBRANCH  36  53
ENDBRANCH  10  11
ENDBRANCH   3   5
ENDBRANCH   2   3
ENDBRANCH   1   2
BRANCH   1  61
ATOM     61  C   UNL A   1      46.156  20.660  24.633  1.00  0.00     0.274 C 
BRANCH  61  62
ATOM     62  O   UNL A   1      46.121  21.867  25.442  1.00  0.00    -0.462 OA
BRANCH  62  63
ATOM     63  C   UNL A   1      46.015  23.017  24.718  1.00  0.00     0.314 C 
ATOM     64  O   UNL A   1      45.524  23.027  23.592  1.00  0.00    -0.252 OA
BRANCH  63  65
ATOM     65  C   UNL A   1      46.672  24.267  25.357  1.00  0.00     0.155 C 
ATOM     66  C   UNL A   1      47.685  24.738  24.316  1.00  0.00     0.040 C 
ATOM     67  C   UNL A   1      45.731  25.439  25.703  1.00  0.00     0.277 C 
ATOM     68  C   UNL A   1      48.284  26.123  24.517  1.00  0.00     0.134 C 
ATOM     69  N   UNL A   1      46.430  26.710  25.970  1.00  0.00    -0.330 N 
ATOM     70  C   UNL A   1      47.249  27.180  24.850  1.00  0.00     0.276 C 
ATOM     71  H   UNL A   1      47.065  26.422  26.714  1.00  0.00     0.348 HD
BRANCH  68  72
ATOM     72  C   UNL A   1      49.155  26.502  23.319  1.00  0.00     0.231 C 
ATOM     73  O   UNL A   1      48.649  26.586  22.198  1.00  0.00    -0.274 OA
ATOM     74  N   UNL A   1      50.441  26.941  23.554  1.00  0.00    -0.342 N 
ATOM     75  C   UNL A   1      51.467  26.405  24.440  1.00  0.00     0.119 C 
ATOM     76  C   UNL A   1      50.779  28.286  23.134  1.00  0.00     0.119 C 
ATOM     77  C   UNL A   1      52.093  27.643  25.063  1.00  0.00     0.023 C 
ATOM     78  C   UNL A   1      52.018  28.671  23.938  1.00  0.00     0.023 C 
ENDBRANCH  68  72
BRANCH  69  79
ATOM     79  C   UNL A   1      45.678  27.793  26.624  1.00  0.00     0.300 C 
BRANCH  79  80
ATOM     80  C   UNL A   1      44.237  28.054  26.229  1.00  0.00     0.025 A 
ATOM     81  C   UNL A   1      43.510  27.209  25.395  1.00  0.00     0.013 A 
ATOM     82  C   UNL A   1      43.521  29.114  26.781  1.00  0.00     0.120 A 
ATOM     83  C   UNL A   1      42.139  27.371  25.214  1.00  0.00     0.021 A 
ATOM     84  N   UNL A   1      42.192  29.332  26.595  1.00  0.00    -0.264 NA
ATOM     85  C   UNL A   1      41.527  28.441  25.832  1.00  0.00     0.111 A 
ENDBRANCH  79  80
ENDBRANCH  69  79
ENDBRANCH  63  65
ENDBRANCH  62  63
ENDBRANCH  61  62
ENDBRANCH   1  61
TORSDOF 14
ENDMDL
MODEL 3
REMARK VINA RESULT:     -12.1      1.949      2.643
REMARK SMILES O=C(OCCOC(=O)[C@H]1C[C@@H](C(=O)N2CCCC2)C[N@@H+](Cc2cccnc2)C1)c1ccc(-c2c3nc(c(-c4c(F)cccc4F)c4ccc([nH]4)c(-c4c(F)cccc4F)c4nc(c(-c5c(F)cccc5F)c5ccc2[nH]5)C=C4)C=C3)cc1
REMARK SMILES IDX 4 1 3 2 2 3 1 4 29 5 30 6 82 7 31 8 81 9 32 10 33 11 34 12
REMARK SMILES IDX 75 13 35 14 80 15 74 16 76 17 36 18 79 19 73 20 72 21 37 23
REMARK SMILES IDX 63 24 46 25 62 26 47 27 50 28 61 29 77 30 48 31 49 32 60 34
REMARK SMILES IDX 78 35 51 36 38 37 39 38 44 39 40 40 41 41 43 42 45 43 42 44
REMARK SMILES IDX 64 45 65 46 70 47 66 48 67 49 69 50 71 51 68 52 52 53 53 54
REMARK SMILES IDX 58 55 54 56 55 57 57 58 59 59 56 60 5 61 6 62 7 63 8 64 9 65
REMARK SMILES IDX 10 66 28 67 11 68 20 69 19 70 12 72 13 73 14 74 15 75 18 76
REMARK SMILES IDX 16 77 17 78 21 79 22 80 23 81 27 82 24 83 26 84 25 85
REMARK H PARENT 76 22 50 33 20 71
REMARK Flexibility Score: inf
ROOT
ATOM      1  C   UNL A   1      32.114  32.348  27.339  1.00  0.00     0.275 C 
ENDROOT
BRANCH   1   2
ATOM      2  O   UNL A   1      32.602  33.683  27.450  1.00  0.00    -0.458 OA
BRANCH   2   3
ATOM      3  C   UNL A   1      33.082  34.305  28.548  1.00  0.00     0.338 C 
ATOM      4  O   UNL A   1      32.529  35.338  28.905  1.00  0.00    -0.246 OA
BRANCH   3   5
ATOM      5  C   UNL A   1      34.338  33.890  29.269  1.00  0.00     0.060 A 
ATOM      6  C   UNL A   1      34.503  33.060  30.383  1.00  0.00     0.016 A 
ATOM      7  C   UNL A   1      35.499  34.317  28.633  1.00  0.00     0.016 A 
ATOM      8  C   UNL A   1      35.765  32.532  30.723  1.00  0.00     0.010 A 
ATOM      9  C   UNL A   1      36.727  33.724  28.907  1.00  0.00     0.010 A 
ATOM     10  C   UNL A   1      36.887  32.806  29.942  1.00  0.00    -0.014 A 
BRANCH  10  11
ATOM     11  C   UNL A   1      38.220  32.183  30.178  1.00  0.00     0.031 A 
ATOM     12  C   UNL A   1      39.255  32.916  31.003  1.00  0.00     0.074 A 
ATOM     13  C   UNL A   1      38.570  31.034  29.558  1.00  0.00     0.049 A 
ATOM     14  N   UNL A   1      40.472  32.552  31.319  1.00  0.00    -0.248 NA
ATOM     15  C   UNL A   1      38.915  34.277  31.461  1.00  0.00     0.031 C 
ATOM     16  C   UNL A   1      37.773  30.312  28.559  1.00  0.00     0.029 A 
ATOM     17  N   UNL A   1      39.711  30.272  29.665  1.00  0.00    -0.354 N 
ATOM     18  C   UNL A   1      41.014  33.638  31.996  1.00  0.00     0.074 A 
ATOM     19  C   UNL A   1      40.089  34.732  31.860  1.00  0.00     0.031 C 
ATOM     20  C   UNL A   1      38.433  29.204  28.175  1.00  0.00     0.029 A 
ATOM     21  C   UNL A   1      39.689  29.120  28.913  1.00  0.00     0.049 A 
ATOM     22  H   UNL A   1      40.474  30.529  30.231  1.00  0.00     0.167 HD
ATOM     23  C   UNL A   1      42.113  33.692  32.783  1.00  0.00     0.037 A 
ATOM     24  C   UNL A   1      40.564  28.096  28.867  1.00  0.00     0.037 A 
ATOM     25  C   UNL A   1      42.987  32.576  32.986  1.00  0.00     0.049 A 
ATOM     26  C   UNL A   1      41.743  28.117  29.809  1.00  0.00     0.074 A 
ATOM     27  C   UNL A   1      44.063  32.456  33.843  1.00  0.00     0.029 A 
ATOM     28  N   UNL A   1      42.863  31.370  32.314  1.00  0.00    -0.354 N 
ATOM     29  N   UNL A   1      42.135  29.069  30.621  1.00  0.00    -0.248 NA
ATOM     30  C   UNL A   1      42.567  26.901  29.871  1.00  0.00     0.031 C 
ATOM     31  C   UNL A   1      44.599  31.174  33.681  1.00  0.00     0.029 A 
ATOM     32  C   UNL A   1      43.838  30.492  32.744  1.00  0.00     0.049 A 
ATOM     33  H   UNL A   1      42.181  31.169  31.633  1.00  0.00     0.167 HD
ATOM     34  C   UNL A   1      43.218  28.552  31.322  1.00  0.00     0.074 A 
ATOM     35  C   UNL A   1      43.411  27.197  30.849  1.00  0.00     0.031 C 
ATOM     36  C   UNL A   1      43.985  29.140  32.273  1.00  0.00     0.037 A 
BRANCH  23  37
ATOM     37  C   UNL A   1      42.325  34.961  33.559  1.00  0.00     0.057 A 
ATOM     38  C   UNL A   1      43.069  36.025  33.019  1.00  0.00     0.134 A 
ATOM     39  C   UNL A   1      41.825  35.121  34.854  1.00  0.00     0.134 A 
ATOM     40  F   UNL A   1      43.590  35.932  31.785  1.00  0.00    -0.206 F 
ATOM     41  C   UNL A   1      43.355  37.172  33.757  1.00  0.00     0.040 A 
ATOM     42  C   UNL A   1      42.076  36.282  35.591  1.00  0.00     0.040 A 
ATOM     43  F   UNL A   1      41.100  34.152  35.432  1.00  0.00    -0.206 F 
ATOM     44  C   UNL A   1      42.855  37.305  35.048  1.00  0.00     0.006 A 
ENDBRANCH  23  37
BRANCH  24  45
ATOM     45  C   UNL A   1      40.307  26.907  28.009  1.00  0.00     0.057 A 
ATOM     46  C   UNL A   1      39.527  25.837  28.472  1.00  0.00     0.134 A 
ATOM     47  C   UNL A   1      40.860  26.786  26.730  1.00  0.00     0.134 A 
ATOM     48  F   UNL A   1      38.979  25.884  29.696  1.00  0.00    -0.206 F 
ATOM     49  C   UNL A   1      39.342  24.677  27.716  1.00  0.00     0.040 A 
ATOM     50  C   UNL A   1      40.663  25.640  25.951  1.00  0.00     0.040 A 
ATOM     51  F   UNL A   1      41.605  27.775  26.218  1.00  0.00    -0.206 F 
ATOM     52  C   UNL A   1      39.911  24.577  26.449  1.00  0.00     0.006 A 
ENDBRANCH  24  45
BRANCH  36  53
ATOM     53  C   UNL A   1      45.065  28.310  32.895  1.00  0.00     0.057 A 
ATOM     54  C   UNL A   1      44.823  27.499  34.009  1.00  0.00     0.134 A 
ATOM     55  C   UNL A   1      46.349  28.281  32.335  1.00  0.00     0.134 A 
ATOM     56  F   UNL A   1      43.616  27.491  34.594  1.00  0.00    -0.206 F 
ATOM     57  C   UNL A   1      45.828  26.707  34.562  1.00  0.00     0.040 A 
ATOM     58  C   UNL A   1      47.354  27.471  32.862  1.00  0.00     0.040 A 
ATOM     59  F   UNL A   1      46.640  29.027  31.258  1.00  0.00    -0.206 F 
ATOM     60  C   UNL A   1      47.095  26.685  33.983  1.00  0.00     0.006 A 
ENDBRANCH  36  53
ENDBRANCH  10  11
ENDBRANCH   3   5
ENDBRANCH   2   3
ENDBRANCH   1   2
BRANCH   1  61
ATOM     61  C   UNL A   1      33.199  31.262  27.273  1.00  0.00     0.274 C 
BRANCH  61  62
ATOM     62  O   UNL A   1      32.742  29.883  27.331  1.00  0.00    -0.462 OA
BRANCH  62  63
ATOM     63  C   UNL A   1      33.627  28.984  26.817  1.00  0.00     0.314 C 
ATOM     64  O   UNL A   1      34.768  28.877  27.259  1.00  0.00    -0.252 OA
BRANCH  63  65
ATOM     65  C   UNL A   1      33.137  28.211  25.565  1.00  0.00     0.155 C 
ATOM     66  C   UNL A   1      33.806  26.843  25.677  1.00  0.00     0.040 C 
ATOM     67  C   UNL A   1      31.614  28.013  25.430  1.00  0.00     0.277 C 
ATOM     68  C   UNL A   1      33.290  25.748  24.755  1.00  0.00     0.134 C 
ATOM     69  N   UNL A   1      31.229  26.991  24.438  1.00  0.00    -0.330 N 
ATOM     70  C   UNL A   1      31.776  25.662  24.717  1.00  0.00     0.276 C 
ATOM     71  H   UNL A   1      31.701  27.348  23.608  1.00  0.00     0.348 HD
BRANCH  68  72
ATOM     72  C   UNL A   1      33.952  24.413  25.095  1.00  0.00     0.231 C 
ATOM     73  O   UNL A   1      34.498  24.263  26.190  1.00  0.00    -0.274 OA
ATOM     74  N   UNL A   1      33.745  23.343  24.250  1.00  0.00    -0.342 N 
ATOM     75  C   UNL A   1      33.792  23.274  22.795  1.00  0.00     0.119 C 
ATOM     76  C   UNL A   1      33.084  22.174  24.797  1.00  0.00     0.119 C 
ATOM     77  C   UNL A   1      32.607  22.391  22.434  1.00  0.00     0.023 C 
ATOM     78  C   UNL A   1      32.544  21.404  23.595  1.00  0.00     0.023 C 
ENDBRANCH  68  72
BRANCH  69  79
ATOM     79  C   UNL A   1      29.828  26.951  23.989  1.00  0.00     0.300 C 
BRANCH  79  80
ATOM     80  C   UNL A   1      29.288  28.062  23.107  1.00  0.00     0.025 A 
ATOM     81  C   UNL A   1      27.974  28.517  23.172  1.00  0.00     0.013 A 
ATOM     82  C   UNL A   1      30.127  28.771  22.250  1.00  0.00     0.120 A 
ATOM     83  C   UNL A   1      27.567  29.663  22.494  1.00  0.00     0.021 A 
ATOM     84  N   UNL A   1      29.759  29.869  21.539  1.00  0.00    -0.264 NA
ATOM     85  C   UNL A   1      28.491  30.302  21.694  1.00  0.00     0.111 A 
ENDBRANCH  79  80
ENDBRANCH  69  79
ENDBRANCH  63  65
ENDBRANCH  62  63
ENDBRANCH  61  62
ENDBRANCH   1  61
TORSDOF 14
ENDMDL
