MODEL 1
REMARK VINA RESULT:      -9.8      0.000      0.000
REMARK SMILES O=C(CNc1nc(-c2ccccc2)c(-c2ccccc2)s1)OCCOC(=O)c1ccc(-c2c3nc(c(-c4c(F)cccc4F)c4ccc([nH]4)c(-c4c(F)cccc4F)c4nc(c(-c5c(F)cccc5F)c5ccc2[nH]5)C=C4)C=C3)cc1
REMARK SMILES IDX 23 1 22 2 2 3 1 4 3 5 4 6 5 8 6 9 21 10 7 11 14 12 8 13 9 14
REMARK SMILES IDX 13 15 10 16 12 17 11 18 15 19 16 20 20 21 17 22 19 23 18 24
REMARK SMILES IDX 24 25 25 26 26 27 27 28 28 29 29 30 81 31 30 32 80 33 31 34
REMARK SMILES IDX 32 35 33 36 74 37 34 38 79 39 73 40 75 41 35 42 78 43 72 44
REMARK SMILES IDX 71 45 36 47 62 48 45 49 61 50 46 51 49 52 60 53 76 54 47 55
REMARK SMILES IDX 48 56 59 58 77 59 50 60 37 61 38 62 43 63 39 64 40 65 42 66
REMARK SMILES IDX 44 67 41 68 63 69 64 70 69 71 65 72 66 73 68 74 70 75 67 76
REMARK SMILES IDX 51 77 52 78 57 79 53 80 54 81 56 82 58 83 55 84
REMARK H PARENT 4 7 75 46 49 57
REMARK Flexibility Score: inf
ROOT
ATOM      1  C   UNL A   1      33.734  34.663  29.239  1.00  0.00     0.274 C 
ENDROOT
BRANCH   1   2
ATOM      2  O   UNL A   1      32.616  35.100  30.041  1.00  0.00    -0.461 OA
BRANCH   2   3
ATOM      3  C   UNL A   1      32.641  36.067  30.990  1.00  0.00     0.325 C 
ATOM      4  O   UNL A   1      32.800  37.242  30.655  1.00  0.00    -0.250 OA
BRANCH   3   5
ATOM      5  C   UNL A   1      32.474  35.700  32.462  1.00  0.00     0.238 C 
BRANCH   5   6
ATOM      6  N   UNL A   1      33.651  36.015  33.252  1.00  0.00    -0.351 N 
ATOM      7  H   UNL A   1      33.631  36.779  33.872  1.00  0.00     0.163 HD
BRANCH   6   8
ATOM      8  C   UNL A   1      34.768  35.271  33.143  1.00  0.00     0.184 A 
ATOM      9  N   UNL A   1      35.640  35.344  32.163  1.00  0.00    -0.220 NA
ATOM     10  S   UNL A   1      35.059  34.030  34.290  1.00  0.00    -0.096 S 
ATOM     11  C   UNL A   1      36.583  34.334  32.284  1.00  0.00     0.091 A 
ATOM     12  C   UNL A   1      36.388  33.477  33.356  1.00  0.00     0.064 A 
BRANCH  11  13
ATOM     13  C   UNL A   1      37.714  34.237  31.368  1.00  0.00     0.002 A 
ATOM     14  C   UNL A   1      39.009  34.600  31.763  1.00  0.00     0.010 A 
ATOM     15  C   UNL A   1      37.487  33.857  30.039  1.00  0.00     0.010 A 
ATOM     16  C   UNL A   1      40.047  34.640  30.828  1.00  0.00     0.001 A 
ATOM     17  C   UNL A   1      38.525  33.900  29.105  1.00  0.00     0.001 A 
ATOM     18  C   UNL A   1      39.801  34.304  29.498  1.00  0.00     0.000 A 
ENDBRANCH  11  13
BRANCH  12  19
ATOM     19  C   UNL A   1      37.131  32.308  33.810  1.00  0.00    -0.006 A 
ATOM     20  C   UNL A   1      37.956  32.386  34.941  1.00  0.00     0.009 A 
ATOM     21  C   UNL A   1      37.017  31.090  33.129  1.00  0.00     0.009 A 
ATOM     22  C   UNL A   1      38.668  31.267  35.374  1.00  0.00     0.001 A 
ATOM     23  C   UNL A   1      37.731  29.973  33.562  1.00  0.00     0.001 A 
ATOM     24  C   UNL A   1      38.558  30.063  34.681  1.00  0.00     0.000 A 
ENDBRANCH  12  19
ENDBRANCH   6   8
ENDBRANCH   5   6
ENDBRANCH   3   5
ENDBRANCH   2   3
ENDBRANCH   1   2
BRANCH   1  25
ATOM     25  C   UNL A   1      34.109  33.203  29.489  1.00  0.00     0.275 C 
BRANCH  25  26
ATOM     26  O   UNL A   1      34.707  32.629  28.318  1.00  0.00    -0.458 OA
BRANCH  26  27
ATOM     27  C   UNL A   1      34.564  31.287  28.202  1.00  0.00     0.338 C 
ATOM     28  O   UNL A   1      33.577  30.688  27.810  1.00  0.00    -0.246 OA
BRANCH  27  29
ATOM     29  C   UNL A   1      35.870  30.636  28.441  1.00  0.00     0.060 A 
ATOM     30  C   UNL A   1      36.005  29.865  29.601  1.00  0.00     0.016 A 
ATOM     31  C   UNL A   1      36.938  30.750  27.543  1.00  0.00     0.016 A 
ATOM     32  C   UNL A   1      37.221  29.249  29.890  1.00  0.00     0.010 A 
ATOM     33  C   UNL A   1      38.156  30.129  27.834  1.00  0.00     0.010 A 
ATOM     34  C   UNL A   1      38.313  29.401  29.025  1.00  0.00    -0.014 A 
BRANCH  34  35
ATOM     35  C   UNL A   1      39.641  28.888  29.440  1.00  0.00     0.031 A 
ATOM     36  C   UNL A   1      40.411  29.623  30.502  1.00  0.00     0.074 A 
ATOM     37  C   UNL A   1      40.132  27.750  28.918  1.00  0.00     0.049 A 
ATOM     38  N   UNL A   1      41.538  29.298  31.083  1.00  0.00    -0.248 NA
ATOM     39  C   UNL A   1      39.834  30.892  30.971  1.00  0.00     0.031 C 
ATOM     40  C   UNL A   1      39.490  26.948  27.880  1.00  0.00     0.029 A 
ATOM     41  N   UNL A   1      41.292  27.072  29.202  1.00  0.00    -0.354 N 
ATOM     42  C   UNL A   1      41.789  30.304  32.005  1.00  0.00     0.074 A 
ATOM     43  C   UNL A   1      40.731  31.281  31.866  1.00  0.00     0.031 C 
ATOM     44  C   UNL A   1      40.266  25.883  27.612  1.00  0.00     0.029 A 
ATOM     45  C   UNL A   1      41.459  25.933  28.455  1.00  0.00     0.049 A 
ATOM     46  H   UNL A   1      41.941  27.375  29.877  1.00  0.00     0.167 HD
ATOM     47  C   UNL A   1      42.795  30.395  32.907  1.00  0.00     0.037 A 
ATOM     48  C   UNL A   1      42.461  25.032  28.457  1.00  0.00     0.037 A 
ATOM     49  C   UNL A   1      43.864  29.441  33.036  1.00  0.00     0.049 A 
ATOM     50  C   UNL A   1      43.596  25.183  29.433  1.00  0.00     0.074 A 
ATOM     51  C   UNL A   1      44.929  29.451  33.920  1.00  0.00     0.029 A 
ATOM     52  N   UNL A   1      44.008  28.308  32.249  1.00  0.00    -0.354 N 
ATOM     53  N   UNL A   1      43.792  26.108  30.342  1.00  0.00    -0.248 NA
ATOM     54  C   UNL A   1      44.645  24.152  29.394  1.00  0.00     0.031 C 
ATOM     55  C   UNL A   1      45.738  28.343  33.644  1.00  0.00     0.029 A 
ATOM     56  C   UNL A   1      45.153  27.621  32.616  1.00  0.00     0.049 A 
ATOM     57  H   UNL A   1      43.388  28.033  31.536  1.00  0.00     0.167 HD
ATOM     58  C   UNL A   1      44.965  25.755  30.999  1.00  0.00     0.074 A 
ATOM     59  C   UNL A   1      45.428  24.522  30.396  1.00  0.00     0.031 C 
ATOM     60  C   UNL A   1      45.602  26.393  32.011  1.00  0.00     0.037 A 
BRANCH  47  61
ATOM     61  C   UNL A   1      42.780  31.576  33.831  1.00  0.00     0.057 A 
ATOM     62  C   UNL A   1      42.282  31.473  35.137  1.00  0.00     0.134 A 
ATOM     63  C   UNL A   1      43.289  32.815  33.427  1.00  0.00     0.134 A 
ATOM     64  F   UNL A   1      41.766  30.316  35.578  1.00  0.00    -0.206 F 
ATOM     65  C   UNL A   1      42.276  32.567  36.003  1.00  0.00     0.040 A 
ATOM     66  C   UNL A   1      43.309  33.910  34.292  1.00  0.00     0.040 A 
ATOM     67  F   UNL A   1      43.783  32.979  32.190  1.00  0.00    -0.206 F 
ATOM     68  C   UNL A   1      42.797  33.789  35.582  1.00  0.00     0.006 A 
ENDBRANCH  47  61
BRANCH  48  69
ATOM     69  C   UNL A   1      42.437  23.891  27.508  1.00  0.00     0.057 A 
ATOM     70  C   UNL A   1      41.974  22.629  27.897  1.00  0.00     0.134 A 
ATOM     71  C   UNL A   1      42.918  24.028  26.201  1.00  0.00     0.134 A 
ATOM     72  F   UNL A   1      41.523  22.430  29.144  1.00  0.00    -0.206 F 
ATOM     73  C   UNL A   1      42.015  21.537  27.030  1.00  0.00     0.040 A 
ATOM     74  C   UNL A   1      42.944  22.950  25.316  1.00  0.00     0.040 A 
ATOM     75  F   UNL A   1      43.376  25.212  25.768  1.00  0.00    -0.206 F 
ATOM     76  C   UNL A   1      42.500  21.697  25.732  1.00  0.00     0.006 A 
ENDBRANCH  48  69
BRANCH  60  77
ATOM     77  C   UNL A   1      46.851  25.756  32.548  1.00  0.00     0.057 A 
ATOM     78  C   UNL A   1      48.113  26.030  32.005  1.00  0.00     0.134 A 
ATOM     79  C   UNL A   1      46.793  24.878  33.638  1.00  0.00     0.134 A 
ATOM     80  F   UNL A   1      48.236  26.853  30.952  1.00  0.00    -0.206 F 
ATOM     81  C   UNL A   1      49.269  25.431  32.507  1.00  0.00     0.040 A 
ATOM     82  C   UNL A   1      47.945  24.293  34.166  1.00  0.00     0.040 A 
ATOM     83  F   UNL A   1      45.618  24.581  34.213  1.00  0.00    -0.206 F 
ATOM     84  C   UNL A   1      49.188  24.563  33.595  1.00  0.00     0.006 A 
ENDBRANCH  60  77
ENDBRANCH  34  35
ENDBRANCH  27  29
ENDBRANCH  26  27
ENDBRANCH  25  26
ENDBRANCH   1  25
TORSDOF 15
ENDMDL
MODEL 2
REMARK VINA RESULT:      -9.8      5.270     10.997
REMARK SMILES O=C(CNc1nc(-c2ccccc2)c(-c2ccccc2)s1)OCCOC(=O)c1ccc(-c2c3nc(c(-c4c(F)cccc4F)c4ccc([nH]4)c(-c4c(F)cccc4F)c4nc(c(-c5c(F)cccc5F)c5ccc2[nH]5)C=C4)C=C3)cc1
REMARK SMILES IDX 23 1 22 2 2 3 1 4 3 5 4 6 5 8 6 9 21 10 7 11 14 12 8 13 9 14
REMARK SMILES IDX 13 15 10 16 12 17 11 18 15 19 16 20 20 21 17 22 19 23 18 24
REMARK SMILES IDX 24 25 25 26 26 27 27 28 28 29 29 30 81 31 30 32 80 33 31 34
REMARK SMILES IDX 32 35 33 36 74 37 34 38 79 39 73 40 75 41 35 42 78 43 72 44
REMARK SMILES IDX 71 45 36 47 62 48 45 49 61 50 46 51 49 52 60 53 76 54 47 55
REMARK SMILES IDX 48 56 59 58 77 59 50 60 37 61 38 62 43 63 39 64 40 65 42 66
REMARK SMILES IDX 44 67 41 68 63 69 64 70 69 71 65 72 66 73 68 74 70 75 67 76
REMARK SMILES IDX 51 77 52 78 57 79 53 80 54 81 56 82 58 83 55 84
REMARK H PARENT 4 7 75 46 49 57
REMARK Flexibility Score: inf
ROOT
ATOM      1  C   UNL A   1      43.813  21.561  25.440  1.00  0.00     0.274 C 
ENDROOT
BRANCH   1   2
ATOM      2  O   UNL A   1      42.375  21.448  25.402  1.00  0.00    -0.461 OA
BRANCH   2   3
ATOM      3  C   UNL A   1      41.545  21.405  26.473  1.00  0.00     0.325 C 
ATOM      4  O   UNL A   1      42.007  21.557  27.604  1.00  0.00    -0.250 OA
BRANCH   3   5
ATOM      5  C   UNL A   1      40.051  21.166  26.275  1.00  0.00     0.238 C 
BRANCH   5   6
ATOM      6  N   UNL A   1      39.314  22.398  26.052  1.00  0.00    -0.351 N 
ATOM      7  H   UNL A   1      39.776  23.263  26.135  1.00  0.00     0.163 HD
BRANCH   6   8
ATOM      8  C   UNL A   1      38.006  22.364  25.734  1.00  0.00     0.184 A 
ATOM      9  N   UNL A   1      37.116  23.268  26.074  1.00  0.00    -0.220 NA
ATOM     10  S   UNL A   1      37.380  20.991  24.919  1.00  0.00    -0.096 S 
ATOM     11  C   UNL A   1      35.844  22.846  25.717  1.00  0.00     0.091 A 
ATOM     12  C   UNL A   1      35.787  21.593  25.128  1.00  0.00     0.064 A 
BRANCH  11  13
ATOM     13  C   UNL A   1      34.678  23.701  25.910  1.00  0.00     0.002 A 
ATOM     14  C   UNL A   1      33.673  23.372  26.830  1.00  0.00     0.010 A 
ATOM     15  C   UNL A   1      34.514  24.828  25.094  1.00  0.00     0.010 A 
ATOM     16  C   UNL A   1      32.497  24.125  26.891  1.00  0.00     0.001 A 
ATOM     17  C   UNL A   1      33.337  25.578  25.154  1.00  0.00     0.001 A 
ATOM     18  C   UNL A   1      32.324  25.218  26.043  1.00  0.00     0.000 A 
ENDBRANCH  11  13
BRANCH  12  19
ATOM     19  C   UNL A   1      34.664  20.803  24.635  1.00  0.00    -0.006 A 
ATOM     20  C   UNL A   1      33.583  21.427  23.998  1.00  0.00     0.009 A 
ATOM     21  C   UNL A   1      34.663  19.411  24.781  1.00  0.00     0.009 A 
ATOM     22  C   UNL A   1      32.509  20.672  23.528  1.00  0.00     0.001 A 
ATOM     23  C   UNL A   1      33.587  18.657  24.313  1.00  0.00     0.001 A 
ATOM     24  C   UNL A   1      32.510  19.287  23.690  1.00  0.00     0.000 A 
ENDBRANCH  12  19
ENDBRANCH   6   8
ENDBRANCH   5   6
ENDBRANCH   3   5
ENDBRANCH   2   3
ENDBRANCH   1   2
BRANCH   1  25
ATOM     25  C   UNL A   1      44.364  22.495  24.365  1.00  0.00     0.275 C 
BRANCH  25  26
ATOM     26  O   UNL A   1      43.756  23.791  24.462  1.00  0.00    -0.458 OA
BRANCH  26  27
ATOM     27  C   UNL A   1      44.535  24.749  25.017  1.00  0.00     0.338 C 
ATOM     28  O   UNL A   1      45.644  25.096  24.646  1.00  0.00    -0.246 OA
BRANCH  27  29
ATOM     29  C   UNL A   1      43.759  25.472  26.048  1.00  0.00     0.060 A 
ATOM     30  C   UNL A   1      44.144  26.785  26.344  1.00  0.00     0.016 A 
ATOM     31  C   UNL A   1      42.663  24.894  26.699  1.00  0.00     0.016 A 
ATOM     32  C   UNL A   1      43.464  27.504  27.324  1.00  0.00     0.010 A 
ATOM     33  C   UNL A   1      41.981  25.620  27.681  1.00  0.00     0.010 A 
ATOM     34  C   UNL A   1      42.398  26.917  28.020  1.00  0.00    -0.014 A 
BRANCH  34  35
ATOM     35  C   UNL A   1      41.809  27.633  29.177  1.00  0.00     0.031 A 
ATOM     36  C   UNL A   1      42.465  27.514  30.525  1.00  0.00     0.074 A 
ATOM     37  C   UNL A   1      40.734  28.426  29.020  1.00  0.00     0.049 A 
ATOM     38  N   UNL A   1      42.178  28.130  31.644  1.00  0.00    -0.248 NA
ATOM     39  C   UNL A   1      43.594  26.577  30.624  1.00  0.00     0.031 C 
ATOM     40  C   UNL A   1      40.002  28.623  27.772  1.00  0.00     0.029 A 
ATOM     41  N   UNL A   1      40.076  29.219  29.927  1.00  0.00    -0.354 N 
ATOM     42  C   UNL A   1      43.108  27.678  32.570  1.00  0.00     0.074 A 
ATOM     43  C   UNL A   1      43.930  26.693  31.901  1.00  0.00     0.031 C 
ATOM     44  C   UNL A   1      38.992  29.483  27.991  1.00  0.00     0.029 A 
ATOM     45  C   UNL A   1      39.004  29.891  29.395  1.00  0.00     0.049 A 
ATOM     46  H   UNL A   1      40.347  29.297  30.871  1.00  0.00     0.167 HD
ATOM     47  C   UNL A   1      43.281  28.068  33.855  1.00  0.00     0.037 A 
ATOM     48  C   UNL A   1      38.137  30.743  29.975  1.00  0.00     0.037 A 
ATOM     49  C   UNL A   1      42.455  29.029  34.535  1.00  0.00     0.049 A 
ATOM     50  C   UNL A   1      38.319  31.120  31.421  1.00  0.00     0.074 A 
ATOM     51  C   UNL A   1      42.553  29.485  35.839  1.00  0.00     0.029 A 
ATOM     52  N   UNL A   1      41.368  29.676  33.966  1.00  0.00    -0.354 N 
ATOM     53  N   UNL A   1      39.238  30.732  32.271  1.00  0.00    -0.248 NA
ATOM     54  C   UNL A   1      37.347  32.070  31.985  1.00  0.00     0.031 C 
ATOM     55  C   UNL A   1      41.504  30.381  36.070  1.00  0.00     0.029 A 
ATOM     56  C   UNL A   1      40.778  30.515  34.897  1.00  0.00     0.049 A 
ATOM     57  H   UNL A   1      41.063  29.557  33.038  1.00  0.00     0.167 HD
ATOM     58  C   UNL A   1      38.975  31.410  33.455  1.00  0.00     0.074 A 
ATOM     59  C   UNL A   1      37.819  32.247  33.210  1.00  0.00     0.031 C 
ATOM     60  C   UNL A   1      39.630  31.346  34.640  1.00  0.00     0.037 A 
BRANCH  47  61
ATOM     61  C   UNL A   1      44.420  27.448  34.609  1.00  0.00     0.057 A 
ATOM     62  C   UNL A   1      44.280  26.214  35.258  1.00  0.00     0.134 A 
ATOM     63  C   UNL A   1      45.671  28.072  34.667  1.00  0.00     0.134 A 
ATOM     64  F   UNL A   1      43.101  25.574  35.251  1.00  0.00    -0.206 F 
ATOM     65  C   UNL A   1      45.340  25.630  35.951  1.00  0.00     0.040 A 
ATOM     66  C   UNL A   1      46.745  27.487  35.338  1.00  0.00     0.040 A 
ATOM     67  F   UNL A   1      45.872  29.254  34.065  1.00  0.00    -0.206 F 
ATOM     68  C   UNL A   1      46.580  26.265  35.987  1.00  0.00     0.006 A 
ENDBRANCH  47  61
BRANCH  48  69
ATOM     69  C   UNL A   1      37.016  31.313  29.188  1.00  0.00     0.057 A 
ATOM     70  C   UNL A   1      37.066  32.619  28.690  1.00  0.00     0.134 A 
ATOM     71  C   UNL A   1      35.848  30.577  28.955  1.00  0.00     0.134 A 
ATOM     72  F   UNL A   1      38.148  33.382  28.902  1.00  0.00    -0.206 F 
ATOM     73  C   UNL A   1      35.985  33.184  28.010  1.00  0.00     0.040 A 
ATOM     74  C   UNL A   1      34.769  31.121  28.257  1.00  0.00     0.040 A 
ATOM     75  F   UNL A   1      35.739  29.320  29.408  1.00  0.00    -0.206 F 
ATOM     76  C   UNL A   1      34.832  32.431  27.790  1.00  0.00     0.006 A 
ENDBRANCH  48  69
BRANCH  60  77
ATOM     77  C   UNL A   1      39.130  32.224  35.750  1.00  0.00     0.057 A 
ATOM     78  C   UNL A   1      38.243  31.751  36.726  1.00  0.00     0.134 A 
ATOM     79  C   UNL A   1      39.563  33.552  35.860  1.00  0.00     0.134 A 
ATOM     80  F   UNL A   1      37.782  30.491  36.671  1.00  0.00    -0.206 F 
ATOM     81  C   UNL A   1      37.780  32.574  37.753  1.00  0.00     0.040 A 
ATOM     82  C   UNL A   1      39.128  34.378  36.898  1.00  0.00     0.040 A 
ATOM     83  F   UNL A   1      40.420  34.066  34.967  1.00  0.00    -0.206 F 
ATOM     84  C   UNL A   1      38.227  33.891  37.844  1.00  0.00     0.006 A 
ENDBRANCH  60  77
ENDBRANCH  34  35
ENDBRANCH  27  29
ENDBRANCH  26  27
ENDBRANCH  25  26
ENDBRANCH   1  25
TORSDOF 15
ENDMDL
MODEL 3
REMARK VINA RESULT:      -9.5      5.775     10.602
REMARK SMILES O=C(CNc1nc(-c2ccccc2)c(-c2ccccc2)s1)OCCOC(=O)c1ccc(-c2c3nc(c(-c4c(F)cccc4F)c4ccc([nH]4)c(-c4c(F)cccc4F)c4nc(c(-c5c(F)cccc5F)c5ccc2[nH]5)C=C4)C=C3)cc1
REMARK SMILES IDX 23 1 22 2 2 3 1 4 3 5 4 6 5 8 6 9 21 10 7 11 14 12 8 13 9 14
REMARK SMILES IDX 13 15 10 16 12 17 11 18 15 19 16 20 20 21 17 22 19 23 18 24
REMARK SMILES IDX 24 25 25 26 26 27 27 28 28 29 29 30 81 31 30 32 80 33 31 34
REMARK SMILES IDX 32 35 33 36 74 37 34 38 79 39 73 40 75 41 35 42 78 43 72 44
REMARK SMILES IDX 71 45 36 47 62 48 45 49 61 50 46 51 49 52 60 53 76 54 47 55
REMARK SMILES IDX 48 56 59 58 77 59 50 60 37 61 38 62 43 63 39 64 40 65 42 66
REMARK SMILES IDX 44 67 41 68 63 69 64 70 69 71 65 72 66 73 68 74 70 75 67 76
REMARK SMILES IDX 51 77 52 78 57 79 53 80 54 81 56 82 58 83 55 84
REMARK H PARENT 4 7 75 46 49 57
REMARK Flexibility Score: inf
ROOT
ATOM      1  C   UNL A   1      35.189  21.038  24.980  1.00  0.00     0.274 C 
ENDROOT
BRANCH   1   2
ATOM      2  O   UNL A   1      34.144  20.070  24.745  1.00  0.00    -0.461 OA
BRANCH   2   3
ATOM      3  C   UNL A   1      32.857  20.165  25.159  1.00  0.00     0.325 C 
ATOM      4  O   UNL A   1      32.184  19.141  25.289  1.00  0.00    -0.250 OA
BRANCH   3   5
ATOM      5  C   UNL A   1      32.247  21.532  25.457  1.00  0.00     0.238 C 
BRANCH   5   6
ATOM      6  N   UNL A   1      31.927  22.275  24.251  1.00  0.00    -0.351 N 
ATOM      7  H   UNL A   1      31.810  21.795  23.401  1.00  0.00     0.163 HD
BRANCH   6   8
ATOM      8  C   UNL A   1      31.791  23.614  24.289  1.00  0.00     0.184 A 
ATOM      9  N   UNL A   1      32.292  24.406  25.209  1.00  0.00    -0.220 NA
ATOM     10  S   UNL A   1      30.791  24.384  23.127  1.00  0.00    -0.096 S 
ATOM     11  C   UNL A   1      31.831  25.702  25.029  1.00  0.00     0.091 A 
ATOM     12  C   UNL A   1      30.949  25.868  23.973  1.00  0.00     0.064 A 
BRANCH  11  13
ATOM     13  C   UNL A   1      32.299  26.798  25.869  1.00  0.00     0.002 A 
ATOM     14  C   UNL A   1      31.443  27.452  26.765  1.00  0.00     0.010 A 
ATOM     15  C   UNL A   1      33.610  27.267  25.713  1.00  0.00     0.010 A 
ATOM     16  C   UNL A   1      31.872  28.592  27.450  1.00  0.00     0.001 A 
ATOM     17  C   UNL A   1      34.038  28.409  26.396  1.00  0.00     0.001 A 
ATOM     18  C   UNL A   1      33.164  29.078  27.253  1.00  0.00     0.000 A 
ENDBRANCH  11  13
BRANCH  12  19
ATOM     19  C   UNL A   1      30.244  27.043  23.474  1.00  0.00    -0.006 A 
ATOM     20  C   UNL A   1      30.949  28.081  22.849  1.00  0.00     0.009 A 
ATOM     21  C   UNL A   1      28.853  27.139  23.601  1.00  0.00     0.009 A 
ATOM     22  C   UNL A   1      30.275  29.205  22.373  1.00  0.00     0.001 A 
ATOM     23  C   UNL A   1      28.181  28.265  23.126  1.00  0.00     0.001 A 
ATOM     24  C   UNL A   1      28.892  29.298  22.516  1.00  0.00     0.000 A 
ENDBRANCH  12  19
ENDBRANCH   6   8
ENDBRANCH   5   6
ENDBRANCH   3   5
ENDBRANCH   2   3
ENDBRANCH   1   2
BRANCH   1  25
ATOM     25  C   UNL A   1      36.578  20.407  25.044  1.00  0.00     0.275 C 
BRANCH  25  26
ATOM     26  O   UNL A   1      37.591  21.422  25.094  1.00  0.00    -0.458 OA
BRANCH  26  27
ATOM     27  C   UNL A   1      38.722  21.072  25.753  1.00  0.00     0.338 C 
ATOM     28  O   UNL A   1      39.267  19.981  25.740  1.00  0.00    -0.246 OA
BRANCH  27  29
ATOM     29  C   UNL A   1      39.328  22.278  26.355  1.00  0.00     0.060 A 
ATOM     30  C   UNL A   1      38.781  23.519  26.008  1.00  0.00     0.016 A 
ATOM     31  C   UNL A   1      40.393  22.206  27.260  1.00  0.00     0.016 A 
ATOM     32  C   UNL A   1      39.328  24.691  26.526  1.00  0.00     0.010 A 
ATOM     33  C   UNL A   1      40.939  23.384  27.780  1.00  0.00     0.010 A 
ATOM     34  C   UNL A   1      40.429  24.633  27.391  1.00  0.00    -0.014 A 
BRANCH  34  35
ATOM     35  C   UNL A   1      41.105  25.893  27.786  1.00  0.00     0.031 A 
ATOM     36  C   UNL A   1      42.529  26.125  27.364  1.00  0.00     0.074 A 
ATOM     37  C   UNL A   1      40.441  26.845  28.465  1.00  0.00     0.049 A 
ATOM     38  N   UNL A   1      43.275  27.190  27.513  1.00  0.00    -0.248 NA
ATOM     39  C   UNL A   1      43.201  25.007  26.683  1.00  0.00     0.031 C 
ATOM     40  C   UNL A   1      39.063  26.744  28.938  1.00  0.00     0.029 A 
ATOM     41  N   UNL A   1      40.846  28.094  28.868  1.00  0.00    -0.354 N 
ATOM     42  C   UNL A   1      44.491  26.883  26.919  1.00  0.00     0.074 A 
ATOM     43  C   UNL A   1      44.407  25.513  26.462  1.00  0.00     0.031 C 
ATOM     44  C   UNL A   1      38.735  27.885  29.570  1.00  0.00     0.029 A 
ATOM     45  C   UNL A   1      39.881  28.792  29.550  1.00  0.00     0.049 A 
ATOM     46  H   UNL A   1      41.745  28.453  28.686  1.00  0.00     0.167 HD
ATOM     47  C   UNL A   1      45.574  27.677  26.746  1.00  0.00     0.037 A 
ATOM     48  C   UNL A   1      39.919  30.024  30.091  1.00  0.00     0.037 A 
ATOM     49  C   UNL A   1      45.676  29.032  27.219  1.00  0.00     0.049 A 
ATOM     50  C   UNL A   1      41.154  30.870  29.931  1.00  0.00     0.074 A 
ATOM     51  C   UNL A   1      46.735  29.915  27.091  1.00  0.00     0.029 A 
ATOM     52  N   UNL A   1      44.682  29.699  27.920  1.00  0.00    -0.354 N 
ATOM     53  N   UNL A   1      42.277  30.590  29.315  1.00  0.00    -0.248 NA
ATOM     54  C   UNL A   1      41.119  32.214  30.529  1.00  0.00     0.031 C 
ATOM     55  C   UNL A   1      46.397  31.103  27.748  1.00  0.00     0.029 A 
ATOM     56  C   UNL A   1      45.110  30.975  28.247  1.00  0.00     0.049 A 
ATOM     57  H   UNL A   1      43.803  29.321  28.151  1.00  0.00     0.167 HD
ATOM     58  C   UNL A   1      43.068  31.729  29.427  1.00  0.00     0.074 A 
ATOM     59  C   UNL A   1      42.289  32.709  30.154  1.00  0.00     0.031 C 
ATOM     60  C   UNL A   1      44.325  31.944  28.968  1.00  0.00     0.037 A 
BRANCH  47  61
ATOM     61  C   UNL A   1      46.739  27.093  26.005  1.00  0.00     0.057 A 
ATOM     62  C   UNL A   1      46.917  27.316  24.633  1.00  0.00     0.134 A 
ATOM     63  C   UNL A   1      47.704  26.326  26.667  1.00  0.00     0.134 A 
ATOM     64  F   UNL A   1      46.019  28.030  23.939  1.00  0.00    -0.206 F 
ATOM     65  C   UNL A   1      48.005  26.783  23.943  1.00  0.00     0.040 A 
ATOM     66  C   UNL A   1      48.809  25.806  25.992  1.00  0.00     0.040 A 
ATOM     67  F   UNL A   1      47.594  26.077  27.981  1.00  0.00    -0.206 F 
ATOM     68  C   UNL A   1      48.959  26.029  24.625  1.00  0.00     0.006 A 
ENDBRANCH  47  61
BRANCH  48  69
ATOM     69  C   UNL A   1      38.744  30.549  30.831  1.00  0.00     0.057 A 
ATOM     70  C   UNL A   1      38.563  30.285  32.193  1.00  0.00     0.134 A 
ATOM     71  C   UNL A   1      37.752  31.291  30.179  1.00  0.00     0.134 A 
ATOM     72  F   UNL A   1      39.467  29.558  32.866  1.00  0.00    -0.206 F 
ATOM     73  C   UNL A   1      37.425  30.716  32.876  1.00  0.00     0.040 A 
ATOM     74  C   UNL A   1      36.621  31.748  30.855  1.00  0.00     0.040 A 
ATOM     75  F   UNL A   1      37.868  31.576  28.874  1.00  0.00    -0.206 F 
ATOM     76  C   UNL A   1      36.450  31.453  32.205  1.00  0.00     0.006 A 
ENDBRANCH  48  69
BRANCH  60  77
ATOM     77  C   UNL A   1      44.925  33.298  29.214  1.00  0.00     0.057 A 
ATOM     78  C   UNL A   1      44.752  34.358  28.316  1.00  0.00     0.134 A 
ATOM     79  C   UNL A   1      45.662  33.550  30.379  1.00  0.00     0.134 A 
ATOM     80  F   UNL A   1      44.066  34.179  27.176  1.00  0.00    -0.206 F 
ATOM     81  C   UNL A   1      45.316  35.613  28.551  1.00  0.00     0.040 A 
ATOM     82  C   UNL A   1      46.208  34.808  30.638  1.00  0.00     0.040 A 
ATOM     83  F   UNL A   1      45.856  32.582  31.287  1.00  0.00    -0.206 F 
ATOM     84  C   UNL A   1      46.043  35.842  29.718  1.00  0.00     0.006 A 
ENDBRANCH  60  77
ENDBRANCH  34  35
ENDBRANCH  27  29
ENDBRANCH  26  27
ENDBRANCH  25  26
ENDBRANCH   1  25
TORSDOF 15
ENDMDL
