MODEL 1
REMARK VINA RESULT:     -11.8      0.000      0.000
REMARK SMILES O=C(OCCOC(=O)c1cc(OC[C@@H]2Cc3cc(F)ccc3O2)cs1)c1ccc(-c2c3nc(c(-c4c(F)cccc4F)c4ccc([nH]4)c(-c4c(F)cccc4F)c4nc(c(-c5c(F)cccc5F)c5ccc2[nH]5)C=C4)C=C3)cc1
REMARK SMILES IDX 5 1 4 2 3 3 2 4 1 5 26 6 27 7 79 8 28 9 78 10 29 11 30 12
REMARK SMILES IDX 31 13 72 14 32 15 77 16 71 17 73 18 33 19 76 20 70 21 69 22
REMARK SMILES IDX 34 24 60 25 43 26 59 27 44 28 47 29 58 30 74 31 45 32 46 33
REMARK SMILES IDX 57 35 75 36 48 37 35 38 36 39 41 40 37 41 38 42 40 43 42 44
REMARK SMILES IDX 39 45 61 46 62 47 67 48 63 49 64 50 66 51 68 52 65 53 49 54
REMARK SMILES IDX 50 55 55 56 51 57 52 58 54 59 56 60 53 61 6 62 7 63 8 64
REMARK SMILES IDX 9 65 10 66 25 67 11 68 24 69 12 70 13 71 14 72 15 73 23 74
REMARK SMILES IDX 16 75 22 76 17 77 21 78 18 79 20 80 19 81
REMARK H PARENT 73 23 47 34
REMARK Flexibility Score: inf
ROOT
ATOM      1  C   UNL A   1      42.239  20.854  26.098  1.00  0.00     0.275 C 
ENDROOT
BRANCH   1   2
ATOM      2  C   UNL A   1      43.529  21.519  25.577  1.00  0.00     0.275 C 
BRANCH   2   3
ATOM      3  O   UNL A   1      43.299  22.648  24.729  1.00  0.00    -0.458 OA
BRANCH   3   4
ATOM      4  C   UNL A   1      43.746  23.916  24.850  1.00  0.00     0.338 C 
ATOM      5  O   UNL A   1      44.790  24.220  24.273  1.00  0.00    -0.246 OA
BRANCH   4   6
ATOM      6  C   UNL A   1      43.122  24.944  25.749  1.00  0.00     0.060 A 
ATOM      7  C   UNL A   1      43.845  26.140  25.875  1.00  0.00     0.016 A 
ATOM      8  C   UNL A   1      41.986  24.794  26.551  1.00  0.00     0.016 A 
ATOM      9  C   UNL A   1      43.565  27.035  26.901  1.00  0.00     0.010 A 
ATOM     10  C   UNL A   1      41.693  25.693  27.572  1.00  0.00     0.010 A 
ATOM     11  C   UNL A   1      42.520  26.783  27.797  1.00  0.00    -0.014 A 
BRANCH  11  12
ATOM     12  C   UNL A   1      42.255  27.716  28.895  1.00  0.00     0.031 A 
ATOM     13  C   UNL A   1      42.821  27.478  30.283  1.00  0.00     0.074 A 
ATOM     14  C   UNL A   1      41.285  28.641  28.732  1.00  0.00     0.049 A 
ATOM     15  N   UNL A   1      42.749  28.496  31.576  1.00  0.00    -0.248 NA
ATOM     16  C   UNL A   1      43.793  25.806  30.857  1.00  0.00     0.031 C 
ATOM     17  C   UNL A   1      40.381  28.661  27.580  1.00  0.00     0.029 A 
ATOM     18  N   UNL A   1      40.739  29.550  29.612  1.00  0.00    -0.354 N 
ATOM     19  C   UNL A   1      43.661  27.795  33.007  1.00  0.00     0.074 A 
ATOM     20  C   UNL A   1      44.243  26.035  32.446  1.00  0.00     0.031 C 
ATOM     21  C   UNL A   1      39.345  29.461  27.857  1.00  0.00     0.029 A 
ATOM     22  C   UNL A   1      39.505  29.997  29.205  1.00  0.00     0.049 A 
ATOM     23  H   UNL A   1      41.184  29.846  30.439  1.00  0.00     0.167 HD
ATOM     24  C   UNL A   1      43.855  28.353  34.227  1.00  0.00     0.037 A 
ATOM     25  C   UNL A   1      38.552  30.686  29.860  1.00  0.00     0.037 A 
ATOM     26  C   UNL A   1      43.024  29.415  34.730  1.00  0.00     0.049 A 
ATOM     27  C   UNL A   1      38.737  31.089  31.299  1.00  0.00     0.074 A 
ATOM     28  C   UNL A   1      42.994  29.950  36.006  1.00  0.00     0.029 A 
ATOM     29  N   UNL A   1      41.947  29.975  34.037  1.00  0.00    -0.354 N 
ATOM     30  N   UNL A   1      39.704  30.819  32.147  1.00  0.00    -0.248 NA
ATOM     31  C   UNL A   1      37.655  31.906  31.861  1.00  0.00     0.031 C 
ATOM     32  C   UNL A   1      41.829  30.719  36.124  1.00  0.00     0.029 A 
ATOM     33  C   UNL A   1      41.190  30.763  34.893  1.00  0.00     0.049 A 
ATOM     34  H   UNL A   1      41.754  29.832  33.082  1.00  0.00     0.167 HD
ATOM     35  C   UNL A   1      39.353  31.452  33.339  1.00  0.00     0.074 A 
ATOM     36  C   UNL A   1      38.109  32.151  33.078  1.00  0.00     0.031 C 
ATOM     37  C   UNL A   1      39.968  31.458  34.551  1.00  0.00     0.037 A 
BRANCH  24  38
ATOM     38  C   UNL A   1      44.895  27.687  35.055  1.00  0.00     0.057 A 
ATOM     39  C   UNL A   1      44.606  26.681  35.980  1.00  0.00     0.134 A 
ATOM     40  C   UNL A   1      46.235  28.079  34.926  1.00  0.00     0.134 A 
ATOM     41  F   UNL A   1      43.343  26.275  36.180  1.00  0.00    -0.206 F 
ATOM     42  C   UNL A   1      45.617  26.063  36.721  1.00  0.00     0.040 A 
ATOM     43  C   UNL A   1      47.255  27.462  35.649  1.00  0.00     0.040 A 
ATOM     44  F   UNL A   1      46.575  29.060  34.075  1.00  0.00    -0.206 F 
ATOM     45  C   UNL A   1      46.948  26.443  36.546  1.00  0.00     0.006 A 
ENDBRANCH  24  38
BRANCH  25  46
ATOM     46  C   UNL A   1      37.302  31.045  29.136  1.00  0.00     0.057 A 
ATOM     47  C   UNL A   1      37.095  32.314  28.580  1.00  0.00     0.134 A 
ATOM     48  C   UNL A   1      36.276  30.103  28.997  1.00  0.00     0.134 A 
ATOM     49  F   UNL A   1      38.027  33.271  28.708  1.00  0.00    -0.206 F 
ATOM     50  C   UNL A   1      35.911  32.633  27.912  1.00  0.00     0.040 A 
ATOM     51  C   UNL A   1      35.104  30.396  28.299  1.00  0.00     0.040 A 
ATOM     52  F   UNL A   1      36.424  28.869  29.500  1.00  0.00    -0.206 F 
ATOM     53  C   UNL A   1      34.918  31.666  27.759  1.00  0.00     0.006 A 
ENDBRANCH  25  46
BRANCH  37  54
ATOM     54  C   UNL A   1      39.340  32.324  35.619  1.00  0.00     0.057 A 
ATOM     55  C   UNL A   1      38.378  31.776  36.479  1.00  0.00     0.134 A 
ATOM     56  C   UNL A   1      39.679  33.672  35.816  1.00  0.00     0.134 A 
ATOM     57  F   UNL A   1      37.987  30.500  36.337  1.00  0.00    -0.206 F 
ATOM     58  C   UNL A   1      37.791  32.524  37.499  1.00  0.00     0.040 A 
ATOM     59  C   UNL A   1      39.135  34.417  36.867  1.00  0.00     0.040 A 
ATOM     60  F   UNL A   1      40.592  34.267  35.034  1.00  0.00    -0.206 F 
ATOM     61  C   UNL A   1      38.185  33.843  37.709  1.00  0.00     0.006 A 
ENDBRANCH  37  54
ENDBRANCH  11  12
ENDBRANCH   4   6
ENDBRANCH   3   4
ENDBRANCH   2   3
ENDBRANCH   1   2
BRANCH   1  62
ATOM     62  O   UNL A   1      40.993  21.426  25.631  1.00  0.00    -0.458 OA
BRANCH  62  63
ATOM     63  C   UNL A   1      40.005  21.640  26.567  1.00  0.00     0.348 C 
ATOM     64  O   UNL A   1      40.222  21.738  27.766  1.00  0.00    -0.245 OA
BRANCH  63  65
ATOM     65  C   UNL A   1      38.725  21.848  25.896  1.00  0.00     0.116 A 
ATOM     66  C   UNL A   1      37.898  22.968  25.827  1.00  0.00     0.074 A 
ATOM     67  S   UNL A   1      38.019  20.547  25.034  1.00  0.00    -0.133 S 
ATOM     68  C   UNL A   1      36.539  22.607  25.546  1.00  0.00     0.131 A 
ATOM     69  C   UNL A   1      36.499  21.334  25.010  1.00  0.00     0.112 A 
BRANCH  68  70
ATOM     70  O   UNL A   1      35.323  23.179  25.810  1.00  0.00    -0.489 OA
BRANCH  70  71
ATOM     71  C   UNL A   1      34.356  23.881  24.759  1.00  0.00     0.275 C 
BRANCH  71  72
ATOM     72  C   UNL A   1      32.621  25.313  25.116  1.00  0.00     0.215 C 
ATOM     73  C   UNL A   1      32.076  26.661  24.229  1.00  0.00     0.088 C 
ATOM     74  O   UNL A   1      32.093  25.853  26.590  1.00  0.00    -0.486 OA
ATOM     75  C   UNL A   1      31.775  27.688  25.226  1.00  0.00     0.001 A 
ATOM     76  C   UNL A   1      31.834  27.193  26.501  1.00  0.00     0.123 A 
ATOM     77  C   UNL A   1      31.696  29.046  24.951  1.00  0.00     0.047 A 
ATOM     78  C   UNL A   1      31.767  28.052  27.580  1.00  0.00     0.050 A 
ATOM     79  C   UNL A   1      31.716  29.917  26.022  1.00  0.00     0.123 A 
ATOM     80  C   UNL A   1      31.738  29.433  27.332  1.00  0.00     0.043 A 
ATOM     81  F   UNL A   1      31.794  31.234  25.787  1.00  0.00    -0.207 F 
ENDBRANCH  71  72
ENDBRANCH  70  71
ENDBRANCH  68  70
ENDBRANCH  63  65
ENDBRANCH  62  63
ENDBRANCH   1  62
TORSDOF 14
ENDMDL
MODEL 2
REMARK VINA RESULT:     -11.7      3.272      9.022
REMARK SMILES O=C(OCCOC(=O)c1cc(OC[C@@H]2Cc3cc(F)ccc3O2)cs1)c1ccc(-c2c3nc(c(-c4c(F)cccc4F)c4ccc([nH]4)c(-c4c(F)cccc4F)c4nc(c(-c5c(F)cccc5F)c5ccc2[nH]5)C=C4)C=C3)cc1
REMARK SMILES IDX 5 1 4 2 3 3 2 4 1 5 26 6 27 7 79 8 28 9 78 10 29 11 30 12
REMARK SMILES IDX 31 13 72 14 32 15 77 16 71 17 73 18 33 19 76 20 70 21 69 22
REMARK SMILES IDX 34 24 60 25 43 26 59 27 44 28 47 29 58 30 74 31 45 32 46 33
REMARK SMILES IDX 57 35 75 36 48 37 35 38 36 39 41 40 37 41 38 42 40 43 42 44
REMARK SMILES IDX 39 45 61 46 62 47 67 48 63 49 64 50 66 51 68 52 65 53 49 54
REMARK SMILES IDX 50 55 55 56 51 57 52 58 54 59 56 60 53 61 6 62 7 63 8 64
REMARK SMILES IDX 9 65 10 66 25 67 11 68 24 69 12 70 13 71 14 72 15 73 23 74
REMARK SMILES IDX 16 75 22 76 17 77 21 78 18 79 20 80 19 81
REMARK H PARENT 73 23 47 34
REMARK Flexibility Score: inf
ROOT
ATOM      1  C   UNL A   1      31.402  31.576  26.689  1.00  0.00     0.275 C 
ENDROOT
BRANCH   1   2
ATOM      2  C   UNL A   1      31.939  33.012  26.522  1.00  0.00     0.275 C 
BRANCH   2   3
ATOM      3  O   UNL A   1      31.933  33.779  27.730  1.00  0.00    -0.458 OA
BRANCH   3   4
ATOM      4  C   UNL A   1      32.964  34.353  28.386  1.00  0.00     0.338 C 
ATOM      5  O   UNL A   1      32.839  35.522  28.751  1.00  0.00    -0.246 OA
BRANCH   4   6
ATOM      6  C   UNL A   1      34.303  33.701  28.582  1.00  0.00     0.060 A 
ATOM      7  C   UNL A   1      34.275  32.490  29.288  1.00  0.00     0.016 A 
ATOM      8  C   UNL A   1      35.558  34.220  28.248  1.00  0.00     0.016 A 
ATOM      9  C   UNL A   1      35.440  31.947  29.816  1.00  0.00     0.010 A 
ATOM     10  C   UNL A   1      36.730  33.675  28.764  1.00  0.00     0.010 A 
ATOM     11  C   UNL A   1      36.673  32.575  29.606  1.00  0.00    -0.014 A 
BRANCH  11  12
ATOM     12  C   UNL A   1      37.892  32.014  30.196  1.00  0.00     0.031 A 
ATOM     13  C   UNL A   1      38.581  30.810  29.580  1.00  0.00     0.074 A 
ATOM     14  C   UNL A   1      38.244  32.407  31.438  1.00  0.00     0.049 A 
ATOM     15  N   UNL A   1      40.027  30.157  30.021  1.00  0.00    -0.248 NA
ATOM     16  C   UNL A   1      37.836  29.712  28.060  1.00  0.00     0.031 C 
ATOM     17  C   UNL A   1      37.392  33.243  32.287  1.00  0.00     0.029 A 
ATOM     18  N   UNL A   1      39.244  31.972  32.280  1.00  0.00    -0.354 N 
ATOM     19  C   UNL A   1      40.476  28.763  28.914  1.00  0.00     0.074 A 
ATOM     20  C   UNL A   1      38.964  28.532  27.725  1.00  0.00     0.031 C 
ATOM     21  C   UNL A   1      37.845  33.186  33.544  1.00  0.00     0.029 A 
ATOM     22  C   UNL A   1      39.006  32.302  33.592  1.00  0.00     0.049 A 
ATOM     23  H   UNL A   1      40.040  31.479  31.975  1.00  0.00     0.167 HD
ATOM     24  C   UNL A   1      41.600  28.007  28.938  1.00  0.00     0.037 A 
ATOM     25  C   UNL A   1      39.586  31.882  34.731  1.00  0.00     0.037 A 
ATOM     26  C   UNL A   1      42.443  27.915  30.101  1.00  0.00     0.049 A 
ATOM     27  C   UNL A   1      40.694  30.863  34.707  1.00  0.00     0.074 A 
ATOM     28  C   UNL A   1      43.506  27.058  30.325  1.00  0.00     0.029 A 
ATOM     29  N   UNL A   1      42.200  28.575  31.310  1.00  0.00    -0.354 N 
ATOM     30  N   UNL A   1      41.212  30.185  33.708  1.00  0.00    -0.248 NA
ATOM     31  C   UNL A   1      41.290  30.558  36.013  1.00  0.00     0.031 C 
ATOM     32  C   UNL A   1      43.813  27.099  31.692  1.00  0.00     0.029 A 
ATOM     33  C   UNL A   1      43.024  28.063  32.303  1.00  0.00     0.049 A 
ATOM     34  H   UNL A   1      41.543  29.297  31.437  1.00  0.00     0.167 HD
ATOM     35  C   UNL A   1      42.210  29.386  34.266  1.00  0.00     0.074 A 
ATOM     36  C   UNL A   1      42.244  29.707  35.681  1.00  0.00     0.031 C 
ATOM     37  C   UNL A   1      43.021  28.456  33.695  1.00  0.00     0.037 A 
BRANCH  24  38
ATOM     38  C   UNL A   1      41.814  27.174  27.726  1.00  0.00     0.057 A 
ATOM     39  C   UNL A   1      41.415  25.837  27.637  1.00  0.00     0.134 A 
ATOM     40  C   UNL A   1      42.453  27.731  26.609  1.00  0.00     0.134 A 
ATOM     41  F   UNL A   1      40.824  25.228  28.675  1.00  0.00    -0.206 F 
ATOM     42  C   UNL A   1      41.612  25.096  26.468  1.00  0.00     0.040 A 
ATOM     43  C   UNL A   1      42.645  27.007  25.433  1.00  0.00     0.040 A 
ATOM     44  F   UNL A   1      42.887  29.001  26.641  1.00  0.00    -0.206 F 
ATOM     45  C   UNL A   1      42.215  25.686  25.357  1.00  0.00     0.006 A 
ENDBRANCH  24  38
BRANCH  25  46
ATOM     46  C   UNL A   1      39.112  32.442  36.026  1.00  0.00     0.057 A 
ATOM     47  C   UNL A   1      38.237  31.747  36.870  1.00  0.00     0.134 A 
ATOM     48  C   UNL A   1      39.535  33.712  36.438  1.00  0.00     0.134 A 
ATOM     49  F   UNL A   1      37.769  30.540  36.515  1.00  0.00    -0.206 F 
ATOM     50  C   UNL A   1      37.798  32.295  38.076  1.00  0.00     0.040 A 
ATOM     51  C   UNL A   1      39.135  34.255  37.659  1.00  0.00     0.040 A 
ATOM     52  F   UNL A   1      40.382  34.418  35.676  1.00  0.00    -0.206 F 
ATOM     53  C   UNL A   1      38.259  33.547  38.479  1.00  0.00     0.006 A 
ENDBRANCH  25  46
BRANCH  37  54
ATOM     54  C   UNL A   1      44.056  27.823  34.597  1.00  0.00     0.057 A 
ATOM     55  C   UNL A   1      43.757  26.622  35.258  1.00  0.00     0.134 A 
ATOM     56  C   UNL A   1      45.331  28.368  34.809  1.00  0.00     0.134 A 
ATOM     57  F   UNL A   1      42.550  26.053  35.122  1.00  0.00    -0.206 F 
ATOM     58  C   UNL A   1      44.688  25.982  36.076  1.00  0.00     0.040 A 
ATOM     59  C   UNL A   1      46.289  27.710  35.587  1.00  0.00     0.040 A 
ATOM     60  F   UNL A   1      45.692  29.515  34.212  1.00  0.00    -0.206 F 
ATOM     61  C   UNL A   1      45.965  26.515  36.226  1.00  0.00     0.006 A 
ENDBRANCH  37  54
ENDBRANCH  11  12
ENDBRANCH   4   6
ENDBRANCH   3   4
ENDBRANCH   2   3
ENDBRANCH   1   2
BRANCH   1  62
ATOM     62  O   UNL A   1      31.870  30.604  25.723  1.00  0.00    -0.458 OA
BRANCH  62  63
ATOM     63  C   UNL A   1      32.970  29.849  26.067  1.00  0.00     0.348 C 
ATOM     64  O   UNL A   1      33.800  30.204  26.891  1.00  0.00    -0.245 OA
BRANCH  63  65
ATOM     65  C   UNL A   1      32.909  28.553  25.399  1.00  0.00     0.116 A 
ATOM     66  C   UNL A   1      33.350  27.293  25.800  1.00  0.00     0.074 A 
ATOM     67  S   UNL A   1      32.213  28.455  23.836  1.00  0.00    -0.133 S 
ATOM     68  C   UNL A   1      33.585  26.430  24.679  1.00  0.00     0.131 A 
ATOM     69  C   UNL A   1      32.922  26.920  23.570  1.00  0.00     0.112 A 
BRANCH  68  70
ATOM     70  O   UNL A   1      34.399  25.352  24.456  1.00  0.00    -0.489 OA
BRANCH  70  71
ATOM     71  C   UNL A   1      34.029  24.036  23.640  1.00  0.00     0.275 C 
BRANCH  71  72
ATOM     72  C   UNL A   1      33.351  22.000  24.402  1.00  0.00     0.215 C 
ATOM     73  C   UNL A   1      34.215  20.732  25.142  1.00  0.00     0.088 C 
ATOM     74  O   UNL A   1      32.194  21.038  23.710  1.00  0.00    -0.486 OA
ATOM     75  C   UNL A   1      33.724  19.506  24.513  1.00  0.00     0.001 A 
ATOM     76  C   UNL A   1      32.638  19.743  23.715  1.00  0.00     0.123 A 
ATOM     77  C   UNL A   1      34.412  18.301  24.507  1.00  0.00     0.047 A 
ATOM     78  C   UNL A   1      32.153  18.746  22.892  1.00  0.00     0.050 A 
ATOM     79  C   UNL A   1      33.987  17.328  23.624  1.00  0.00     0.123 A 
ATOM     80  C   UNL A   1      32.859  17.535  22.827  1.00  0.00     0.043 A 
ATOM     81  F   UNL A   1      34.718  16.214  23.484  1.00  0.00    -0.207 F 
ENDBRANCH  71  72
ENDBRANCH  70  71
ENDBRANCH  68  70
ENDBRANCH  63  65
ENDBRANCH  62  63
ENDBRANCH   1  62
TORSDOF 14
ENDMDL
MODEL 3
REMARK VINA RESULT:     -11.7      3.238      8.776
REMARK SMILES O=C(OCCOC(=O)c1cc(OC[C@@H]2Cc3cc(F)ccc3O2)cs1)c1ccc(-c2c3nc(c(-c4c(F)cccc4F)c4ccc([nH]4)c(-c4c(F)cccc4F)c4nc(c(-c5c(F)cccc5F)c5ccc2[nH]5)C=C4)C=C3)cc1
REMARK SMILES IDX 5 1 4 2 3 3 2 4 1 5 26 6 27 7 79 8 28 9 78 10 29 11 30 12
REMARK SMILES IDX 31 13 72 14 32 15 77 16 71 17 73 18 33 19 76 20 70 21 69 22
REMARK SMILES IDX 34 24 60 25 43 26 59 27 44 28 47 29 58 30 74 31 45 32 46 33
REMARK SMILES IDX 57 35 75 36 48 37 35 38 36 39 41 40 37 41 38 42 40 43 42 44
REMARK SMILES IDX 39 45 61 46 62 47 67 48 63 49 64 50 66 51 68 52 65 53 49 54
REMARK SMILES IDX 50 55 55 56 51 57 52 58 54 59 56 60 53 61 6 62 7 63 8 64
REMARK SMILES IDX 9 65 10 66 25 67 11 68 24 69 12 70 13 71 14 72 15 73 23 74
REMARK SMILES IDX 16 75 22 76 17 77 21 78 18 79 20 80 19 81
REMARK H PARENT 73 23 47 34
REMARK Flexibility Score: inf
ROOT
ATOM      1  C   UNL A   1      31.839  30.995  26.522  1.00  0.00     0.275 C 
ENDROOT
BRANCH   1   2
ATOM      2  C   UNL A   1      31.728  32.533  26.500  1.00  0.00     0.275 C 
BRANCH   2   3
ATOM      3  O   UNL A   1      31.933  33.149  27.775  1.00  0.00    -0.458 OA
BRANCH   3   4
ATOM      4  C   UNL A   1      32.983  33.872  28.219  1.00  0.00     0.338 C 
ATOM      5  O   UNL A   1      32.832  35.085  28.361  1.00  0.00    -0.246 OA
BRANCH   4   6
ATOM      6  C   UNL A   1      34.361  33.313  28.424  1.00  0.00     0.060 A 
ATOM      7  C   UNL A   1      34.402  32.017  28.961  1.00  0.00     0.016 A 
ATOM      8  C   UNL A   1      35.581  33.975  28.253  1.00  0.00     0.016 A 
ATOM      9  C   UNL A   1      35.579  31.506  29.496  1.00  0.00     0.010 A 
ATOM     10  C   UNL A   1      36.765  33.463  28.775  1.00  0.00     0.010 A 
ATOM     11  C   UNL A   1      36.759  32.257  29.460  1.00  0.00    -0.014 A 
BRANCH  11  12
ATOM     12  C   UNL A   1      37.987  31.724  30.057  1.00  0.00     0.031 A 
ATOM     13  C   UNL A   1      38.689  30.516  29.464  1.00  0.00     0.074 A 
ATOM     14  C   UNL A   1      38.337  32.146  31.290  1.00  0.00     0.049 A 
ATOM     15  N   UNL A   1      40.145  29.890  29.913  1.00  0.00    -0.248 NA
ATOM     16  C   UNL A   1      37.955  29.378  27.967  1.00  0.00     0.031 C 
ATOM     17  C   UNL A   1      37.477  32.987  32.125  1.00  0.00     0.029 A 
ATOM     18  N   UNL A   1      39.344  31.740  32.138  1.00  0.00    -0.354 N 
ATOM     19  C   UNL A   1      40.608  28.480  28.833  1.00  0.00     0.074 A 
ATOM     20  C   UNL A   1      39.097  28.206  27.653  1.00  0.00     0.031 C 
ATOM     21  C   UNL A   1      37.934  32.961  33.382  1.00  0.00     0.029 A 
ATOM     22  C   UNL A   1      39.106  32.094  33.444  1.00  0.00     0.049 A 
ATOM     23  H   UNL A   1      40.146  31.251  31.840  1.00  0.00     0.167 HD
ATOM     24  C   UNL A   1      41.742  27.739  28.868  1.00  0.00     0.037 A 
ATOM     25  C   UNL A   1      39.694  31.703  34.589  1.00  0.00     0.037 A 
ATOM     26  C   UNL A   1      42.589  27.681  30.031  1.00  0.00     0.049 A 
ATOM     27  C   UNL A   1      40.815  30.698  34.582  1.00  0.00     0.074 A 
ATOM     28  C   UNL A   1      43.664  26.843  30.269  1.00  0.00     0.029 A 
ATOM     29  N   UNL A   1      42.342  28.362  31.227  1.00  0.00    -0.354 N 
ATOM     30  N   UNL A   1      41.339  30.007  33.595  1.00  0.00    -0.248 NA
ATOM     31  C   UNL A   1      41.418  30.427  35.892  1.00  0.00     0.031 C 
ATOM     32  C   UNL A   1      43.974  26.915  31.634  1.00  0.00     0.029 A 
ATOM     33  C   UNL A   1      43.174  27.881  32.228  1.00  0.00     0.049 A 
ATOM     34  H   UNL A   1      41.676  29.078  31.342  1.00  0.00     0.167 HD
ATOM     35  C   UNL A   1      42.349  29.232  34.167  1.00  0.00     0.074 A 
ATOM     36  C   UNL A   1      42.382  29.582  35.574  1.00  0.00     0.031 C 
ATOM     37  C   UNL A   1      43.170  28.302  33.612  1.00  0.00     0.037 A 
BRANCH  24  38
ATOM     38  C   UNL A   1      41.963  26.885  27.673  1.00  0.00     0.057 A 
ATOM     39  C   UNL A   1      42.601  27.340  26.515  1.00  0.00     0.134 A 
ATOM     40  C   UNL A   1      41.509  25.558  27.679  1.00  0.00     0.134 A 
ATOM     41  F   UNL A   1      43.035  28.606  26.425  1.00  0.00    -0.206 F 
ATOM     42  C   UNL A   1      42.811  26.495  25.422  1.00  0.00     0.040 A 
ATOM     43  C   UNL A   1      41.723  24.701  26.600  1.00  0.00     0.040 A 
ATOM     44  F   UNL A   1      40.863  25.069  28.749  1.00  0.00    -0.206 F 
ATOM     45  C   UNL A   1      42.385  25.168  25.468  1.00  0.00     0.006 A 
ENDBRANCH  24  38
BRANCH  25  46
ATOM     46  C   UNL A   1      39.217  32.283  35.874  1.00  0.00     0.057 A 
ATOM     47  C   UNL A   1      39.685  33.509  36.364  1.00  0.00     0.134 A 
ATOM     48  C   UNL A   1      38.270  31.598  36.645  1.00  0.00     0.134 A 
ATOM     49  F   UNL A   1      40.618  34.198  35.689  1.00  0.00    -0.206 F 
ATOM     50  C   UNL A   1      39.231  34.031  37.577  1.00  0.00     0.040 A 
ATOM     51  C   UNL A   1      37.778  32.126  37.839  1.00  0.00     0.040 A 
ATOM     52  F   UNL A   1      37.778  30.426  36.219  1.00  0.00    -0.206 F 
ATOM     53  C   UNL A   1      38.264  33.344  38.310  1.00  0.00     0.006 A 
ENDBRANCH  25  46
BRANCH  37  54
ATOM     54  C   UNL A   1      44.215  27.700  34.523  1.00  0.00     0.057 A 
ATOM     55  C   UNL A   1      45.457  28.334  34.668  1.00  0.00     0.134 A 
ATOM     56  C   UNL A   1      44.008  26.524  35.262  1.00  0.00     0.134 A 
ATOM     57  F   UNL A   1      45.736  29.449  33.977  1.00  0.00    -0.206 F 
ATOM     58  C   UNL A   1      46.443  27.835  35.519  1.00  0.00     0.040 A 
ATOM     59  C   UNL A   1      44.969  26.043  36.156  1.00  0.00     0.040 A 
ATOM     60  F   UNL A   1      42.845  25.861  35.177  1.00  0.00    -0.206 F 
ATOM     61  C   UNL A   1      46.192  26.698  36.283  1.00  0.00     0.006 A 
ENDBRANCH  37  54
ENDBRANCH  11  12
ENDBRANCH   4   6
ENDBRANCH   3   4
ENDBRANCH   2   3
ENDBRANCH   1   2
BRANCH   1  62
ATOM     62  O   UNL A   1      31.422  30.308  25.316  1.00  0.00    -0.458 OA
BRANCH  62  63
ATOM     63  C   UNL A   1      32.122  29.177  24.958  1.00  0.00     0.348 C 
ATOM     64  O   UNL A   1      33.286  29.195  24.584  1.00  0.00    -0.245 OA
BRANCH  63  65
ATOM     65  C   UNL A   1      31.309  27.991  25.212  1.00  0.00     0.116 A 
ATOM     66  C   UNL A   1      31.030  27.307  26.392  1.00  0.00     0.074 A 
ATOM     67  S   UNL A   1      30.537  27.216  23.892  1.00  0.00    -0.133 S 
ATOM     68  C   UNL A   1      30.660  25.944  26.142  1.00  0.00     0.131 A 
ATOM     69  C   UNL A   1      30.274  25.804  24.823  1.00  0.00     0.112 A 
BRANCH  68  70
ATOM     70  O   UNL A   1      30.736  24.784  26.865  1.00  0.00    -0.489 OA
BRANCH  70  71
ATOM     71  C   UNL A   1      30.699  23.301  26.287  1.00  0.00     0.275 C 
BRANCH  71  72
ATOM     72  C   UNL A   1      32.219  22.214  24.984  1.00  0.00     0.215 C 
ATOM     73  C   UNL A   1      33.311  20.957  25.341  1.00  0.00     0.088 C 
ATOM     74  O   UNL A   1      33.127  22.893  23.777  1.00  0.00    -0.486 OA
ATOM     75  C   UNL A   1      34.564  21.332  24.688  1.00  0.00     0.001 A 
ATOM     76  C   UNL A   1      34.408  22.419  23.871  1.00  0.00     0.123 A 
ATOM     77  C   UNL A   1      35.810  20.829  25.037  1.00  0.00     0.047 A 
ATOM     78  C   UNL A   1      35.513  23.034  23.319  1.00  0.00     0.050 A 
ATOM     79  C   UNL A   1      36.923  21.490  24.560  1.00  0.00     0.123 A 
ATOM     80  C   UNL A   1      36.787  22.579  23.695  1.00  0.00     0.043 A 
ATOM     81  F   UNL A   1      38.135  21.124  24.998  1.00  0.00    -0.207 F 
ENDBRANCH  71  72
ENDBRANCH  70  71
ENDBRANCH  68  70
ENDBRANCH  63  65
ENDBRANCH  62  63
ENDBRANCH   1  62
TORSDOF 14
ENDMDL
