MODEL 1
REMARK VINA RESULT:      -9.5      0.000      0.000
REMARK SMILES O=C(CCCc1ccc2c(c1Br)C=CC2)OCCOC(=O)c1ccc(-c2c3nc(c(-c4c(F)cccc4F)c4ccc([nH]4)c(-c4c(F)cccc4F)c4nc(c(-c5c(F)cccc5F)c5ccc2[nH]5)C=C4)C=C3)cc1
REMARK SMILES IDX 17 1 16 2 2 3 1 4 3 5 4 6 5 7 6 8 7 9 11 10 8 11 10 12 12 13
REMARK SMILES IDX 9 14 13 15 15 16 14 17 18 18 19 19 20 20 21 21 22 22 23 23
REMARK SMILES IDX 75 24 24 25 74 26 25 27 26 28 27 29 68 30 28 31 73 32 67 33
REMARK SMILES IDX 69 34 29 35 72 36 66 37 65 38 30 40 56 41 39 42 55 43 40 44
REMARK SMILES IDX 43 45 54 46 70 47 41 48 42 49 53 51 71 52 44 53 31 54 32 55
REMARK SMILES IDX 37 56 33 57 34 58 36 59 38 60 35 61 57 62 58 63 63 64 59 65
REMARK SMILES IDX 60 66 62 67 64 68 61 69 45 70 46 71 51 72 47 73 48 74 50 75
REMARK SMILES IDX 52 76 49 77
REMARK H PARENT 69 39 43 50
REMARK Flexibility Score: inf
ROOT
ATOM      1  C   UNL A   1      32.913  36.346  30.745  1.00  0.00     0.274 C 
ENDROOT
BRANCH   1   2
ATOM      2  O   UNL A   1      33.130  37.221  31.865  1.00  0.00    -0.462 OA
BRANCH   2   3
ATOM      3  C   UNL A   1      33.928  36.853  32.898  1.00  0.00     0.305 C 
ATOM      4  O   UNL A   1      33.953  37.516  33.933  1.00  0.00    -0.252 OA
BRANCH   3   5
ATOM      5  C   UNL A   1      34.890  35.703  32.682  1.00  0.00     0.123 C 
BRANCH   5   6
ATOM      6  C   UNL A   1      34.614  34.483  33.559  1.00  0.00     0.016 C 
BRANCH   6   7
ATOM      7  C   UNL A   1      35.666  34.164  34.639  1.00  0.00     0.037 C 
BRANCH   7   8
ATOM      8  C   UNL A   1      36.583  32.967  34.441  1.00  0.00    -0.033 A 
ATOM      9  C   UNL A   1      36.180  32.011  33.468  1.00  0.00     0.005 A 
ATOM     10  C   UNL A   1      37.781  32.735  35.150  1.00  0.00     0.028 A 
ATOM     11  C   UNL A   1      36.979  30.923  33.112  1.00  0.00     0.005 A 
ATOM     12  C   UNL A   1      38.573  31.641  34.795  1.00  0.00    -0.008 A 
ATOM     13  Br  UNL A   1      38.334  33.826  36.601  1.00  0.00    -0.050 Br
ATOM     14  C   UNL A   1      38.180  30.765  33.771  1.00  0.00    -0.036 A 
ATOM     15  C   UNL A   1      39.850  31.163  35.322  1.00  0.00     0.005 C 
ATOM     16  C   UNL A   1      39.215  29.701  33.568  1.00  0.00     0.063 C 
ATOM     17  C   UNL A   1      40.213  30.071  34.632  1.00  0.00    -0.022 C 
ENDBRANCH   7   8
ENDBRANCH   6   7
ENDBRANCH   5   6
ENDBRANCH   3   5
ENDBRANCH   2   3
ENDBRANCH   1   2
BRANCH   1  18
ATOM     18  C   UNL A   1      33.114  37.035  29.394  1.00  0.00     0.275 C 
BRANCH  18  19
ATOM     19  O   UNL A   1      33.837  36.182  28.495  1.00  0.00    -0.458 OA
BRANCH  19  20
ATOM     20  C   UNL A   1      33.468  34.880  28.552  1.00  0.00     0.338 C 
ATOM     21  O   UNL A   1      32.369  34.416  28.293  1.00  0.00    -0.246 OA
BRANCH  20  22
ATOM     22  C   UNL A   1      34.656  34.045  28.805  1.00  0.00     0.060 A 
ATOM     23  C   UNL A   1      34.595  33.164  29.891  1.00  0.00     0.016 A 
ATOM     24  C   UNL A   1      35.810  34.127  28.019  1.00  0.00     0.016 A 
ATOM     25  C   UNL A   1      35.711  32.409  30.235  1.00  0.00     0.010 A 
ATOM     26  C   UNL A   1      36.938  33.378  28.374  1.00  0.00     0.010 A 
ATOM     27  C   UNL A   1      36.902  32.552  29.509  1.00  0.00    -0.014 A 
BRANCH  27  28
ATOM     28  C   UNL A   1      38.147  32.016  30.103  1.00  0.00     0.031 A 
ATOM     29  C   UNL A   1      38.615  30.660  29.651  1.00  0.00     0.074 A 
ATOM     30  C   UNL A   1      38.893  32.741  30.952  1.00  0.00     0.049 A 
ATOM     31  N   UNL A   1      39.758  30.060  29.863  1.00  0.00    -0.248 NA
ATOM     32  C   UNL A   1      37.665  29.885  28.836  1.00  0.00     0.031 C 
ATOM     33  C   UNL A   1      38.563  34.073  31.451  1.00  0.00     0.029 A 
ATOM     34  N   UNL A   1      40.106  32.452  31.525  1.00  0.00    -0.354 N 
ATOM     35  C   UNL A   1      39.684  28.864  29.163  1.00  0.00     0.074 A 
ATOM     36  C   UNL A   1      38.362  28.790  28.580  1.00  0.00     0.031 C 
ATOM     37  C   UNL A   1      39.560  34.496  32.249  1.00  0.00     0.029 A 
ATOM     38  C   UNL A   1      40.595  33.466  32.311  1.00  0.00     0.049 A 
ATOM     39  H   UNL A   1      40.579  31.601  31.387  1.00  0.00     0.167 HD
ATOM     40  C   UNL A   1      40.640  27.920  28.994  1.00  0.00     0.037 A 
ATOM     41  C   UNL A   1      41.759  33.551  32.982  1.00  0.00     0.037 A 
ATOM     42  C   UNL A   1      41.932  27.956  29.623  1.00  0.00     0.049 A 
ATOM     43  C   UNL A   1      42.758  32.428  32.886  1.00  0.00     0.074 A 
ATOM     44  C   UNL A   1      42.963  27.038  29.540  1.00  0.00     0.029 A 
ATOM     45  N   UNL A   1      42.355  28.960  30.481  1.00  0.00    -0.354 N 
ATOM     46  N   UNL A   1      42.712  31.333  32.164  1.00  0.00    -0.248 NA
ATOM     47  C   UNL A   1      43.980  32.563  33.691  1.00  0.00     0.031 C 
ATOM     48  C   UNL A   1      43.997  27.468  30.384  1.00  0.00     0.029 A 
ATOM     49  C   UNL A   1      43.623  28.673  30.957  1.00  0.00     0.049 A 
ATOM     50  H   UNL A   1      41.832  29.760  30.714  1.00  0.00     0.167 HD
ATOM     51  C   UNL A   1      43.914  30.675  32.393  1.00  0.00     0.074 A 
ATOM     52  C   UNL A   1      44.667  31.492  33.322  1.00  0.00     0.031 C 
ATOM     53  C   UNL A   1      44.360  29.502  31.875  1.00  0.00     0.037 A 
BRANCH  40  54
ATOM     54  C   UNL A   1      40.289  26.769  28.101  1.00  0.00     0.057 A 
ATOM     55  C   UNL A   1      40.804  26.678  26.803  1.00  0.00     0.134 A 
ATOM     56  C   UNL A   1      39.471  25.722  28.550  1.00  0.00     0.134 A 
ATOM     57  F   UNL A   1      41.596  27.643  26.316  1.00  0.00    -0.206 F 
ATOM     58  C   UNL A   1      40.531  25.578  25.989  1.00  0.00     0.040 A 
ATOM     59  C   UNL A   1      39.208  24.607  27.752  1.00  0.00     0.040 A 
ATOM     60  F   UNL A   1      38.963  25.740  29.793  1.00  0.00    -0.206 F 
ATOM     61  C   UNL A   1      39.739  24.534  26.467  1.00  0.00     0.006 A 
ENDBRANCH  40  54
BRANCH  41  62
ATOM     62  C   UNL A   1      42.078  34.762  33.778  1.00  0.00     0.057 A 
ATOM     63  C   UNL A   1      41.878  34.799  35.162  1.00  0.00     0.134 A 
ATOM     64  C   UNL A   1      42.635  35.894  33.173  1.00  0.00     0.134 A 
ATOM     65  F   UNL A   1      41.353  33.742  35.799  1.00  0.00    -0.206 F 
ATOM     66  C   UNL A   1      42.223  35.919  35.918  1.00  0.00     0.040 A 
ATOM     67  C   UNL A   1      43.001  37.015  33.919  1.00  0.00     0.040 A 
ATOM     68  F   UNL A   1      42.872  35.906  31.853  1.00  0.00    -0.206 F 
ATOM     69  C   UNL A   1      42.794  37.029  35.297  1.00  0.00     0.006 A 
ENDBRANCH  41  62
BRANCH  53  70
ATOM     70  C   UNL A   1      45.740  29.063  32.270  1.00  0.00     0.057 A 
ATOM     71  C   UNL A   1      46.856  29.479  31.532  1.00  0.00     0.134 A 
ATOM     72  C   UNL A   1      45.966  28.217  33.363  1.00  0.00     0.134 A 
ATOM     73  F   UNL A   1      46.709  30.283  30.468  1.00  0.00    -0.206 F 
ATOM     74  C   UNL A   1      48.147  29.074  31.870  1.00  0.00     0.040 A 
ATOM     75  C   UNL A   1      47.256  27.826  33.727  1.00  0.00     0.040 A 
ATOM     76  F   UNL A   1      44.941  27.795  34.118  1.00  0.00    -0.206 F 
ATOM     77  C   UNL A   1      48.350  28.250  32.976  1.00  0.00     0.006 A 
ENDBRANCH  53  70
ENDBRANCH  27  28
ENDBRANCH  20  22
ENDBRANCH  19  20
ENDBRANCH  18  19
ENDBRANCH   1  18
TORSDOF 14
ENDMDL
MODEL 2
REMARK VINA RESULT:      -9.1      5.350     10.968
REMARK SMILES O=C(CCCc1ccc2c(c1Br)C=CC2)OCCOC(=O)c1ccc(-c2c3nc(c(-c4c(F)cccc4F)c4ccc([nH]4)c(-c4c(F)cccc4F)c4nc(c(-c5c(F)cccc5F)c5ccc2[nH]5)C=C4)C=C3)cc1
REMARK SMILES IDX 17 1 16 2 2 3 1 4 3 5 4 6 5 7 6 8 7 9 11 10 8 11 10 12 12 13
REMARK SMILES IDX 9 14 13 15 15 16 14 17 18 18 19 19 20 20 21 21 22 22 23 23
REMARK SMILES IDX 75 24 24 25 74 26 25 27 26 28 27 29 68 30 28 31 73 32 67 33
REMARK SMILES IDX 69 34 29 35 72 36 66 37 65 38 30 40 56 41 39 42 55 43 40 44
REMARK SMILES IDX 43 45 54 46 70 47 41 48 42 49 53 51 71 52 44 53 31 54 32 55
REMARK SMILES IDX 37 56 33 57 34 58 36 59 38 60 35 61 57 62 58 63 63 64 59 65
REMARK SMILES IDX 60 66 62 67 64 68 61 69 45 70 46 71 51 72 47 73 48 74 50 75
REMARK SMILES IDX 52 76 49 77
REMARK H PARENT 69 39 43 50
REMARK Flexibility Score: inf
ROOT
ATOM      1  C   UNL A   1      44.772  21.440  24.916  1.00  0.00     0.274 C 
ENDROOT
BRANCH   1   2
ATOM      2  O   UNL A   1      43.530  20.717  24.952  1.00  0.00    -0.462 OA
BRANCH   2   3
ATOM      3  C   UNL A   1      42.983  20.320  26.128  1.00  0.00     0.305 C 
ATOM      4  O   UNL A   1      42.683  19.143  26.310  1.00  0.00    -0.252 OA
BRANCH   3   5
ATOM      5  C   UNL A   1      42.616  21.387  27.140  1.00  0.00     0.123 C 
BRANCH   5   6
ATOM      6  C   UNL A   1      41.113  21.563  27.346  1.00  0.00     0.016 C 
BRANCH   6   7
ATOM      7  C   UNL A   1      40.216  21.279  26.125  1.00  0.00     0.037 C 
BRANCH   7   8
ATOM      8  C   UNL A   1      38.908  22.041  25.980  1.00  0.00    -0.033 A 
ATOM      9  C   UNL A   1      38.881  23.364  26.502  1.00  0.00     0.005 A 
ATOM     10  C   UNL A   1      37.734  21.533  25.384  1.00  0.00     0.028 A 
ATOM     11  C   UNL A   1      37.781  24.208  26.343  1.00  0.00     0.005 A 
ATOM     12  C   UNL A   1      36.634  22.379  25.233  1.00  0.00    -0.008 A 
ATOM     13  Br  UNL A   1      37.575  19.727  24.821  1.00  0.00    -0.050 Br
ATOM     14  C   UNL A   1      36.675  23.707  25.689  1.00  0.00    -0.036 A 
ATOM     15  C   UNL A   1      35.313  22.151  24.649  1.00  0.00     0.005 C 
ATOM     16  C   UNL A   1      35.386  24.405  25.379  1.00  0.00     0.063 C 
ATOM     17  C   UNL A   1      34.610  23.291  24.730  1.00  0.00    -0.022 C 
ENDBRANCH   7   8
ENDBRANCH   6   7
ENDBRANCH   5   6
ENDBRANCH   3   5
ENDBRANCH   2   3
ENDBRANCH   1   2
BRANCH   1  18
ATOM     18  C   UNL A   1      44.732  22.660  23.994  1.00  0.00     0.275 C 
BRANCH  18  19
ATOM     19  O   UNL A   1      43.863  23.668  24.529  1.00  0.00    -0.458 OA
BRANCH  19  20
ATOM     20  C   UNL A   1      44.510  24.759  25.005  1.00  0.00     0.338 C 
ATOM     21  O   UNL A   1      45.614  25.161  24.674  1.00  0.00    -0.246 OA
BRANCH  20  22
ATOM     22  C   UNL A   1      43.602  25.525  25.877  1.00  0.00     0.060 A 
ATOM     23  C   UNL A   1      44.013  26.809  26.253  1.00  0.00     0.016 A 
ATOM     24  C   UNL A   1      42.388  25.003  26.337  1.00  0.00     0.016 A 
ATOM     25  C   UNL A   1      43.243  27.551  27.142  1.00  0.00     0.010 A 
ATOM     26  C   UNL A   1      41.620  25.745  27.242  1.00  0.00     0.010 A 
ATOM     27  C   UNL A   1      42.070  27.001  27.679  1.00  0.00    -0.014 A 
BRANCH  27  28
ATOM     28  C   UNL A   1      41.475  27.655  28.866  1.00  0.00     0.031 A 
ATOM     29  C   UNL A   1      42.177  27.491  30.185  1.00  0.00     0.074 A 
ATOM     30  C   UNL A   1      40.394  28.445  28.768  1.00  0.00     0.049 A 
ATOM     31  N   UNL A   1      41.978  28.115  31.318  1.00  0.00    -0.248 NA
ATOM     32  C   UNL A   1      43.262  26.497  30.224  1.00  0.00     0.031 C 
ATOM     33  C   UNL A   1      39.635  28.702  27.547  1.00  0.00     0.029 A 
ATOM     34  N   UNL A   1      39.764  29.198  29.727  1.00  0.00    -0.354 N 
ATOM     35  C   UNL A   1      42.947  27.629  32.185  1.00  0.00     0.074 A 
ATOM     36  C   UNL A   1      43.686  26.610  31.472  1.00  0.00     0.031 C 
ATOM     37  C   UNL A   1      38.645  29.568  27.827  1.00  0.00     0.029 A 
ATOM     38  C   UNL A   1      38.706  29.926  29.243  1.00  0.00     0.049 A 
ATOM     39  H   UNL A   1      40.043  29.214  30.670  1.00  0.00     0.167 HD
ATOM     40  C   UNL A   1      43.219  28.014  33.454  1.00  0.00     0.037 A 
ATOM     41  C   UNL A   1      37.898  30.797  29.877  1.00  0.00     0.037 A 
ATOM     42  C   UNL A   1      42.448  28.978  34.190  1.00  0.00     0.049 A 
ATOM     43  C   UNL A   1      38.138  31.114  31.329  1.00  0.00     0.074 A 
ATOM     44  C   UNL A   1      42.623  29.420  35.489  1.00  0.00     0.029 A 
ATOM     45  N   UNL A   1      41.332  29.630  33.689  1.00  0.00    -0.354 N 
ATOM     46  N   UNL A   1      39.101  30.706  32.122  1.00  0.00    -0.248 NA
ATOM     47  C   UNL A   1      37.182  32.029  31.970  1.00  0.00     0.031 C 
ATOM     48  C   UNL A   1      41.582  30.310  35.789  1.00  0.00     0.029 A 
ATOM     49  C   UNL A   1      40.788  30.452  34.662  1.00  0.00     0.049 A 
ATOM     50  H   UNL A   1      40.979  29.526  32.777  1.00  0.00     0.167 HD
ATOM     51  C   UNL A   1      38.891  31.347  33.337  1.00  0.00     0.074 A 
ATOM     52  C   UNL A   1      37.710  32.170  33.176  1.00  0.00     0.031 C 
ATOM     53  C   UNL A   1      39.616  31.270  34.482  1.00  0.00     0.037 A 
BRANCH  40  54
ATOM     54  C   UNL A   1      44.397  27.359  34.110  1.00  0.00     0.057 A 
ATOM     55  C   UNL A   1      45.668  27.941  34.059  1.00  0.00     0.134 A 
ATOM     56  C   UNL A   1      44.256  26.167  34.835  1.00  0.00     0.134 A 
ATOM     57  F   UNL A   1      45.868  29.083  33.386  1.00  0.00    -0.206 F 
ATOM     58  C   UNL A   1      46.757  27.369  34.720  1.00  0.00     0.040 A 
ATOM     59  C   UNL A   1      45.333  25.598  35.518  1.00  0.00     0.040 A 
ATOM     60  F   UNL A   1      43.058  25.571  34.940  1.00  0.00    -0.206 F 
ATOM     61  C   UNL A   1      46.587  26.199  35.461  1.00  0.00     0.006 A 
ENDBRANCH  40  54
BRANCH  41  62
ATOM     62  C   UNL A   1      36.804  31.476  29.139  1.00  0.00     0.057 A 
ATOM     63  C   UNL A   1      36.910  32.814  28.747  1.00  0.00     0.134 A 
ATOM     64  C   UNL A   1      35.646  30.782  28.770  1.00  0.00     0.134 A 
ATOM     65  F   UNL A   1      37.999  33.530  29.066  1.00  0.00    -0.206 F 
ATOM     66  C   UNL A   1      35.903  33.439  28.010  1.00  0.00     0.040 A 
ATOM     67  C   UNL A   1      34.640  31.389  28.018  1.00  0.00     0.040 A 
ATOM     68  F   UNL A   1      35.501  29.490  29.097  1.00  0.00    -0.206 F 
ATOM     69  C   UNL A   1      34.767  32.724  27.637  1.00  0.00     0.006 A 
ENDBRANCH  41  62
BRANCH  53  70
ATOM     70  C   UNL A   1      39.174  32.130  35.629  1.00  0.00     0.057 A 
ATOM     71  C   UNL A   1      39.657  33.438  35.764  1.00  0.00     0.134 A 
ATOM     72  C   UNL A   1      38.287  31.664  36.608  1.00  0.00     0.134 A 
ATOM     73  F   UNL A   1      40.516  33.944  34.865  1.00  0.00    -0.206 F 
ATOM     74  C   UNL A   1      39.273  34.254  36.828  1.00  0.00     0.040 A 
ATOM     75  C   UNL A   1      37.875  32.480  37.664  1.00  0.00     0.040 A 
ATOM     76  F   UNL A   1      37.778  30.427  36.529  1.00  0.00    -0.206 F 
ATOM     77  C   UNL A   1      38.372  33.776  37.779  1.00  0.00     0.006 A 
ENDBRANCH  53  70
ENDBRANCH  27  28
ENDBRANCH  20  22
ENDBRANCH  19  20
ENDBRANCH  18  19
ENDBRANCH   1  18
TORSDOF 14
ENDMDL
MODEL 3
REMARK VINA RESULT:      -9.0      4.573      9.101
REMARK SMILES O=C(CCCc1ccc2c(c1Br)C=CC2)OCCOC(=O)c1ccc(-c2c3nc(c(-c4c(F)cccc4F)c4ccc([nH]4)c(-c4c(F)cccc4F)c4nc(c(-c5c(F)cccc5F)c5ccc2[nH]5)C=C4)C=C3)cc1
REMARK SMILES IDX 17 1 16 2 2 3 1 4 3 5 4 6 5 7 6 8 7 9 11 10 8 11 10 12 12 13
REMARK SMILES IDX 9 14 13 15 15 16 14 17 18 18 19 19 20 20 21 21 22 22 23 23
REMARK SMILES IDX 75 24 24 25 74 26 25 27 26 28 27 29 68 30 28 31 73 32 67 33
REMARK SMILES IDX 69 34 29 35 72 36 66 37 65 38 30 40 56 41 39 42 55 43 40 44
REMARK SMILES IDX 43 45 54 46 70 47 41 48 42 49 53 51 71 52 44 53 31 54 32 55
REMARK SMILES IDX 37 56 33 57 34 58 36 59 38 60 35 61 57 62 58 63 63 64 59 65
REMARK SMILES IDX 60 66 62 67 64 68 61 69 45 70 46 71 51 72 47 73 48 74 50 75
REMARK SMILES IDX 52 76 49 77
REMARK H PARENT 69 39 43 50
REMARK Flexibility Score: inf
ROOT
ATOM      1  C   UNL A   1      31.838  30.504  26.202  1.00  0.00     0.274 C 
ENDROOT
BRANCH   1   2
ATOM      2  O   UNL A   1      32.054  29.619  27.314  1.00  0.00    -0.462 OA
BRANCH   2   3
ATOM      3  C   UNL A   1      32.043  28.272  27.151  1.00  0.00     0.305 C 
ATOM      4  O   UNL A   1      31.150  27.592  27.650  1.00  0.00    -0.252 OA
BRANCH   3   5
ATOM      5  C   UNL A   1      33.235  27.626  26.475  1.00  0.00     0.123 C 
BRANCH   5   6
ATOM      6  C   UNL A   1      33.005  26.176  26.052  1.00  0.00     0.016 C 
BRANCH   6   7
ATOM      7  C   UNL A   1      32.591  25.949  24.585  1.00  0.00     0.037 C 
BRANCH   7   8
ATOM      8  C   UNL A   1      31.356  26.658  24.051  1.00  0.00    -0.033 A 
ATOM      9  C   UNL A   1      30.107  26.015  24.273  1.00  0.00     0.005 A 
ATOM     10  C   UNL A   1      31.361  27.885  23.354  1.00  0.00     0.028 A 
ATOM     11  C   UNL A   1      28.890  26.606  23.929  1.00  0.00     0.005 A 
ATOM     12  C   UNL A   1      30.141  28.469  23.006  1.00  0.00    -0.008 A 
ATOM     13  Br  UNL A   1      32.966  28.752  22.827  1.00  0.00    -0.050 Br
ATOM     14  C   UNL A   1      28.925  27.840  23.316  1.00  0.00    -0.036 A 
ATOM     15  C   UNL A   1      29.831  29.718  22.313  1.00  0.00     0.005 C 
ATOM     16  C   UNL A   1      27.772  28.684  22.866  1.00  0.00     0.063 C 
ATOM     17  C   UNL A   1      28.497  29.840  22.233  1.00  0.00    -0.022 C 
ENDBRANCH   7   8
ENDBRANCH   6   7
ENDBRANCH   5   6
ENDBRANCH   3   5
ENDBRANCH   2   3
ENDBRANCH   1   2
BRANCH   1  18
ATOM     18  C   UNL A   1      31.901  31.983  26.588  1.00  0.00     0.275 C 
BRANCH  18  19
ATOM     19  O   UNL A   1      32.536  32.144  27.864  1.00  0.00    -0.458 OA
BRANCH  19  20
ATOM     20  C   UNL A   1      33.468  33.127  27.897  1.00  0.00     0.338 C 
ATOM     21  O   UNL A   1      33.267  34.330  27.879  1.00  0.00    -0.246 OA
BRANCH  20  22
ATOM     22  C   UNL A   1      34.795  32.535  28.147  1.00  0.00     0.060 A 
ATOM     23  C   UNL A   1      34.829  31.190  28.531  1.00  0.00     0.016 A 
ATOM     24  C   UNL A   1      35.978  33.273  28.031  1.00  0.00     0.016 A 
ATOM     25  C   UNL A   1      36.042  30.595  28.864  1.00  0.00     0.010 A 
ATOM     26  C   UNL A   1      37.196  32.678  28.378  1.00  0.00     0.010 A 
ATOM     27  C   UNL A   1      37.222  31.352  28.838  1.00  0.00    -0.014 A 
BRANCH  27  28
ATOM     28  C   UNL A   1      38.414  30.804  29.522  1.00  0.00     0.031 A 
ATOM     29  C   UNL A   1      38.656  31.214  30.949  1.00  0.00     0.074 A 
ATOM     30  C   UNL A   1      39.215  29.902  28.933  1.00  0.00     0.049 A 
ATOM     31  N   UNL A   1      39.501  30.730  31.823  1.00  0.00    -0.248 NA
ATOM     32  C   UNL A   1      37.817  32.310  31.460  1.00  0.00     0.031 C 
ATOM     33  C   UNL A   1      39.078  29.408  27.566  1.00  0.00     0.029 A 
ATOM     34  N   UNL A   1      40.297  29.223  29.435  1.00  0.00    -0.354 N 
ATOM     35  C   UNL A   1      39.256  31.423  33.000  1.00  0.00     0.074 A 
ATOM     36  C   UNL A   1      38.236  32.409  32.711  1.00  0.00     0.031 C 
ATOM     37  C   UNL A   1      40.035  28.490  27.339  1.00  0.00     0.029 A 
ATOM     38  C   UNL A   1      40.844  28.332  28.546  1.00  0.00     0.049 A 
ATOM     39  H   UNL A   1      40.646  29.362  30.343  1.00  0.00     0.167 HD
ATOM     40  C   UNL A   1      39.808  31.241  34.223  1.00  0.00     0.037 A 
ATOM     41  C   UNL A   1      41.871  27.476  28.706  1.00  0.00     0.037 A 
ATOM     42  C   UNL A   1      40.867  30.310  34.501  1.00  0.00     0.049 A 
ATOM     43  C   UNL A   1      42.560  27.382  30.042  1.00  0.00     0.074 A 
ATOM     44  C   UNL A   1      41.516  30.066  35.697  1.00  0.00     0.029 A 
ATOM     45  N   UNL A   1      41.451  29.486  33.550  1.00  0.00    -0.354 N 
ATOM     46  N   UNL A   1      42.275  27.988  31.170  1.00  0.00    -0.248 NA
ATOM     47  C   UNL A   1      43.708  26.468  30.127  1.00  0.00     0.031 C 
ATOM     48  C   UNL A   1      42.525  29.122  35.461  1.00  0.00     0.029 A 
ATOM     49  C   UNL A   1      42.473  28.751  34.126  1.00  0.00     0.049 A 
ATOM     50  H   UNL A   1      41.179  29.431  32.607  1.00  0.00     0.167 HD
ATOM     51  C   UNL A   1      43.178  27.497  32.105  1.00  0.00     0.074 A 
ATOM     52  C   UNL A   1      44.020  26.543  31.412  1.00  0.00     0.031 C 
ATOM     53  C   UNL A   1      43.295  27.800  33.423  1.00  0.00     0.037 A 
BRANCH  40  54
ATOM     54  C   UNL A   1      39.270  32.095  35.330  1.00  0.00     0.057 A 
ATOM     55  C   UNL A   1      38.340  31.589  36.245  1.00  0.00     0.134 A 
ATOM     56  C   UNL A   1      39.713  33.412  35.515  1.00  0.00     0.134 A 
ATOM     57  F   UNL A   1      37.879  30.336  36.126  1.00  0.00    -0.206 F 
ATOM     58  C   UNL A   1      37.881  32.359  37.315  1.00  0.00     0.040 A 
ATOM     59  C   UNL A   1      39.278  34.184  36.595  1.00  0.00     0.040 A 
ATOM     60  F   UNL A   1      40.621  33.948  34.685  1.00  0.00    -0.206 F 
ATOM     61  C   UNL A   1      38.359  33.657  37.498  1.00  0.00     0.006 A 
ENDBRANCH  40  54
BRANCH  41  62
ATOM     62  C   UNL A   1      42.293  26.597  27.588  1.00  0.00     0.057 A 
ATOM     63  C   UNL A   1      43.217  27.027  26.630  1.00  0.00     0.134 A 
ATOM     64  C   UNL A   1      41.815  25.285  27.483  1.00  0.00     0.134 A 
ATOM     65  F   UNL A   1      43.716  28.272  26.682  1.00  0.00    -0.206 F 
ATOM     66  C   UNL A   1      43.652  26.184  25.607  1.00  0.00     0.040 A 
ATOM     67  C   UNL A   1      42.255  24.426  26.476  1.00  0.00     0.040 A 
ATOM     68  F   UNL A   1      40.946  24.810  28.387  1.00  0.00    -0.206 F 
ATOM     69  C   UNL A   1      43.176  24.877  25.533  1.00  0.00     0.006 A 
ENDBRANCH  41  62
BRANCH  53  70
ATOM     70  C   UNL A   1      44.342  27.060  34.203  1.00  0.00     0.057 A 
ATOM     71  C   UNL A   1      44.038  25.840  34.819  1.00  0.00     0.134 A 
ATOM     72  C   UNL A   1      45.642  27.558  34.360  1.00  0.00     0.134 A 
ATOM     73  F   UNL A   1      42.809  25.311  34.716  1.00  0.00    -0.206 F 
ATOM     74  C   UNL A   1      44.989  25.139  35.561  1.00  0.00     0.040 A 
ATOM     75  C   UNL A   1      46.610  26.853  35.079  1.00  0.00     0.040 A 
ATOM     76  F   UNL A   1      46.001  28.714  33.783  1.00  0.00    -0.206 F 
ATOM     77  C   UNL A   1      46.282  25.642  35.686  1.00  0.00     0.006 A 
ENDBRANCH  53  70
ENDBRANCH  27  28
ENDBRANCH  20  22
ENDBRANCH  19  20
ENDBRANCH  18  19
ENDBRANCH   1  18
TORSDOF 14
ENDMDL
