MODEL 1
REMARK VINA RESULT:     -11.5      0.000      0.000
REMARK SMILES C[C@@H](C(=O)OCCOC(=O)c1ccc(-c2c3nc(c(-c4c(F)cccc4F)c4ccc([nH]4)c(-c4c(F)cccc4F)c4nc(c(-c5c(F)cccc5F)c5ccc2[nH]5)C=C4)C=C3)cc1)c1ccc(C[C@H]2CCC[C@H]2O)cc1
REMARK SMILES IDX 6 1 5 2 3 3 4 4 2 5 1 6 65 7 66 8 77 9 67 10 76 11 68 12
REMARK SMILES IDX 69 13 70 14 71 15 74 16 72 17 73 18 75 19 7 21 8 22 9 23
REMARK SMILES IDX 10 24 11 25 12 26 64 27 13 28 63 29 14 30 15 31 16 32 57 33
REMARK SMILES IDX 17 34 62 35 56 36 58 37 18 38 61 39 55 40 54 41 19 43 45 44
REMARK SMILES IDX 28 45 44 46 29 47 32 48 43 49 59 50 30 51 31 52 42 54 60 55
REMARK SMILES IDX 33 56 20 57 21 58 26 59 22 60 23 61 25 62 27 63 24 64 46 65
REMARK SMILES IDX 47 66 52 67 48 68 49 69 51 70 53 71 50 72 34 73 35 74 40 75
REMARK SMILES IDX 36 76 37 77 39 78 41 79 38 80
REMARK H PARENT 75 20 58 42 32 53
REMARK Flexibility Score: inf
ROOT
ATOM      1  C   UNL A   1      41.114  21.363  26.706  1.00  0.00     0.274 C 
ENDROOT
BRANCH   1   2
ATOM      2  O   UNL A   1      40.110  22.290  26.246  1.00  0.00    -0.462 OA
BRANCH   2   3
ATOM      3  C   UNL A   1      38.929  21.780  25.787  1.00  0.00     0.313 C 
ATOM      4  O   UNL A   1      38.756  20.583  25.592  1.00  0.00    -0.252 OA
BRANCH   3   5
ATOM      5  C   UNL A   1      37.904  22.893  25.450  1.00  0.00     0.126 C 
ATOM      6  C   UNL A   1      37.994  24.028  26.496  1.00  0.00     0.025 C 
BRANCH   5   7
ATOM      7  C   UNL A   1      36.453  22.414  25.243  1.00  0.00    -0.034 A 
ATOM      8  C   UNL A   1      35.724  21.838  26.299  1.00  0.00     0.005 A 
ATOM      9  C   UNL A   1      35.762  22.570  24.032  1.00  0.00     0.005 A 
ATOM     10  C   UNL A   1      34.458  21.278  26.104  1.00  0.00     0.004 A 
ATOM     11  C   UNL A   1      34.513  21.968  23.820  1.00  0.00     0.004 A 
ATOM     12  C   UNL A   1      33.892  21.235  24.836  1.00  0.00    -0.048 A 
BRANCH  12  13
ATOM     13  C   UNL A   1      32.714  20.334  24.547  1.00  0.00     0.041 C 
BRANCH  13  14
ATOM     14  C   UNL A   1      33.050  18.844  24.288  1.00  0.00     0.022 C 
ATOM     15  C   UNL A   1      34.544  18.492  24.229  1.00  0.00     0.007 C 
ATOM     16  C   UNL A   1      32.448  17.771  25.209  1.00  0.00     0.117 C 
ATOM     17  C   UNL A   1      34.723  17.122  24.869  1.00  0.00     0.003 C 
ATOM     18  C   UNL A   1      33.321  16.548  24.930  1.00  0.00     0.032 C 
BRANCH  16  19
ATOM     19  O   UNL A   1      32.521  18.089  26.588  1.00  0.00    -0.393 OA
ATOM     20  H   UNL A   1      33.451  18.135  26.860  1.00  0.00     0.210 HD
ENDBRANCH  16  19
ENDBRANCH  13  14
ENDBRANCH  12  13
ENDBRANCH   5   7
ENDBRANCH   3   5
ENDBRANCH   2   3
ENDBRANCH   1   2
BRANCH   1  21
ATOM     21  C   UNL A   1      42.477  21.741  26.138  1.00  0.00     0.275 C 
BRANCH  21  22
ATOM     22  O   UNL A   1      42.306  22.764  25.140  1.00  0.00    -0.458 OA
BRANCH  22  23
ATOM     23  C   UNL A   1      43.276  23.700  25.071  1.00  0.00     0.338 C 
ATOM     24  O   UNL A   1      44.323  23.653  24.450  1.00  0.00    -0.246 OA
BRANCH  23  25
ATOM     25  C   UNL A   1      42.861  24.870  25.862  1.00  0.00     0.060 A 
ATOM     26  C   UNL A   1      43.839  25.603  26.518  1.00  0.00     0.016 A 
ATOM     27  C   UNL A   1      41.513  25.168  26.062  1.00  0.00     0.016 A 
ATOM     28  C   UNL A   1      43.459  26.566  27.450  1.00  0.00     0.010 A 
ATOM     29  C   UNL A   1      41.143  26.190  26.956  1.00  0.00     0.010 A 
ATOM     30  C   UNL A   1      42.107  26.858  27.725  1.00  0.00    -0.014 A 
BRANCH  30  31
ATOM     31  C   UNL A   1      41.773  27.750  28.897  1.00  0.00     0.031 A 
ATOM     32  C   UNL A   1      40.604  28.727  28.845  1.00  0.00     0.074 A 
ATOM     33  C   UNL A   1      42.345  27.531  30.103  1.00  0.00     0.049 A 
ATOM     34  N   UNL A   1      40.014  29.361  29.836  1.00  0.00    -0.248 NA
ATOM     35  C   UNL A   1      39.973  28.978  27.542  1.00  0.00     0.031 C 
ATOM     36  C   UNL A   1      43.411  26.565  30.372  1.00  0.00     0.029 A 
ATOM     37  N   UNL A   1      42.067  28.062  31.344  1.00  0.00    -0.354 N 
ATOM     38  C   UNL A   1      38.911  30.007  29.284  1.00  0.00     0.074 A 
ATOM     39  C   UNL A   1      38.942  29.746  27.865  1.00  0.00     0.031 C 
ATOM     40  C   UNL A   1      43.636  26.511  31.692  1.00  0.00     0.029 A 
ATOM     41  C   UNL A   1      42.813  27.514  32.361  1.00  0.00     0.049 A 
ATOM     42  H   UNL A   1      41.396  28.767  31.488  1.00  0.00     0.167 HD
ATOM     43  C   UNL A   1      37.939  30.731  29.892  1.00  0.00     0.037 A 
ATOM     44  C   UNL A   1      42.874  27.803  33.678  1.00  0.00     0.037 A 
ATOM     45  C   UNL A   1      37.925  31.107  31.279  1.00  0.00     0.049 A 
ATOM     46  C   UNL A   1      42.010  28.893  34.243  1.00  0.00     0.074 A 
ATOM     47  C   UNL A   1      37.011  31.905  31.947  1.00  0.00     0.029 A 
ATOM     48  N   UNL A   1      38.895  30.754  32.198  1.00  0.00    -0.354 N 
ATOM     49  N   UNL A   1      40.976  29.489  33.706  1.00  0.00    -0.248 NA
ATOM     50  C   UNL A   1      42.353  29.381  35.588  1.00  0.00     0.031 C 
ATOM     51  C   UNL A   1      37.473  32.099  33.254  1.00  0.00     0.029 A 
ATOM     52  C   UNL A   1      38.649  31.386  33.407  1.00  0.00     0.049 A 
ATOM     53  H   UNL A   1      39.647  30.144  32.021  1.00  0.00     0.167 HD
ATOM     54  C   UNL A   1      40.545  30.419  34.644  1.00  0.00     0.074 A 
ATOM     55  C   UNL A   1      41.413  30.294  35.795  1.00  0.00     0.031 C 
ATOM     56  C   UNL A   1      39.520  31.300  34.547  1.00  0.00     0.037 A 
BRANCH  43  57
ATOM     57  C   UNL A   1      36.798  31.208  29.044  1.00  0.00     0.057 A 
ATOM     58  C   UNL A   1      35.755  30.345  28.688  1.00  0.00     0.134 A 
ATOM     59  C   UNL A   1      36.700  32.546  28.648  1.00  0.00     0.134 A 
ATOM     60  F   UNL A   1      35.771  29.062  29.074  1.00  0.00    -0.206 F 
ATOM     61  C   UNL A   1      34.663  30.791  27.942  1.00  0.00     0.040 A 
ATOM     62  C   UNL A   1      35.606  33.008  27.916  1.00  0.00     0.040 A 
ATOM     63  F   UNL A   1      37.660  33.423  28.978  1.00  0.00    -0.206 F 
ATOM     64  C   UNL A   1      34.584  32.128  27.558  1.00  0.00     0.006 A 
ENDBRANCH  43  57
BRANCH  44  65
ATOM     65  C   UNL A   1      43.872  27.122  34.545  1.00  0.00     0.057 A 
ATOM     66  C   UNL A   1      45.179  27.601  34.678  1.00  0.00     0.134 A 
ATOM     67  C   UNL A   1      43.544  25.944  35.230  1.00  0.00     0.134 A 
ATOM     68  F   UNL A   1      45.569  28.699  34.015  1.00  0.00    -0.206 F 
ATOM     69  C   UNL A   1      46.122  26.936  35.466  1.00  0.00     0.040 A 
ATOM     70  C   UNL A   1      44.464  25.289  36.047  1.00  0.00     0.040 A 
ATOM     71  F   UNL A   1      42.315  25.418  35.124  1.00  0.00    -0.206 F 
ATOM     72  C   UNL A   1      45.760  25.783  36.161  1.00  0.00     0.006 A 
ENDBRANCH  44  65
BRANCH  56  73
ATOM     73  C   UNL A   1      39.287  32.228  35.701  1.00  0.00     0.057 A 
ATOM     74  C   UNL A   1      39.856  33.507  35.730  1.00  0.00     0.134 A 
ATOM     75  C   UNL A   1      38.464  31.863  36.773  1.00  0.00     0.134 A 
ATOM     76  F   UNL A   1      40.665  33.914  34.740  1.00  0.00    -0.206 F 
ATOM     77  C   UNL A   1      39.629  34.385  36.792  1.00  0.00     0.040 A 
ATOM     78  C   UNL A   1      38.210  32.740  37.829  1.00  0.00     0.040 A 
ATOM     79  F   UNL A   1      37.882  30.655  36.805  1.00  0.00    -0.206 F 
ATOM     80  C   UNL A   1      38.797  34.003  37.843  1.00  0.00     0.006 A 
ENDBRANCH  56  73
ENDBRANCH  30  31
ENDBRANCH  23  25
ENDBRANCH  22  23
ENDBRANCH  21  22
ENDBRANCH   1  21
TORSDOF 15
ENDMDL
MODEL 2
REMARK VINA RESULT:     -11.5      5.202     10.438
REMARK SMILES C[C@@H](C(=O)OCCOC(=O)c1ccc(-c2c3nc(c(-c4c(F)cccc4F)c4ccc([nH]4)c(-c4c(F)cccc4F)c4nc(c(-c5c(F)cccc5F)c5ccc2[nH]5)C=C4)C=C3)cc1)c1ccc(C[C@H]2CCC[C@H]2O)cc1
REMARK SMILES IDX 6 1 5 2 3 3 4 4 2 5 1 6 65 7 66 8 77 9 67 10 76 11 68 12
REMARK SMILES IDX 69 13 70 14 71 15 74 16 72 17 73 18 75 19 7 21 8 22 9 23
REMARK SMILES IDX 10 24 11 25 12 26 64 27 13 28 63 29 14 30 15 31 16 32 57 33
REMARK SMILES IDX 17 34 62 35 56 36 58 37 18 38 61 39 55 40 54 41 19 43 45 44
REMARK SMILES IDX 28 45 44 46 29 47 32 48 43 49 59 50 30 51 31 52 42 54 60 55
REMARK SMILES IDX 33 56 20 57 21 58 26 59 22 60 23 61 25 62 27 63 24 64 46 65
REMARK SMILES IDX 47 66 52 67 48 68 49 69 51 70 53 71 50 72 34 73 35 74 40 75
REMARK SMILES IDX 36 76 37 77 39 78 41 79 38 80
REMARK H PARENT 75 20 58 42 32 53
REMARK Flexibility Score: inf
ROOT
ATOM      1  C   UNL A   1      34.470  34.529  31.278  1.00  0.00     0.274 C 
ENDROOT
BRANCH   1   2
ATOM      2  O   UNL A   1      33.682  33.757  30.349  1.00  0.00    -0.462 OA
BRANCH   2   3
ATOM      3  C   UNL A   1      34.067  33.744  29.039  1.00  0.00     0.313 C 
ATOM      4  O   UNL A   1      33.565  34.475  28.194  1.00  0.00    -0.252 OA
BRANCH   3   5
ATOM      5  C   UNL A   1      35.115  32.639  28.750  1.00  0.00     0.126 C 
ATOM      6  C   UNL A   1      36.324  33.242  27.997  1.00  0.00     0.025 C 
BRANCH   5   7
ATOM      7  C   UNL A   1      34.569  31.380  28.047  1.00  0.00    -0.034 A 
ATOM      8  C   UNL A   1      35.361  30.224  27.917  1.00  0.00     0.005 A 
ATOM      9  C   UNL A   1      33.260  31.287  27.553  1.00  0.00     0.005 A 
ATOM     10  C   UNL A   1      34.938  29.120  27.171  1.00  0.00     0.004 A 
ATOM     11  C   UNL A   1      32.850  30.201  26.764  1.00  0.00     0.004 A 
ATOM     12  C   UNL A   1      33.727  29.147  26.492  1.00  0.00    -0.048 A 
BRANCH  12  13
ATOM     13  C   UNL A   1      33.424  28.133  25.413  1.00  0.00     0.041 C 
BRANCH  13  14
ATOM     14  C   UNL A   1      33.544  26.646  25.832  1.00  0.00     0.022 C 
ATOM     15  C   UNL A   1      32.269  26.001  26.394  1.00  0.00     0.007 C 
ATOM     16  C   UNL A   1      34.065  25.621  24.812  1.00  0.00     0.117 C 
ATOM     17  C   UNL A   1      32.226  24.558  25.909  1.00  0.00     0.003 C 
ATOM     18  C   UNL A   1      33.634  24.284  25.415  1.00  0.00     0.032 C 
BRANCH  16  19
ATOM     19  O   UNL A   1      33.495  25.753  23.521  1.00  0.00    -0.393 OA
ATOM     20  H   UNL A   1      32.770  26.397  23.553  1.00  0.00     0.210 HD
ENDBRANCH  16  19
ENDBRANCH  13  14
ENDBRANCH  12  13
ENDBRANCH   5   7
ENDBRANCH   3   5
ENDBRANCH   2   3
ENDBRANCH   1   2
BRANCH   1  21
ATOM     21  C   UNL A   1      34.642  33.761  32.584  1.00  0.00     0.275 C 
BRANCH  21  22
ATOM     22  O   UNL A   1      35.244  32.485  32.306  1.00  0.00    -0.458 OA
BRANCH  22  23
ATOM     23  C   UNL A   1      36.243  32.102  33.130  1.00  0.00     0.338 C 
ATOM     24  O   UNL A   1      36.367  32.336  34.319  1.00  0.00    -0.246 OA
BRANCH  23  25
ATOM     25  C   UNL A   1      37.201  31.287  32.366  1.00  0.00     0.060 A 
ATOM     26  C   UNL A   1      38.272  30.721  33.042  1.00  0.00     0.016 A 
ATOM     27  C   UNL A   1      37.120  31.186  30.976  1.00  0.00     0.016 A 
ATOM     28  C   UNL A   1      39.309  30.143  32.314  1.00  0.00     0.010 A 
ATOM     29  C   UNL A   1      38.142  30.539  30.257  1.00  0.00     0.010 A 
ATOM     30  C   UNL A   1      39.295  30.071  30.905  1.00  0.00    -0.014 A 
BRANCH  30  31
ATOM     31  C   UNL A   1      40.545  29.634  30.180  1.00  0.00     0.031 A 
ATOM     32  C   UNL A   1      40.682  28.226  29.611  1.00  0.00     0.074 A 
ATOM     33  C   UNL A   1      41.468  30.548  29.804  1.00  0.00     0.049 A 
ATOM     34  N   UNL A   1      41.554  27.771  28.737  1.00  0.00    -0.248 NA
ATOM     35  C   UNL A   1      39.688  27.221  30.012  1.00  0.00     0.031 C 
ATOM     36  C   UNL A   1      41.453  31.966  30.167  1.00  0.00     0.029 A 
ATOM     37  N   UNL A   1      42.566  30.434  28.980  1.00  0.00    -0.354 N 
ATOM     38  C   UNL A   1      41.161  26.470  28.434  1.00  0.00     0.074 A 
ATOM     39  C   UNL A   1      40.013  26.180  29.258  1.00  0.00     0.031 C 
ATOM     40  C   UNL A   1      42.432  32.601  29.507  1.00  0.00     0.029 A 
ATOM     41  C   UNL A   1      43.219  31.624  28.759  1.00  0.00     0.049 A 
ATOM     42  H   UNL A   1      42.856  29.580  28.585  1.00  0.00     0.167 HD
ATOM     43  C   UNL A   1      41.681  25.596  27.537  1.00  0.00     0.037 A 
ATOM     44  C   UNL A   1      44.346  31.910  28.074  1.00  0.00     0.037 A 
ATOM     45  C   UNL A   1      42.883  25.800  26.777  1.00  0.00     0.049 A 
ATOM     46  C   UNL A   1      45.097  30.810  27.382  1.00  0.00     0.074 A 
ATOM     47  C   UNL A   1      43.511  24.925  25.906  1.00  0.00     0.029 A 
ATOM     48  N   UNL A   1      43.666  26.937  26.835  1.00  0.00    -0.354 N 
ATOM     49  N   UNL A   1      44.710  29.591  27.108  1.00  0.00    -0.248 NA
ATOM     50  C   UNL A   1      46.468  31.117  26.942  1.00  0.00     0.031 C 
ATOM     51  C   UNL A   1      44.718  25.504  25.498  1.00  0.00     0.029 A 
ATOM     52  C   UNL A   1      44.816  26.755  26.082  1.00  0.00     0.049 A 
ATOM     53  H   UNL A   1      43.441  27.754  27.335  1.00  0.00     0.167 HD
ATOM     54  C   UNL A   1      45.782  28.987  26.464  1.00  0.00     0.074 A 
ATOM     55  C   UNL A   1      46.831  29.978  26.368  1.00  0.00     0.031 C 
ATOM     56  C   UNL A   1      45.881  27.717  26.004  1.00  0.00     0.037 A 
BRANCH  43  57
ATOM     57  C   UNL A   1      40.962  24.295  27.342  1.00  0.00     0.057 A 
ATOM     58  C   UNL A   1      39.844  24.208  26.504  1.00  0.00     0.134 A 
ATOM     59  C   UNL A   1      41.430  23.114  27.928  1.00  0.00     0.134 A 
ATOM     60  F   UNL A   1      39.373  25.297  25.881  1.00  0.00    -0.206 F 
ATOM     61  C   UNL A   1      39.198  22.992  26.275  1.00  0.00     0.040 A 
ATOM     62  C   UNL A   1      40.803  21.890  27.693  1.00  0.00     0.040 A 
ATOM     63  F   UNL A   1      42.509  23.133  28.723  1.00  0.00    -0.206 F 
ATOM     64  C   UNL A   1      39.680  21.827  26.868  1.00  0.00     0.006 A 
ENDBRANCH  43  57
BRANCH  44  65
ATOM     65  C   UNL A   1      44.902  33.289  28.096  1.00  0.00     0.057 A 
ATOM     66  C   UNL A   1      44.707  34.178  27.034  1.00  0.00     0.134 A 
ATOM     67  C   UNL A   1      45.682  33.733  29.173  1.00  0.00     0.134 A 
ATOM     68  F   UNL A   1      44.006  33.801  25.955  1.00  0.00    -0.206 F 
ATOM     69  C   UNL A   1      45.262  35.460  27.046  1.00  0.00     0.040 A 
ATOM     70  C   UNL A   1      46.214  35.020  29.214  1.00  0.00     0.040 A 
ATOM     71  F   UNL A   1      45.929  32.920  30.211  1.00  0.00    -0.206 F 
ATOM     72  C   UNL A   1      46.009  35.887  28.143  1.00  0.00     0.006 A 
ENDBRANCH  44  65
BRANCH  56  73
ATOM     73  C   UNL A   1      47.178  27.302  25.374  1.00  0.00     0.057 A 
ATOM     74  C   UNL A   1      48.156  26.621  26.109  1.00  0.00     0.134 A 
ATOM     75  C   UNL A   1      47.441  27.550  24.022  1.00  0.00     0.134 A 
ATOM     76  F   UNL A   1      47.971  26.364  27.413  1.00  0.00    -0.206 F 
ATOM     77  C   UNL A   1      49.358  26.215  25.525  1.00  0.00     0.040 A 
ATOM     78  C   UNL A   1      48.628  27.129  23.421  1.00  0.00     0.040 A 
ATOM     79  F   UNL A   1      46.543  28.193  23.259  1.00  0.00    -0.206 F 
ATOM     80  C   UNL A   1      49.593  26.463  24.175  1.00  0.00     0.006 A 
ENDBRANCH  56  73
ENDBRANCH  30  31
ENDBRANCH  23  25
ENDBRANCH  22  23
ENDBRANCH  21  22
ENDBRANCH   1  21
TORSDOF 15
ENDMDL
MODEL 3
REMARK VINA RESULT:     -11.4      2.047      2.855
REMARK SMILES C[C@@H](C(=O)OCCOC(=O)c1ccc(-c2c3nc(c(-c4c(F)cccc4F)c4ccc([nH]4)c(-c4c(F)cccc4F)c4nc(c(-c5c(F)cccc5F)c5ccc2[nH]5)C=C4)C=C3)cc1)c1ccc(C[C@H]2CCC[C@H]2O)cc1
REMARK SMILES IDX 6 1 5 2 3 3 4 4 2 5 1 6 65 7 66 8 77 9 67 10 76 11 68 12
REMARK SMILES IDX 69 13 70 14 71 15 74 16 72 17 73 18 75 19 7 21 8 22 9 23
REMARK SMILES IDX 10 24 11 25 12 26 64 27 13 28 63 29 14 30 15 31 16 32 57 33
REMARK SMILES IDX 17 34 62 35 56 36 58 37 18 38 61 39 55 40 54 41 19 43 45 44
REMARK SMILES IDX 28 45 44 46 29 47 32 48 43 49 59 50 30 51 31 52 42 54 60 55
REMARK SMILES IDX 33 56 20 57 21 58 26 59 22 60 23 61 25 62 27 63 24 64 46 65
REMARK SMILES IDX 47 66 52 67 48 68 49 69 51 70 53 71 50 72 34 73 35 74 40 75
REMARK SMILES IDX 36 76 37 77 39 78 41 79 38 80
REMARK H PARENT 75 20 58 42 32 53
REMARK Flexibility Score: inf
ROOT
ATOM      1  C   UNL A   1      43.976  21.026  25.615  1.00  0.00     0.274 C 
ENDROOT
BRANCH   1   2
ATOM      2  O   UNL A   1      42.605  20.685  25.325  1.00  0.00    -0.462 OA
BRANCH   2   3
ATOM      3  C   UNL A   1      41.740  20.566  26.375  1.00  0.00     0.313 C 
ATOM      4  O   UNL A   1      41.323  19.483  26.770  1.00  0.00    -0.252 OA
BRANCH   3   5
ATOM      5  C   UNL A   1      41.281  21.945  26.913  1.00  0.00     0.126 C 
ATOM      6  C   UNL A   1      41.440  21.990  28.450  1.00  0.00     0.025 C 
BRANCH   5   7
ATOM      7  C   UNL A   1      39.875  22.395  26.466  1.00  0.00    -0.034 A 
ATOM      8  C   UNL A   1      39.423  23.704  26.711  1.00  0.00     0.005 A 
ATOM      9  C   UNL A   1      38.998  21.564  25.754  1.00  0.00     0.005 A 
ATOM     10  C   UNL A   1      38.110  24.096  26.434  1.00  0.00     0.004 A 
ATOM     11  C   UNL A   1      37.666  21.937  25.518  1.00  0.00     0.004 A 
ATOM     12  C   UNL A   1      37.188  23.179  25.944  1.00  0.00    -0.048 A 
BRANCH  12  13
ATOM     13  C   UNL A   1      35.707  23.481  25.978  1.00  0.00     0.041 C 
BRANCH  13  14
ATOM     14  C   UNL A   1      35.187  24.438  24.876  1.00  0.00     0.022 C 
ATOM     15  C   UNL A   1      34.621  23.768  23.616  1.00  0.00     0.007 C 
ATOM     16  C   UNL A   1      34.136  25.499  25.242  1.00  0.00     0.117 C 
ATOM     17  C   UNL A   1      33.438  24.599  23.140  1.00  0.00     0.003 C 
ATOM     18  C   UNL A   1      33.579  25.915  23.881  1.00  0.00     0.032 C 
BRANCH  16  19
ATOM     19  O   UNL A   1      33.078  25.007  26.045  1.00  0.00    -0.393 OA
ATOM     20  H   UNL A   1      33.271  25.185  26.979  1.00  0.00     0.210 HD
ENDBRANCH  16  19
ENDBRANCH  13  14
ENDBRANCH  12  13
ENDBRANCH   5   7
ENDBRANCH   3   5
ENDBRANCH   2   3
ENDBRANCH   1   2
BRANCH   1  21
ATOM     21  C   UNL A   1      44.343  22.344  24.941  1.00  0.00     0.275 C 
BRANCH  21  22
ATOM     22  O   UNL A   1      44.620  23.330  25.952  1.00  0.00    -0.458 OA
BRANCH  22  23
ATOM     23  C   UNL A   1      44.785  24.598  25.521  1.00  0.00     0.338 C 
ATOM     24  O   UNL A   1      45.455  24.991  24.583  1.00  0.00    -0.246 OA
BRANCH  23  25
ATOM     25  C   UNL A   1      43.972  25.493  26.359  1.00  0.00     0.060 A 
ATOM     26  C   UNL A   1      44.379  26.811  26.504  1.00  0.00     0.016 A 
ATOM     27  C   UNL A   1      42.892  25.010  27.100  1.00  0.00     0.016 A 
ATOM     28  C   UNL A   1      43.766  27.612  27.466  1.00  0.00     0.010 A 
ATOM     29  C   UNL A   1      42.237  25.849  28.020  1.00  0.00     0.010 A 
ATOM     30  C   UNL A   1      42.710  27.145  28.276  1.00  0.00    -0.014 A 
BRANCH  30  31
ATOM     31  C   UNL A   1      42.247  27.992  29.438  1.00  0.00     0.031 A 
ATOM     32  C   UNL A   1      41.033  28.906  29.321  1.00  0.00     0.074 A 
ATOM     33  C   UNL A   1      42.745  27.776  30.676  1.00  0.00     0.049 A 
ATOM     34  N   UNL A   1      40.342  29.486  30.279  1.00  0.00    -0.248 NA
ATOM     35  C   UNL A   1      40.482  29.153  27.981  1.00  0.00     0.031 C 
ATOM     36  C   UNL A   1      43.840  26.862  31.002  1.00  0.00     0.029 A 
ATOM     37  N   UNL A   1      42.352  28.264  31.904  1.00  0.00    -0.354 N 
ATOM     38  C   UNL A   1      39.246  30.085  29.663  1.00  0.00     0.074 A 
ATOM     39  C   UNL A   1      39.390  29.858  28.245  1.00  0.00     0.031 C 
ATOM     40  C   UNL A   1      43.975  26.790  32.334  1.00  0.00     0.029 A 
ATOM     41  C   UNL A   1      43.054  27.734  32.961  1.00  0.00     0.049 A 
ATOM     42  H   UNL A   1      41.635  28.929  32.014  1.00  0.00     0.167 HD
ATOM     43  C   UNL A   1      38.197  30.743  30.214  1.00  0.00     0.037 A 
ATOM     44  C   UNL A   1      43.008  27.996  34.284  1.00  0.00     0.037 A 
ATOM     45  C   UNL A   1      38.066  31.086  31.603  1.00  0.00     0.049 A 
ATOM     46  C   UNL A   1      42.048  29.026  34.807  1.00  0.00     0.074 A 
ATOM     47  C   UNL A   1      37.066  31.820  32.219  1.00  0.00     0.029 A 
ATOM     48  N   UNL A   1      38.987  30.764  32.582  1.00  0.00    -0.354 N 
ATOM     49  N   UNL A   1      41.024  29.578  34.210  1.00  0.00    -0.248 NA
ATOM     50  C   UNL A   1      42.269  29.501  36.182  1.00  0.00     0.031 C 
ATOM     51  C   UNL A   1      37.423  32.009  33.560  1.00  0.00     0.029 A 
ATOM     52  C   UNL A   1      38.624  31.356  33.782  1.00  0.00     0.049 A 
ATOM     53  H   UNL A   1      39.781  30.199  32.447  1.00  0.00     0.167 HD
ATOM     54  C   UNL A   1      40.478  30.462  35.132  1.00  0.00     0.074 A 
ATOM     55  C   UNL A   1      41.270  30.358  36.338  1.00  0.00     0.031 C 
ATOM     56  C   UNL A   1      39.416  31.290  34.979  1.00  0.00     0.037 A 
BRANCH  43  57
ATOM     57  C   UNL A   1      37.093  31.177  29.297  1.00  0.00     0.057 A 
ATOM     58  C   UNL A   1      36.030  30.319  28.990  1.00  0.00     0.134 A 
ATOM     59  C   UNL A   1      37.051  32.477  28.780  1.00  0.00     0.134 A 
ATOM     60  F   UNL A   1      35.994  29.076  29.488  1.00  0.00    -0.206 F 
ATOM     61  C   UNL A   1      34.973  30.731  28.178  1.00  0.00     0.040 A 
ATOM     62  C   UNL A   1      35.990  32.906  27.981  1.00  0.00     0.040 A 
ATOM     63  F   UNL A   1      38.031  33.349  29.057  1.00  0.00    -0.206 F 
ATOM     64  C   UNL A   1      34.949  32.030  27.674  1.00  0.00     0.006 A 
ENDBRANCH  43  57
BRANCH  44  65
ATOM     65  C   UNL A   1      43.978  27.349  35.207  1.00  0.00     0.057 A 
ATOM     66  C   UNL A   1      43.663  26.177  35.903  1.00  0.00     0.134 A 
ATOM     67  C   UNL A   1      45.236  27.921  35.443  1.00  0.00     0.134 A 
ATOM     68  F   UNL A   1      42.461  25.604  35.754  1.00  0.00    -0.206 F 
ATOM     69  C   UNL A   1      44.567  25.595  36.795  1.00  0.00     0.040 A 
ATOM     70  C   UNL A   1      46.160  27.333  36.305  1.00  0.00     0.040 A 
ATOM     71  F   UNL A   1      45.590  29.059  34.827  1.00  0.00    -0.206 F 
ATOM     72  C   UNL A   1      45.823  26.168  36.989  1.00  0.00     0.006 A 
ENDBRANCH  44  65
BRANCH  56  73
ATOM     73  C   UNL A   1      39.053  32.179  36.130  1.00  0.00     0.057 A 
ATOM     74  C   UNL A   1      39.574  33.474  36.240  1.00  0.00     0.134 A 
ATOM     75  C   UNL A   1      38.154  31.758  37.118  1.00  0.00     0.134 A 
ATOM     76  F   UNL A   1      40.450  33.933  35.334  1.00  0.00    -0.206 F 
ATOM     77  C   UNL A   1      39.226  34.315  37.299  1.00  0.00     0.040 A 
ATOM     78  C   UNL A   1      37.781  32.597  38.169  1.00  0.00     0.040 A 
ATOM     79  F   UNL A   1      37.613  30.531  37.070  1.00  0.00    -0.206 F 
ATOM     80  C   UNL A   1      38.321  33.878  38.264  1.00  0.00     0.006 A 
ENDBRANCH  56  73
ENDBRANCH  30  31
ENDBRANCH  23  25
ENDBRANCH  22  23
ENDBRANCH  21  22
ENDBRANCH   1  21
TORSDOF 15
ENDMDL
