MODEL 1
REMARK VINA RESULT:     -12.4      0.000      0.000
REMARK SMILES CC(C)C(=O)Nc1ccc(NC(=O)[C@@H]2[C@@H](C(=O)OCCOC(=O)c3ccc(-c4c5nc(c(-c6c(F)cccc6F)c6ccc([nH]6)c(-c6c(F)cccc6F)c6nc(c(-c7c(F)cccc7F)c7ccc4[nH]7)C=C6)C=C5)cc3)C2(C)C)cc1Cl
REMARK SMILES IDX 19 1 18 2 16 3 17 4 15 5 14 6 78 7 79 8 80 9 12 10 11 11
REMARK SMILES IDX 13 13 10 14 7 15 8 16 82 17 9 18 81 19 83 20 6 21 4 22 5 23
REMARK SMILES IDX 2 25 1 26 3 27 20 28 21 29 22 30 23 31 24 32 25 33 77 34
REMARK SMILES IDX 26 35 76 36 27 37 28 38 29 39 70 40 30 41 75 42 69 43 71 44
REMARK SMILES IDX 31 45 74 46 68 47 67 48 32 50 58 51 41 52 57 53 42 54 45 55
REMARK SMILES IDX 56 56 72 57 43 58 44 59 55 61 73 62 46 63 33 64 34 65 39 66
REMARK SMILES IDX 35 67 36 68 38 69 40 70 37 71 59 72 60 73 65 74 61 75 62 76
REMARK SMILES IDX 64 77 66 78 63 79 47 80 48 81 53 82 49 83 50 84 52 85 54 86
REMARK SMILES IDX 51 87
REMARK H PARENT 11 12 6 24 71 49 45 60
REMARK Flexibility Score: inf
ROOT
ATOM      1  C   UNL A   1      35.442  20.585  25.527  1.00  0.00     0.274 C 
ENDROOT
BRANCH   1   2
ATOM      2  O   UNL A   1      34.380  20.253  24.613  1.00  0.00    -0.462 OA
BRANCH   2   3
ATOM      3  C   UNL A   1      33.179  20.818  24.879  1.00  0.00     0.310 C 
ATOM      4  O   UNL A   1      32.100  20.245  24.811  1.00  0.00    -0.252 OA
BRANCH   3   5
ATOM      5  C   UNL A   1      33.244  22.198  25.416  1.00  0.00     0.118 C 
ATOM      6  C   UNL A   1      32.085  23.165  25.390  1.00  0.00     0.100 C 
ATOM      7  C   UNL A   1      33.391  23.506  24.646  1.00  0.00    -0.009 C 
ATOM      8  C   UNL A   1      33.265  23.606  23.135  1.00  0.00     0.013 C 
ATOM      9  C   UNL A   1      34.408  24.474  25.220  1.00  0.00     0.013 C 
BRANCH   6  10
ATOM     10  C   UNL A   1      31.663  23.691  26.718  1.00  0.00     0.228 C 
ATOM     11  N   UNL A   1      31.048  24.906  26.889  1.00  0.00    -0.326 N 
ATOM     12  H   UNL A   1      30.809  25.097  27.825  1.00  0.00     0.169 HD
ATOM     13  O   UNL A   1      31.882  23.004  27.715  1.00  0.00    -0.274 OA
BRANCH  11  14
ATOM     14  C   UNL A   1      30.689  25.928  26.001  1.00  0.00     0.042 A 
ATOM     15  C   UNL A   1      30.478  27.841  23.956  1.00  0.00     0.060 A 
ATOM     16  C   UNL A   1      29.613  26.747  23.995  1.00  0.00     0.030 A 
ATOM     17  C   UNL A   1      31.240  28.108  25.095  1.00  0.00     0.066 A 
ATOM     18  C   UNL A   1      29.698  25.817  25.035  1.00  0.00     0.028 A 
ATOM     19  C   UNL A   1      31.392  27.131  26.085  1.00  0.00     0.048 A 
ATOM     20  Cl  UNL A   1      31.760  29.711  25.485  1.00  0.00    -0.082 Cl
BRANCH  15  21
ATOM     21  N   UNL A   1      30.435  28.631  22.801  1.00  0.00    -0.325 N 
ATOM     22  C   UNL A   1      29.525  29.538  22.343  1.00  0.00     0.226 C 
ATOM     23  O   UNL A   1      29.762  30.023  21.227  1.00  0.00    -0.274 OA
ATOM     24  H   UNL A   1      31.209  28.509  22.205  1.00  0.00     0.169 HD
BRANCH  22  25
ATOM     25  C   UNL A   1      28.338  30.094  23.146  1.00  0.00     0.072 C 
ATOM     26  C   UNL A   1      27.987  31.549  22.895  1.00  0.00     0.018 C 
ATOM     27  C   UNL A   1      27.104  29.199  23.154  1.00  0.00     0.018 C 
ENDBRANCH  22  25
ENDBRANCH  15  21
ENDBRANCH  11  14
ENDBRANCH   6  10
ENDBRANCH   3   5
ENDBRANCH   2   3
ENDBRANCH   1   2
BRANCH   1  28
ATOM     28  C   UNL A   1      36.802  20.403  24.845  1.00  0.00     0.275 C 
BRANCH  28  29
ATOM     29  O   UNL A   1      37.702  21.479  25.182  1.00  0.00    -0.458 OA
BRANCH  29  30
ATOM     30  C   UNL A   1      38.790  21.129  25.907  1.00  0.00     0.338 C 
ATOM     31  O   UNL A   1      39.270  20.017  26.046  1.00  0.00    -0.246 OA
BRANCH  30  32
ATOM     32  C   UNL A   1      39.417  22.330  26.475  1.00  0.00     0.060 A 
ATOM     33  C   UNL A   1      38.926  23.574  26.083  1.00  0.00     0.016 A 
ATOM     34  C   UNL A   1      40.555  22.244  27.274  1.00  0.00     0.016 A 
ATOM     35  C   UNL A   1      39.577  24.742  26.461  1.00  0.00     0.010 A 
ATOM     36  C   UNL A   1      41.196  23.421  27.683  1.00  0.00     0.010 A 
ATOM     37  C   UNL A   1      40.720  24.678  27.266  1.00  0.00    -0.014 A 
BRANCH  37  38
ATOM     38  C   UNL A   1      41.428  25.931  27.628  1.00  0.00     0.031 A 
ATOM     39  C   UNL A   1      40.742  26.971  28.465  1.00  0.00     0.074 A 
ATOM     40  C   UNL A   1      42.704  26.117  27.237  1.00  0.00     0.049 A 
ATOM     41  N   UNL A   1      41.158  28.162  28.814  1.00  0.00    -0.248 NA
ATOM     42  C   UNL A   1      39.408  26.626  28.981  1.00  0.00     0.031 C 
ATOM     43  C   UNL A   1      43.501  25.157  26.470  1.00  0.00     0.029 A 
ATOM     44  N   UNL A   1      43.556  27.173  27.437  1.00  0.00    -0.354 N 
ATOM     45  C   UNL A   1      40.131  28.720  29.563  1.00  0.00     0.074 A 
ATOM     46  C   UNL A   1      39.065  27.742  29.610  1.00  0.00     0.031 C 
ATOM     47  C   UNL A   1      44.727  25.664  26.274  1.00  0.00     0.029 A 
ATOM     48  C   UNL A   1      44.786  27.005  26.849  1.00  0.00     0.049 A 
ATOM     49  H   UNL A   1      43.309  27.975  27.952  1.00  0.00     0.167 HD
ATOM     50  C   UNL A   1      40.082  29.936  30.157  1.00  0.00     0.037 A 
ATOM     51  C   UNL A   1      45.831  27.849  26.755  1.00  0.00     0.037 A 
ATOM     52  C   UNL A   1      41.154  30.897  30.127  1.00  0.00     0.049 A 
ATOM     53  C   UNL A   1      45.729  29.215  27.371  1.00  0.00     0.074 A 
ATOM     54  C   UNL A   1      41.205  32.153  30.707  1.00  0.00     0.029 A 
ATOM     55  N   UNL A   1      42.369  30.705  29.486  1.00  0.00    -0.354 N 
ATOM     56  N   UNL A   1      44.744  29.741  28.057  1.00  0.00    -0.248 NA
ATOM     57  C   UNL A   1      46.882  30.109  27.192  1.00  0.00     0.031 C 
ATOM     58  C   UNL A   1      42.434  32.737  30.382  1.00  0.00     0.029 A 
ATOM     59  C   UNL A   1      43.167  31.828  29.638  1.00  0.00     0.049 A 
ATOM     60  H   UNL A   1      42.627  29.891  28.995  1.00  0.00     0.167 HD
ATOM     61  C   UNL A   1      45.161  31.019  28.403  1.00  0.00     0.074 A 
ATOM     62  C   UNL A   1      46.497  31.183  27.867  1.00  0.00     0.031 C 
ATOM     63  C   UNL A   1      44.496  31.973  29.099  1.00  0.00     0.037 A 
BRANCH  50  64
ATOM     64  C   UNL A   1      38.813  30.310  30.863  1.00  0.00     0.057 A 
ATOM     65  C   UNL A   1      38.604  30.026  32.218  1.00  0.00     0.134 A 
ATOM     66  C   UNL A   1      37.797  30.992  30.181  1.00  0.00     0.134 A 
ATOM     67  F   UNL A   1      39.530  29.363  32.925  1.00  0.00    -0.206 F 
ATOM     68  C   UNL A   1      37.419  30.387  32.864  1.00  0.00     0.040 A 
ATOM     69  C   UNL A   1      36.618  31.378  30.821  1.00  0.00     0.040 A 
ATOM     70  F   UNL A   1      37.935  31.299  28.882  1.00  0.00    -0.206 F 
ATOM     71  C   UNL A   1      36.425  31.071  32.166  1.00  0.00     0.006 A 
ENDBRANCH  50  64
BRANCH  51  72
ATOM     72  C   UNL A   1      47.053  27.435  26.019  1.00  0.00     0.057 A 
ATOM     73  C   UNL A   1      47.146  27.574  24.631  1.00  0.00     0.134 A 
ATOM     74  C   UNL A   1      48.154  26.887  26.689  1.00  0.00     0.134 A 
ATOM     75  F   UNL A   1      46.114  28.069  23.931  1.00  0.00    -0.206 F 
ATOM     76  C   UNL A   1      48.286  27.172  23.932  1.00  0.00     0.040 A 
ATOM     77  C   UNL A   1      49.310  26.505  26.006  1.00  0.00     0.040 A 
ATOM     78  F   UNL A   1      48.126  26.727  28.020  1.00  0.00    -0.206 F 
ATOM     79  C   UNL A   1      49.374  26.642  24.621  1.00  0.00     0.006 A 
ENDBRANCH  51  72
BRANCH  63  80
ATOM     80  C   UNL A   1      45.215  33.266  29.343  1.00  0.00     0.057 A 
ATOM     81  C   UNL A   1      45.083  34.358  28.477  1.00  0.00     0.134 A 
ATOM     82  C   UNL A   1      46.026  33.429  30.473  1.00  0.00     0.134 A 
ATOM     83  F   UNL A   1      44.332  34.259  27.369  1.00  0.00    -0.206 F 
ATOM     84  C   UNL A   1      45.748  35.561  28.715  1.00  0.00     0.040 A 
ATOM     85  C   UNL A   1      46.678  34.635  30.734  1.00  0.00     0.040 A 
ATOM     86  F   UNL A   1      46.190  32.423  31.345  1.00  0.00    -0.206 F 
ATOM     87  C   UNL A   1      46.542  35.704  29.851  1.00  0.00     0.006 A 
ENDBRANCH  63  80
ENDBRANCH  37  38
ENDBRANCH  30  32
ENDBRANCH  29  30
ENDBRANCH  28  29
ENDBRANCH   1  28
TORSDOF 15
ENDMDL
MODEL 2
REMARK VINA RESULT:     -12.3      2.975      7.105
REMARK SMILES CC(C)C(=O)Nc1ccc(NC(=O)[C@@H]2[C@@H](C(=O)OCCOC(=O)c3ccc(-c4c5nc(c(-c6c(F)cccc6F)c6ccc([nH]6)c(-c6c(F)cccc6F)c6nc(c(-c7c(F)cccc7F)c7ccc4[nH]7)C=C6)C=C5)cc3)C2(C)C)cc1Cl
REMARK SMILES IDX 19 1 18 2 16 3 17 4 15 5 14 6 78 7 79 8 80 9 12 10 11 11
REMARK SMILES IDX 13 13 10 14 7 15 8 16 82 17 9 18 81 19 83 20 6 21 4 22 5 23
REMARK SMILES IDX 2 25 1 26 3 27 20 28 21 29 22 30 23 31 24 32 25 33 77 34
REMARK SMILES IDX 26 35 76 36 27 37 28 38 29 39 70 40 30 41 75 42 69 43 71 44
REMARK SMILES IDX 31 45 74 46 68 47 67 48 32 50 58 51 41 52 57 53 42 54 45 55
REMARK SMILES IDX 56 56 72 57 43 58 44 59 55 61 73 62 46 63 33 64 34 65 39 66
REMARK SMILES IDX 35 67 36 68 38 69 40 70 37 71 59 72 60 73 65 74 61 75 62 76
REMARK SMILES IDX 64 77 66 78 63 79 47 80 48 81 53 82 49 83 50 84 52 85 54 86
REMARK SMILES IDX 51 87
REMARK H PARENT 11 12 6 24 71 49 45 60
REMARK Flexibility Score: inf
ROOT
ATOM      1  C   UNL A   1      32.810  29.409  25.563  1.00  0.00     0.274 C 
ENDROOT
BRANCH   1   2
ATOM      2  O   UNL A   1      31.623  28.602  25.669  1.00  0.00    -0.462 OA
BRANCH   2   3
ATOM      3  C   UNL A   1      31.143  28.108  24.503  1.00  0.00     0.310 C 
ATOM      4  O   UNL A   1      31.035  28.739  23.461  1.00  0.00    -0.252 OA
BRANCH   3   5
ATOM      5  C   UNL A   1      30.868  26.651  24.510  1.00  0.00     0.118 C 
ATOM      6  C   UNL A   1      31.393  25.702  25.561  1.00  0.00     0.100 C 
ATOM      7  C   UNL A   1      31.790  25.514  24.084  1.00  0.00    -0.009 C 
ATOM      8  C   UNL A   1      33.268  25.701  23.784  1.00  0.00     0.013 C 
ATOM      9  C   UNL A   1      31.138  24.458  23.210  1.00  0.00     0.013 C 
BRANCH   6  10
ATOM     10  C   UNL A   1      30.354  24.933  26.300  1.00  0.00     0.228 C 
ATOM     11  N   UNL A   1      30.548  23.656  26.766  1.00  0.00    -0.326 N 
ATOM     12  H   UNL A   1      29.775  23.295  27.257  1.00  0.00     0.169 HD
ATOM     13  O   UNL A   1      29.264  25.466  26.501  1.00  0.00    -0.274 OA
BRANCH  11  14
ATOM     14  C   UNL A   1      31.625  22.764  26.685  1.00  0.00     0.042 A 
ATOM     15  C   UNL A   1      33.948  21.311  26.070  1.00  0.00     0.060 A 
ATOM     16  C   UNL A   1      33.864  22.047  27.252  1.00  0.00     0.030 A 
ATOM     17  C   UNL A   1      32.767  21.085  25.360  1.00  0.00     0.066 A 
ATOM     18  C   UNL A   1      32.692  22.739  27.571  1.00  0.00     0.028 A 
ATOM     19  C   UNL A   1      31.627  21.851  25.629  1.00  0.00     0.048 A 
ATOM     20  Cl  UNL A   1      32.558  19.685  24.366  1.00  0.00    -0.082 Cl
BRANCH  15  21
ATOM     21  N   UNL A   1      35.205  20.785  25.749  1.00  0.00    -0.325 N 
ATOM     22  C   UNL A   1      36.267  21.299  25.065  1.00  0.00     0.226 C 
ATOM     23  O   UNL A   1      37.225  20.530  24.900  1.00  0.00    -0.274 OA
ATOM     24  H   UNL A   1      35.351  19.869  26.079  1.00  0.00     0.169 HD
BRANCH  22  25
ATOM     25  C   UNL A   1      36.419  22.763  24.622  1.00  0.00     0.072 C 
ATOM     26  C   UNL A   1      37.352  23.619  25.459  1.00  0.00     0.018 C 
ATOM     27  C   UNL A   1      36.653  22.952  23.128  1.00  0.00     0.018 C 
ENDBRANCH  22  25
ENDBRANCH  15  21
ENDBRANCH  11  14
ENDBRANCH   6  10
ENDBRANCH   3   5
ENDBRANCH   2   3
ENDBRANCH   1   2
BRANCH   1  28
ATOM     28  C   UNL A   1      34.000  28.681  26.197  1.00  0.00     0.275 C 
BRANCH  28  29
ATOM     29  O   UNL A   1      34.082  28.951  27.612  1.00  0.00    -0.458 OA
BRANCH  29  30
ATOM     30  C   UNL A   1      34.680  30.115  27.955  1.00  0.00     0.338 C 
ATOM     31  O   UNL A   1      34.166  31.214  28.075  1.00  0.00    -0.246 OA
BRANCH  30  32
ATOM     32  C   UNL A   1      36.096  29.874  28.268  1.00  0.00     0.060 A 
ATOM     33  C   UNL A   1      37.034  30.073  27.256  1.00  0.00     0.016 A 
ATOM     34  C   UNL A   1      36.486  29.333  29.491  1.00  0.00     0.016 A 
ATOM     35  C   UNL A   1      38.362  29.712  27.443  1.00  0.00     0.010 A 
ATOM     36  C   UNL A   1      37.830  28.997  29.694  1.00  0.00     0.010 A 
ATOM     37  C   UNL A   1      38.776  29.169  28.666  1.00  0.00    -0.014 A 
BRANCH  37  38
ATOM     38  C   UNL A   1      40.189  28.749  28.836  1.00  0.00     0.031 A 
ATOM     39  C   UNL A   1      41.192  29.698  29.428  1.00  0.00     0.074 A 
ATOM     40  C   UNL A   1      40.563  27.500  28.498  1.00  0.00     0.049 A 
ATOM     41  N   UNL A   1      42.483  29.550  29.579  1.00  0.00    -0.248 NA
ATOM     42  C   UNL A   1      40.672  30.985  29.915  1.00  0.00     0.031 C 
ATOM     43  C   UNL A   1      39.672  26.467  27.968  1.00  0.00     0.029 A 
ATOM     44  N   UNL A   1      41.789  26.887  28.554  1.00  0.00    -0.354 N 
ATOM     45  C   UNL A   1      42.936  30.732  30.151  1.00  0.00     0.074 A 
ATOM     46  C   UNL A   1      41.783  31.593  30.309  1.00  0.00     0.031 C 
ATOM     47  C   UNL A   1      40.379  25.345  27.758  1.00  0.00     0.029 A 
ATOM     48  C   UNL A   1      41.780  25.597  28.083  1.00  0.00     0.049 A 
ATOM     49  H   UNL A   1      42.598  27.330  28.899  1.00  0.00     0.167 HD
ATOM     50  C   UNL A   1      44.198  31.067  30.510  1.00  0.00     0.037 A 
ATOM     51  C   UNL A   1      42.791  24.727  27.901  1.00  0.00     0.037 A 
ATOM     52  C   UNL A   1      45.339  30.199  30.372  1.00  0.00     0.049 A 
ATOM     53  C   UNL A   1      44.190  25.145  28.253  1.00  0.00     0.074 A 
ATOM     54  C   UNL A   1      46.657  30.444  30.716  1.00  0.00     0.029 A 
ATOM     55  N   UNL A   1      45.295  28.914  29.852  1.00  0.00    -0.354 N 
ATOM     56  N   UNL A   1      44.611  26.273  28.770  1.00  0.00    -0.248 NA
ATOM     57  C   UNL A   1      45.258  24.171  27.985  1.00  0.00     0.031 C 
ATOM     58  C   UNL A   1      47.417  29.322  30.367  1.00  0.00     0.029 A 
ATOM     59  C   UNL A   1      46.566  28.362  29.846  1.00  0.00     0.049 A 
ATOM     60  H   UNL A   1      44.480  28.461  29.534  1.00  0.00     0.167 HD
ATOM     61  C   UNL A   1      45.986  26.141  28.903  1.00  0.00     0.074 A 
ATOM     62  C   UNL A   1      46.328  24.816  28.429  1.00  0.00     0.031 C 
ATOM     63  C   UNL A   1      46.887  27.039  29.373  1.00  0.00     0.037 A 
BRANCH  50  64
ATOM     64  C   UNL A   1      44.418  32.446  31.058  1.00  0.00     0.057 A 
ATOM     65  C   UNL A   1      44.370  32.718  32.430  1.00  0.00     0.134 A 
ATOM     66  C   UNL A   1      44.710  33.512  30.197  1.00  0.00     0.134 A 
ATOM     67  F   UNL A   1      44.082  31.745  33.307  1.00  0.00    -0.206 F 
ATOM     68  C   UNL A   1      44.584  34.007  32.926  1.00  0.00     0.040 A 
ATOM     69  C   UNL A   1      44.948  34.799  30.682  1.00  0.00     0.040 A 
ATOM     70  F   UNL A   1      44.775  33.320  28.871  1.00  0.00    -0.206 F 
ATOM     71  C   UNL A   1      44.880  35.050  32.051  1.00  0.00     0.006 A 
ENDBRANCH  50  64
BRANCH  51  72
ATOM     72  C   UNL A   1      42.519  23.384  27.329  1.00  0.00     0.057 A 
ATOM     73  C   UNL A   1      42.568  23.159  25.950  1.00  0.00     0.134 A 
ATOM     74  C   UNL A   1      42.198  22.296  28.150  1.00  0.00     0.134 A 
ATOM     75  F   UNL A   1      42.845  24.168  25.111  1.00  0.00    -0.206 F 
ATOM     76  C   UNL A   1      42.297  21.903  25.405  1.00  0.00     0.040 A 
ATOM     77  C   UNL A   1      41.950  21.028  27.621  1.00  0.00     0.040 A 
ATOM     78  F   UNL A   1      42.134  22.447  29.482  1.00  0.00    -0.206 F 
ATOM     79  C   UNL A   1      41.994  20.832  26.243  1.00  0.00     0.006 A 
ENDBRANCH  51  72
BRANCH  63  80
ATOM     80  C   UNL A   1      48.321  26.605  29.421  1.00  0.00     0.057 A 
ATOM     81  C   UNL A   1      49.201  26.848  28.360  1.00  0.00     0.134 A 
ATOM     82  C   UNL A   1      48.835  25.962  30.555  1.00  0.00     0.134 A 
ATOM     83  F   UNL A   1      48.767  27.446  27.241  1.00  0.00    -0.206 F 
ATOM     84  C   UNL A   1      50.538  26.449  28.417  1.00  0.00     0.040 A 
ATOM     85  C   UNL A   1      50.174  25.580  30.633  1.00  0.00     0.040 A 
ATOM     86  F   UNL A   1      48.044  25.705  31.609  1.00  0.00    -0.206 F 
ATOM     87  C   UNL A   1      51.029  25.819  29.559  1.00  0.00     0.006 A 
ENDBRANCH  63  80
ENDBRANCH  37  38
ENDBRANCH  30  32
ENDBRANCH  29  30
ENDBRANCH  28  29
ENDBRANCH   1  28
TORSDOF 15
ENDMDL
MODEL 3
REMARK VINA RESULT:     -12.2      1.955      2.708
REMARK SMILES CC(C)C(=O)Nc1ccc(NC(=O)[C@@H]2[C@@H](C(=O)OCCOC(=O)c3ccc(-c4c5nc(c(-c6c(F)cccc6F)c6ccc([nH]6)c(-c6c(F)cccc6F)c6nc(c(-c7c(F)cccc7F)c7ccc4[nH]7)C=C6)C=C5)cc3)C2(C)C)cc1Cl
REMARK SMILES IDX 19 1 18 2 16 3 17 4 15 5 14 6 78 7 79 8 80 9 12 10 11 11
REMARK SMILES IDX 13 13 10 14 7 15 8 16 82 17 9 18 81 19 83 20 6 21 4 22 5 23
REMARK SMILES IDX 2 25 1 26 3 27 20 28 21 29 22 30 23 31 24 32 25 33 77 34
REMARK SMILES IDX 26 35 76 36 27 37 28 38 29 39 70 40 30 41 75 42 69 43 71 44
REMARK SMILES IDX 31 45 74 46 68 47 67 48 32 50 58 51 41 52 57 53 42 54 45 55
REMARK SMILES IDX 56 56 72 57 43 58 44 59 55 61 73 62 46 63 33 64 34 65 39 66
REMARK SMILES IDX 35 67 36 68 38 69 40 70 37 71 59 72 60 73 65 74 61 75 62 76
REMARK SMILES IDX 64 77 66 78 63 79 47 80 48 81 53 82 49 83 50 84 52 85 54 86
REMARK SMILES IDX 51 87
REMARK H PARENT 11 12 6 24 71 49 45 60
REMARK Flexibility Score: inf
ROOT
ATOM      1  C   UNL A   1      37.272  20.698  24.999  1.00  0.00     0.274 C 
ENDROOT
BRANCH   1   2
ATOM      2  O   UNL A   1      36.411  21.524  25.805  1.00  0.00    -0.462 OA
BRANCH   2   3
ATOM      3  C   UNL A   1      35.162  21.718  25.321  1.00  0.00     0.310 C 
ATOM      4  O   UNL A   1      34.521  20.899  24.676  1.00  0.00    -0.252 OA
BRANCH   3   5
ATOM      5  C   UNL A   1      34.518  22.983  25.746  1.00  0.00     0.118 C 
ATOM      6  C   UNL A   1      33.051  23.287  25.548  1.00  0.00     0.100 C 
ATOM      7  C   UNL A   1      34.121  24.177  24.886  1.00  0.00    -0.009 C 
ATOM      8  C   UNL A   1      34.128  24.153  23.366  1.00  0.00     0.013 C 
ATOM      9  C   UNL A   1      34.500  25.530  25.458  1.00  0.00     0.013 C 
BRANCH   6  10
ATOM     10  C   UNL A   1      32.291  23.598  26.791  1.00  0.00     0.228 C 
ATOM     11  N   UNL A   1      31.391  24.629  26.888  1.00  0.00    -0.326 N 
ATOM     12  H   UNL A   1      30.953  24.687  27.768  1.00  0.00     0.169 HD
ATOM     13  O   UNL A   1      32.483  22.898  27.784  1.00  0.00    -0.274 OA
BRANCH  11  14
ATOM     14  C   UNL A   1      30.969  25.616  25.988  1.00  0.00     0.042 A 
ATOM     15  C   UNL A   1      30.673  27.555  23.978  1.00  0.00     0.060 A 
ATOM     16  C   UNL A   1      30.005  26.333  23.889  1.00  0.00     0.030 A 
ATOM     17  C   UNL A   1      31.245  27.894  25.205  1.00  0.00     0.066 A 
ATOM     18  C   UNL A   1      30.126  25.386  24.909  1.00  0.00     0.028 A 
ATOM     19  C   UNL A   1      31.446  26.913  26.183  1.00  0.00     0.048 A 
ATOM     20  Cl  UNL A   1      31.441  29.542  25.691  1.00  0.00    -0.082 Cl
BRANCH  15  21
ATOM     21  N   UNL A   1      30.628  28.376  22.844  1.00  0.00    -0.325 N 
ATOM     22  C   UNL A   1      29.708  29.281  22.403  1.00  0.00     0.226 C 
ATOM     23  O   UNL A   1      29.948  29.800  21.303  1.00  0.00    -0.274 OA
ATOM     24  H   UNL A   1      31.410  28.283  22.253  1.00  0.00     0.169 HD
BRANCH  22  25
ATOM     25  C   UNL A   1      28.505  29.795  23.208  1.00  0.00     0.072 C 
ATOM     26  C   UNL A   1      28.196  31.275  23.073  1.00  0.00     0.018 C 
ATOM     27  C   UNL A   1      27.251  28.935  23.093  1.00  0.00     0.018 C 
ENDBRANCH  22  25
ENDBRANCH  15  21
ENDBRANCH  11  14
ENDBRANCH   6  10
ENDBRANCH   3   5
ENDBRANCH   2   3
ENDBRANCH   1   2
BRANCH   1  28
ATOM     28  C   UNL A   1      38.740  20.983  25.334  1.00  0.00     0.275 C 
BRANCH  28  29
ATOM     29  O   UNL A   1      39.322  19.897  26.084  1.00  0.00    -0.458 OA
BRANCH  29  30
ATOM     30  C   UNL A   1      40.671  19.801  26.028  1.00  0.00     0.338 C 
ATOM     31  O   UNL A   1      41.338  18.899  25.551  1.00  0.00    -0.246 OA
BRANCH  30  32
ATOM     32  C   UNL A   1      41.280  21.025  26.567  1.00  0.00     0.060 A 
ATOM     33  C   UNL A   1      41.110  21.300  27.923  1.00  0.00     0.016 A 
ATOM     34  C   UNL A   1      41.892  21.958  25.733  1.00  0.00     0.016 A 
ATOM     35  C   UNL A   1      41.525  22.514  28.456  1.00  0.00     0.010 A 
ATOM     36  C   UNL A   1      42.339  23.170  26.273  1.00  0.00     0.010 A 
ATOM     37  C   UNL A   1      42.145  23.464  27.636  1.00  0.00    -0.014 A 
BRANCH  37  38
ATOM     38  C   UNL A   1      42.545  24.773  28.210  1.00  0.00     0.031 A 
ATOM     39  C   UNL A   1      41.516  25.843  28.437  1.00  0.00     0.074 A 
ATOM     40  C   UNL A   1      43.826  24.985  28.565  1.00  0.00     0.049 A 
ATOM     41  N   UNL A   1      41.679  27.075  28.846  1.00  0.00    -0.248 NA
ATOM     42  C   UNL A   1      40.116  25.478  28.168  1.00  0.00     0.031 C 
ATOM     43  C   UNL A   1      44.908  24.006  28.450  1.00  0.00     0.029 A 
ATOM     44  N   UNL A   1      44.434  26.092  29.101  1.00  0.00    -0.354 N 
ATOM     45  C   UNL A   1      40.411  27.643  28.857  1.00  0.00     0.074 A 
ATOM     46  C   UNL A   1      39.489  26.623  28.402  1.00  0.00     0.031 C 
ATOM     47  C   UNL A   1      46.044  24.552  28.911  1.00  0.00     0.029 A 
ATOM     48  C   UNL A   1      45.784  25.935  29.300  1.00  0.00     0.049 A 
ATOM     49  H   UNL A   1      43.949  26.920  29.322  1.00  0.00     0.167 HD
ATOM     50  C   UNL A   1      40.050  28.898  29.214  1.00  0.00     0.037 A 
ATOM     51  C   UNL A   1      46.713  26.816  29.716  1.00  0.00     0.037 A 
ATOM     52  C   UNL A   1      40.968  29.902  29.688  1.00  0.00     0.049 A 
ATOM     53  C   UNL A   1      46.297  28.220  30.049  1.00  0.00     0.074 A 
ATOM     54  C   UNL A   1      40.698  31.201  30.083  1.00  0.00     0.029 A 
ATOM     55  N   UNL A   1      42.334  29.716  29.836  1.00  0.00    -0.354 N 
ATOM     56  N   UNL A   1      45.099  28.753  30.033  1.00  0.00    -0.248 NA
ATOM     57  C   UNL A   1      47.363  29.149  30.449  1.00  0.00     0.031 C 
ATOM     58  C   UNL A   1      41.907  31.814  30.433  1.00  0.00     0.029 A 
ATOM     59  C   UNL A   1      42.923  30.883  30.297  1.00  0.00     0.049 A 
ATOM     60  H   UNL A   1      42.815  28.879  29.643  1.00  0.00     0.167 HD
ATOM     61  C   UNL A   1      45.264  30.072  30.433  1.00  0.00     0.074 A 
ATOM     62  C   UNL A   1      46.676  30.254  30.702  1.00  0.00     0.031 C 
ATOM     63  C   UNL A   1      44.330  31.046  30.562  1.00  0.00     0.037 A 
BRANCH  50  64
ATOM     64  C   UNL A   1      38.604  29.268  29.074  1.00  0.00     0.057 A 
ATOM     65  C   UNL A   1      38.053  29.667  27.850  1.00  0.00     0.134 A 
ATOM     66  C   UNL A   1      37.744  29.197  30.177  1.00  0.00     0.134 A 
ATOM     67  F   UNL A   1      38.825  29.770  26.759  1.00  0.00    -0.206 F 
ATOM     68  C   UNL A   1      36.702  30.002  27.733  1.00  0.00     0.040 A 
ATOM     69  C   UNL A   1      36.387  29.507  30.068  1.00  0.00     0.040 A 
ATOM     70  F   UNL A   1      38.205  28.818  31.379  1.00  0.00    -0.206 F 
ATOM     71  C   UNL A   1      35.864  29.916  28.843  1.00  0.00     0.006 A 
ENDBRANCH  50  64
BRANCH  51  72
ATOM     72  C   UNL A   1      48.136  26.402  29.810  1.00  0.00     0.057 A 
ATOM     73  C   UNL A   1      48.653  25.841  30.982  1.00  0.00     0.134 A 
ATOM     74  C   UNL A   1      49.013  26.564  28.729  1.00  0.00     0.134 A 
ATOM     75  F   UNL A   1      47.869  25.685  32.059  1.00  0.00    -0.206 F 
ATOM     76  C   UNL A   1      49.995  25.466  31.082  1.00  0.00     0.040 A 
ATOM     77  C   UNL A   1      50.349  26.170  28.806  1.00  0.00     0.040 A 
ATOM     78  F   UNL A   1      48.578  27.097  27.578  1.00  0.00    -0.206 F 
ATOM     79  C   UNL A   1      50.844  25.624  29.989  1.00  0.00     0.006 A 
ENDBRANCH  51  72
BRANCH  63  80
ATOM     80  C   UNL A   1      44.804  32.386  31.040  1.00  0.00     0.057 A 
ATOM     81  C   UNL A   1      45.184  33.395  30.147  1.00  0.00     0.134 A 
ATOM     82  C   UNL A   1      44.853  32.679  32.409  1.00  0.00     0.134 A 
ATOM     83  F   UNL A   1      45.174  33.172  28.825  1.00  0.00    -0.206 F 
ATOM     84  C   UNL A   1      45.615  34.643  30.600  1.00  0.00     0.040 A 
ATOM     85  C   UNL A   1      45.260  33.930  32.873  1.00  0.00     0.040 A 
ATOM     86  F   UNL A   1      44.496  31.757  33.316  1.00  0.00    -0.206 F 
ATOM     87  C   UNL A   1      45.646  34.915  31.967  1.00  0.00     0.006 A 
ENDBRANCH  63  80
ENDBRANCH  37  38
ENDBRANCH  30  32
ENDBRANCH  29  30
ENDBRANCH  28  29
ENDBRANCH   1  28
TORSDOF 15
ENDMDL
