MODEL 1
REMARK VINA RESULT:     -10.5      0.000      0.000
REMARK SMILES O=C(Cc1ccn(C(F)F)c(=O)c1)OCCOC(=O)c1ccc(-c2c3nc(c(-c4c(F)cccc4F)c4ccc([nH]4)c(-c4c(F)cccc4F)c4nc(c(-c5c(F)cccc5F)c5ccc2[nH]5)C=C4)C=C3)cc1
REMARK SMILES IDX 15 1 14 2 2 3 1 4 3 5 4 6 5 7 13 8 6 9 11 10 7 11 12 12 8 13
REMARK SMILES IDX 9 14 10 15 16 16 17 17 18 18 19 19 20 20 21 21 73 22 22 23
REMARK SMILES IDX 72 24 23 25 24 26 25 27 66 28 26 29 71 30 65 31 67 32 27 33
REMARK SMILES IDX 70 34 64 35 63 36 28 38 54 39 37 40 53 41 38 42 41 43 52 44
REMARK SMILES IDX 68 45 39 46 40 47 51 49 69 50 42 51 29 52 30 53 35 54 31 55
REMARK SMILES IDX 32 56 34 57 36 58 33 59 55 60 56 61 61 62 57 63 58 64 60 65
REMARK SMILES IDX 62 66 59 67 43 68 44 69 49 70 45 71 46 72 48 73 50 74 47 75
REMARK H PARENT 67 37 41 48
REMARK Flexibility Score: inf
ROOT
ATOM      1  C   UNL A   1      44.210  21.000  25.364  1.00  0.00     0.274 C 
ENDROOT
BRANCH   1   2
ATOM      2  O   UNL A   1      43.312  19.928  25.003  1.00  0.00    -0.462 OA
BRANCH   2   3
ATOM      3  C   UNL A   1      42.661  19.122  25.868  1.00  0.00     0.310 C 
ATOM      4  O   UNL A   1      42.779  17.900  25.785  1.00  0.00    -0.252 OA
BRANCH   3   5
ATOM      5  C   UNL A   1      41.779  19.739  26.938  1.00  0.00     0.158 C 
BRANCH   5   6
ATOM      6  C   UNL A   1      40.639  20.606  26.486  1.00  0.00    -0.030 A 
ATOM      7  C   UNL A   1      40.558  21.992  26.891  1.00  0.00     0.023 A 
ATOM      8  C   UNL A   1      39.646  20.083  25.744  1.00  0.00     0.076 A 
ATOM      9  C   UNL A   1      39.493  22.732  26.556  1.00  0.00     0.095 A 
ATOM     10  C   UNL A   1      38.448  20.887  25.377  1.00  0.00     0.255 A 
ATOM     11  N   UNL A   1      38.450  22.197  25.824  1.00  0.00    -0.258 N 
ATOM     12  O   UNL A   1      37.556  20.342  24.736  1.00  0.00    -0.269 OA
BRANCH  11  13
ATOM     13  C   UNL A   1      37.271  22.977  25.551  1.00  0.00     0.451 C 
ATOM     14  F   UNL A   1      37.081  23.932  26.493  1.00  0.00    -0.185 F 
ATOM     15  F   UNL A   1      37.374  23.591  24.346  1.00  0.00    -0.185 F 
ENDBRANCH  11  13
ENDBRANCH   5   6
ENDBRANCH   3   5
ENDBRANCH   2   3
ENDBRANCH   1   2
BRANCH   1  16
ATOM     16  C   UNL A   1      44.036  22.198  24.427  1.00  0.00     0.275 C 
BRANCH  16  17
ATOM     17  O   UNL A   1      43.445  23.295  25.147  1.00  0.00    -0.458 OA
BRANCH  17  18
ATOM     18  C   UNL A   1      44.203  24.409  25.296  1.00  0.00     0.338 C 
ATOM     19  O   UNL A   1      45.009  24.857  24.500  1.00  0.00    -0.246 OA
BRANCH  18  20
ATOM     20  C   UNL A   1      43.702  25.148  26.482  1.00  0.00     0.060 A 
ATOM     21  C   UNL A   1      42.681  24.636  27.289  1.00  0.00     0.016 A 
ATOM     22  C   UNL A   1      44.194  26.441  26.708  1.00  0.00     0.016 A 
ATOM     23  C   UNL A   1      42.139  25.423  28.307  1.00  0.00     0.010 A 
ATOM     24  C   UNL A   1      43.646  27.229  27.723  1.00  0.00     0.010 A 
ATOM     25  C   UNL A   1      42.613  26.726  28.527  1.00  0.00    -0.014 A 
BRANCH  25  26
ATOM     26  C   UNL A   1      42.099  27.512  29.671  1.00  0.00     0.031 A 
ATOM     27  C   UNL A   1      42.722  27.424  31.031  1.00  0.00     0.074 A 
ATOM     28  C   UNL A   1      41.041  28.318  29.463  1.00  0.00     0.049 A 
ATOM     29  N   UNL A   1      42.427  28.100  32.113  1.00  0.00    -0.248 NA
ATOM     30  C   UNL A   1      43.812  26.454  31.205  1.00  0.00     0.031 C 
ATOM     31  C   UNL A   1      40.340  28.471  28.187  1.00  0.00     0.029 A 
ATOM     32  N   UNL A   1      40.372  29.153  30.318  1.00  0.00    -0.354 N 
ATOM     33  C   UNL A   1      43.305  27.655  33.093  1.00  0.00     0.074 A 
ATOM     34  C   UNL A   1      44.123  26.625  32.484  1.00  0.00     0.031 C 
ATOM     35  C   UNL A   1      39.334  29.346  28.345  1.00  0.00     0.029 A 
ATOM     36  C   UNL A   1      39.315  29.803  29.732  1.00  0.00     0.049 A 
ATOM     37  H   UNL A   1      40.624  29.275  31.262  1.00  0.00     0.167 HD
ATOM     38  C   UNL A   1      43.421  28.079  34.374  1.00  0.00     0.037 A 
ATOM     39  C   UNL A   1      38.427  30.667  30.254  1.00  0.00     0.037 A 
ATOM     40  C   UNL A   1      42.605  29.103  34.977  1.00  0.00     0.049 A 
ATOM     41  C   UNL A   1      38.552  31.078  31.693  1.00  0.00     0.074 A 
ATOM     42  C   UNL A   1      42.707  29.653  36.244  1.00  0.00     0.029 A 
ATOM     43  N   UNL A   1      41.526  29.718  34.363  1.00  0.00    -0.354 N 
ATOM     44  N   UNL A   1      39.454  30.728  32.577  1.00  0.00    -0.248 NA
ATOM     45  C   UNL A   1      37.540  32.013  32.204  1.00  0.00     0.031 C 
ATOM     46  C   UNL A   1      41.659  30.563  36.415  1.00  0.00     0.029 A 
ATOM     47  C   UNL A   1      40.929  30.612  35.239  1.00  0.00     0.049 A 
ATOM     48  H   UNL A   1      41.226  29.545  33.441  1.00  0.00     0.167 HD
ATOM     49  C   UNL A   1      39.137  31.423  33.737  1.00  0.00     0.074 A 
ATOM     50  C   UNL A   1      37.966  32.221  33.441  1.00  0.00     0.031 C 
ATOM     51  C   UNL A   1      39.766  31.405  34.936  1.00  0.00     0.037 A 
BRANCH  38  52
ATOM     52  C   UNL A   1      44.473  27.440  35.231  1.00  0.00     0.057 A 
ATOM     53  C   UNL A   1      44.185  26.297  35.986  1.00  0.00     0.134 A 
ATOM     54  C   UNL A   1      45.743  28.011  35.380  1.00  0.00     0.134 A 
ATOM     55  F   UNL A   1      42.982  25.709  35.899  1.00  0.00    -0.206 F 
ATOM     56  C   UNL A   1      45.118  25.750  36.868  1.00  0.00     0.040 A 
ATOM     57  C   UNL A   1      46.693  27.461  36.242  1.00  0.00     0.040 A 
ATOM     58  F   UNL A   1      46.078  29.111  34.688  1.00  0.00    -0.206 F 
ATOM     59  C   UNL A   1      46.378  26.333  36.996  1.00  0.00     0.006 A 
ENDBRANCH  38  52
BRANCH  39  60
ATOM     60  C   UNL A   1      37.341  31.214  29.409  1.00  0.00     0.057 A 
ATOM     61  C   UNL A   1      36.188  30.467  29.136  1.00  0.00     0.134 A 
ATOM     62  C   UNL A   1      37.419  32.505  28.877  1.00  0.00     0.134 A 
ATOM     63  F   UNL A   1      36.060  29.221  29.614  1.00  0.00    -0.206 F 
ATOM     64  C   UNL A   1      35.149  30.988  28.364  1.00  0.00     0.040 A 
ATOM     65  C   UNL A   1      36.377  33.047  28.123  1.00  0.00     0.040 A 
ATOM     66  F   UNL A   1      38.491  33.272  29.121  1.00  0.00    -0.206 F 
ATOM     67  C   UNL A   1      35.239  32.286  27.863  1.00  0.00     0.006 A 
ENDBRANCH  39  60
BRANCH  51  68
ATOM     68  C   UNL A   1      39.216  32.299  36.008  1.00  0.00     0.057 A 
ATOM     69  C   UNL A   1      38.238  31.831  36.894  1.00  0.00     0.134 A 
ATOM     70  C   UNL A   1      39.644  33.624  36.154  1.00  0.00     0.134 A 
ATOM     71  F   UNL A   1      37.782  30.572  36.805  1.00  0.00    -0.206 F 
ATOM     72  C   UNL A   1      37.704  32.651  37.889  1.00  0.00     0.040 A 
ATOM     73  C   UNL A   1      39.134  34.447  37.160  1.00  0.00     0.040 A 
ATOM     74  F   UNL A   1      40.592  34.125  35.349  1.00  0.00    -0.206 F 
ATOM     75  C   UNL A   1      38.156  33.961  38.028  1.00  0.00     0.006 A 
ENDBRANCH  51  68
ENDBRANCH  25  26
ENDBRANCH  18  20
ENDBRANCH  17  18
ENDBRANCH  16  17
ENDBRANCH   1  16
TORSDOF 13
ENDMDL
MODEL 2
REMARK VINA RESULT:     -10.3      3.933      5.814
REMARK SMILES O=C(Cc1ccn(C(F)F)c(=O)c1)OCCOC(=O)c1ccc(-c2c3nc(c(-c4c(F)cccc4F)c4ccc([nH]4)c(-c4c(F)cccc4F)c4nc(c(-c5c(F)cccc5F)c5ccc2[nH]5)C=C4)C=C3)cc1
REMARK SMILES IDX 15 1 14 2 2 3 1 4 3 5 4 6 5 7 13 8 6 9 11 10 7 11 12 12 8 13
REMARK SMILES IDX 9 14 10 15 16 16 17 17 18 18 19 19 20 20 21 21 73 22 22 23
REMARK SMILES IDX 72 24 23 25 24 26 25 27 66 28 26 29 71 30 65 31 67 32 27 33
REMARK SMILES IDX 70 34 64 35 63 36 28 38 54 39 37 40 53 41 38 42 41 43 52 44
REMARK SMILES IDX 68 45 39 46 40 47 51 49 69 50 42 51 29 52 30 53 35 54 31 55
REMARK SMILES IDX 32 56 34 57 36 58 33 59 55 60 56 61 61 62 57 63 58 64 60 65
REMARK SMILES IDX 62 66 59 67 43 68 44 69 49 70 45 71 46 72 48 73 50 74 47 75
REMARK H PARENT 67 37 41 48
REMARK Flexibility Score: inf
ROOT
ATOM      1  C   UNL A   1      44.899  19.528  25.215  1.00  0.00     0.274 C 
ENDROOT
BRANCH   1   2
ATOM      2  O   UNL A   1      44.964  20.961  25.386  1.00  0.00    -0.462 OA
BRANCH   2   3
ATOM      3  C   UNL A   1      45.220  21.859  24.411  1.00  0.00     0.310 C 
ATOM      4  O   UNL A   1      44.496  21.918  23.418  1.00  0.00    -0.252 OA
BRANCH   3   5
ATOM      5  C   UNL A   1      46.411  22.788  24.552  1.00  0.00     0.158 C 
BRANCH   5   6
ATOM      6  C   UNL A   1      46.143  24.205  24.972  1.00  0.00    -0.030 A 
ATOM      7  C   UNL A   1      47.198  25.023  25.529  1.00  0.00     0.023 A 
ATOM      8  C   UNL A   1      44.899  24.711  24.886  1.00  0.00     0.076 A 
ATOM      9  C   UNL A   1      46.928  26.254  25.982  1.00  0.00     0.095 A 
ATOM     10  C   UNL A   1      44.580  26.072  25.399  1.00  0.00     0.255 A 
ATOM     11  N   UNL A   1      45.648  26.774  25.932  1.00  0.00    -0.258 N 
ATOM     12  O   UNL A   1      43.419  26.460  25.332  1.00  0.00    -0.269 OA
BRANCH  11  13
ATOM     13  C   UNL A   1      45.357  28.061  26.505  1.00  0.00     0.451 C 
ATOM     14  F   UNL A   1      46.432  28.568  27.155  1.00  0.00    -0.185 F 
ATOM     15  F   UNL A   1      44.995  28.942  25.540  1.00  0.00    -0.185 F 
ENDBRANCH  11  13
ENDBRANCH   5   6
ENDBRANCH   3   5
ENDBRANCH   2   3
ENDBRANCH   1   2
BRANCH   1  16
ATOM     16  C   UNL A   1      43.489  19.089  24.814  1.00  0.00     0.275 C 
BRANCH  16  17
ATOM     17  O   UNL A   1      42.671  18.948  25.990  1.00  0.00    -0.458 OA
BRANCH  17  18
ATOM     18  C   UNL A   1      41.483  19.600  25.991  1.00  0.00     0.338 C 
ATOM     19  O   UNL A   1      40.385  19.121  25.770  1.00  0.00    -0.246 OA
BRANCH  18  20
ATOM     20  C   UNL A   1      41.702  20.951  26.564  1.00  0.00     0.060 A 
ATOM     21  C   UNL A   1      41.807  22.086  25.753  1.00  0.00     0.016 A 
ATOM     22  C   UNL A   1      41.930  21.053  27.944  1.00  0.00     0.016 A 
ATOM     23  C   UNL A   1      42.157  23.314  26.316  1.00  0.00     0.010 A 
ATOM     24  C   UNL A   1      42.287  22.281  28.505  1.00  0.00     0.010 A 
ATOM     25  C   UNL A   1      42.405  23.419  27.694  1.00  0.00    -0.014 A 
BRANCH  25  26
ATOM     26  C   UNL A   1      42.678  24.744  28.294  1.00  0.00     0.031 A 
ATOM     27  C   UNL A   1      44.040  25.114  28.800  1.00  0.00     0.074 A 
ATOM     28  C   UNL A   1      41.663  25.623  28.382  1.00  0.00     0.049 A 
ATOM     29  N   UNL A   1      44.450  26.258  29.288  1.00  0.00    -0.248 NA
ATOM     30  C   UNL A   1      45.074  24.071  28.757  1.00  0.00     0.031 C 
ATOM     31  C   UNL A   1      40.291  25.368  27.941  1.00  0.00     0.029 A 
ATOM     32  N   UNL A   1      41.628  26.902  28.873  1.00  0.00    -0.354 N 
ATOM     33  C   UNL A   1      45.794  26.083  29.593  1.00  0.00     0.074 A 
ATOM     34  C   UNL A   1      46.121  24.709  29.266  1.00  0.00     0.031 C 
ATOM     35  C   UNL A   1      39.545  26.458  28.186  1.00  0.00     0.029 A 
ATOM     36  C   UNL A   1      40.384  27.478  28.808  1.00  0.00     0.049 A 
ATOM     37  H   UNL A   1      42.418  27.363  29.236  1.00  0.00     0.167 HD
ATOM     38  C   UNL A   1      46.669  26.990  30.089  1.00  0.00     0.037 A 
ATOM     39  C   UNL A   1      39.964  28.690  29.211  1.00  0.00     0.037 A 
ATOM     40  C   UNL A   1      46.340  28.355  30.415  1.00  0.00     0.049 A 
ATOM     41  C   UNL A   1      40.950  29.655  29.805  1.00  0.00     0.074 A 
ATOM     42  C   UNL A   1      47.182  29.367  30.844  1.00  0.00     0.029 A 
ATOM     43  N   UNL A   1      45.065  28.895  30.365  1.00  0.00    -0.354 N 
ATOM     44  N   UNL A   1      42.239  29.511  29.988  1.00  0.00    -0.248 NA
ATOM     45  C   UNL A   1      40.422  30.957  30.237  1.00  0.00     0.031 C 
ATOM     46  C   UNL A   1      46.409  30.504  31.103  1.00  0.00     0.029 A 
ATOM     47  C   UNL A   1      45.092  30.213  30.795  1.00  0.00     0.049 A 
ATOM     48  H   UNL A   1      44.258  28.413  30.070  1.00  0.00     0.167 HD
ATOM     49  C   UNL A   1      42.682  30.712  30.526  1.00  0.00     0.074 A 
ATOM     50  C   UNL A   1      41.525  31.576  30.632  1.00  0.00     0.031 C 
ATOM     51  C   UNL A   1      43.936  31.067  30.894  1.00  0.00     0.037 A 
BRANCH  38  52
ATOM     52  C   UNL A   1      48.084  26.548  30.315  1.00  0.00     0.057 A 
ATOM     53  C   UNL A   1      48.456  25.921  31.510  1.00  0.00     0.134 A 
ATOM     54  C   UNL A   1      49.096  26.827  29.388  1.00  0.00     0.134 A 
ATOM     55  F   UNL A   1      47.536  25.637  32.445  1.00  0.00    -0.206 F 
ATOM     56  C   UNL A   1      49.785  25.595  31.782  1.00  0.00     0.040 A 
ATOM     57  C   UNL A   1      50.427  26.488  29.639  1.00  0.00     0.040 A 
ATOM     58  F   UNL A   1      48.805  27.432  28.227  1.00  0.00    -0.206 F 
ATOM     59  C   UNL A   1      50.776  25.879  30.842  1.00  0.00     0.006 A 
ENDBRANCH  38  52
BRANCH  39  60
ATOM     60  C   UNL A   1      38.540  29.069  29.060  1.00  0.00     0.057 A 
ATOM     61  C   UNL A   1      37.644  28.966  30.130  1.00  0.00     0.134 A 
ATOM     62  C   UNL A   1      38.050  29.568  27.849  1.00  0.00     0.134 A 
ATOM     63  F   UNL A   1      38.056  28.488  31.315  1.00  0.00    -0.206 F 
ATOM     64  C   UNL A   1      36.309  29.348  30.002  1.00  0.00     0.040 A 
ATOM     65  C   UNL A   1      36.723  29.976  27.713  1.00  0.00     0.040 A 
ATOM     66  F   UNL A   1      38.867  29.705  26.795  1.00  0.00    -0.206 F 
ATOM     67  C   UNL A   1      35.848  29.864  28.792  1.00  0.00     0.006 A 
ENDBRANCH  39  60
BRANCH  51  68
ATOM     68  C   UNL A   1      44.125  32.461  31.415  1.00  0.00     0.057 A 
ATOM     69  C   UNL A   1      44.367  33.524  30.536  1.00  0.00     0.134 A 
ATOM     70  C   UNL A   1      44.081  32.749  32.784  1.00  0.00     0.134 A 
ATOM     71  F   UNL A   1      44.425  33.315  29.212  1.00  0.00    -0.206 F 
ATOM     72  C   UNL A   1      44.559  34.826  31.002  1.00  0.00     0.040 A 
ATOM     73  C   UNL A   1      44.248  34.050  33.261  1.00  0.00     0.040 A 
ATOM     74  F   UNL A   1      43.834  31.777  33.675  1.00  0.00    -0.206 F 
ATOM     75  C   UNL A   1      44.494  35.092  32.368  1.00  0.00     0.006 A 
ENDBRANCH  51  68
ENDBRANCH  25  26
ENDBRANCH  18  20
ENDBRANCH  17  18
ENDBRANCH  16  17
ENDBRANCH   1  16
TORSDOF 13
ENDMDL
MODEL 3
REMARK VINA RESULT:     -10.3      5.705     11.266
REMARK SMILES O=C(Cc1ccn(C(F)F)c(=O)c1)OCCOC(=O)c1ccc(-c2c3nc(c(-c4c(F)cccc4F)c4ccc([nH]4)c(-c4c(F)cccc4F)c4nc(c(-c5c(F)cccc5F)c5ccc2[nH]5)C=C4)C=C3)cc1
REMARK SMILES IDX 15 1 14 2 2 3 1 4 3 5 4 6 5 7 13 8 6 9 11 10 7 11 12 12 8 13
REMARK SMILES IDX 9 14 10 15 16 16 17 17 18 18 19 19 20 20 21 21 73 22 22 23
REMARK SMILES IDX 72 24 23 25 24 26 25 27 66 28 26 29 71 30 65 31 67 32 27 33
REMARK SMILES IDX 70 34 64 35 63 36 28 38 54 39 37 40 53 41 38 42 41 43 52 44
REMARK SMILES IDX 68 45 39 46 40 47 51 49 69 50 42 51 29 52 30 53 35 54 31 55
REMARK SMILES IDX 32 56 34 57 36 58 33 59 55 60 56 61 61 62 57 63 58 64 60 65
REMARK SMILES IDX 62 66 59 67 43 68 44 69 49 70 45 71 46 72 48 73 50 74 47 75
REMARK H PARENT 67 37 41 48
REMARK Flexibility Score: inf
ROOT
ATOM      1  C   UNL A   1      34.616  34.310  31.536  1.00  0.00     0.274 C 
ENDROOT
BRANCH   1   2
ATOM      2  O   UNL A   1      33.444  34.508  30.716  1.00  0.00    -0.462 OA
BRANCH   2   3
ATOM      3  C   UNL A   1      33.444  34.928  29.433  1.00  0.00     0.310 C 
ATOM      4  O   UNL A   1      32.550  35.668  29.024  1.00  0.00    -0.252 OA
BRANCH   3   5
ATOM      5  C   UNL A   1      34.552  34.473  28.503  1.00  0.00     0.158 C 
BRANCH   5   6
ATOM      6  C   UNL A   1      34.538  33.040  28.050  1.00  0.00    -0.030 A 
ATOM      7  C   UNL A   1      33.300  32.398  27.669  1.00  0.00     0.023 A 
ATOM      8  C   UNL A   1      35.675  32.321  28.049  1.00  0.00     0.076 A 
ATOM      9  C   UNL A   1      33.285  31.097  27.352  1.00  0.00     0.095 A 
ATOM     10  C   UNL A   1      35.673  30.871  27.714  1.00  0.00     0.255 A 
ATOM     11  N   UNL A   1      34.440  30.338  27.380  1.00  0.00    -0.258 N 
ATOM     12  O   UNL A   1      36.735  30.260  27.773  1.00  0.00    -0.269 OA
BRANCH  11  13
ATOM     13  C   UNL A   1      34.393  28.922  27.126  1.00  0.00     0.451 C 
ATOM     14  F   UNL A   1      33.343  28.342  27.755  1.00  0.00    -0.185 F 
ATOM     15  F   UNL A   1      34.273  28.680  25.797  1.00  0.00    -0.185 F 
ENDBRANCH  11  13
ENDBRANCH   5   6
ENDBRANCH   3   5
ENDBRANCH   2   3
ENDBRANCH   1   2
BRANCH   1  16
ATOM     16  C   UNL A   1      34.378  33.209  32.573  1.00  0.00     0.275 C 
BRANCH  16  17
ATOM     17  O   UNL A   1      35.353  32.164  32.404  1.00  0.00    -0.458 OA
BRANCH  17  18
ATOM     18  C   UNL A   1      36.458  32.225  33.187  1.00  0.00     0.338 C 
ATOM     19  O   UNL A   1      36.491  32.369  34.396  1.00  0.00    -0.246 OA
BRANCH  18  20
ATOM     20  C   UNL A   1      37.626  31.826  32.362  1.00  0.00     0.060 A 
ATOM     21  C   UNL A   1      37.613  31.936  30.968  1.00  0.00     0.016 A 
ATOM     22  C   UNL A   1      38.709  31.212  33.008  1.00  0.00     0.016 A 
ATOM     23  C   UNL A   1      38.670  31.416  30.219  1.00  0.00     0.010 A 
ATOM     24  C   UNL A   1      39.763  30.687  32.257  1.00  0.00     0.010 A 
ATOM     25  C   UNL A   1      39.749  30.784  30.858  1.00  0.00    -0.014 A 
BRANCH  25  26
ATOM     26  C   UNL A   1      40.909  30.325  30.061  1.00  0.00     0.031 A 
ATOM     27  C   UNL A   1      42.049  31.241  29.730  1.00  0.00     0.074 A 
ATOM     28  C   UNL A   1      40.918  29.051  29.627  1.00  0.00     0.049 A 
ATOM     29  N   UNL A   1      43.164  30.967  29.101  1.00  0.00    -0.248 NA
ATOM     30  C   UNL A   1      41.925  32.642  30.156  1.00  0.00     0.031 C 
ATOM     31  C   UNL A   1      39.856  28.075  29.870  1.00  0.00     0.029 A 
ATOM     32  N   UNL A   1      41.847  28.364  28.891  1.00  0.00    -0.354 N 
ATOM     33  C   UNL A   1      43.886  32.153  29.070  1.00  0.00     0.074 A 
ATOM     34  C   UNL A   1      43.066  33.159  29.716  1.00  0.00     0.031 C 
ATOM     35  C   UNL A   1      40.192  26.911  29.289  1.00  0.00     0.029 A 
ATOM     36  C   UNL A   1      41.484  27.068  28.626  1.00  0.00     0.049 A 
ATOM     37  H   UNL A   1      42.694  28.762  28.583  1.00  0.00     0.167 HD
ATOM     38  C   UNL A   1      45.122  32.373  28.559  1.00  0.00     0.037 A 
ATOM     39  C   UNL A   1      42.119  26.112  27.924  1.00  0.00     0.037 A 
ATOM     40  C   UNL A   1      45.934  31.371  27.916  1.00  0.00     0.049 A 
ATOM     41  C   UNL A   1      43.465  26.404  27.326  1.00  0.00     0.074 A 
ATOM     42  C   UNL A   1      47.230  31.485  27.442  1.00  0.00     0.029 A 
ATOM     43  N   UNL A   1      45.522  30.077  27.638  1.00  0.00    -0.354 N 
ATOM     44  N   UNL A   1      44.181  27.499  27.398  1.00  0.00    -0.248 NA
ATOM     45  C   UNL A   1      44.096  25.321  26.559  1.00  0.00     0.031 C 
ATOM     46  C   UNL A   1      47.585  30.277  26.833  1.00  0.00     0.029 A 
ATOM     47  C   UNL A   1      46.525  29.396  26.965  1.00  0.00     0.049 A 
ATOM     48  H   UNL A   1      44.647  29.698  27.882  1.00  0.00     0.167 HD
ATOM     49  C   UNL A   1      45.358  27.228  26.713  1.00  0.00     0.074 A 
ATOM     50  C   UNL A   1      45.263  25.861  26.241  1.00  0.00     0.031 C 
ATOM     51  C   UNL A   1      46.424  28.036  26.501  1.00  0.00     0.037 A 
BRANCH  38  52
ATOM     52  C   UNL A   1      45.690  33.756  28.671  1.00  0.00     0.057 A 
ATOM     53  C   UNL A   1      46.385  34.154  29.819  1.00  0.00     0.134 A 
ATOM     54  C   UNL A   1      45.468  34.722  27.681  1.00  0.00     0.134 A 
ATOM     55  F   UNL A   1      46.620  33.281  30.811  1.00  0.00    -0.206 F 
ATOM     56  C   UNL A   1      46.831  35.466  29.985  1.00  0.00     0.040 A 
ATOM     57  C   UNL A   1      45.927  36.032  27.825  1.00  0.00     0.040 A 
ATOM     58  F   UNL A   1      44.803  34.404  26.560  1.00  0.00    -0.206 F 
ATOM     59  C   UNL A   1      46.603  36.410  28.984  1.00  0.00     0.006 A 
ENDBRANCH  38  52
BRANCH  39  60
ATOM     60  C   UNL A   1      41.493  24.781  27.752  1.00  0.00     0.057 A 
ATOM     61  C   UNL A   1      40.492  24.568  26.796  1.00  0.00     0.134 A 
ATOM     62  C   UNL A   1      41.901  23.686  28.520  1.00  0.00     0.134 A 
ATOM     63  F   UNL A   1      40.056  25.582  26.034  1.00  0.00    -0.206 F 
ATOM     64  C   UNL A   1      39.920  23.310  26.610  1.00  0.00     0.040 A 
ATOM     65  C   UNL A   1      41.353  22.417  28.328  1.00  0.00     0.040 A 
ATOM     66  F   UNL A   1      42.868  23.828  29.438  1.00  0.00    -0.206 F 
ATOM     67  C   UNL A   1      40.358  22.228  27.371  1.00  0.00     0.006 A 
ENDBRANCH  39  60
BRANCH  51  68
ATOM     68  C   UNL A   1      47.584  27.452  25.752  1.00  0.00     0.057 A 
ATOM     69  C   UNL A   1      48.608  26.782  26.433  1.00  0.00     0.134 A 
ATOM     70  C   UNL A   1      47.696  27.565  24.361  1.00  0.00     0.134 A 
ATOM     71  F   UNL A   1      48.564  26.642  27.766  1.00  0.00    -0.206 F 
ATOM     72  C   UNL A   1      49.703  26.244  25.755  1.00  0.00     0.040 A 
ATOM     73  C   UNL A   1      48.775  27.011  23.670  1.00  0.00     0.040 A 
ATOM     74  F   UNL A   1      46.739  28.179  23.650  1.00  0.00    -0.206 F 
ATOM     75  C   UNL A   1      49.785  26.352  24.369  1.00  0.00     0.006 A 
ENDBRANCH  51  68
ENDBRANCH  25  26
ENDBRANCH  18  20
ENDBRANCH  17  18
ENDBRANCH  16  17
ENDBRANCH   1  16
TORSDOF 13
ENDMDL
