MODEL 1
REMARK VINA RESULT:     -13.4      0.000      0.000
REMARK SMILES Cc1nccn1C1(C(=O)OCCOC(=O)c2ccc(-c3c4nc(c(-c5c(F)cccc5F)c5ccc([nH]5)c(-c5c(F)cccc5F)c5nc(c(-c6c(F)cccc6F)c6ccc3[nH]6)C=C5)C=C4)cc2)CCN(C(=O)[C@@H]2C[C@H]2c2ccccc2)CC1
REMARK SMILES IDX 11 1 10 2 8 3 9 4 7 5 70 6 85 7 71 8 84 9 72 10 73 11 74 12
REMARK SMILES IDX 6 13 1 14 2 15 3 16 4 17 5 18 75 19 76 20 77 21 78 22 79 23
REMARK SMILES IDX 83 24 80 25 82 26 81 27 12 28 13 29 14 30 15 31 16 32 17 33
REMARK SMILES IDX 69 34 18 35 68 36 19 37 20 38 21 39 62 40 22 41 67 42 61 43
REMARK SMILES IDX 63 44 23 45 66 46 60 47 59 48 24 50 50 51 33 52 49 53 34 54
REMARK SMILES IDX 37 55 48 56 64 57 35 58 36 59 47 61 65 62 38 63 25 64 26 65
REMARK SMILES IDX 31 66 27 67 28 68 30 69 32 70 29 71 51 72 52 73 57 74 53 75
REMARK SMILES IDX 54 76 56 77 58 78 55 79 39 80 40 81 45 82 41 83 42 84 44 85
REMARK SMILES IDX 46 86 43 87
REMARK H PARENT 63 49 37 60
REMARK Flexibility Score: inf
ROOT
ATOM      1  C   UNL A   1      32.287  29.289  27.209  1.00  0.00     0.274 C 
ENDROOT
BRANCH   1   2
ATOM      2  O   UNL A   1      31.433  28.810  26.149  1.00  0.00    -0.460 OA
BRANCH   2   3
ATOM      3  C   UNL A   1      31.402  27.453  25.977  1.00  0.00     0.332 C 
ATOM      4  O   UNL A   1      31.341  26.701  26.946  1.00  0.00    -0.249 OA
BRANCH   3   5
ATOM      5  C   UNL A   1      31.657  26.989  24.491  1.00  0.00     0.146 C 
ATOM      6  C   UNL A   1      33.177  26.881  24.167  1.00  0.00     0.062 C 
ATOM      7  C   UNL A   1      30.994  25.614  24.607  1.00  0.00     0.062 C 
ATOM      8  C   UNL A   1      33.671  25.659  23.388  1.00  0.00     0.122 C 
ATOM      9  C   UNL A   1      31.414  24.633  23.565  1.00  0.00     0.122 C 
ATOM     10  N   UNL A   1      32.851  24.461  23.487  1.00  0.00    -0.342 N 
ATOM     11  C   UNL A   1      33.464  23.250  23.139  1.00  0.00     0.226 C 
ATOM     12  O   UNL A   1      34.600  23.200  22.673  1.00  0.00    -0.275 OA
BRANCH   5  13
ATOM     13  N   UNL A   1      30.914  27.830  23.484  1.00  0.00    -0.318 N 
ATOM     14  C   UNL A   1      28.420  27.056  23.635  1.00  0.00     0.087 C 
ATOM     15  C   UNL A   1      29.546  27.917  23.194  1.00  0.00     0.106 A 
ATOM     16  N   UNL A   1      29.295  28.918  22.371  1.00  0.00    -0.242 NA
ATOM     17  C   UNL A   1      30.483  29.466  22.044  1.00  0.00     0.131 A 
ATOM     18  C   UNL A   1      31.492  28.793  22.673  1.00  0.00     0.108 A 
ENDBRANCH   5  13
BRANCH  11  19
ATOM     19  C   UNL A   1      32.820  21.961  23.509  1.00  0.00     0.087 C 
ATOM     20  C   UNL A   1      32.023  21.785  24.774  1.00  0.00     0.023 C 
ATOM     21  C   UNL A   1      33.293  21.014  24.602  1.00  0.00     0.032 C 
BRANCH  21  22
ATOM     22  C   UNL A   1      33.419  19.551  24.216  1.00  0.00    -0.044 A 
ATOM     23  C   UNL A   1      34.522  18.793  24.631  1.00  0.00     0.004 A 
ATOM     24  C   UNL A   1      32.519  18.930  23.322  1.00  0.00     0.004 A 
ATOM     25  C   UNL A   1      34.725  17.487  24.172  1.00  0.00     0.000 A 
ATOM     26  C   UNL A   1      32.709  17.620  22.869  1.00  0.00     0.000 A 
ATOM     27  C   UNL A   1      33.821  16.902  23.290  1.00  0.00     0.000 A 
ENDBRANCH  21  22
ENDBRANCH  11  19
ENDBRANCH   3   5
ENDBRANCH   2   3
ENDBRANCH   1   2
BRANCH   1  28
ATOM     28  C   UNL A   1      33.168  30.443  26.738  1.00  0.00     0.275 C 
BRANCH  28  29
ATOM     29  O   UNL A   1      34.544  30.259  27.083  1.00  0.00    -0.458 OA
BRANCH  29  30
ATOM     30  C   UNL A   1      35.062  31.304  27.760  1.00  0.00     0.338 C 
ATOM     31  O   UNL A   1      34.865  32.492  27.562  1.00  0.00    -0.246 OA
BRANCH  30  32
ATOM     32  C   UNL A   1      36.130  30.884  28.646  1.00  0.00     0.060 A 
ATOM     33  C   UNL A   1      37.133  31.824  28.910  1.00  0.00     0.016 A 
ATOM     34  C   UNL A   1      36.321  29.507  28.774  1.00  0.00     0.016 A 
ATOM     35  C   UNL A   1      38.406  31.367  29.147  1.00  0.00     0.010 A 
ATOM     36  C   UNL A   1      37.593  29.055  28.998  1.00  0.00     0.010 A 
ATOM     37  C   UNL A   1      38.628  29.989  29.108  1.00  0.00    -0.014 A 
BRANCH  37  38
ATOM     38  C   UNL A   1      39.980  29.511  29.298  1.00  0.00     0.031 A 
ATOM     39  C   UNL A   1      40.372  29.368  30.723  1.00  0.00     0.074 A 
ATOM     40  C   UNL A   1      40.685  29.028  28.260  1.00  0.00     0.049 A 
ATOM     41  N   UNL A   1      41.454  29.763  31.308  1.00  0.00    -0.248 NA
ATOM     42  C   UNL A   1      39.372  28.785  31.639  1.00  0.00     0.031 C 
ATOM     43  C   UNL A   1      40.247  28.852  26.871  1.00  0.00     0.029 A 
ATOM     44  N   UNL A   1      41.901  28.427  28.275  1.00  0.00    -0.354 N 
ATOM     45  C   UNL A   1      41.343  29.339  32.630  1.00  0.00     0.074 A 
ATOM     46  C   UNL A   1      39.997  28.867  32.809  1.00  0.00     0.031 C 
ATOM     47  C   UNL A   1      41.068  27.968  26.263  1.00  0.00     0.029 A 
ATOM     48  C   UNL A   1      42.131  27.603  27.185  1.00  0.00     0.049 A 
ATOM     49  H   UNL A   1      42.559  28.563  28.994  1.00  0.00     0.167 HD
ATOM     50  C   UNL A   1      42.426  29.209  33.439  1.00  0.00     0.037 A 
ATOM     51  C   UNL A   1      43.058  26.618  27.113  1.00  0.00     0.037 A 
ATOM     52  C   UNL A   1      43.537  29.991  32.976  1.00  0.00     0.049 A 
ATOM     53  C   UNL A   1      44.033  26.839  28.216  1.00  0.00     0.074 A 
ATOM     54  C   UNL A   1      43.726  31.339  32.734  1.00  0.00     0.029 A 
ATOM     55  N   UNL A   1      44.571  29.352  32.338  1.00  0.00    -0.354 N 
ATOM     56  N   UNL A   1      44.889  27.822  28.252  1.00  0.00    -0.248 NA
ATOM     57  C   UNL A   1      43.752  26.215  29.503  1.00  0.00     0.031 C 
ATOM     58  C   UNL A   1      44.550  31.395  31.574  1.00  0.00     0.029 A 
ATOM     59  C   UNL A   1      44.841  30.081  31.207  1.00  0.00     0.049 A 
ATOM     60  H   UNL A   1      45.029  28.531  32.633  1.00  0.00     0.167 HD
ATOM     61  C   UNL A   1      44.935  28.209  29.584  1.00  0.00     0.074 A 
ATOM     62  C   UNL A   1      44.292  27.123  30.320  1.00  0.00     0.031 C 
ATOM     63  C   UNL A   1      45.223  29.494  29.946  1.00  0.00     0.037 A 
BRANCH  50  64
ATOM     64  C   UNL A   1      42.556  28.118  34.463  1.00  0.00     0.057 A 
ATOM     65  C   UNL A   1      42.875  26.815  34.053  1.00  0.00     0.134 A 
ATOM     66  C   UNL A   1      42.109  28.240  35.798  1.00  0.00     0.134 A 
ATOM     67  F   UNL A   1      43.285  26.569  32.800  1.00  0.00    -0.206 F 
ATOM     68  C   UNL A   1      42.709  25.707  34.892  1.00  0.00     0.040 A 
ATOM     69  C   UNL A   1      41.992  27.149  36.659  1.00  0.00     0.040 A 
ATOM     70  F   UNL A   1      41.669  29.400  36.303  1.00  0.00    -0.206 F 
ATOM     71  C   UNL A   1      42.263  25.871  36.198  1.00  0.00     0.006 A 
ENDBRANCH  50  64
BRANCH  51  72
ATOM     72  C   UNL A   1      43.006  25.363  26.329  1.00  0.00     0.057 A 
ATOM     73  C   UNL A   1      43.921  25.119  25.296  1.00  0.00     0.134 A 
ATOM     74  C   UNL A   1      42.205  24.270  26.709  1.00  0.00     0.134 A 
ATOM     75  F   UNL A   1      44.766  26.079  24.893  1.00  0.00    -0.206 F 
ATOM     76  C   UNL A   1      44.032  23.866  24.678  1.00  0.00     0.040 A 
ATOM     77  C   UNL A   1      42.292  23.019  26.088  1.00  0.00     0.040 A 
ATOM     78  F   UNL A   1      41.363  24.347  27.749  1.00  0.00    -0.206 F 
ATOM     79  C   UNL A   1      43.218  22.811  25.075  1.00  0.00     0.006 A 
ENDBRANCH  51  72
BRANCH  63  80
ATOM     80  C   UNL A   1      45.692  30.438  28.874  1.00  0.00     0.057 A 
ATOM     81  C   UNL A   1      47.034  30.560  28.483  1.00  0.00     0.134 A 
ATOM     82  C   UNL A   1      44.747  31.122  28.103  1.00  0.00     0.134 A 
ATOM     83  F   UNL A   1      47.997  29.851  29.080  1.00  0.00    -0.206 F 
ATOM     84  C   UNL A   1      47.424  31.370  27.413  1.00  0.00     0.040 A 
ATOM     85  C   UNL A   1      45.119  31.908  27.008  1.00  0.00     0.040 A 
ATOM     86  F   UNL A   1      43.437  31.000  28.371  1.00  0.00    -0.206 F 
ATOM     87  C   UNL A   1      46.463  32.045  26.668  1.00  0.00     0.006 A 
ENDBRANCH  63  80
ENDBRANCH  37  38
ENDBRANCH  30  32
ENDBRANCH  29  30
ENDBRANCH  28  29
ENDBRANCH   1  28
TORSDOF 14
ENDMDL
MODEL 2
REMARK VINA RESULT:     -12.7      2.363      8.151
REMARK SMILES Cc1nccn1C1(C(=O)OCCOC(=O)c2ccc(-c3c4nc(c(-c5c(F)cccc5F)c5ccc([nH]5)c(-c5c(F)cccc5F)c5nc(c(-c6c(F)cccc6F)c6ccc3[nH]6)C=C5)C=C4)cc2)CCN(C(=O)[C@@H]2C[C@H]2c2ccccc2)CC1
REMARK SMILES IDX 11 1 10 2 8 3 9 4 7 5 70 6 85 7 71 8 84 9 72 10 73 11 74 12
REMARK SMILES IDX 6 13 1 14 2 15 3 16 4 17 5 18 75 19 76 20 77 21 78 22 79 23
REMARK SMILES IDX 83 24 80 25 82 26 81 27 12 28 13 29 14 30 15 31 16 32 17 33
REMARK SMILES IDX 69 34 18 35 68 36 19 37 20 38 21 39 62 40 22 41 67 42 61 43
REMARK SMILES IDX 63 44 23 45 66 46 60 47 59 48 24 50 50 51 33 52 49 53 34 54
REMARK SMILES IDX 37 55 48 56 64 57 35 58 36 59 47 61 65 62 38 63 25 64 26 65
REMARK SMILES IDX 31 66 27 67 28 68 30 69 32 70 29 71 51 72 52 73 57 74 53 75
REMARK SMILES IDX 54 76 56 77 58 78 55 79 39 80 40 81 45 82 41 83 42 84 44 85
REMARK SMILES IDX 46 86 43 87
REMARK H PARENT 63 49 37 60
REMARK Flexibility Score: inf
ROOT
ATOM      1  C   UNL A   1      36.670  21.527  25.108  1.00  0.00     0.274 C 
ENDROOT
BRANCH   1   2
ATOM      2  O   UNL A   1      36.278  22.881  24.798  1.00  0.00    -0.460 OA
BRANCH   2   3
ATOM      3  C   UNL A   1      35.264  23.014  23.889  1.00  0.00     0.332 C 
ATOM      4  O   UNL A   1      35.510  23.214  22.702  1.00  0.00    -0.249 OA
BRANCH   3   5
ATOM      5  C   UNL A   1      33.829  23.094  24.538  1.00  0.00     0.146 C 
ATOM      6  C   UNL A   1      33.848  23.838  25.907  1.00  0.00     0.062 C 
ATOM      7  C   UNL A   1      33.171  23.931  23.438  1.00  0.00     0.062 C 
ATOM      8  C   UNL A   1      32.746  24.861  26.196  1.00  0.00     0.122 C 
ATOM      9  C   UNL A   1      31.930  24.645  23.858  1.00  0.00     0.122 C 
ATOM     10  N   UNL A   1      32.116  25.471  25.034  1.00  0.00    -0.342 N 
ATOM     11  C   UNL A   1      31.421  26.667  25.253  1.00  0.00     0.226 C 
ATOM     12  O   UNL A   1      31.255  27.133  26.378  1.00  0.00    -0.275 OA
BRANCH   5  13
ATOM     13  N   UNL A   1      33.155  21.748  24.626  1.00  0.00    -0.318 N 
ATOM     14  C   UNL A   1      32.105  21.340  22.265  1.00  0.00     0.087 C 
ATOM     15  C   UNL A   1      32.513  20.979  23.646  1.00  0.00     0.106 A 
ATOM     16  N   UNL A   1      32.225  19.772  24.098  1.00  0.00    -0.242 NA
ATOM     17  C   UNL A   1      32.600  19.739  25.393  1.00  0.00     0.131 A 
ATOM     18  C   UNL A   1      33.129  20.946  25.755  1.00  0.00     0.108 A 
ENDBRANCH   5  13
BRANCH  11  19
ATOM     19  C   UNL A   1      31.027  27.517  24.097  1.00  0.00     0.087 C 
ATOM     20  C   UNL A   1      32.033  28.232  23.235  1.00  0.00     0.023 C 
ATOM     21  C   UNL A   1      31.075  29.036  24.055  1.00  0.00     0.032 C 
BRANCH  21  22
ATOM     22  C   UNL A   1      29.821  29.735  23.557  1.00  0.00    -0.044 A 
ATOM     23  C   UNL A   1      29.045  29.174  22.534  1.00  0.00     0.004 A 
ATOM     24  C   UNL A   1      29.458  31.028  23.996  1.00  0.00     0.004 A 
ATOM     25  C   UNL A   1      27.969  29.868  21.969  1.00  0.00     0.000 A 
ATOM     26  C   UNL A   1      28.376  31.721  23.445  1.00  0.00     0.000 A 
ATOM     27  C   UNL A   1      27.636  31.141  22.423  1.00  0.00     0.000 A 
ENDBRANCH  21  22
ENDBRANCH  11  19
ENDBRANCH   3   5
ENDBRANCH   2   3
ENDBRANCH   1   2
BRANCH   1  28
ATOM     28  C   UNL A   1      38.146  21.446  25.488  1.00  0.00     0.275 C 
BRANCH  28  29
ATOM     29  O   UNL A   1      38.647  22.681  26.006  1.00  0.00    -0.458 OA
BRANCH  29  30
ATOM     30  C   UNL A   1      39.790  22.532  26.707  1.00  0.00     0.338 C 
ATOM     31  O   UNL A   1      40.153  21.558  27.345  1.00  0.00    -0.246 OA
BRANCH  30  32
ATOM     32  C   UNL A   1      40.492  23.793  26.848  1.00  0.00     0.060 A 
ATOM     33  C   UNL A   1      41.586  23.809  27.722  1.00  0.00     0.016 A 
ATOM     34  C   UNL A   1      39.777  24.941  26.499  1.00  0.00     0.016 A 
ATOM     35  C   UNL A   1      41.866  24.976  28.391  1.00  0.00     0.010 A 
ATOM     36  C   UNL A   1      40.051  26.098  27.177  1.00  0.00     0.010 A 
ATOM     37  C   UNL A   1      41.041  26.079  28.164  1.00  0.00    -0.014 A 
BRANCH  37  38
ATOM     38  C   UNL A   1      41.300  27.289  28.914  1.00  0.00     0.031 A 
ATOM     39  C   UNL A   1      42.518  28.017  28.477  1.00  0.00     0.074 A 
ATOM     40  C   UNL A   1      40.370  27.786  29.748  1.00  0.00     0.049 A 
ATOM     41  N   UNL A   1      43.468  28.512  29.199  1.00  0.00    -0.248 NA
ATOM     42  C   UNL A   1      42.750  28.125  27.023  1.00  0.00     0.031 C 
ATOM     43  C   UNL A   1      39.015  27.284  29.997  1.00  0.00     0.029 A 
ATOM     44  N   UNL A   1      40.389  28.962  30.424  1.00  0.00    -0.354 N 
ATOM     45  C   UNL A   1      44.337  29.131  28.304  1.00  0.00     0.074 A 
ATOM     46  C   UNL A   1      43.922  28.750  26.982  1.00  0.00     0.031 C 
ATOM     47  C   UNL A   1      38.276  28.273  30.546  1.00  0.00     0.029 A 
ATOM     48  C   UNL A   1      39.131  29.427  30.772  1.00  0.00     0.049 A 
ATOM     49  H   UNL A   1      41.219  29.441  30.646  1.00  0.00     0.167 HD
ATOM     50  C   UNL A   1      45.217  30.087  28.698  1.00  0.00     0.037 A 
ATOM     51  C   UNL A   1      38.817  30.702  31.105  1.00  0.00     0.037 A 
ATOM     52  C   UNL A   1      45.489  30.017  30.106  1.00  0.00     0.049 A 
ATOM     53  C   UNL A   1      40.088  31.408  31.424  1.00  0.00     0.074 A 
ATOM     54  C   UNL A   1      45.995  29.035  30.937  1.00  0.00     0.029 A 
ATOM     55  N   UNL A   1      44.898  30.936  30.937  1.00  0.00    -0.354 N 
ATOM     56  N   UNL A   1      40.812  31.171  32.483  1.00  0.00    -0.248 NA
ATOM     57  C   UNL A   1      40.788  32.071  30.330  1.00  0.00     0.031 C 
ATOM     58  C   UNL A   1      45.257  29.159  32.149  1.00  0.00     0.029 A 
ATOM     59  C   UNL A   1      44.377  30.230  31.992  1.00  0.00     0.049 A 
ATOM     60  H   UNL A   1      44.855  31.911  30.803  1.00  0.00     0.167 HD
ATOM     61  C   UNL A   1      42.127  31.268  32.046  1.00  0.00     0.074 A 
ATOM     62  C   UNL A   1      42.050  31.919  30.741  1.00  0.00     0.031 C 
ATOM     63  C   UNL A   1      43.130  30.556  32.639  1.00  0.00     0.037 A 
BRANCH  50  64
ATOM     64  C   UNL A   1      45.570  31.275  27.849  1.00  0.00     0.057 A 
ATOM     65  C   UNL A   1      46.898  31.466  27.439  1.00  0.00     0.134 A 
ATOM     66  C   UNL A   1      44.712  32.380  27.653  1.00  0.00     0.134 A 
ATOM     67  F   UNL A   1      47.813  30.499  27.599  1.00  0.00    -0.206 F 
ATOM     68  C   UNL A   1      47.352  32.685  26.924  1.00  0.00     0.040 A 
ATOM     69  C   UNL A   1      45.142  33.582  27.090  1.00  0.00     0.040 A 
ATOM     70  F   UNL A   1      43.445  32.389  28.087  1.00  0.00    -0.206 F 
ATOM     71  C   UNL A   1      46.474  33.749  26.751  1.00  0.00     0.006 A 
ENDBRANCH  50  64
BRANCH  51  72
ATOM     72  C   UNL A   1      37.534  31.413  30.908  1.00  0.00     0.057 A 
ATOM     73  C   UNL A   1      37.088  31.756  29.625  1.00  0.00     0.134 A 
ATOM     74  C   UNL A   1      36.599  31.582  31.946  1.00  0.00     0.134 A 
ATOM     75  F   UNL A   1      37.883  31.585  28.559  1.00  0.00    -0.206 F 
ATOM     76  C   UNL A   1      35.793  32.238  29.388  1.00  0.00     0.040 A 
ATOM     77  C   UNL A   1      35.310  32.080  31.727  1.00  0.00     0.040 A 
ATOM     78  F   UNL A   1      36.870  31.197  33.201  1.00  0.00    -0.206 F 
ATOM     79  C   UNL A   1      34.899  32.399  30.441  1.00  0.00     0.006 A 
ENDBRANCH  51  72
BRANCH  63  80
ATOM     80  C   UNL A   1      42.814  29.819  33.911  1.00  0.00     0.057 A 
ATOM     81  C   UNL A   1      42.878  30.407  35.183  1.00  0.00     0.134 A 
ATOM     82  C   UNL A   1      42.273  28.532  33.839  1.00  0.00     0.134 A 
ATOM     83  F   UNL A   1      43.267  31.676  35.341  1.00  0.00    -0.206 F 
ATOM     84  C   UNL A   1      42.478  29.725  36.336  1.00  0.00     0.040 A 
ATOM     85  C   UNL A   1      41.836  27.852  34.979  1.00  0.00     0.040 A 
ATOM     86  F   UNL A   1      42.113  27.929  32.650  1.00  0.00    -0.206 F 
ATOM     87  C   UNL A   1      41.950  28.443  36.236  1.00  0.00     0.006 A 
ENDBRANCH  63  80
ENDBRANCH  37  38
ENDBRANCH  30  32
ENDBRANCH  29  30
ENDBRANCH  28  29
ENDBRANCH   1  28
TORSDOF 14
ENDMDL
MODEL 3
REMARK VINA RESULT:     -12.7      2.635      7.726
REMARK SMILES Cc1nccn1C1(C(=O)OCCOC(=O)c2ccc(-c3c4nc(c(-c5c(F)cccc5F)c5ccc([nH]5)c(-c5c(F)cccc5F)c5nc(c(-c6c(F)cccc6F)c6ccc3[nH]6)C=C5)C=C4)cc2)CCN(C(=O)[C@@H]2C[C@H]2c2ccccc2)CC1
REMARK SMILES IDX 11 1 10 2 8 3 9 4 7 5 70 6 85 7 71 8 84 9 72 10 73 11 74 12
REMARK SMILES IDX 6 13 1 14 2 15 3 16 4 17 5 18 75 19 76 20 77 21 78 22 79 23
REMARK SMILES IDX 83 24 80 25 82 26 81 27 12 28 13 29 14 30 15 31 16 32 17 33
REMARK SMILES IDX 69 34 18 35 68 36 19 37 20 38 21 39 62 40 22 41 67 42 61 43
REMARK SMILES IDX 63 44 23 45 66 46 60 47 59 48 24 50 50 51 33 52 49 53 34 54
REMARK SMILES IDX 37 55 48 56 64 57 35 58 36 59 47 61 65 62 38 63 25 64 26 65
REMARK SMILES IDX 31 66 27 67 28 68 30 69 32 70 29 71 51 72 52 73 57 74 53 75
REMARK SMILES IDX 54 76 56 77 58 78 55 79 39 80 40 81 45 82 41 83 42 84 44 85
REMARK SMILES IDX 46 86 43 87
REMARK H PARENT 63 49 37 60
REMARK Flexibility Score: inf
ROOT
ATOM      1  C   UNL A   1      37.266  21.555  24.543  1.00  0.00     0.274 C 
ENDROOT
BRANCH   1   2
ATOM      2  O   UNL A   1      36.305  22.551  24.953  1.00  0.00    -0.460 OA
BRANCH   2   3
ATOM      3  C   UNL A   1      35.316  22.830  24.050  1.00  0.00     0.332 C 
ATOM      4  O   UNL A   1      35.593  23.204  22.913  1.00  0.00    -0.249 OA
BRANCH   3   5
ATOM      5  C   UNL A   1      33.864  22.826  24.667  1.00  0.00     0.146 C 
ATOM      6  C   UNL A   1      33.813  23.557  26.042  1.00  0.00     0.062 C 
ATOM      7  C   UNL A   1      33.186  23.636  23.559  1.00  0.00     0.062 C 
ATOM      8  C   UNL A   1      32.651  24.516  26.315  1.00  0.00     0.122 C 
ATOM      9  C   UNL A   1      31.899  24.277  23.957  1.00  0.00     0.122 C 
ATOM     10  N   UNL A   1      32.015  25.101  25.144  1.00  0.00    -0.342 N 
ATOM     11  C   UNL A   1      31.251  26.256  25.357  1.00  0.00     0.226 C 
ATOM     12  O   UNL A   1      31.035  26.702  26.482  1.00  0.00    -0.275 OA
BRANCH   5  13
ATOM     13  N   UNL A   1      33.263  21.444  24.729  1.00  0.00    -0.318 N 
ATOM     14  C   UNL A   1      32.113  21.081  22.408  1.00  0.00     0.087 C 
ATOM     15  C   UNL A   1      32.610  20.685  23.749  1.00  0.00     0.106 A 
ATOM     16  N   UNL A   1      32.406  19.447  24.162  1.00  0.00    -0.242 NA
ATOM     17  C   UNL A   1      32.848  19.379  25.434  1.00  0.00     0.131 A 
ATOM     18  C   UNL A   1      33.335  20.596  25.821  1.00  0.00     0.108 A 
ENDBRANCH   5  13
BRANCH  11  19
ATOM     19  C   UNL A   1      30.836  27.093  24.199  1.00  0.00     0.087 C 
ATOM     20  C   UNL A   1      31.815  27.609  23.178  1.00  0.00     0.023 C 
ATOM     21  C   UNL A   1      31.088  28.586  24.047  1.00  0.00     0.032 C 
BRANCH  21  22
ATOM     22  C   UNL A   1      29.892  29.434  23.653  1.00  0.00    -0.044 A 
ATOM     23  C   UNL A   1      29.822  30.786  24.012  1.00  0.00     0.004 A 
ATOM     24  C   UNL A   1      28.748  28.879  23.037  1.00  0.00     0.004 A 
ATOM     25  C   UNL A   1      28.669  31.545  23.780  1.00  0.00     0.000 A 
ATOM     26  C   UNL A   1      27.598  29.634  22.790  1.00  0.00     0.000 A 
ATOM     27  C   UNL A   1      27.557  30.969  23.171  1.00  0.00     0.000 A 
ENDBRANCH  21  22
ENDBRANCH  11  19
ENDBRANCH   3   5
ENDBRANCH   2   3
ENDBRANCH   1   2
BRANCH   1  28
ATOM     28  C   UNL A   1      38.539  21.630  25.381  1.00  0.00     0.275 C 
BRANCH  28  29
ATOM     29  O   UNL A   1      38.801  20.416  26.091  1.00  0.00    -0.458 OA
BRANCH  29  30
ATOM     30  C   UNL A   1      40.047  19.944  25.886  1.00  0.00     0.338 C 
ATOM     31  O   UNL A   1      40.369  18.873  25.399  1.00  0.00    -0.246 OA
BRANCH  30  32
ATOM     32  C   UNL A   1      41.040  20.763  26.555  1.00  0.00     0.060 A 
ATOM     33  C   UNL A   1      40.942  20.857  27.948  1.00  0.00     0.016 A 
ATOM     34  C   UNL A   1      41.681  21.722  25.767  1.00  0.00     0.016 A 
ATOM     35  C   UNL A   1      41.350  22.022  28.551  1.00  0.00     0.010 A 
ATOM     36  C   UNL A   1      42.075  22.886  26.371  1.00  0.00     0.010 A 
ATOM     37  C   UNL A   1      41.837  23.048  27.739  1.00  0.00    -0.014 A 
BRANCH  37  38
ATOM     38  C   UNL A   1      42.211  24.295  28.368  1.00  0.00     0.031 A 
ATOM     39  C   UNL A   1      41.196  25.370  28.222  1.00  0.00     0.074 A 
ATOM     40  C   UNL A   1      43.269  24.352  29.195  1.00  0.00     0.049 A 
ATOM     41  N   UNL A   1      41.368  26.603  27.877  1.00  0.00    -0.248 NA
ATOM     42  C   UNL A   1      39.782  24.985  28.396  1.00  0.00     0.031 C 
ATOM     43  C   UNL A   1      44.138  23.253  29.631  1.00  0.00     0.029 A 
ATOM     44  N   UNL A   1      43.683  25.390  29.964  1.00  0.00    -0.354 N 
ATOM     45  C   UNL A   1      40.107  27.190  27.944  1.00  0.00     0.074 A 
ATOM     46  C   UNL A   1      39.157  26.129  28.135  1.00  0.00     0.031 C 
ATOM     47  C   UNL A   1      44.785  23.627  30.756  1.00  0.00     0.029 A 
ATOM     48  C   UNL A   1      44.449  25.010  31.053  1.00  0.00     0.049 A 
ATOM     49  H   UNL A   1      43.459  26.328  29.765  1.00  0.00     0.167 HD
ATOM     50  C   UNL A   1      39.942  28.534  28.047  1.00  0.00     0.037 A 
ATOM     51  C   UNL A   1      44.680  25.752  32.163  1.00  0.00     0.037 A 
ATOM     52  C   UNL A   1      41.099  29.252  27.591  1.00  0.00     0.049 A 
ATOM     53  C   UNL A   1      44.324  27.161  31.841  1.00  0.00     0.074 A 
ATOM     54  C   UNL A   1      41.783  29.304  26.390  1.00  0.00     0.029 A 
ATOM     55  N   UNL A   1      41.946  29.795  28.524  1.00  0.00    -0.354 N 
ATOM     56  N   UNL A   1      45.004  27.923  31.030  1.00  0.00    -0.248 NA
ATOM     57  C   UNL A   1      42.949  27.583  32.080  1.00  0.00     0.031 C 
ATOM     58  C   UNL A   1      43.156  29.405  26.751  1.00  0.00     0.029 A 
ATOM     59  C   UNL A   1      43.218  29.446  28.144  1.00  0.00     0.049 A 
ATOM     60  H   UNL A   1      41.692  30.330  29.311  1.00  0.00     0.167 HD
ATOM     61  C   UNL A   1      44.048  28.660  30.344  1.00  0.00     0.074 A 
ATOM     62  C   UNL A   1      42.811  28.481  31.100  1.00  0.00     0.031 C 
ATOM     63  C   UNL A   1      44.269  29.109  29.073  1.00  0.00     0.037 A 
BRANCH  50  64
ATOM     64  C   UNL A   1      38.850  29.165  28.863  1.00  0.00     0.057 A 
ATOM     65  C   UNL A   1      38.756  28.883  30.234  1.00  0.00     0.134 A 
ATOM     66  C   UNL A   1      37.728  29.815  28.301  1.00  0.00     0.134 A 
ATOM     67  F   UNL A   1      39.746  28.245  30.874  1.00  0.00    -0.206 F 
ATOM     68  C   UNL A   1      37.608  29.176  30.980  1.00  0.00     0.040 A 
ATOM     69  C   UNL A   1      36.601  30.160  29.047  1.00  0.00     0.040 A 
ATOM     70  F   UNL A   1      37.624  30.056  26.987  1.00  0.00    -0.206 F 
ATOM     71  C   UNL A   1      36.524  29.813  30.386  1.00  0.00     0.006 A 
ENDBRANCH  50  64
BRANCH  51  72
ATOM     72  C   UNL A   1      44.931  25.285  33.544  1.00  0.00     0.057 A 
ATOM     73  C   UNL A   1      43.872  24.922  34.388  1.00  0.00     0.134 A 
ATOM     74  C   UNL A   1      46.221  24.966  34.010  1.00  0.00     0.134 A 
ATOM     75  F   UNL A   1      42.602  25.135  34.015  1.00  0.00    -0.206 F 
ATOM     76  C   UNL A   1      44.081  24.284  35.617  1.00  0.00     0.040 A 
ATOM     77  C   UNL A   1      46.445  24.346  35.244  1.00  0.00     0.040 A 
ATOM     78  F   UNL A   1      47.308  25.171  33.253  1.00  0.00    -0.206 F 
ATOM     79  C   UNL A   1      45.371  23.992  36.048  1.00  0.00     0.006 A 
ENDBRANCH  51  72
BRANCH  63  80
ATOM     80  C   UNL A   1      45.653  28.964  28.506  1.00  0.00     0.057 A 
ATOM     81  C   UNL A   1      46.093  27.821  27.819  1.00  0.00     0.134 A 
ATOM     82  C   UNL A   1      46.513  30.066  28.508  1.00  0.00     0.134 A 
ATOM     83  F   UNL A   1      45.296  26.760  27.658  1.00  0.00    -0.206 F 
ATOM     84  C   UNL A   1      47.351  27.759  27.214  1.00  0.00     0.040 A 
ATOM     85  C   UNL A   1      47.759  30.030  27.876  1.00  0.00     0.040 A 
ATOM     86  F   UNL A   1      46.135  31.219  29.084  1.00  0.00    -0.206 F 
ATOM     87  C   UNL A   1      48.188  28.868  27.238  1.00  0.00     0.006 A 
ENDBRANCH  63  80
ENDBRANCH  37  38
ENDBRANCH  30  32
ENDBRANCH  29  30
ENDBRANCH  28  29
ENDBRANCH   1  28
TORSDOF 14
ENDMDL
