MODEL 1
REMARK VINA RESULT:     -10.1      0.000      0.000
REMARK SMILES Cc1cc(C)c2c(O[C@@H](C)C(=O)OCCOC(=O)c3ccc(-c4c5nc(c(-c6c(F)cccc6F)c6ccc([nH]6)c(-c6c(F)cccc6F)c6nc(c(-c7c(F)cccc7F)c7ccc4[nH]7)C=C6)C=C5)cc3)nsc2n1
REMARK SMILES IDX 14 1 13 2 11 3 12 4 9 5 10 6 8 7 7 8 1 9 2 10 3 11 76 12
REMARK SMILES IDX 4 13 75 14 5 15 6 16 74 17 73 18 15 19 16 20 17 21 18 22
REMARK SMILES IDX 19 23 20 24 72 25 21 26 71 27 22 28 23 29 24 30 65 31 25 32
REMARK SMILES IDX 70 33 64 34 66 35 26 36 69 37 63 38 62 39 27 41 53 42 36 43
REMARK SMILES IDX 52 44 37 45 40 46 51 47 67 48 38 49 39 50 50 52 68 53 41 54
REMARK SMILES IDX 28 55 29 56 34 57 30 58 31 59 33 60 35 61 32 62 54 63 55 64
REMARK SMILES IDX 60 65 56 66 57 67 59 68 61 69 58 70 42 71 43 72 48 73 44 74
REMARK SMILES IDX 45 75 47 76 49 77 46 78
REMARK H PARENT 66 40 40 51
REMARK Flexibility Score: inf
ROOT
ATOM      1  C   UNL A   1      34.572  34.715  33.673  1.00  0.00     0.274 C 
ENDROOT
BRANCH   1   2
ATOM      2  O   UNL A   1      35.876  35.210  34.024  1.00  0.00    -0.459 OA
BRANCH   2   3
ATOM      3  C   UNL A   1      36.977  34.440  33.846  1.00  0.00     0.347 C 
ATOM      4  O   UNL A   1      37.683  34.466  32.843  1.00  0.00    -0.248 OA
BRANCH   3   5
ATOM      5  C   UNL A   1      37.241  33.516  35.063  1.00  0.00     0.281 C 
ATOM      6  C   UNL A   1      37.398  32.043  34.686  1.00  0.00     0.066 C 
BRANCH   5   7
ATOM      7  O   UNL A   1      36.586  33.506  36.300  1.00  0.00    -0.462 OA
BRANCH   7   8
ATOM      8  C   UNL A   1      37.241  33.329  37.466  1.00  0.00     0.236 A 
ATOM      9  C   UNL A   1      41.776  34.224  40.774  1.00  0.00     0.067 C 
ATOM     10  C   UNL A   1      40.614  34.113  39.835  1.00  0.00     0.039 A 
ATOM     11  C   UNL A   1      40.575  34.907  38.703  1.00  0.00     0.027 A 
ATOM     12  N   UNL A   1      39.640  33.265  40.169  1.00  0.00    -0.240 NA
ATOM     13  C   UNL A   1      39.481  34.866  37.810  1.00  0.00    -0.034 A 
ATOM     14  C   UNL A   1      38.628  33.189  39.286  1.00  0.00     0.147 A 
ATOM     15  C   UNL A   1      39.618  35.828  36.652  1.00  0.00     0.045 C 
ATOM     16  C   UNL A   1      38.452  33.893  38.082  1.00  0.00     0.078 A 
ATOM     17  S   UNL A   1      37.331  32.135  39.582  1.00  0.00    -0.012 S 
ATOM     18  N   UNL A   1      36.531  32.466  38.195  1.00  0.00    -0.153 NA
ENDBRANCH   7   8
ENDBRANCH   5   7
ENDBRANCH   3   5
ENDBRANCH   2   3
ENDBRANCH   1   2
BRANCH   1  19
ATOM     19  C   UNL A   1      34.034  35.524  32.510  1.00  0.00     0.275 C 
BRANCH  19  20
ATOM     20  O   UNL A   1      33.269  34.654  31.685  1.00  0.00    -0.458 OA
BRANCH  20  21
ATOM     21  C   UNL A   1      33.387  34.875  30.358  1.00  0.00     0.338 C 
ATOM     22  O   UNL A   1      32.749  35.645  29.663  1.00  0.00    -0.246 OA
BRANCH  21  23
ATOM     23  C   UNL A   1      34.324  33.901  29.810  1.00  0.00     0.060 A 
ATOM     24  C   UNL A   1      34.659  32.844  30.658  1.00  0.00     0.016 A 
ATOM     25  C   UNL A   1      35.095  34.263  28.697  1.00  0.00     0.016 A 
ATOM     26  C   UNL A   1      35.925  32.333  30.554  1.00  0.00     0.010 A 
ATOM     27  C   UNL A   1      36.366  33.770  28.611  1.00  0.00     0.010 A 
ATOM     28  C   UNL A   1      36.786  32.890  29.601  1.00  0.00    -0.014 A 
BRANCH  28  29
ATOM     29  C   UNL A   1      38.154  32.450  29.612  1.00  0.00     0.031 A 
ATOM     30  C   UNL A   1      38.274  31.021  29.274  1.00  0.00     0.074 A 
ATOM     31  C   UNL A   1      39.177  33.294  29.824  1.00  0.00     0.049 A 
ATOM     32  N   UNL A   1      38.612  30.053  30.056  1.00  0.00    -0.248 NA
ATOM     33  C   UNL A   1      37.753  30.597  27.964  1.00  0.00     0.031 C 
ATOM     34  C   UNL A   1      39.166  34.758  29.877  1.00  0.00     0.029 A 
ATOM     35  N   UNL A   1      40.492  32.991  29.950  1.00  0.00    -0.354 N 
ATOM     36  C   UNL A   1      38.547  28.913  29.266  1.00  0.00     0.074 A 
ATOM     37  C   UNL A   1      37.826  29.272  28.075  1.00  0.00     0.031 C 
ATOM     38  C   UNL A   1      40.440  35.212  29.798  1.00  0.00     0.029 A 
ATOM     39  C   UNL A   1      41.346  34.077  29.829  1.00  0.00     0.049 A 
ATOM     40  H   UNL A   1      40.814  32.076  30.113  1.00  0.00     0.167 HD
ATOM     41  C   UNL A   1      39.338  27.842  29.528  1.00  0.00     0.037 A 
ATOM     42  C   UNL A   1      42.690  33.993  29.681  1.00  0.00     0.037 A 
ATOM     43  C   UNL A   1      39.828  27.869  30.882  1.00  0.00     0.049 A 
ATOM     44  C   UNL A   1      43.097  32.634  30.128  1.00  0.00     0.074 A 
ATOM     45  C   UNL A   1      39.239  27.833  32.130  1.00  0.00     0.029 A 
ATOM     46  N   UNL A   1      41.105  28.331  31.081  1.00  0.00    -0.354 N 
ATOM     47  N   UNL A   1      43.052  32.228  31.365  1.00  0.00    -0.248 NA
ATOM     48  C   UNL A   1      43.153  31.578  29.128  1.00  0.00     0.031 C 
ATOM     49  C   UNL A   1      40.036  28.688  32.947  1.00  0.00     0.029 A 
ATOM     50  C   UNL A   1      41.091  29.166  32.167  1.00  0.00     0.049 A 
ATOM     51  H   UNL A   1      41.895  28.102  30.538  1.00  0.00     0.167 HD
ATOM     52  C   UNL A   1      42.652  30.901  31.290  1.00  0.00     0.074 A 
ATOM     53  C   UNL A   1      42.832  30.530  29.889  1.00  0.00     0.031 C 
ATOM     54  C   UNL A   1      41.946  30.324  32.307  1.00  0.00     0.037 A 
BRANCH  41  55
ATOM     55  C   UNL A   1      39.975  27.020  28.440  1.00  0.00     0.057 A 
ATOM     56  C   UNL A   1      40.782  27.656  27.486  1.00  0.00     0.134 A 
ATOM     57  C   UNL A   1      39.608  25.691  28.126  1.00  0.00     0.134 A 
ATOM     58  F   UNL A   1      41.170  28.930  27.655  1.00  0.00    -0.206 F 
ATOM     59  C   UNL A   1      41.151  27.037  26.287  1.00  0.00     0.040 A 
ATOM     60  C   UNL A   1      40.020  25.045  26.961  1.00  0.00     0.040 A 
ATOM     61  F   UNL A   1      38.751  24.981  28.871  1.00  0.00    -0.206 F 
ATOM     62  C   UNL A   1      40.769  25.728  26.020  1.00  0.00     0.006 A 
ENDBRANCH  41  55
BRANCH  42  63
ATOM     63  C   UNL A   1      43.589  34.833  28.857  1.00  0.00     0.057 A 
ATOM     64  C   UNL A   1      44.902  35.090  29.282  1.00  0.00     0.134 A 
ATOM     65  C   UNL A   1      43.304  35.135  27.515  1.00  0.00     0.134 A 
ATOM     66  F   UNL A   1      45.277  34.809  30.539  1.00  0.00    -0.206 F 
ATOM     67  C   UNL A   1      45.889  35.561  28.409  1.00  0.00     0.040 A 
ATOM     68  C   UNL A   1      44.280  35.615  26.635  1.00  0.00     0.040 A 
ATOM     69  F   UNL A   1      42.100  34.882  26.984  1.00  0.00    -0.206 F 
ATOM     70  C   UNL A   1      45.583  35.809  27.075  1.00  0.00     0.006 A 
ENDBRANCH  42  63
BRANCH  54  71
ATOM     71  C   UNL A   1      41.864  31.082  33.605  1.00  0.00     0.057 A 
ATOM     72  C   UNL A   1      40.953  32.120  33.856  1.00  0.00     0.134 A 
ATOM     73  C   UNL A   1      42.650  30.660  34.682  1.00  0.00     0.134 A 
ATOM     74  F   UNL A   1      40.092  32.529  32.914  1.00  0.00    -0.206 F 
ATOM     75  C   UNL A   1      40.863  32.739  35.106  1.00  0.00     0.040 A 
ATOM     76  C   UNL A   1      42.545  31.245  35.947  1.00  0.00     0.040 A 
ATOM     77  F   UNL A   1      43.506  29.636  34.534  1.00  0.00    -0.206 F 
ATOM     78  C   UNL A   1      41.657  32.297  36.160  1.00  0.00     0.006 A 
ENDBRANCH  54  71
ENDBRANCH  28  29
ENDBRANCH  21  23
ENDBRANCH  20  21
ENDBRANCH  19  20
ENDBRANCH   1  19
TORSDOF 13
ENDMDL
MODEL 2
REMARK VINA RESULT:     -10.0      2.913      6.765
REMARK SMILES Cc1cc(C)c2c(O[C@@H](C)C(=O)OCCOC(=O)c3ccc(-c4c5nc(c(-c6c(F)cccc6F)c6ccc([nH]6)c(-c6c(F)cccc6F)c6nc(c(-c7c(F)cccc7F)c7ccc4[nH]7)C=C6)C=C5)cc3)nsc2n1
REMARK SMILES IDX 14 1 13 2 11 3 12 4 9 5 10 6 8 7 7 8 1 9 2 10 3 11 76 12
REMARK SMILES IDX 4 13 75 14 5 15 6 16 74 17 73 18 15 19 16 20 17 21 18 22
REMARK SMILES IDX 19 23 20 24 72 25 21 26 71 27 22 28 23 29 24 30 65 31 25 32
REMARK SMILES IDX 70 33 64 34 66 35 26 36 69 37 63 38 62 39 27 41 53 42 36 43
REMARK SMILES IDX 52 44 37 45 40 46 51 47 67 48 38 49 39 50 50 52 68 53 41 54
REMARK SMILES IDX 28 55 29 56 34 57 30 58 31 59 33 60 35 61 32 62 54 63 55 64
REMARK SMILES IDX 60 65 56 66 57 67 59 68 61 69 58 70 42 71 43 72 48 73 44 74
REMARK SMILES IDX 45 75 47 76 49 77 46 78
REMARK H PARENT 66 40 40 51
REMARK Flexibility Score: inf
ROOT
ATOM      1  C   UNL A   1      34.756  33.996  30.230  1.00  0.00     0.274 C 
ENDROOT
BRANCH   1   2
ATOM      2  O   UNL A   1      34.381  32.890  31.069  1.00  0.00    -0.459 OA
BRANCH   2   3
ATOM      3  C   UNL A   1      34.343  33.030  32.418  1.00  0.00     0.347 C 
ATOM      4  O   UNL A   1      33.361  33.414  33.044  1.00  0.00    -0.248 OA
BRANCH   3   5
ATOM      5  C   UNL A   1      35.692  32.647  33.078  1.00  0.00     0.281 C 
ATOM      6  C   UNL A   1      36.222  31.284  32.633  1.00  0.00     0.066 C 
BRANCH   5   7
ATOM      7  O   UNL A   1      36.059  32.757  34.424  1.00  0.00    -0.462 OA
BRANCH   7   8
ATOM      8  C   UNL A   1      37.332  32.977  34.814  1.00  0.00     0.236 A 
ATOM      9  C   UNL A   1      42.674  34.505  33.615  1.00  0.00     0.067 C 
ATOM     10  C   UNL A   1      41.224  34.184  33.817  1.00  0.00     0.039 A 
ATOM     11  C   UNL A   1      40.320  34.454  32.807  1.00  0.00     0.027 A 
ATOM     12  N   UNL A   1      40.872  33.681  35.002  1.00  0.00    -0.240 NA
ATOM     13  C   UNL A   1      38.938  34.206  32.967  1.00  0.00    -0.034 A 
ATOM     14  C   UNL A   1      39.564  33.394  35.128  1.00  0.00     0.147 A 
ATOM     15  C   UNL A   1      38.117  34.594  31.759  1.00  0.00     0.045 C 
ATOM     16  C   UNL A   1      38.527  33.572  34.196  1.00  0.00     0.078 A 
ATOM     17  S   UNL A   1      38.985  32.732  36.580  1.00  0.00    -0.012 S 
ATOM     18  N   UNL A   1      37.434  32.583  36.084  1.00  0.00    -0.153 NA
ENDBRANCH   7   8
ENDBRANCH   5   7
ENDBRANCH   3   5
ENDBRANCH   2   3
ENDBRANCH   1   2
BRANCH   1  19
ATOM     19  C   UNL A   1      34.470  33.637  28.785  1.00  0.00     0.275 C 
BRANCH  19  20
ATOM     20  O   UNL A   1      35.650  33.069  28.232  1.00  0.00    -0.458 OA
BRANCH  20  21
ATOM     21  C   UNL A   1      35.604  31.733  28.037  1.00  0.00     0.338 C 
ATOM     22  O   UNL A   1      34.840  31.101  27.332  1.00  0.00    -0.246 OA
BRANCH  21  23
ATOM     23  C   UNL A   1      36.542  31.101  28.958  1.00  0.00     0.060 A 
ATOM     24  C   UNL A   1      37.692  31.836  29.246  1.00  0.00     0.016 A 
ATOM     25  C   UNL A   1      36.443  29.720  29.174  1.00  0.00     0.016 A 
ATOM     26  C   UNL A   1      38.844  31.134  29.482  1.00  0.00     0.010 A 
ATOM     27  C   UNL A   1      37.597  29.020  29.383  1.00  0.00     0.010 A 
ATOM     28  C   UNL A   1      38.787  29.737  29.433  1.00  0.00    -0.014 A 
BRANCH  28  29
ATOM     29  C   UNL A   1      40.032  29.023  29.527  1.00  0.00     0.031 A 
ATOM     30  C   UNL A   1      40.492  28.905  30.921  1.00  0.00     0.074 A 
ATOM     31  C   UNL A   1      40.623  28.471  28.455  1.00  0.00     0.049 A 
ATOM     32  N   UNL A   1      41.506  29.486  31.467  1.00  0.00    -0.248 NA
ATOM     33  C   UNL A   1      39.595  28.222  31.868  1.00  0.00     0.031 C 
ATOM     34  C   UNL A   1      40.093  28.293  27.101  1.00  0.00     0.029 A 
ATOM     35  N   UNL A   1      41.831  27.858  28.397  1.00  0.00    -0.354 N 
ATOM     36  C   UNL A   1      41.491  29.068  32.791  1.00  0.00     0.074 A 
ATOM     37  C   UNL A   1      40.202  28.474  33.026  1.00  0.00     0.031 C 
ATOM     38  C   UNL A   1      40.885  27.422  26.429  1.00  0.00     0.029 A 
ATOM     39  C   UNL A   1      42.035  27.100  27.255  1.00  0.00     0.049 A 
ATOM     40  H   UNL A   1      42.506  27.944  29.107  1.00  0.00     0.167 HD
ATOM     41  C   UNL A   1      42.641  28.986  33.505  1.00  0.00     0.037 A 
ATOM     42  C   UNL A   1      43.049  26.216  27.082  1.00  0.00     0.037 A 
ATOM     43  C   UNL A   1      43.685  29.783  32.914  1.00  0.00     0.049 A 
ATOM     44  C   UNL A   1      44.098  26.550  28.083  1.00  0.00     0.074 A 
ATOM     45  C   UNL A   1      43.852  31.129  32.656  1.00  0.00     0.029 A 
ATOM     46  N   UNL A   1      44.613  29.133  32.140  1.00  0.00    -0.354 N 
ATOM     47  N   UNL A   1      44.825  27.630  28.047  1.00  0.00    -0.248 NA
ATOM     48  C   UNL A   1      44.042  25.880  29.374  1.00  0.00     0.031 C 
ATOM     49  C   UNL A   1      44.562  31.190  31.421  1.00  0.00     0.029 A 
ATOM     50  C   UNL A   1      44.826  29.882  31.012  1.00  0.00     0.049 A 
ATOM     51  H   UNL A   1      45.050  28.277  32.356  1.00  0.00     0.167 HD
ATOM     52  C   UNL A   1      44.970  28.007  29.374  1.00  0.00     0.074 A 
ATOM     53  C   UNL A   1      44.558  26.839  30.147  1.00  0.00     0.031 C 
ATOM     54  C   UNL A   1      45.134  29.319  29.716  1.00  0.00     0.037 A 
BRANCH  41  55
ATOM     55  C   UNL A   1      42.911  27.874  34.483  1.00  0.00     0.057 A 
ATOM     56  C   UNL A   1      43.178  26.586  33.996  1.00  0.00     0.134 A 
ATOM     57  C   UNL A   1      42.646  27.949  35.870  1.00  0.00     0.134 A 
ATOM     58  F   UNL A   1      43.413  26.380  32.691  1.00  0.00    -0.206 F 
ATOM     59  C   UNL A   1      43.131  25.453  34.816  1.00  0.00     0.040 A 
ATOM     60  C   UNL A   1      42.655  26.833  36.706  1.00  0.00     0.040 A 
ATOM     61  F   UNL A   1      42.262  29.081  36.473  1.00  0.00    -0.206 F 
ATOM     62  C   UNL A   1      42.869  25.574  36.175  1.00  0.00     0.006 A 
ENDBRANCH  41  55
BRANCH  42  63
ATOM     63  C   UNL A   1      43.034  24.907  26.392  1.00  0.00     0.057 A 
ATOM     64  C   UNL A   1      43.888  24.672  25.303  1.00  0.00     0.134 A 
ATOM     65  C   UNL A   1      42.433  23.772  26.961  1.00  0.00     0.134 A 
ATOM     66  F   UNL A   1      44.528  25.690  24.709  1.00  0.00    -0.206 F 
ATOM     67  C   UNL A   1      44.175  23.382  24.845  1.00  0.00     0.040 A 
ATOM     68  C   UNL A   1      42.705  22.477  26.507  1.00  0.00     0.040 A 
ATOM     69  F   UNL A   1      41.642  23.869  28.039  1.00  0.00    -0.206 F 
ATOM     70  C   UNL A   1      43.596  22.276  25.460  1.00  0.00     0.006 A 
ENDBRANCH  42  63
BRANCH  54  71
ATOM     71  C   UNL A   1      45.428  30.289  28.602  1.00  0.00     0.057 A 
ATOM     72  C   UNL A   1      44.442  30.950  27.852  1.00  0.00     0.134 A 
ATOM     73  C   UNL A   1      46.755  30.664  28.368  1.00  0.00     0.134 A 
ATOM     74  F   UNL A   1      43.140  30.729  28.071  1.00  0.00    -0.206 F 
ATOM     75  C   UNL A   1      44.767  31.902  26.881  1.00  0.00     0.040 A 
ATOM     76  C   UNL A   1      47.091  31.640  27.427  1.00  0.00     0.040 A 
ATOM     77  F   UNL A   1      47.748  30.115  29.086  1.00  0.00    -0.206 F 
ATOM     78  C   UNL A   1      46.096  32.255  26.671  1.00  0.00     0.006 A 
ENDBRANCH  54  71
ENDBRANCH  28  29
ENDBRANCH  21  23
ENDBRANCH  20  21
ENDBRANCH  19  20
ENDBRANCH   1  19
TORSDOF 13
ENDMDL
MODEL 3
REMARK VINA RESULT:      -9.9      5.074     10.080
REMARK SMILES Cc1cc(C)c2c(O[C@@H](C)C(=O)OCCOC(=O)c3ccc(-c4c5nc(c(-c6c(F)cccc6F)c6ccc([nH]6)c(-c6c(F)cccc6F)c6nc(c(-c7c(F)cccc7F)c7ccc4[nH]7)C=C6)C=C5)cc3)nsc2n1
REMARK SMILES IDX 14 1 13 2 11 3 12 4 9 5 10 6 8 7 7 8 1 9 2 10 3 11 76 12
REMARK SMILES IDX 4 13 75 14 5 15 6 16 74 17 73 18 15 19 16 20 17 21 18 22
REMARK SMILES IDX 19 23 20 24 72 25 21 26 71 27 22 28 23 29 24 30 65 31 25 32
REMARK SMILES IDX 70 33 64 34 66 35 26 36 69 37 63 38 62 39 27 41 53 42 36 43
REMARK SMILES IDX 52 44 37 45 40 46 51 47 67 48 38 49 39 50 50 52 68 53 41 54
REMARK SMILES IDX 28 55 29 56 34 57 30 58 31 59 33 60 35 61 32 62 54 63 55 64
REMARK SMILES IDX 60 65 56 66 57 67 59 68 61 69 58 70 42 71 43 72 48 73 44 74
REMARK SMILES IDX 45 75 47 76 49 77 46 78
REMARK H PARENT 66 40 40 51
REMARK Flexibility Score: inf
ROOT
ATOM      1  C   UNL A   1      32.874  29.202  27.233  1.00  0.00     0.274 C 
ENDROOT
BRANCH   1   2
ATOM      2  O   UNL A   1      31.592  29.182  26.579  1.00  0.00    -0.459 OA
BRANCH   2   3
ATOM      3  C   UNL A   1      31.469  28.701  25.317  1.00  0.00     0.347 C 
ATOM      4  O   UNL A   1      31.639  29.371  24.304  1.00  0.00    -0.248 OA
BRANCH   3   5
ATOM      5  C   UNL A   1      31.085  27.200  25.304  1.00  0.00     0.281 C 
ATOM      6  C   UNL A   1      30.035  26.849  24.251  1.00  0.00     0.066 C 
BRANCH   5   7
ATOM      7  O   UNL A   1      30.797  26.371  26.394  1.00  0.00    -0.462 OA
BRANCH   7   8
ATOM      8  C   UNL A   1      31.054  25.046  26.387  1.00  0.00     0.236 A 
ATOM      9  C   UNL A   1      34.404  20.669  25.001  1.00  0.00     0.067 C 
ATOM     10  C   UNL A   1      33.641  21.905  25.366  1.00  0.00     0.039 A 
ATOM     11  C   UNL A   1      34.237  23.143  25.211  1.00  0.00     0.027 A 
ATOM     12  N   UNL A   1      32.417  21.739  25.868  1.00  0.00    -0.240 NA
ATOM     13  C   UNL A   1      33.572  24.334  25.579  1.00  0.00    -0.034 A 
ATOM     14  C   UNL A   1      31.767  22.879  26.164  1.00  0.00     0.147 A 
ATOM     15  C   UNL A   1      34.403  25.577  25.355  1.00  0.00     0.045 C 
ATOM     16  C   UNL A   1      32.210  24.206  26.036  1.00  0.00     0.078 A 
ATOM     17  S   UNL A   1      30.193  22.809  26.796  1.00  0.00    -0.012 S 
ATOM     18  N   UNL A   1      29.977  24.428  26.876  1.00  0.00    -0.153 NA
ENDBRANCH   7   8
ENDBRANCH   5   7
ENDBRANCH   3   5
ENDBRANCH   2   3
ENDBRANCH   1   2
BRANCH   1  19
ATOM     19  C   UNL A   1      33.395  30.626  27.250  1.00  0.00     0.275 C 
BRANCH  19  20
ATOM     20  O   UNL A   1      34.815  30.573  27.277  1.00  0.00    -0.458 OA
BRANCH  20  21
ATOM     21  C   UNL A   1      35.413  31.591  27.934  1.00  0.00     0.338 C 
ATOM     22  O   UNL A   1      35.304  32.786  27.729  1.00  0.00    -0.246 OA
BRANCH  21  23
ATOM     23  C   UNL A   1      36.380  31.031  28.870  1.00  0.00     0.060 A 
ATOM     24  C   UNL A   1      37.539  31.784  29.062  1.00  0.00     0.016 A 
ATOM     25  C   UNL A   1      36.288  29.672  29.197  1.00  0.00     0.016 A 
ATOM     26  C   UNL A   1      38.698  31.100  29.315  1.00  0.00     0.010 A 
ATOM     27  C   UNL A   1      37.448  28.987  29.424  1.00  0.00     0.010 A 
ATOM     28  C   UNL A   1      38.639  29.703  29.379  1.00  0.00    -0.014 A 
BRANCH  28  29
ATOM     29  C   UNL A   1      39.886  28.996  29.488  1.00  0.00     0.031 A 
ATOM     30  C   UNL A   1      40.334  28.886  30.888  1.00  0.00     0.074 A 
ATOM     31  C   UNL A   1      40.491  28.441  28.425  1.00  0.00     0.049 A 
ATOM     32  N   UNL A   1      41.339  29.474  31.441  1.00  0.00    -0.248 NA
ATOM     33  C   UNL A   1      39.430  28.203  31.828  1.00  0.00     0.031 C 
ATOM     34  C   UNL A   1      39.975  28.254  27.066  1.00  0.00     0.029 A 
ATOM     35  N   UNL A   1      41.702  27.834  28.382  1.00  0.00    -0.354 N 
ATOM     36  C   UNL A   1      41.313  29.063  32.766  1.00  0.00     0.074 A 
ATOM     37  C   UNL A   1      40.024  28.464  32.991  1.00  0.00     0.031 C 
ATOM     38  C   UNL A   1      40.778  27.384  26.406  1.00  0.00     0.029 A 
ATOM     39  C   UNL A   1      41.922  27.071  27.245  1.00  0.00     0.049 A 
ATOM     40  H   UNL A   1      42.370  27.927  29.098  1.00  0.00     0.167 HD
ATOM     41  C   UNL A   1      42.456  28.990  33.492  1.00  0.00     0.037 A 
ATOM     42  C   UNL A   1      42.941  26.192  27.087  1.00  0.00     0.037 A 
ATOM     43  C   UNL A   1      43.502  29.789  32.908  1.00  0.00     0.049 A 
ATOM     44  C   UNL A   1      43.978  26.536  28.096  1.00  0.00     0.074 A 
ATOM     45  C   UNL A   1      43.665  31.135  32.645  1.00  0.00     0.029 A 
ATOM     46  N   UNL A   1      44.441  29.140  32.146  1.00  0.00    -0.354 N 
ATOM     47  N   UNL A   1      44.701  27.618  28.062  1.00  0.00    -0.248 NA
ATOM     48  C   UNL A   1      43.913  25.871  29.390  1.00  0.00     0.031 C 
ATOM     49  C   UNL A   1      44.388  31.193  31.416  1.00  0.00     0.029 A 
ATOM     50  C   UNL A   1      44.662  29.884  31.017  1.00  0.00     0.049 A 
ATOM     51  H   UNL A   1      44.880  28.286  32.371  1.00  0.00     0.167 HD
ATOM     52  C   UNL A   1      44.831  28.003  29.389  1.00  0.00     0.074 A 
ATOM     53  C   UNL A   1      44.416  26.836  30.163  1.00  0.00     0.031 C 
ATOM     54  C   UNL A   1      44.985  29.317  29.726  1.00  0.00     0.037 A 
BRANCH  41  55
ATOM     55  C   UNL A   1      42.722  27.883  34.478  1.00  0.00     0.057 A 
ATOM     56  C   UNL A   1      43.039  26.604  34.000  1.00  0.00     0.134 A 
ATOM     57  C   UNL A   1      42.407  27.950  35.855  1.00  0.00     0.134 A 
ATOM     58  F   UNL A   1      43.324  26.406  32.703  1.00  0.00    -0.206 F 
ATOM     59  C   UNL A   1      42.994  25.469  34.816  1.00  0.00     0.040 A 
ATOM     60  C   UNL A   1      42.418  26.833  36.690  1.00  0.00     0.040 A 
ATOM     61  F   UNL A   1      41.974  29.070  36.446  1.00  0.00    -0.206 F 
ATOM     62  C   UNL A   1      42.682  25.580  36.166  1.00  0.00     0.006 A 
ENDBRANCH  41  55
BRANCH  42  63
ATOM     63  C   UNL A   1      42.939  24.879  26.402  1.00  0.00     0.057 A 
ATOM     64  C   UNL A   1      43.885  24.601  25.404  1.00  0.00     0.134 A 
ATOM     65  C   UNL A   1      42.237  23.774  26.913  1.00  0.00     0.134 A 
ATOM     66  F   UNL A   1      44.624  25.587  24.874  1.00  0.00    -0.206 F 
ATOM     67  C   UNL A   1      44.162  23.296  24.982  1.00  0.00     0.040 A 
ATOM     68  C   UNL A   1      42.498  22.466  26.492  1.00  0.00     0.040 A 
ATOM     69  F   UNL A   1      41.348  23.912  27.906  1.00  0.00    -0.206 F 
ATOM     70  C   UNL A   1      43.479  22.220  25.539  1.00  0.00     0.006 A 
ENDBRANCH  42  63
BRANCH  54  71
ATOM     71  C   UNL A   1      45.285  30.283  28.611  1.00  0.00     0.057 A 
ATOM     72  C   UNL A   1      44.304  30.932  27.845  1.00  0.00     0.134 A 
ATOM     73  C   UNL A   1      46.612  30.667  28.391  1.00  0.00     0.134 A 
ATOM     74  F   UNL A   1      43.000  30.702  28.050  1.00  0.00    -0.206 F 
ATOM     75  C   UNL A   1      44.634  31.882  26.873  1.00  0.00     0.040 A 
ATOM     76  C   UNL A   1      46.953  31.640  27.448  1.00  0.00     0.040 A 
ATOM     77  F   UNL A   1      47.601  30.129  29.124  1.00  0.00    -0.206 F 
ATOM     78  C   UNL A   1      45.963  32.244  26.677  1.00  0.00     0.006 A 
ENDBRANCH  54  71
ENDBRANCH  28  29
ENDBRANCH  21  23
ENDBRANCH  20  21
ENDBRANCH  19  20
ENDBRANCH   1  19
TORSDOF 13
ENDMDL
