MODEL 1
REMARK VINA RESULT:     -10.3      0.000      0.000
REMARK SMILES C[C@H](Oc1ccnc2c(F)cc(F)cc12)C(=O)OCCOC(=O)c1ccc(-c2c3nc(c(-c4c(F)cccc4F)c4ccc([nH]4)c(-c4c(F)cccc4F)c4nc(c(-c5c(F)cccc5F)c5ccc2[nH]5)C=C4)C=C3)cc1
REMARK SMILES IDX 19 1 18 2 16 3 17 4 2 5 1 6 3 7 4 8 5 9 15 10 6 11 8 12
REMARK SMILES IDX 14 13 7 14 9 15 12 16 10 17 11 18 13 19 20 20 21 21 22 22
REMARK SMILES IDX 23 23 24 24 25 25 77 26 26 27 76 28 27 29 28 30 29 31 70 32
REMARK SMILES IDX 30 33 75 34 69 35 71 36 31 37 74 38 68 39 67 40 32 42 58 43
REMARK SMILES IDX 41 44 57 45 42 46 45 47 56 48 72 49 43 50 44 51 55 53 73 54
REMARK SMILES IDX 46 55 33 56 34 57 39 58 35 59 36 60 38 61 40 62 37 63 59 64
REMARK SMILES IDX 60 65 65 66 61 67 62 68 64 69 66 70 63 71 47 72 48 73 53 74
REMARK SMILES IDX 49 75 50 76 52 77 54 78 51 79
REMARK H PARENT 71 41 45 52
REMARK Flexibility Score: inf
ROOT
ATOM      1  C   UNL A   1      33.354  34.774  29.087  1.00  0.00     0.274 C 
ENDROOT
BRANCH   1   2
ATOM      2  O   UNL A   1      32.743  34.931  30.385  1.00  0.00    -0.459 OA
BRANCH   2   3
ATOM      3  C   UNL A   1      33.001  36.110  31.013  1.00  0.00     0.347 C 
ATOM      4  O   UNL A   1      32.631  37.210  30.614  1.00  0.00    -0.248 OA
BRANCH   3   5
ATOM      5  C   UNL A   1      33.841  35.943  32.287  1.00  0.00     0.279 C 
ATOM      6  C   UNL A   1      34.005  37.334  32.897  1.00  0.00     0.066 C 
BRANCH   5   7
ATOM      7  O   UNL A   1      35.151  35.411  32.141  1.00  0.00    -0.478 OA
BRANCH   7   8
ATOM      8  C   UNL A   1      35.775  34.791  33.193  1.00  0.00     0.131 A 
ATOM      9  C   UNL A   1      35.177  34.503  34.412  1.00  0.00     0.067 A 
ATOM     10  C   UNL A   1      37.130  34.442  32.990  1.00  0.00     0.048 A 
ATOM     11  C   UNL A   1      35.922  33.841  35.369  1.00  0.00     0.115 A 
ATOM     12  C   UNL A   1      37.807  33.766  34.031  1.00  0.00     0.110 A 
ATOM     13  C   UNL A   1      37.824  34.751  31.799  1.00  0.00     0.053 A 
ATOM     14  N   UNL A   1      37.204  33.473  35.199  1.00  0.00    -0.253 NA
ATOM     15  C   UNL A   1      39.142  33.408  33.816  1.00  0.00     0.152 A 
ATOM     16  C   UNL A   1      39.155  34.389  31.641  1.00  0.00     0.127 A 
ATOM     17  F   UNL A   1      39.818  32.751  34.774  1.00  0.00    -0.204 F 
ATOM     18  C   UNL A   1      39.823  33.711  32.641  1.00  0.00     0.080 A 
ATOM     19  F   UNL A   1      39.795  34.706  30.510  1.00  0.00    -0.207 F 
ENDBRANCH   7   8
ENDBRANCH   5   7
ENDBRANCH   3   5
ENDBRANCH   2   3
ENDBRANCH   1   2
BRANCH   1  20
ATOM     20  C   UNL A   1      33.973  33.387  28.935  1.00  0.00     0.275 C 
BRANCH  20  21
ATOM     21  O   UNL A   1      35.235  33.337  29.624  1.00  0.00    -0.458 OA
BRANCH  21  22
ATOM     22  C   UNL A   1      35.361  32.348  30.536  1.00  0.00     0.338 C 
ATOM     23  O   UNL A   1      34.556  32.049  31.407  1.00  0.00    -0.246 OA
BRANCH  22  24
ATOM     24  C   UNL A   1      36.634  31.617  30.354  1.00  0.00     0.060 A 
ATOM     25  C   UNL A   1      37.303  31.005  31.421  1.00  0.00     0.016 A 
ATOM     26  C   UNL A   1      37.222  31.636  29.087  1.00  0.00     0.016 A 
ATOM     27  C   UNL A   1      38.579  30.470  31.230  1.00  0.00     0.010 A 
ATOM     28  C   UNL A   1      38.464  31.034  28.881  1.00  0.00     0.010 A 
ATOM     29  C   UNL A   1      39.165  30.463  29.955  1.00  0.00    -0.014 A 
BRANCH  29  30
ATOM     30  C   UNL A   1      40.486  29.828  29.712  1.00  0.00     0.031 A 
ATOM     31  C   UNL A   1      41.753  30.635  29.792  1.00  0.00     0.074 A 
ATOM     32  C   UNL A   1      40.539  28.533  29.350  1.00  0.00     0.049 A 
ATOM     33  N   UNL A   1      42.971  30.297  29.453  1.00  0.00    -0.248 NA
ATOM     34  C   UNL A   1      41.632  32.007  30.312  1.00  0.00     0.031 C 
ATOM     35  C   UNL A   1      39.387  27.637  29.239  1.00  0.00     0.029 A 
ATOM     36  N   UNL A   1      41.606  27.752  28.985  1.00  0.00    -0.354 N 
ATOM     37  C   UNL A   1      43.759  31.414  29.698  1.00  0.00     0.074 A 
ATOM     38  C   UNL A   1      42.877  32.449  30.198  1.00  0.00     0.031 C 
ATOM     39  C   UNL A   1      39.809  26.428  28.835  1.00  0.00     0.029 A 
ATOM     40  C   UNL A   1      41.248  26.482  28.603  1.00  0.00     0.049 A 
ATOM     41  H   UNL A   1      42.537  28.070  28.996  1.00  0.00     0.167 HD
ATOM     42  C   UNL A   1      45.095  31.564  29.524  1.00  0.00     0.037 A 
ATOM     43  C   UNL A   1      41.986  25.483  28.087  1.00  0.00     0.037 A 
ATOM     44  C   UNL A   1      45.975  30.533  29.038  1.00  0.00     0.049 A 
ATOM     45  C   UNL A   1      43.451  25.693  27.849  1.00  0.00     0.074 A 
ATOM     46  C   UNL A   1      47.348  30.581  28.862  1.00  0.00     0.029 A 
ATOM     47  N   UNL A   1      45.568  29.267  28.644  1.00  0.00    -0.354 N 
ATOM     48  N   UNL A   1      44.183  26.753  28.088  1.00  0.00    -0.248 NA
ATOM     49  C   UNL A   1      44.190  24.570  27.256  1.00  0.00     0.031 C 
ATOM     50  C   UNL A   1      47.766  29.355  28.329  1.00  0.00     0.029 A 
ATOM     51  C   UNL A   1      46.658  28.533  28.207  1.00  0.00     0.049 A 
ATOM     52  H   UNL A   1      44.640  28.939  28.672  1.00  0.00     0.167 HD
ATOM     53  C   UNL A   1      45.471  26.421  27.690  1.00  0.00     0.074 A 
ATOM     54  C   UNL A   1      45.421  25.056  27.206  1.00  0.00     0.031 C 
ATOM     55  C   UNL A   1      46.593  27.179  27.721  1.00  0.00     0.037 A 
BRANCH  42  56
ATOM     56  C   UNL A   1      45.688  32.901  29.852  1.00  0.00     0.057 A 
ATOM     57  C   UNL A   1      46.176  33.170  31.138  1.00  0.00     0.134 A 
ATOM     58  C   UNL A   1      45.739  33.936  28.911  1.00  0.00     0.134 A 
ATOM     59  F   UNL A   1      46.151  32.221  32.087  1.00  0.00    -0.206 F 
ATOM     60  C   UNL A   1      46.693  34.421  31.476  1.00  0.00     0.040 A 
ATOM     61  C   UNL A   1      46.271  35.187  29.232  1.00  0.00     0.040 A 
ATOM     62  F   UNL A   1      45.298  33.740  27.660  1.00  0.00    -0.206 F 
ATOM     63  C   UNL A   1      46.745  35.433  30.519  1.00  0.00     0.006 A 
ENDBRANCH  42  56
BRANCH  43  64
ATOM     64  C   UNL A   1      41.338  24.197  27.734  1.00  0.00     0.057 A 
ATOM     65  C   UNL A   1      41.568  23.037  28.482  1.00  0.00     0.134 A 
ATOM     66  C   UNL A   1      40.476  24.104  26.637  1.00  0.00     0.134 A 
ATOM     67  F   UNL A   1      42.387  23.065  29.543  1.00  0.00    -0.206 F 
ATOM     68  C   UNL A   1      40.970  21.822  28.143  1.00  0.00     0.040 A 
ATOM     69  C   UNL A   1      39.855  22.901  26.300  1.00  0.00     0.040 A 
ATOM     70  F   UNL A   1      40.205  25.189  25.899  1.00  0.00    -0.206 F 
ATOM     71  C   UNL A   1      40.106  21.754  27.052  1.00  0.00     0.006 A 
ENDBRANCH  43  64
BRANCH  55  72
ATOM     72  C   UNL A   1      47.856  26.535  27.237  1.00  0.00     0.057 A 
ATOM     73  C   UNL A   1      48.259  26.666  25.902  1.00  0.00     0.134 A 
ATOM     74  C   UNL A   1      48.675  25.787  28.093  1.00  0.00     0.134 A 
ATOM     75  F   UNL A   1      47.517  27.367  25.033  1.00  0.00    -0.206 F 
ATOM     76  C   UNL A   1      49.435  26.077  25.436  1.00  0.00     0.040 A 
ATOM     77  C   UNL A   1      49.862  25.210  27.643  1.00  0.00     0.040 A 
ATOM     78  F   UNL A   1      48.351  25.643  29.387  1.00  0.00    -0.206 F 
ATOM     79  C   UNL A   1      50.244  25.352  26.310  1.00  0.00     0.006 A 
ENDBRANCH  55  72
ENDBRANCH  29  30
ENDBRANCH  22  24
ENDBRANCH  21  22
ENDBRANCH  20  21
ENDBRANCH   1  20
TORSDOF 13
ENDMDL
MODEL 2
REMARK VINA RESULT:     -10.2      1.640      2.054
REMARK SMILES C[C@H](Oc1ccnc2c(F)cc(F)cc12)C(=O)OCCOC(=O)c1ccc(-c2c3nc(c(-c4c(F)cccc4F)c4ccc([nH]4)c(-c4c(F)cccc4F)c4nc(c(-c5c(F)cccc5F)c5ccc2[nH]5)C=C4)C=C3)cc1
REMARK SMILES IDX 19 1 18 2 16 3 17 4 2 5 1 6 3 7 4 8 5 9 15 10 6 11 8 12
REMARK SMILES IDX 14 13 7 14 9 15 12 16 10 17 11 18 13 19 20 20 21 21 22 22
REMARK SMILES IDX 23 23 24 24 25 25 77 26 26 27 76 28 27 29 28 30 29 31 70 32
REMARK SMILES IDX 30 33 75 34 69 35 71 36 31 37 74 38 68 39 67 40 32 42 58 43
REMARK SMILES IDX 41 44 57 45 42 46 45 47 56 48 72 49 43 50 44 51 55 53 73 54
REMARK SMILES IDX 46 55 33 56 34 57 39 58 35 59 36 60 38 61 40 62 37 63 59 64
REMARK SMILES IDX 60 65 65 66 61 67 62 68 64 69 66 70 63 71 47 72 48 73 53 74
REMARK SMILES IDX 49 75 50 76 52 77 54 78 51 79
REMARK H PARENT 71 41 45 52
REMARK Flexibility Score: inf
ROOT
ATOM      1  C   UNL A   1      33.563  33.665  28.332  1.00  0.00     0.274 C 
ENDROOT
BRANCH   1   2
ATOM      2  O   UNL A   1      34.004  34.975  28.743  1.00  0.00    -0.459 OA
BRANCH   2   3
ATOM      3  C   UNL A   1      33.152  35.647  29.564  1.00  0.00     0.347 C 
ATOM      4  O   UNL A   1      32.307  36.453  29.185  1.00  0.00    -0.248 OA
BRANCH   3   5
ATOM      5  C   UNL A   1      33.362  35.320  31.048  1.00  0.00     0.279 C 
ATOM      6  C   UNL A   1      32.318  36.115  31.831  1.00  0.00     0.066 C 
BRANCH   5   7
ATOM      7  O   UNL A   1      34.624  35.646  31.617  1.00  0.00    -0.478 OA
BRANCH   7   8
ATOM      8  C   UNL A   1      35.140  34.900  32.645  1.00  0.00     0.131 A 
ATOM      9  C   UNL A   1      34.782  35.032  33.979  1.00  0.00     0.067 A 
ATOM     10  C   UNL A   1      36.115  33.942  32.284  1.00  0.00     0.048 A 
ATOM     11  C   UNL A   1      35.364  34.184  34.902  1.00  0.00     0.115 A 
ATOM     12  C   UNL A   1      36.651  33.120  33.302  1.00  0.00     0.110 A 
ATOM     13  C   UNL A   1      36.572  33.786  30.956  1.00  0.00     0.053 A 
ATOM     14  N   UNL A   1      36.274  33.246  34.589  1.00  0.00    -0.253 NA
ATOM     15  C   UNL A   1      37.602  32.162  32.935  1.00  0.00     0.152 A 
ATOM     16  C   UNL A   1      37.531  32.831  30.646  1.00  0.00     0.127 A 
ATOM     17  F   UNL A   1      38.125  31.351  33.869  1.00  0.00    -0.204 F 
ATOM     18  C   UNL A   1      38.049  32.009  31.625  1.00  0.00     0.080 A 
ATOM     19  F   UNL A   1      37.959  32.712  29.383  1.00  0.00    -0.207 F 
ENDBRANCH   7   8
ENDBRANCH   5   7
ENDBRANCH   3   5
ENDBRANCH   2   3
ENDBRANCH   1   2
BRANCH   1  20
ATOM     20  C   UNL A   1      34.751  32.765  28.001  1.00  0.00     0.275 C 
BRANCH  20  21
ATOM     21  O   UNL A   1      34.719  31.588  28.827  1.00  0.00    -0.458 OA
BRANCH  21  22
ATOM     22  C   UNL A   1      34.899  30.416  28.179  1.00  0.00     0.338 C 
ATOM     23  O   UNL A   1      34.078  29.828  27.488  1.00  0.00    -0.246 OA
BRANCH  22  24
ATOM     24  C   UNL A   1      36.268  29.897  28.390  1.00  0.00     0.060 A 
ATOM     25  C   UNL A   1      36.672  29.329  29.604  1.00  0.00     0.016 A 
ATOM     26  C   UNL A   1      37.201  30.081  27.367  1.00  0.00     0.016 A 
ATOM     27  C   UNL A   1      38.015  29.004  29.811  1.00  0.00     0.010 A 
ATOM     28  C   UNL A   1      38.527  29.686  27.547  1.00  0.00     0.010 A 
ATOM     29  C   UNL A   1      38.953  29.162  28.779  1.00  0.00    -0.014 A 
BRANCH  29  30
ATOM     30  C   UNL A   1      40.369  28.749  28.947  1.00  0.00     0.031 A 
ATOM     31  C   UNL A   1      41.407  29.732  29.416  1.00  0.00     0.074 A 
ATOM     32  C   UNL A   1      40.736  27.498  28.610  1.00  0.00     0.049 A 
ATOM     33  N   UNL A   1      42.708  29.601  29.465  1.00  0.00    -0.248 NA
ATOM     34  C   UNL A   1      40.916  31.038  29.884  1.00  0.00     0.031 C 
ATOM     35  C   UNL A   1      39.831  26.446  28.146  1.00  0.00     0.029 A 
ATOM     36  N   UNL A   1      41.975  26.909  28.585  1.00  0.00    -0.354 N 
ATOM     37  C   UNL A   1      43.195  30.809  29.946  1.00  0.00     0.074 A 
ATOM     38  C   UNL A   1      42.049  31.669  30.159  1.00  0.00     0.031 C 
ATOM     39  C   UNL A   1      40.544  25.339  27.883  1.00  0.00     0.029 A 
ATOM     40  C   UNL A   1      41.957  25.623  28.103  1.00  0.00     0.049 A 
ATOM     41  H   UNL A   1      42.796  27.363  28.882  1.00  0.00     0.167 HD
ATOM     42  C   UNL A   1      44.479  31.168  30.191  1.00  0.00     0.037 A 
ATOM     43  C   UNL A   1      42.967  24.777  27.831  1.00  0.00     0.037 A 
ATOM     44  C   UNL A   1      45.618  30.310  29.991  1.00  0.00     0.049 A 
ATOM     45  C   UNL A   1      44.383  25.218  28.054  1.00  0.00     0.074 A 
ATOM     46  C   UNL A   1      46.954  30.575  30.244  1.00  0.00     0.029 A 
ATOM     47  N   UNL A   1      45.558  29.022  29.483  1.00  0.00    -0.354 N 
ATOM     48  N   UNL A   1      44.828  26.362  28.513  1.00  0.00    -0.248 NA
ATOM     49  C   UNL A   1      45.436  24.255  27.709  1.00  0.00     0.031 C 
ATOM     50  C   UNL A   1      47.704  29.458  29.857  1.00  0.00     0.029 A 
ATOM     51  C   UNL A   1      46.832  28.486  29.396  1.00  0.00     0.049 A 
ATOM     52  H   UNL A   1      44.730  28.557  29.223  1.00  0.00     0.167 HD
ATOM     53  C   UNL A   1      46.212  26.251  28.527  1.00  0.00     0.074 A 
ATOM     54  C   UNL A   1      46.530  24.923  28.042  1.00  0.00     0.031 C 
ATOM     55  C   UNL A   1      47.135  27.167  28.904  1.00  0.00     0.037 A 
BRANCH  42  56
ATOM     56  C   UNL A   1      44.723  32.559  30.694  1.00  0.00     0.057 A 
ATOM     57  C   UNL A   1      44.717  32.833  32.068  1.00  0.00     0.134 A 
ATOM     58  C   UNL A   1      44.921  33.635  29.821  1.00  0.00     0.134 A 
ATOM     59  F   UNL A   1      44.527  31.847  32.958  1.00  0.00    -0.206 F 
ATOM     60  C   UNL A   1      44.900  34.128  32.556  1.00  0.00     0.040 A 
ATOM     61  C   UNL A   1      45.123  34.933  30.296  1.00  0.00     0.040 A 
ATOM     62  F   UNL A   1      44.948  33.438  28.494  1.00  0.00    -0.206 F 
ATOM     63  C   UNL A   1      45.107  35.182  31.667  1.00  0.00     0.006 A 
ENDBRANCH  42  56
BRANCH  43  64
ATOM     64  C   UNL A   1      42.671  23.430  27.288  1.00  0.00     0.057 A 
ATOM     65  C   UNL A   1      42.339  22.362  28.130  1.00  0.00     0.134 A 
ATOM     66  C   UNL A   1      42.719  23.182  25.912  1.00  0.00     0.134 A 
ATOM     67  F   UNL A   1      42.281  22.539  29.458  1.00  0.00    -0.206 F 
ATOM     68  C   UNL A   1      42.074  21.090  27.622  1.00  0.00     0.040 A 
ATOM     69  C   UNL A   1      42.435  21.921  25.390  1.00  0.00     0.040 A 
ATOM     70  F   UNL A   1      43.012  24.174  25.059  1.00  0.00    -0.206 F 
ATOM     71  C   UNL A   1      42.117  20.868  26.247  1.00  0.00     0.006 A 
ENDBRANCH  43  64
BRANCH  55  72
ATOM     72  C   UNL A   1      48.571  26.749  28.826  1.00  0.00     0.057 A 
ATOM     73  C   UNL A   1      49.160  26.017  29.866  1.00  0.00     0.134 A 
ATOM     74  C   UNL A   1      49.372  27.068  27.722  1.00  0.00     0.134 A 
ATOM     75  F   UNL A   1      48.447  25.681  30.951  1.00  0.00    -0.206 F 
ATOM     76  C   UNL A   1      50.495  25.614  29.807  1.00  0.00     0.040 A 
ATOM     77  C   UNL A   1      50.701  26.655  27.644  1.00  0.00     0.040 A 
ATOM     78  F   UNL A   1      48.859  27.751  26.687  1.00  0.00    -0.206 F 
ATOM     79  C   UNL A   1      51.268  25.928  28.690  1.00  0.00     0.006 A 
ENDBRANCH  55  72
ENDBRANCH  29  30
ENDBRANCH  22  24
ENDBRANCH  21  22
ENDBRANCH  20  21
ENDBRANCH   1  20
TORSDOF 13
ENDMDL
MODEL 3
REMARK VINA RESULT:     -10.0      3.866      6.063
REMARK SMILES C[C@H](Oc1ccnc2c(F)cc(F)cc12)C(=O)OCCOC(=O)c1ccc(-c2c3nc(c(-c4c(F)cccc4F)c4ccc([nH]4)c(-c4c(F)cccc4F)c4nc(c(-c5c(F)cccc5F)c5ccc2[nH]5)C=C4)C=C3)cc1
REMARK SMILES IDX 19 1 18 2 16 3 17 4 2 5 1 6 3 7 4 8 5 9 15 10 6 11 8 12
REMARK SMILES IDX 14 13 7 14 9 15 12 16 10 17 11 18 13 19 20 20 21 21 22 22
REMARK SMILES IDX 23 23 24 24 25 25 77 26 26 27 76 28 27 29 28 30 29 31 70 32
REMARK SMILES IDX 30 33 75 34 69 35 71 36 31 37 74 38 68 39 67 40 32 42 58 43
REMARK SMILES IDX 41 44 57 45 42 46 45 47 56 48 72 49 43 50 44 51 55 53 73 54
REMARK SMILES IDX 46 55 33 56 34 57 39 58 35 59 36 60 38 61 40 62 37 63 59 64
REMARK SMILES IDX 60 65 65 66 61 67 62 68 64 69 66 70 63 71 47 72 48 73 53 74
REMARK SMILES IDX 49 75 50 76 52 77 54 78 51 79
REMARK H PARENT 71 41 45 52
REMARK Flexibility Score: inf
ROOT
ATOM      1  C   UNL A   1      33.803  33.251  28.250  1.00  0.00     0.274 C 
ENDROOT
BRANCH   1   2
ATOM      2  O   UNL A   1      34.113  31.891  27.883  1.00  0.00    -0.459 OA
BRANCH   2   3
ATOM      3  C   UNL A   1      33.115  31.215  27.252  1.00  0.00     0.347 C 
ATOM      4  O   UNL A   1      32.058  31.717  26.877  1.00  0.00    -0.248 OA
BRANCH   3   5
ATOM      5  C   UNL A   1      33.422  29.723  27.065  1.00  0.00     0.279 C 
ATOM      6  C   UNL A   1      34.893  29.523  27.429  1.00  0.00     0.066 C 
BRANCH   5   7
ATOM      7  O   UNL A   1      33.252  29.178  25.763  1.00  0.00    -0.478 OA
BRANCH   7   8
ATOM      8  C   UNL A   1      32.541  28.021  25.577  1.00  0.00     0.131 A 
ATOM      9  C   UNL A   1      32.870  26.790  26.126  1.00  0.00     0.067 A 
ATOM     10  C   UNL A   1      31.398  28.124  24.750  1.00  0.00     0.048 A 
ATOM     11  C   UNL A   1      32.037  25.716  25.878  1.00  0.00     0.115 A 
ATOM     12  C   UNL A   1      30.608  26.967  24.558  1.00  0.00     0.110 A 
ATOM     13  C   UNL A   1      31.029  29.328  24.111  1.00  0.00     0.053 A 
ATOM     14  N   UNL A   1      30.930  25.785  25.118  1.00  0.00    -0.253 NA
ATOM     15  C   UNL A   1      29.470  27.081  23.753  1.00  0.00     0.152 A 
ATOM     16  C   UNL A   1      29.898  29.385  23.307  1.00  0.00     0.127 A 
ATOM     17  F   UNL A   1      28.684  26.009  23.556  1.00  0.00    -0.204 F 
ATOM     18  C   UNL A   1      29.107  28.269  23.126  1.00  0.00     0.080 A 
ATOM     19  F   UNL A   1      29.577  30.534  22.700  1.00  0.00    -0.207 F 
ENDBRANCH   7   8
ENDBRANCH   5   7
ENDBRANCH   3   5
ENDBRANCH   2   3
ENDBRANCH   1   2
BRANCH   1  20
ATOM     20  C   UNL A   1      34.140  33.514  29.715  1.00  0.00     0.275 C 
BRANCH  20  21
ATOM     21  O   UNL A   1      34.403  32.270  30.388  1.00  0.00    -0.458 OA
BRANCH  21  22
ATOM     22  C   UNL A   1      35.317  32.327  31.381  1.00  0.00     0.338 C 
ATOM     23  O   UNL A   1      35.162  32.821  32.490  1.00  0.00    -0.246 OA
BRANCH  22  24
ATOM     24  C   UNL A   1      36.586  31.687  30.974  1.00  0.00     0.060 A 
ATOM     25  C   UNL A   1      37.452  31.089  31.897  1.00  0.00     0.016 A 
ATOM     26  C   UNL A   1      36.963  31.780  29.631  1.00  0.00     0.016 A 
ATOM     27  C   UNL A   1      38.711  30.645  31.488  1.00  0.00     0.010 A 
ATOM     28  C   UNL A   1      38.190  31.267  29.210  1.00  0.00     0.010 A 
ATOM     29  C   UNL A   1      39.086  30.712  30.137  1.00  0.00    -0.014 A 
BRANCH  29  30
ATOM     30  C   UNL A   1      40.386  30.173  29.665  1.00  0.00     0.031 A 
ATOM     31  C   UNL A   1      41.579  31.075  29.501  1.00  0.00     0.074 A 
ATOM     32  C   UNL A   1      40.475  28.875  29.317  1.00  0.00     0.049 A 
ATOM     33  N   UNL A   1      42.739  30.820  28.949  1.00  0.00    -0.248 NA
ATOM     34  C   UNL A   1      41.447  32.447  30.016  1.00  0.00     0.031 C 
ATOM     35  C   UNL A   1      39.397  27.892  29.430  1.00  0.00     0.029 A 
ATOM     36  N   UNL A   1      41.517  28.167  28.774  1.00  0.00    -0.354 N 
ATOM     37  C   UNL A   1      43.467  32.000  29.031  1.00  0.00     0.074 A 
ATOM     38  C   UNL A   1      42.611  32.978  29.670  1.00  0.00     0.031 C 
ATOM     39  C   UNL A   1      39.833  26.708  28.973  1.00  0.00     0.029 A 
ATOM     40  C   UNL A   1      41.197  26.864  28.481  1.00  0.00     0.049 A 
ATOM     41  H   UNL A   1      42.407  28.555  28.609  1.00  0.00     0.167 HD
ATOM     42  C   UNL A   1      44.733  32.245  28.614  1.00  0.00     0.037 A 
ATOM     43  C   UNL A   1      41.906  25.910  27.851  1.00  0.00     0.037 A 
ATOM     44  C   UNL A   1      45.589  31.270  27.988  1.00  0.00     0.049 A 
ATOM     45  C   UNL A   1      43.283  26.223  27.346  1.00  0.00     0.074 A 
ATOM     46  C   UNL A   1      46.899  31.417  27.563  1.00  0.00     0.029 A 
ATOM     47  N   UNL A   1      45.219  29.967  27.693  1.00  0.00    -0.354 N 
ATOM     48  N   UNL A   1      43.960  27.341  27.433  1.00  0.00    -0.248 NA
ATOM     49  C   UNL A   1      43.989  25.143  26.643  1.00  0.00     0.031 C 
ATOM     50  C   UNL A   1      47.309  30.212  26.980  1.00  0.00     0.029 A 
ATOM     51  C   UNL A   1      46.266  29.305  27.073  1.00  0.00     0.049 A 
ATOM     52  H   UNL A   1      44.340  29.571  27.894  1.00  0.00     0.167 HD
ATOM     53  C   UNL A   1      45.176  27.097  26.811  1.00  0.00     0.074 A 
ATOM     54  C   UNL A   1      45.148  25.719  26.363  1.00  0.00     0.031 C 
ATOM     55  C   UNL A   1      46.221  27.938  26.626  1.00  0.00     0.037 A 
BRANCH  42  56
ATOM     56  C   UNL A   1      45.268  33.632  28.810  1.00  0.00     0.057 A 
ATOM     57  C   UNL A   1      45.086  34.614  27.827  1.00  0.00     0.134 A 
ATOM     58  C   UNL A   1      46.000  33.985  29.950  1.00  0.00     0.134 A 
ATOM     59  F   UNL A   1      44.398  34.337  26.709  1.00  0.00    -0.206 F 
ATOM     60  C   UNL A   1      45.613  35.898  27.971  1.00  0.00     0.040 A 
ATOM     61  C   UNL A   1      46.517  35.273  30.114  1.00  0.00     0.040 A 
ATOM     62  F   UNL A   1      46.201  33.094  30.932  1.00  0.00    -0.206 F 
ATOM     63  C   UNL A   1      46.328  36.231  29.120  1.00  0.00     0.006 A 
ENDBRANCH  42  56
BRANCH  43  64
ATOM     64  C   UNL A   1      41.309  24.570  27.640  1.00  0.00     0.057 A 
ATOM     65  C   UNL A   1      40.324  24.355  26.669  1.00  0.00     0.134 A 
ATOM     66  C   UNL A   1      41.712  23.474  28.411  1.00  0.00     0.134 A 
ATOM     67  F   UNL A   1      39.896  25.368  25.903  1.00  0.00    -0.206 F 
ATOM     68  C   UNL A   1      39.752  23.097  26.479  1.00  0.00     0.040 A 
ATOM     69  C   UNL A   1      41.164  22.207  28.216  1.00  0.00     0.040 A 
ATOM     70  F   UNL A   1      42.667  23.619  29.341  1.00  0.00    -0.206 F 
ATOM     71  C   UNL A   1      40.175  22.017  27.251  1.00  0.00     0.006 A 
ENDBRANCH  43  64
BRANCH  55  72
ATOM     72  C   UNL A   1      47.423  27.378  25.928  1.00  0.00     0.057 A 
ATOM     73  C   UNL A   1      48.445  26.754  26.655  1.00  0.00     0.134 A 
ATOM     74  C   UNL A   1      47.567  27.453  24.537  1.00  0.00     0.134 A 
ATOM     75  F   UNL A   1      48.367  26.652  27.989  1.00  0.00    -0.206 F 
ATOM     76  C   UNL A   1      49.568  26.222  26.020  1.00  0.00     0.040 A 
ATOM     77  C   UNL A   1      48.676  26.908  23.890  1.00  0.00     0.040 A 
ATOM     78  F   UNL A   1      46.612  28.021  23.785  1.00  0.00    -0.206 F 
ATOM     79  C   UNL A   1      49.683  26.292  24.632  1.00  0.00     0.006 A 
ENDBRANCH  55  72
ENDBRANCH  29  30
ENDBRANCH  22  24
ENDBRANCH  21  22
ENDBRANCH  20  21
ENDBRANCH   1  20
TORSDOF 13
ENDMDL
