MODEL 1
REMARK VINA RESULT:     -11.5      0.000      0.000
REMARK SMILES O=C(CSc1nc(-c2cccc(F)c2)n[nH]1)OCCOC(=O)c1ccc(-c2c3nc(c(-c4c(F)cccc4F)c4ccc([nH]4)c(-c4c(F)cccc4F)c4nc(c(-c5c(F)cccc5F)c5ccc2[nH]5)C=C4)C=C3)cc1
REMARK SMILES IDX 18 1 17 2 2 3 1 4 3 5 4 6 5 7 6 8 16 9 7 10 15 11 8 13 9 14
REMARK SMILES IDX 14 15 10 16 12 17 11 18 13 19 19 20 20 21 21 22 22 23 23 24
REMARK SMILES IDX 24 25 76 26 25 27 75 28 26 29 27 30 28 31 69 32 29 33 74 34
REMARK SMILES IDX 68 35 70 36 30 37 73 38 67 39 66 40 31 42 57 43 40 44 56 45
REMARK SMILES IDX 41 46 44 47 55 48 71 49 42 50 43 51 54 53 72 54 45 55 32 56
REMARK SMILES IDX 33 57 38 58 34 59 35 60 37 61 39 62 36 63 58 64 59 65 64 66
REMARK SMILES IDX 60 67 61 68 63 69 65 70 62 71 46 72 47 73 52 74 48 75 49 76
REMARK SMILES IDX 51 77 53 78 50 79
REMARK H PARENT 16 12 70 41 44 52
REMARK Flexibility Score: inf
ROOT
ATOM      1  C   UNL A   1      44.843  21.471  25.464  1.00  0.00     0.274 C 
ENDROOT
BRANCH   1   2
ATOM      2  O   UNL A   1      45.592  20.341  24.969  1.00  0.00    -0.461 OA
BRANCH   2   3
ATOM      3  C   UNL A   1      45.179  19.051  25.047  1.00  0.00     0.316 C 
ATOM      4  O   UNL A   1      46.011  18.152  25.143  1.00  0.00    -0.251 OA
BRANCH   3   5
ATOM      5  C   UNL A   1      43.695  18.760  24.994  1.00  0.00     0.200 C 
BRANCH   5   6
ATOM      6  S   UNL A   1      43.017  18.297  26.614  1.00  0.00    -0.075 SA
BRANCH   6   7
ATOM      7  C   UNL A   1      42.035  19.670  26.926  1.00  0.00     0.184 A 
ATOM      8  N   UNL A   1      41.021  20.097  26.227  1.00  0.00    -0.201 NA
ATOM      9  N   UNL A   1      42.266  20.507  27.967  1.00  0.00    -0.254 N 
ATOM     10  C   UNL A   1      40.653  21.251  26.875  1.00  0.00     0.182 A 
ATOM     11  N   UNL A   1      41.421  21.554  27.938  1.00  0.00    -0.153 NA
ATOM     12  H   UNL A   1      42.958  20.367  28.653  1.00  0.00     0.192 HD
BRANCH  10  13
ATOM     13  C   UNL A   1      39.528  22.050  26.420  1.00  0.00     0.024 A 
ATOM     14  C   UNL A   1      39.412  23.389  26.825  1.00  0.00     0.012 A 
ATOM     15  C   UNL A   1      38.550  21.496  25.589  1.00  0.00     0.051 A 
ATOM     16  C   UNL A   1      38.341  24.171  26.388  1.00  0.00     0.004 A 
ATOM     17  C   UNL A   1      37.478  22.279  25.177  1.00  0.00     0.123 A 
ATOM     18  C   UNL A   1      37.368  23.611  25.561  1.00  0.00     0.039 A 
ATOM     19  F   UNL A   1      36.532  21.740  24.397  1.00  0.00    -0.207 F 
ENDBRANCH  10  13
ENDBRANCH   6   7
ENDBRANCH   5   6
ENDBRANCH   3   5
ENDBRANCH   2   3
ENDBRANCH   1   2
BRANCH   1  20
ATOM     20  C   UNL A   1      44.446  22.414  24.324  1.00  0.00     0.275 C 
BRANCH  20  21
ATOM     21  O   UNL A   1      43.733  23.549  24.854  1.00  0.00    -0.458 OA
BRANCH  21  22
ATOM     22  C   UNL A   1      44.488  24.633  25.161  1.00  0.00     0.338 C 
ATOM     23  O   UNL A   1      45.520  24.985  24.618  1.00  0.00    -0.246 OA
BRANCH  22  24
ATOM     24  C   UNL A   1      43.774  25.440  26.175  1.00  0.00     0.060 A 
ATOM     25  C   UNL A   1      44.086  26.801  26.281  1.00  0.00     0.016 A 
ATOM     26  C   UNL A   1      42.808  24.874  27.014  1.00  0.00     0.016 A 
ATOM     27  C   UNL A   1      43.455  27.590  27.247  1.00  0.00     0.010 A 
ATOM     28  C   UNL A   1      42.178  25.665  27.979  1.00  0.00     0.010 A 
ATOM     29  C   UNL A   1      42.515  27.022  28.118  1.00  0.00    -0.014 A 
BRANCH  29  30
ATOM     30  C   UNL A   1      41.967  27.812  29.248  1.00  0.00     0.031 A 
ATOM     31  C   UNL A   1      42.656  27.761  30.584  1.00  0.00     0.074 A 
ATOM     32  C   UNL A   1      40.868  28.572  29.092  1.00  0.00     0.049 A 
ATOM     33  N   UNL A   1      42.333  28.352  31.706  1.00  0.00    -0.248 NA
ATOM     34  C   UNL A   1      43.869  26.931  30.665  1.00  0.00     0.031 C 
ATOM     35  C   UNL A   1      40.121  28.734  27.847  1.00  0.00     0.029 A 
ATOM     36  N   UNL A   1      40.189  29.350  29.998  1.00  0.00    -0.354 N 
ATOM     37  C   UNL A   1      43.309  27.980  32.621  1.00  0.00     0.074 A 
ATOM     38  C   UNL A   1      44.211  27.077  31.938  1.00  0.00     0.031 C 
ATOM     39  C   UNL A   1      39.085  29.562  28.066  1.00  0.00     0.029 A 
ATOM     40  C   UNL A   1      39.082  29.969  29.472  1.00  0.00     0.049 A 
ATOM     41  H   UNL A   1      40.470  29.454  30.935  1.00  0.00     0.167 HD
ATOM     42  C   UNL A   1      43.453  28.370  33.909  1.00  0.00     0.037 A 
ATOM     43  C   UNL A   1      38.167  30.766  30.057  1.00  0.00     0.037 A 
ATOM     44  C   UNL A   1      42.561  29.263  34.598  1.00  0.00     0.049 A 
ATOM     45  C   UNL A   1      38.300  31.116  31.515  1.00  0.00     0.074 A 
ATOM     46  C   UNL A   1      42.639  29.720  35.902  1.00  0.00     0.029 A 
ATOM     47  N   UNL A   1      41.425  29.829  34.042  1.00  0.00    -0.354 N 
ATOM     48  N   UNL A   1      39.239  30.777  32.364  1.00  0.00    -0.248 NA
ATOM     49  C   UNL A   1      37.245  31.960  32.098  1.00  0.00     0.031 C 
ATOM     50  C   UNL A   1      41.528  30.530  36.149  1.00  0.00     0.029 A 
ATOM     51  C   UNL A   1      40.781  30.613  34.985  1.00  0.00     0.049 A 
ATOM     52  H   UNL A   1      41.122  29.696  33.115  1.00  0.00     0.167 HD
ATOM     53  C   UNL A   1      38.907  31.388  33.567  1.00  0.00     0.074 A 
ATOM     54  C   UNL A   1      37.680  32.122  33.340  1.00  0.00     0.031 C 
ATOM     55  C   UNL A   1      39.564  31.347  34.750  1.00  0.00     0.037 A 
BRANCH  42  56
ATOM     56  C   UNL A   1      44.626  27.828  34.669  1.00  0.00     0.057 A 
ATOM     57  C   UNL A   1      44.521  26.639  35.400  1.00  0.00     0.134 A 
ATOM     58  C   UNL A   1      45.842  28.521  34.726  1.00  0.00     0.134 A 
ATOM     59  F   UNL A   1      43.381  25.932  35.390  1.00  0.00    -0.206 F 
ATOM     60  C   UNL A   1      45.581  26.163  36.171  1.00  0.00     0.040 A 
ATOM     61  C   UNL A   1      46.917  28.043  35.476  1.00  0.00     0.040 A 
ATOM     62  F   UNL A   1      46.009  29.660  34.037  1.00  0.00    -0.206 F 
ATOM     63  C   UNL A   1      46.785  26.865  36.208  1.00  0.00     0.006 A 
ENDBRANCH  42  56
BRANCH  43  64
ATOM     64  C   UNL A   1      37.038  31.303  29.257  1.00  0.00     0.057 A 
ATOM     65  C   UNL A   1      37.068  32.599  28.729  1.00  0.00     0.134 A 
ATOM     66  C   UNL A   1      35.905  30.524  28.995  1.00  0.00     0.134 A 
ATOM     67  F   UNL A   1      38.127  33.393  28.943  1.00  0.00    -0.206 F 
ATOM     68  C   UNL A   1      36.007  33.106  27.978  1.00  0.00     0.040 A 
ATOM     69  C   UNL A   1      34.845  31.011  28.229  1.00  0.00     0.040 A 
ATOM     70  F   UNL A   1      35.832  29.266  29.453  1.00  0.00    -0.206 F 
ATOM     71  C   UNL A   1      34.892  32.310  27.723  1.00  0.00     0.006 A 
ENDBRANCH  43  64
BRANCH  55  72
ATOM     72  C   UNL A   1      38.998  32.131  35.897  1.00  0.00     0.057 A 
ATOM     73  C   UNL A   1      39.347  33.476  36.084  1.00  0.00     0.134 A 
ATOM     74  C   UNL A   1      38.179  31.535  36.864  1.00  0.00     0.134 A 
ATOM     75  F   UNL A   1      40.138  34.103  35.201  1.00  0.00    -0.206 F 
ATOM     76  C   UNL A   1      38.917  34.194  37.201  1.00  0.00     0.040 A 
ATOM     77  C   UNL A   1      37.723  32.251  37.974  1.00  0.00     0.040 A 
ATOM     78  F   UNL A   1      37.801  30.254  36.739  1.00  0.00    -0.206 F 
ATOM     79  C   UNL A   1      38.101  33.581  38.149  1.00  0.00     0.006 A 
ENDBRANCH  55  72
ENDBRANCH  29  30
ENDBRANCH  22  24
ENDBRANCH  21  22
ENDBRANCH  20  21
ENDBRANCH   1  20
TORSDOF 14
ENDMDL
MODEL 2
REMARK VINA RESULT:     -11.5      5.835     10.773
REMARK SMILES O=C(CSc1nc(-c2cccc(F)c2)n[nH]1)OCCOC(=O)c1ccc(-c2c3nc(c(-c4c(F)cccc4F)c4ccc([nH]4)c(-c4c(F)cccc4F)c4nc(c(-c5c(F)cccc5F)c5ccc2[nH]5)C=C4)C=C3)cc1
REMARK SMILES IDX 18 1 17 2 2 3 1 4 3 5 4 6 5 7 6 8 16 9 7 10 15 11 8 13 9 14
REMARK SMILES IDX 14 15 10 16 12 17 11 18 13 19 19 20 20 21 21 22 22 23 23 24
REMARK SMILES IDX 24 25 76 26 25 27 75 28 26 29 27 30 28 31 69 32 29 33 74 34
REMARK SMILES IDX 68 35 70 36 30 37 73 38 67 39 66 40 31 42 57 43 40 44 56 45
REMARK SMILES IDX 41 46 44 47 55 48 71 49 42 50 43 51 54 53 72 54 45 55 32 56
REMARK SMILES IDX 33 57 38 58 34 59 35 60 37 61 39 62 36 63 58 64 59 65 64 66
REMARK SMILES IDX 60 67 61 68 63 69 65 70 62 71 46 72 47 73 52 74 48 75 49 76
REMARK SMILES IDX 51 77 53 78 50 79
REMARK H PARENT 16 12 70 41 44 52
REMARK Flexibility Score: inf
ROOT
ATOM      1  C   UNL A   1      33.422  36.694  30.846  1.00  0.00     0.274 C 
ENDROOT
BRANCH   1   2
ATOM      2  O   UNL A   1      34.175  35.901  31.788  1.00  0.00    -0.461 OA
BRANCH   2   3
ATOM      3  C   UNL A   1      34.373  36.236  33.088  1.00  0.00     0.316 C 
ATOM      4  O   UNL A   1      34.078  37.364  33.477  1.00  0.00    -0.251 OA
BRANCH   3   5
ATOM      5  C   UNL A   1      34.974  35.205  34.020  1.00  0.00     0.200 C 
BRANCH   5   6
ATOM      6  S   UNL A   1      34.458  33.512  33.611  1.00  0.00    -0.075 SA
BRANCH   6   7
ATOM      7  C   UNL A   1      35.964  32.702  33.755  1.00  0.00     0.184 A 
ATOM      8  N   UNL A   1      36.306  31.560  33.228  1.00  0.00    -0.201 NA
ATOM      9  N   UNL A   1      36.981  33.187  34.509  1.00  0.00    -0.254 N 
ATOM     10  C   UNL A   1      37.575  31.354  33.713  1.00  0.00     0.182 A 
ATOM     11  N   UNL A   1      38.014  32.325  34.535  1.00  0.00    -0.153 NA
ATOM     12  H   UNL A   1      36.967  34.055  34.974  1.00  0.00     0.192 HD
BRANCH  10  13
ATOM     13  C   UNL A   1      38.343  30.176  33.349  1.00  0.00     0.024 A 
ATOM     14  C   UNL A   1      37.729  29.134  32.635  1.00  0.00     0.012 A 
ATOM     15  C   UNL A   1      39.688  30.060  33.711  1.00  0.00     0.051 A 
ATOM     16  C   UNL A   1      38.456  27.999  32.270  1.00  0.00     0.004 A 
ATOM     17  C   UNL A   1      40.396  28.917  33.359  1.00  0.00     0.123 A 
ATOM     18  C   UNL A   1      39.796  27.891  32.637  1.00  0.00     0.039 A 
ATOM     19  F   UNL A   1      41.679  28.800  33.724  1.00  0.00    -0.207 F 
ENDBRANCH  10  13
ENDBRANCH   6   7
ENDBRANCH   5   6
ENDBRANCH   3   5
ENDBRANCH   2   3
ENDBRANCH   1   2
BRANCH   1  20
ATOM     20  C   UNL A   1      32.440  35.827  30.054  1.00  0.00     0.275 C 
BRANCH  20  21
ATOM     21  O   UNL A   1      32.944  35.606  28.722  1.00  0.00    -0.458 OA
BRANCH  21  22
ATOM     22  C   UNL A   1      33.063  34.310  28.340  1.00  0.00     0.338 C 
ATOM     23  O   UNL A   1      32.317  33.693  27.601  1.00  0.00    -0.246 OA
BRANCH  22  24
ATOM     24  C   UNL A   1      34.353  33.783  28.836  1.00  0.00     0.060 A 
ATOM     25  C   UNL A   1      35.536  34.304  28.295  1.00  0.00     0.016 A 
ATOM     26  C   UNL A   1      34.409  32.789  29.819  1.00  0.00     0.016 A 
ATOM     27  C   UNL A   1      36.774  33.811  28.716  1.00  0.00     0.010 A 
ATOM     28  C   UNL A   1      35.649  32.297  30.238  1.00  0.00     0.010 A 
ATOM     29  C   UNL A   1      36.838  32.787  29.672  1.00  0.00    -0.014 A 
BRANCH  29  30
ATOM     30  C   UNL A   1      38.135  32.147  29.999  1.00  0.00     0.031 A 
ATOM     31  C   UNL A   1      39.096  32.858  30.912  1.00  0.00     0.074 A 
ATOM     32  C   UNL A   1      38.459  30.942  29.496  1.00  0.00     0.049 A 
ATOM     33  N   UNL A   1      40.288  32.491  31.309  1.00  0.00    -0.248 NA
ATOM     34  C   UNL A   1      38.656  34.157  31.445  1.00  0.00     0.031 C 
ATOM     35  C   UNL A   1      37.610  30.133  28.626  1.00  0.00     0.029 A 
ATOM     36  N   UNL A   1      39.600  30.192  29.649  1.00  0.00    -0.354 N 
ATOM     37  C   UNL A   1      40.734  33.503  32.149  1.00  0.00     0.074 A 
ATOM     38  C   UNL A   1      39.704  34.521  32.170  1.00  0.00     0.031 C 
ATOM     39  C   UNL A   1      38.259  28.996  28.320  1.00  0.00     0.029 A 
ATOM     40  C   UNL A   1      39.578  29.008  28.953  1.00  0.00     0.049 A 
ATOM     41  H   UNL A   1      40.360  30.476  30.204  1.00  0.00     0.167 HD
ATOM     42  C   UNL A   1      41.887  33.570  32.854  1.00  0.00     0.037 A 
ATOM     43  C   UNL A   1      40.516  28.049  28.835  1.00  0.00     0.037 A 
ATOM     44  C   UNL A   1      42.916  32.567  32.836  1.00  0.00     0.049 A 
ATOM     45  C   UNL A   1      41.827  28.187  29.561  1.00  0.00     0.074 A 
ATOM     46  C   UNL A   1      44.113  32.550  33.531  1.00  0.00     0.029 A 
ATOM     47  N   UNL A   1      42.875  31.405  32.081  1.00  0.00    -0.354 N 
ATOM     48  N   UNL A   1      42.227  29.137  30.371  1.00  0.00    -0.248 NA
ATOM     49  C   UNL A   1      42.819  27.120  29.357  1.00  0.00     0.031 C 
ATOM     50  C   UNL A   1      44.816  31.399  33.164  1.00  0.00     0.029 A 
ATOM     51  C   UNL A   1      44.037  30.677  32.275  1.00  0.00     0.049 A 
ATOM     52  H   UNL A   1      42.130  31.138  31.495  1.00  0.00     0.167 HD
ATOM     53  C   UNL A   1      43.498  28.768  30.794  1.00  0.00     0.074 A 
ATOM     54  C   UNL A   1      43.805  27.506  30.155  1.00  0.00     0.031 C 
ATOM     55  C   UNL A   1      44.332  29.418  31.642  1.00  0.00     0.037 A 
BRANCH  42  56
ATOM     56  C   UNL A   1      42.102  34.780  33.713  1.00  0.00     0.057 A 
ATOM     57  C   UNL A   1      41.566  34.848  35.003  1.00  0.00     0.134 A 
ATOM     58  C   UNL A   1      42.788  35.903  33.233  1.00  0.00     0.134 A 
ATOM     59  F   UNL A   1      40.893  33.807  35.517  1.00  0.00    -0.206 F 
ATOM     60  C   UNL A   1      41.694  35.996  35.785  1.00  0.00     0.040 A 
ATOM     61  C   UNL A   1      42.942  37.049  34.014  1.00  0.00     0.040 A 
ATOM     62  F   UNL A   1      43.336  35.894  32.008  1.00  0.00    -0.206 F 
ATOM     63  C   UNL A   1      42.387  37.100  35.291  1.00  0.00     0.006 A 
ENDBRANCH  42  56
BRANCH  43  64
ATOM     64  C   UNL A   1      40.245  26.853  27.997  1.00  0.00     0.057 A 
ATOM     65  C   UNL A   1      40.756  26.740  26.699  1.00  0.00     0.134 A 
ATOM     66  C   UNL A   1      39.477  25.790  28.485  1.00  0.00     0.134 A 
ATOM     67  F   UNL A   1      41.502  27.724  26.176  1.00  0.00    -0.206 F 
ATOM     68  C   UNL A   1      40.501  25.617  25.910  1.00  0.00     0.040 A 
ATOM     69  C   UNL A   1      39.231  24.652  27.715  1.00  0.00     0.040 A 
ATOM     70  F   UNL A   1      38.985  25.831  29.732  1.00  0.00    -0.206 F 
ATOM     71  C   UNL A   1      39.740  24.567  26.419  1.00  0.00     0.006 A 
ENDBRANCH  43  64
BRANCH  55  72
ATOM     72  C   UNL A   1      45.652  28.777  31.958  1.00  0.00     0.057 A 
ATOM     73  C   UNL A   1      46.767  29.000  31.138  1.00  0.00     0.134 A 
ATOM     74  C   UNL A   1      45.798  27.874  33.017  1.00  0.00     0.134 A 
ATOM     75  F   UNL A   1      46.690  29.845  30.099  1.00  0.00    -0.206 F 
ATOM     76  C   UNL A   1      47.975  28.334  31.352  1.00  0.00     0.040 A 
ATOM     77  C   UNL A   1      47.008  27.219  33.254  1.00  0.00     0.040 A 
ATOM     78  F   UNL A   1      44.771  27.624  33.844  1.00  0.00    -0.206 F 
ATOM     79  C   UNL A   1      48.097  27.441  32.413  1.00  0.00     0.006 A 
ENDBRANCH  55  72
ENDBRANCH  29  30
ENDBRANCH  22  24
ENDBRANCH  21  22
ENDBRANCH  20  21
ENDBRANCH   1  20
TORSDOF 14
ENDMDL
MODEL 3
REMARK VINA RESULT:     -10.9      0.815      6.558
REMARK SMILES O=C(CSc1nc(-c2cccc(F)c2)n[nH]1)OCCOC(=O)c1ccc(-c2c3nc(c(-c4c(F)cccc4F)c4ccc([nH]4)c(-c4c(F)cccc4F)c4nc(c(-c5c(F)cccc5F)c5ccc2[nH]5)C=C4)C=C3)cc1
REMARK SMILES IDX 18 1 17 2 2 3 1 4 3 5 4 6 5 7 6 8 16 9 7 10 15 11 8 13 9 14
REMARK SMILES IDX 14 15 10 16 12 17 11 18 13 19 19 20 20 21 21 22 22 23 23 24
REMARK SMILES IDX 24 25 76 26 25 27 75 28 26 29 27 30 28 31 69 32 29 33 74 34
REMARK SMILES IDX 68 35 70 36 30 37 73 38 67 39 66 40 31 42 57 43 40 44 56 45
REMARK SMILES IDX 41 46 44 47 55 48 71 49 42 50 43 51 54 53 72 54 45 55 32 56
REMARK SMILES IDX 33 57 38 58 34 59 35 60 37 61 39 62 36 63 58 64 59 65 64 66
REMARK SMILES IDX 60 67 61 68 63 69 65 70 62 71 46 72 47 73 52 74 48 75 49 76
REMARK SMILES IDX 51 77 53 78 50 79
REMARK H PARENT 16 12 70 41 44 52
REMARK Flexibility Score: inf
ROOT
ATOM      1  C   UNL A   1      44.790  22.084  24.639  1.00  0.00     0.274 C 
ENDROOT
BRANCH   1   2
ATOM      2  O   UNL A   1      44.597  20.978  23.730  1.00  0.00    -0.461 OA
BRANCH   2   3
ATOM      3  C   UNL A   1      44.658  19.671  24.087  1.00  0.00     0.316 C 
ATOM      4  O   UNL A   1      44.798  18.811  23.220  1.00  0.00    -0.251 OA
BRANCH   3   5
ATOM      5  C   UNL A   1      44.529  19.311  25.552  1.00  0.00     0.200 C 
BRANCH   5   6
ATOM      6  S   UNL A   1      43.138  18.188  25.874  1.00  0.00    -0.075 SA
BRANCH   6   7
ATOM      7  C   UNL A   1      41.993  19.307  26.492  1.00  0.00     0.184 A 
ATOM      8  N   UNL A   1      41.255  20.143  25.818  1.00  0.00    -0.201 NA
ATOM      9  N   UNL A   1      41.770  19.458  27.821  1.00  0.00    -0.254 N 
ATOM     10  C   UNL A   1      40.584  20.834  26.798  1.00  0.00     0.182 A 
ATOM     11  N   UNL A   1      40.901  20.460  28.050  1.00  0.00    -0.153 NA
ATOM     12  H   UNL A   1      42.187  18.909  28.523  1.00  0.00     0.192 HD
BRANCH  10  13
ATOM     13  C   UNL A   1      39.624  21.874  26.468  1.00  0.00     0.024 A 
ATOM     14  C   UNL A   1      38.519  21.574  25.657  1.00  0.00     0.012 A 
ATOM     15  C   UNL A   1      39.795  23.178  26.941  1.00  0.00     0.051 A 
ATOM     16  C   UNL A   1      37.583  22.560  25.339  1.00  0.00     0.004 A 
ATOM     17  C   UNL A   1      38.868  24.156  26.602  1.00  0.00     0.123 A 
ATOM     18  C   UNL A   1      37.761  23.859  25.813  1.00  0.00     0.039 A 
ATOM     19  F   UNL A   1      39.044  25.410  27.040  1.00  0.00    -0.207 F 
ENDBRANCH  10  13
ENDBRANCH   6   7
ENDBRANCH   5   6
ENDBRANCH   3   5
ENDBRANCH   2   3
ENDBRANCH   1   2
BRANCH   1  20
ATOM     20  C   UNL A   1      43.450  22.680  25.077  1.00  0.00     0.275 C 
BRANCH  20  21
ATOM     21  O   UNL A   1      43.349  24.045  24.624  1.00  0.00    -0.458 OA
BRANCH  21  22
ATOM     22  C   UNL A   1      44.248  24.913  25.152  1.00  0.00     0.338 C 
ATOM     23  O   UNL A   1      45.368  25.151  24.736  1.00  0.00    -0.246 OA
BRANCH  22  24
ATOM     24  C   UNL A   1      43.597  25.668  26.245  1.00  0.00     0.060 A 
ATOM     25  C   UNL A   1      43.883  27.034  26.371  1.00  0.00     0.016 A 
ATOM     26  C   UNL A   1      42.714  25.050  27.138  1.00  0.00     0.016 A 
ATOM     27  C   UNL A   1      43.311  27.775  27.408  1.00  0.00     0.010 A 
ATOM     28  C   UNL A   1      42.144  25.795  28.175  1.00  0.00     0.010 A 
ATOM     29  C   UNL A   1      42.458  27.155  28.331  1.00  0.00    -0.014 A 
BRANCH  29  30
ATOM     30  C   UNL A   1      41.981  27.895  29.526  1.00  0.00     0.031 A 
ATOM     31  C   UNL A   1      40.758  28.763  29.413  1.00  0.00     0.074 A 
ATOM     32  C   UNL A   1      42.624  27.795  30.704  1.00  0.00     0.049 A 
ATOM     33  N   UNL A   1      40.185  29.509  30.323  1.00  0.00    -0.248 NA
ATOM     34  C   UNL A   1      40.094  28.794  28.101  1.00  0.00     0.031 C 
ATOM     35  C   UNL A   1      43.801  26.969  30.957  1.00  0.00     0.029 A 
ATOM     36  N   UNL A   1      42.371  28.403  31.909  1.00  0.00    -0.354 N 
ATOM     37  C   UNL A   1      39.087  30.087  29.699  1.00  0.00     0.074 A 
ATOM     38  C   UNL A   1      39.098  29.640  28.323  1.00  0.00     0.031 C 
ATOM     39  C   UNL A   1      44.170  27.120  32.241  1.00  0.00     0.029 A 
ATOM     40  C   UNL A   1      43.270  28.072  32.892  1.00  0.00     0.049 A 
ATOM     41  H   UNL A   1      41.616  29.017  32.054  1.00  0.00     0.167 HD
ATOM     42  C   UNL A   1      38.145  30.900  30.230  1.00  0.00     0.037 A 
ATOM     43  C   UNL A   1      43.361  28.494  34.169  1.00  0.00     0.037 A 
ATOM     44  C   UNL A   1      38.128  31.352  31.595  1.00  0.00     0.049 A 
ATOM     45  C   UNL A   1      42.350  29.467  34.712  1.00  0.00     0.074 A 
ATOM     46  C   UNL A   1      37.202  32.170  32.219  1.00  0.00     0.029 A 
ATOM     47  N   UNL A   1      39.084  31.032  32.545  1.00  0.00    -0.354 N 
ATOM     48  N   UNL A   1      41.303  29.988  34.119  1.00  0.00    -0.248 NA
ATOM     49  C   UNL A   1      42.532  29.913  36.102  1.00  0.00     0.031 C 
ATOM     50  C   UNL A   1      37.620  32.379  33.535  1.00  0.00     0.029 A 
ATOM     51  C   UNL A   1      38.782  31.655  33.744  1.00  0.00     0.049 A 
ATOM     52  H   UNL A   1      39.861  30.447  32.391  1.00  0.00     0.167 HD
ATOM     53  C   UNL A   1      40.687  30.794  35.069  1.00  0.00     0.074 A 
ATOM     54  C   UNL A   1      41.475  30.694  36.279  1.00  0.00     0.031 C 
ATOM     55  C   UNL A   1      39.566  31.545  34.947  1.00  0.00     0.037 A 
BRANCH  42  56
ATOM     56  C   UNL A   1      37.041  31.361  29.325  1.00  0.00     0.057 A 
ATOM     57  C   UNL A   1      37.044  32.656  28.794  1.00  0.00     0.134 A 
ATOM     58  C   UNL A   1      35.945  30.540  29.035  1.00  0.00     0.134 A 
ATOM     59  F   UNL A   1      38.063  33.492  29.040  1.00  0.00    -0.206 F 
ATOM     60  C   UNL A   1      35.987  33.123  28.012  1.00  0.00     0.040 A 
ATOM     61  C   UNL A   1      34.892  30.989  28.236  1.00  0.00     0.040 A 
ATOM     62  F   UNL A   1      35.890  29.285  29.505  1.00  0.00    -0.206 F 
ATOM     63  C   UNL A   1      34.908  32.287  27.729  1.00  0.00     0.006 A 
ENDBRANCH  42  56
BRANCH  43  64
ATOM     64  C   UNL A   1      44.454  27.986  35.036  1.00  0.00     0.057 A 
ATOM     65  C   UNL A   1      44.321  26.794  35.756  1.00  0.00     0.134 A 
ATOM     66  C   UNL A   1      45.663  28.681  35.153  1.00  0.00     0.134 A 
ATOM     67  F   UNL A   1      43.188  26.080  35.683  1.00  0.00    -0.206 F 
ATOM     68  C   UNL A   1      45.347  26.316  36.574  1.00  0.00     0.040 A 
ATOM     69  C   UNL A   1      46.704  28.206  35.951  1.00  0.00     0.040 A 
ATOM     70  F   UNL A   1      45.857  29.816  34.466  1.00  0.00    -0.206 F 
ATOM     71  C   UNL A   1      46.545  27.021  36.670  1.00  0.00     0.006 A 
ENDBRANCH  43  64
BRANCH  55  72
ATOM     72  C   UNL A   1      39.096  32.307  36.151  1.00  0.00     0.057 A 
ATOM     73  C   UNL A   1      38.181  31.734  37.045  1.00  0.00     0.134 A 
ATOM     74  C   UNL A   1      39.478  33.634  36.379  1.00  0.00     0.134 A 
ATOM     75  F   UNL A   1      37.764  30.470  36.877  1.00  0.00    -0.206 F 
ATOM     76  C   UNL A   1      37.650  32.460  38.112  1.00  0.00     0.040 A 
ATOM     77  C   UNL A   1      38.971  34.363  37.457  1.00  0.00     0.040 A 
ATOM     78  F   UNL A   1      40.359  34.237  35.566  1.00  0.00    -0.206 F 
ATOM     79  C   UNL A   1      38.046  33.779  38.320  1.00  0.00     0.006 A 
ENDBRANCH  55  72
ENDBRANCH  29  30
ENDBRANCH  22  24
ENDBRANCH  21  22
ENDBRANCH  20  21
ENDBRANCH   1  20
TORSDOF 14
ENDMDL
