MODEL 1
REMARK VINA RESULT:     -11.6      0.000      0.000
REMARK SMILES O=C(OCCOC(=O)c1sccc1S(=O)(=O)Nc1ccccc1N1CCCCC1)c1ccc(-c2c3nc(c(-c4c(F)cccc4F)c4ccc([nH]4)c(-c4c(F)cccc4F)c4nc(c(-c5c(F)cccc5F)c5ccc2[nH]5)C=C4)C=C3)cc1
REMARK SMILES IDX 5 1 4 2 3 3 2 4 1 5 30 6 31 7 83 8 32 9 82 10 33 11 34 12
REMARK SMILES IDX 35 13 76 14 36 15 81 16 75 17 77 18 37 19 80 20 74 21 73 22
REMARK SMILES IDX 38 24 64 25 47 26 63 27 48 28 51 29 62 30 78 31 49 32 50 33
REMARK SMILES IDX 61 35 79 36 52 37 39 38 40 39 45 40 41 41 42 42 44 43 46 44
REMARK SMILES IDX 43 45 65 46 66 47 71 48 67 49 68 50 70 51 72 52 69 53 53 54
REMARK SMILES IDX 54 55 59 56 55 57 56 58 58 59 60 60 57 61 6 62 7 63 8 64
REMARK SMILES IDX 9 65 10 66 13 67 11 68 12 69 14 70 15 71 16 72 17 73 18 75
REMARK SMILES IDX 19 76 23 77 20 78 22 79 21 80 24 81 25 82 29 83 26 84 28 85
REMARK SMILES IDX 27 86
REMARK H PARENT 77 23 51 34 17 74
REMARK Flexibility Score: inf
ROOT
ATOM      1  C   UNL A   1      31.749  31.614  26.931  1.00  0.00     0.275 C 
ENDROOT
BRANCH   1   2
ATOM      2  C   UNL A   1      32.168  33.077  26.799  1.00  0.00     0.275 C 
BRANCH   2   3
ATOM      3  O   UNL A   1      32.257  33.776  28.048  1.00  0.00    -0.458 OA
BRANCH   3   4
ATOM      4  C   UNL A   1      33.397  34.374  28.473  1.00  0.00     0.338 C 
ATOM      5  O   UNL A   1      33.574  35.582  28.370  1.00  0.00    -0.246 OA
BRANCH   4   6
ATOM      6  C   UNL A   1      34.545  33.495  28.793  1.00  0.00     0.060 A 
ATOM      7  C   UNL A   1      34.421  32.275  29.465  1.00  0.00     0.016 A 
ATOM      8  C   UNL A   1      35.818  33.960  28.438  1.00  0.00     0.016 A 
ATOM      9  C   UNL A   1      35.540  31.480  29.695  1.00  0.00     0.010 A 
ATOM     10  C   UNL A   1      36.947  33.182  28.700  1.00  0.00     0.010 A 
ATOM     11  C   UNL A   1      36.808  31.942  29.336  1.00  0.00    -0.014 A 
BRANCH  11  12
ATOM     12  C   UNL A   1      37.987  31.284  29.933  1.00  0.00     0.031 A 
ATOM     13  C   UNL A   1      38.328  31.678  31.333  1.00  0.00     0.074 A 
ATOM     14  C   UNL A   1      38.673  30.318  29.299  1.00  0.00     0.049 A 
ATOM     15  N   UNL A   1      39.209  31.160  32.141  1.00  0.00    -0.248 NA
ATOM     16  C   UNL A   1      37.527  32.769  31.920  1.00  0.00     0.031 C 
ATOM     17  C   UNL A   1      38.342  29.786  27.989  1.00  0.00     0.029 A 
ATOM     18  N   UNL A   1      39.790  29.617  29.667  1.00  0.00    -0.354 N 
ATOM     19  C   UNL A   1      39.007  31.799  33.352  1.00  0.00     0.074 A 
ATOM     20  C   UNL A   1      37.988  32.803  33.158  1.00  0.00     0.031 C 
ATOM     21  C   UNL A   1      39.283  28.905  27.609  1.00  0.00     0.029 A 
ATOM     22  C   UNL A   1      40.260  28.780  28.683  1.00  0.00     0.049 A 
ATOM     23  H   UNL A   1      40.215  29.704  30.551  1.00  0.00     0.167 HD
ATOM     24  C   UNL A   1      39.594  31.537  34.539  1.00  0.00     0.037 A 
ATOM     25  C   UNL A   1      41.352  27.994  28.673  1.00  0.00     0.037 A 
ATOM     26  C   UNL A   1      40.663  30.599  34.696  1.00  0.00     0.049 A 
ATOM     27  C   UNL A   1      42.137  27.873  29.950  1.00  0.00     0.074 A 
ATOM     28  C   UNL A   1      41.400  30.302  35.825  1.00  0.00     0.029 A 
ATOM     29  N   UNL A   1      41.171  29.825  33.660  1.00  0.00    -0.354 N 
ATOM     30  N   UNL A   1      41.902  28.437  31.113  1.00  0.00    -0.248 NA
ATOM     31  C   UNL A   1      43.303  26.983  29.937  1.00  0.00     0.031 C 
ATOM     32  C   UNL A   1      42.386  29.377  35.460  1.00  0.00     0.029 A 
ATOM     33  C   UNL A   1      42.238  29.073  34.113  1.00  0.00     0.049 A 
ATOM     34  H   UNL A   1      40.823  29.812  32.740  1.00  0.00     0.167 HD
ATOM     35  C   UNL A   1      42.853  27.927  31.983  1.00  0.00     0.074 A 
ATOM     36  C   UNL A   1      43.678  27.019  31.208  1.00  0.00     0.031 C 
ATOM     37  C   UNL A   1      43.020  28.169  33.307  1.00  0.00     0.037 A 
BRANCH  24  38
ATOM     38  C   UNL A   1      39.074  32.320  35.699  1.00  0.00     0.057 A 
ATOM     39  C   UNL A   1      39.543  33.617  35.963  1.00  0.00     0.134 A 
ATOM     40  C   UNL A   1      38.222  31.731  36.636  1.00  0.00     0.134 A 
ATOM     41  F   UNL A   1      40.403  34.213  35.123  1.00  0.00    -0.206 F 
ATOM     42  C   UNL A   1      39.203  34.287  37.138  1.00  0.00     0.040 A 
ATOM     43  C   UNL A   1      37.864  32.398  37.809  1.00  0.00     0.040 A 
ATOM     44  F   UNL A   1      37.770  30.482  36.454  1.00  0.00    -0.206 F 
ATOM     45  C   UNL A   1      38.364  33.675  38.067  1.00  0.00     0.006 A 
ENDBRANCH  24  38
BRANCH  25  46
ATOM     46  C   UNL A   1      41.747  27.252  27.447  1.00  0.00     0.057 A 
ATOM     47  C   UNL A   1      41.408  25.908  27.257  1.00  0.00     0.134 A 
ATOM     48  C   UNL A   1      42.517  27.864  26.449  1.00  0.00     0.134 A 
ATOM     49  F   UNL A   1      40.688  25.257  28.183  1.00  0.00    -0.206 F 
ATOM     50  C   UNL A   1      41.842  25.192  26.137  1.00  0.00     0.040 A 
ATOM     51  C   UNL A   1      42.943  27.166  25.316  1.00  0.00     0.040 A 
ATOM     52  F   UNL A   1      42.877  29.152  26.565  1.00  0.00    -0.206 F 
ATOM     53  C   UNL A   1      42.612  25.822  25.162  1.00  0.00     0.006 A 
ENDBRANCH  25  46
BRANCH  37  54
ATOM     54  C   UNL A   1      44.107  27.411  33.997  1.00  0.00     0.057 A 
ATOM     55  C   UNL A   1      43.881  26.151  34.559  1.00  0.00     0.134 A 
ATOM     56  C   UNL A   1      45.408  27.927  34.043  1.00  0.00     0.134 A 
ATOM     57  F   UNL A   1      42.650  25.617  34.557  1.00  0.00    -0.206 F 
ATOM     58  C   UNL A   1      44.914  25.429  35.154  1.00  0.00     0.040 A 
ATOM     59  C   UNL A   1      46.453  27.206  34.615  1.00  0.00     0.040 A 
ATOM     60  F   UNL A   1      45.684  29.130  33.515  1.00  0.00    -0.206 F 
ATOM     61  C   UNL A   1      46.207  25.952  35.175  1.00  0.00     0.006 A 
ENDBRANCH  37  54
ENDBRANCH  11  12
ENDBRANCH   4   6
ENDBRANCH   3   4
ENDBRANCH   2   3
ENDBRANCH   1   2
BRANCH   1  62
ATOM     62  O   UNL A   1      31.331  30.966  25.721  1.00  0.00    -0.458 OA
BRANCH  62  63
ATOM     63  C   UNL A   1      32.024  29.842  25.384  1.00  0.00     0.349 C 
ATOM     64  O   UNL A   1      32.982  29.416  26.015  1.00  0.00    -0.245 OA
BRANCH  63  65
ATOM     65  C   UNL A   1      31.436  29.186  24.232  1.00  0.00     0.133 A 
ATOM     66  S   UNL A   1      29.863  29.740  23.761  1.00  0.00    -0.136 S 
ATOM     67  C   UNL A   1      31.839  28.120  23.440  1.00  0.00     0.113 A 
ATOM     68  C   UNL A   1      29.786  28.666  22.444  1.00  0.00     0.067 A 
ATOM     69  C   UNL A   1      30.870  27.821  22.416  1.00  0.00     0.035 A 
BRANCH  67  70
ATOM     70  S   UNL A   1      33.310  27.201  23.586  1.00  0.00     0.263 S 
ATOM     71  O   UNL A   1      33.107  26.071  22.700  1.00  0.00    -0.201 OA
ATOM     72  O   UNL A   1      34.392  28.123  23.324  1.00  0.00    -0.201 OA
BRANCH  70  73
ATOM     73  N   UNL A   1      33.523  26.521  25.113  1.00  0.00    -0.277 N 
ATOM     74  H   UNL A   1      34.252  26.813  25.705  1.00  0.00     0.180 HD
BRANCH  73  75
ATOM     75  C   UNL A   1      32.600  25.501  25.513  1.00  0.00     0.072 A 
ATOM     76  C   UNL A   1      31.325  25.906  25.936  1.00  0.00     0.029 A 
ATOM     77  C   UNL A   1      32.942  24.133  25.388  1.00  0.00     0.061 A 
ATOM     78  C   UNL A   1      30.355  24.955  26.238  1.00  0.00     0.002 A 
ATOM     79  C   UNL A   1      31.920  23.206  25.655  1.00  0.00     0.028 A 
ATOM     80  C   UNL A   1      30.646  23.606  26.073  1.00  0.00     0.002 A 
BRANCH  77  81
ATOM     81  N   UNL A   1      34.218  23.664  25.081  1.00  0.00    -0.370 N 
ATOM     82  C   UNL A   1      35.185  23.448  26.159  1.00  0.00     0.116 C 
ATOM     83  C   UNL A   1      34.472  22.964  23.821  1.00  0.00     0.116 C 
ATOM     84  C   UNL A   1      36.609  23.719  25.694  1.00  0.00     0.021 C 
ATOM     85  C   UNL A   1      35.897  23.247  23.345  1.00  0.00     0.021 C 
ATOM     86  C   UNL A   1      36.920  22.926  24.429  1.00  0.00     0.004 C 
ENDBRANCH  77  81
ENDBRANCH  73  75
ENDBRANCH  70  73
ENDBRANCH  67  70
ENDBRANCH  63  65
ENDBRANCH  62  63
ENDBRANCH   1  62
TORSDOF 15
ENDMDL
MODEL 2
REMARK VINA RESULT:     -11.5      1.440      2.224
REMARK SMILES O=C(OCCOC(=O)c1sccc1S(=O)(=O)Nc1ccccc1N1CCCCC1)c1ccc(-c2c3nc(c(-c4c(F)cccc4F)c4ccc([nH]4)c(-c4c(F)cccc4F)c4nc(c(-c5c(F)cccc5F)c5ccc2[nH]5)C=C4)C=C3)cc1
REMARK SMILES IDX 5 1 4 2 3 3 2 4 1 5 30 6 31 7 83 8 32 9 82 10 33 11 34 12
REMARK SMILES IDX 35 13 76 14 36 15 81 16 75 17 77 18 37 19 80 20 74 21 73 22
REMARK SMILES IDX 38 24 64 25 47 26 63 27 48 28 51 29 62 30 78 31 49 32 50 33
REMARK SMILES IDX 61 35 79 36 52 37 39 38 40 39 45 40 41 41 42 42 44 43 46 44
REMARK SMILES IDX 43 45 65 46 66 47 71 48 67 49 68 50 70 51 72 52 69 53 53 54
REMARK SMILES IDX 54 55 59 56 55 57 56 58 58 59 60 60 57 61 6 62 7 63 8 64
REMARK SMILES IDX 9 65 10 66 13 67 11 68 12 69 14 70 15 71 16 72 17 73 18 75
REMARK SMILES IDX 19 76 23 77 20 78 22 79 21 80 24 81 25 82 29 83 26 84 28 85
REMARK SMILES IDX 27 86
REMARK H PARENT 77 23 51 34 17 74
REMARK Flexibility Score: inf
ROOT
ATOM      1  C   UNL A   1      32.862  30.394  27.210  1.00  0.00     0.275 C 
ENDROOT
BRANCH   1   2
ATOM      2  C   UNL A   1      31.975  31.617  26.986  1.00  0.00     0.275 C 
BRANCH   2   3
ATOM      3  O   UNL A   1      32.695  32.853  26.888  1.00  0.00    -0.458 OA
BRANCH   3   4
ATOM      4  C   UNL A   1      33.088  33.561  27.976  1.00  0.00     0.338 C 
ATOM      5  O   UNL A   1      32.562  34.624  28.284  1.00  0.00    -0.246 OA
BRANCH   4   6
ATOM      6  C   UNL A   1      34.366  33.169  28.613  1.00  0.00     0.060 A 
ATOM      7  C   UNL A   1      35.618  33.369  28.022  1.00  0.00     0.016 A 
ATOM      8  C   UNL A   1      34.285  32.520  29.851  1.00  0.00     0.016 A 
ATOM      9  C   UNL A   1      36.782  33.014  28.699  1.00  0.00     0.010 A 
ATOM     10  C   UNL A   1      35.448  32.128  30.517  1.00  0.00     0.010 A 
ATOM     11  C   UNL A   1      36.700  32.371  29.936  1.00  0.00    -0.014 A 
BRANCH  11  12
ATOM     12  C   UNL A   1      37.894  31.662  30.436  1.00  0.00     0.031 A 
ATOM     13  C   UNL A   1      38.357  32.031  31.807  1.00  0.00     0.074 A 
ATOM     14  C   UNL A   1      38.491  30.677  29.745  1.00  0.00     0.049 A 
ATOM     15  N   UNL A   1      39.276  31.471  32.542  1.00  0.00    -0.248 NA
ATOM     16  C   UNL A   1      37.647  33.146  32.461  1.00  0.00     0.031 C 
ATOM     17  C   UNL A   1      38.039  30.170  28.461  1.00  0.00     0.029 A 
ATOM     18  N   UNL A   1      39.605  29.929  30.021  1.00  0.00    -0.354 N 
ATOM     19  C   UNL A   1      39.193  32.106  33.769  1.00  0.00     0.074 A 
ATOM     20  C   UNL A   1      38.202  33.150  33.660  1.00  0.00     0.031 C 
ATOM     21  C   UNL A   1      38.914  29.257  28.004  1.00  0.00     0.029 A 
ATOM     22  C   UNL A   1      39.965  29.084  28.998  1.00  0.00     0.049 A 
ATOM     23  H   UNL A   1      40.100  29.992  30.870  1.00  0.00     0.167 HD
ATOM     24  C   UNL A   1      39.859  31.811  34.905  1.00  0.00     0.037 A 
ATOM     25  C   UNL A   1      41.021  28.257  28.899  1.00  0.00     0.037 A 
ATOM     26  C   UNL A   1      40.900  30.831  34.974  1.00  0.00     0.049 A 
ATOM     27  C   UNL A   1      41.896  28.095  30.112  1.00  0.00     0.074 A 
ATOM     28  C   UNL A   1      41.709  30.495  36.040  1.00  0.00     0.029 A 
ATOM     29  N   UNL A   1      41.296  30.047  33.897  1.00  0.00    -0.354 N 
ATOM     30  N   UNL A   1      41.774  28.656  31.292  1.00  0.00    -0.248 NA
ATOM     31  C   UNL A   1      43.023  27.160  30.002  1.00  0.00     0.031 C 
ATOM     32  C   UNL A   1      42.627  29.537  35.594  1.00  0.00     0.029 A 
ATOM     33  C   UNL A   1      42.365  29.251  34.261  1.00  0.00     0.049 A 
ATOM     34  H   UNL A   1      40.878  30.057  33.006  1.00  0.00     0.167 HD
ATOM     35  C   UNL A   1      42.768  28.101  32.083  1.00  0.00     0.074 A 
ATOM     36  C   UNL A   1      43.495  27.170  31.241  1.00  0.00     0.031 C 
ATOM     37  C   UNL A   1      43.046  28.325  33.392  1.00  0.00     0.037 A 
BRANCH  24  38
ATOM     38  C   UNL A   1      39.461  32.603  36.107  1.00  0.00     0.057 A 
ATOM     39  C   UNL A   1      40.145  33.778  36.457  1.00  0.00     0.134 A 
ATOM     40  C   UNL A   1      38.499  32.119  36.997  1.00  0.00     0.134 A 
ATOM     41  F   UNL A   1      41.114  34.261  35.664  1.00  0.00    -0.206 F 
ATOM     42  C   UNL A   1      39.904  34.426  37.667  1.00  0.00     0.040 A 
ATOM     43  C   UNL A   1      38.240  32.768  38.205  1.00  0.00     0.040 A 
ATOM     44  F   UNL A   1      37.837  30.983  36.732  1.00  0.00    -0.206 F 
ATOM     45  C   UNL A   1      38.951  33.918  38.548  1.00  0.00     0.006 A 
ENDBRANCH  24  38
BRANCH  25  46
ATOM     46  C   UNL A   1      41.291  27.512  27.642  1.00  0.00     0.057 A 
ATOM     47  C   UNL A   1      40.840  26.201  27.450  1.00  0.00     0.134 A 
ATOM     48  C   UNL A   1      42.052  28.083  26.613  1.00  0.00     0.134 A 
ATOM     49  F   UNL A   1      40.123  25.589  28.403  1.00  0.00    -0.206 F 
ATOM     50  C   UNL A   1      41.156  25.477  26.297  1.00  0.00     0.040 A 
ATOM     51  C   UNL A   1      42.361  27.378  25.448  1.00  0.00     0.040 A 
ATOM     52  F   UNL A   1      42.516  29.337  26.729  1.00  0.00    -0.206 F 
ATOM     53  C   UNL A   1      41.920  26.066  25.291  1.00  0.00     0.006 A 
ENDBRANCH  25  46
BRANCH  37  54
ATOM     54  C   UNL A   1      44.153  27.520  33.991  1.00  0.00     0.057 A 
ATOM     55  C   UNL A   1      45.469  27.991  34.023  1.00  0.00     0.134 A 
ATOM     56  C   UNL A   1      43.881  26.288  34.597  1.00  0.00     0.134 A 
ATOM     57  F   UNL A   1      45.788  29.158  33.443  1.00  0.00    -0.206 F 
ATOM     58  C   UNL A   1      46.485  27.256  34.632  1.00  0.00     0.040 A 
ATOM     59  C   UNL A   1      44.883  25.554  35.228  1.00  0.00     0.040 A 
ATOM     60  F   UNL A   1      42.634  25.789  34.602  1.00  0.00    -0.206 F 
ATOM     61  C   UNL A   1      46.191  26.038  35.245  1.00  0.00     0.006 A 
ENDBRANCH  37  54
ENDBRANCH  11  12
ENDBRANCH   4   6
ENDBRANCH   3   4
ENDBRANCH   2   3
ENDBRANCH   1   2
BRANCH   1  62
ATOM     62  O   UNL A   1      32.706  29.320  26.272  1.00  0.00    -0.458 OA
BRANCH  62  63
ATOM     63  C   UNL A   1      31.692  28.449  26.534  1.00  0.00     0.349 C 
ATOM     64  O   UNL A   1      31.350  28.119  27.662  1.00  0.00    -0.245 OA
BRANCH  63  65
ATOM     65  C   UNL A   1      31.030  28.028  25.314  1.00  0.00     0.133 A 
ATOM     66  S   UNL A   1      30.655  29.281  24.179  1.00  0.00    -0.136 S 
ATOM     67  C   UNL A   1      30.546  26.804  24.873  1.00  0.00     0.113 A 
ATOM     68  C   UNL A   1      29.982  28.188  23.064  1.00  0.00     0.067 A 
ATOM     69  C   UNL A   1      29.930  26.912  23.574  1.00  0.00     0.035 A 
BRANCH  67  70
ATOM     70  S   UNL A   1      30.628  25.280  25.709  1.00  0.00     0.263 S 
ATOM     71  O   UNL A   1      31.955  25.271  26.294  1.00  0.00    -0.201 OA
ATOM     72  O   UNL A   1      29.471  25.227  26.574  1.00  0.00    -0.201 OA
BRANCH  70  73
ATOM     73  N   UNL A   1      30.603  23.950  24.674  1.00  0.00    -0.277 N 
ATOM     74  H   UNL A   1      29.861  23.805  24.045  1.00  0.00     0.180 HD
BRANCH  73  75
ATOM     75  C   UNL A   1      31.706  23.039  24.747  1.00  0.00     0.072 A 
ATOM     76  C   UNL A   1      31.556  21.896  25.547  1.00  0.00     0.029 A 
ATOM     77  C   UNL A   1      32.863  23.246  23.957  1.00  0.00     0.061 A 
ATOM     78  C   UNL A   1      32.553  20.927  25.574  1.00  0.00     0.002 A 
ATOM     79  C   UNL A   1      33.824  22.221  23.975  1.00  0.00     0.028 A 
ATOM     80  C   UNL A   1      33.676  21.078  24.769  1.00  0.00     0.002 A 
BRANCH  77  81
ATOM     81  N   UNL A   1      33.123  24.405  23.229  1.00  0.00    -0.370 N 
ATOM     82  C   UNL A   1      34.078  25.385  23.751  1.00  0.00     0.116 C 
ATOM     83  C   UNL A   1      32.841  24.464  21.794  1.00  0.00     0.116 C 
ATOM     84  C   UNL A   1      33.694  26.804  23.356  1.00  0.00     0.021 C 
ATOM     85  C   UNL A   1      32.440  25.885  21.399  1.00  0.00     0.021 C 
ATOM     86  C   UNL A   1      33.483  26.903  21.849  1.00  0.00     0.004 C 
ENDBRANCH  77  81
ENDBRANCH  73  75
ENDBRANCH  70  73
ENDBRANCH  67  70
ENDBRANCH  63  65
ENDBRANCH  62  63
ENDBRANCH   1  62
TORSDOF 15
ENDMDL
MODEL 3
REMARK VINA RESULT:     -11.5      4.477      9.228
REMARK SMILES O=C(OCCOC(=O)c1sccc1S(=O)(=O)Nc1ccccc1N1CCCCC1)c1ccc(-c2c3nc(c(-c4c(F)cccc4F)c4ccc([nH]4)c(-c4c(F)cccc4F)c4nc(c(-c5c(F)cccc5F)c5ccc2[nH]5)C=C4)C=C3)cc1
REMARK SMILES IDX 5 1 4 2 3 3 2 4 1 5 30 6 31 7 83 8 32 9 82 10 33 11 34 12
REMARK SMILES IDX 35 13 76 14 36 15 81 16 75 17 77 18 37 19 80 20 74 21 73 22
REMARK SMILES IDX 38 24 64 25 47 26 63 27 48 28 51 29 62 30 78 31 49 32 50 33
REMARK SMILES IDX 61 35 79 36 52 37 39 38 40 39 45 40 41 41 42 42 44 43 46 44
REMARK SMILES IDX 43 45 65 46 66 47 71 48 67 49 68 50 70 51 72 52 69 53 53 54
REMARK SMILES IDX 54 55 59 56 55 57 56 58 58 59 60 60 57 61 6 62 7 63 8 64
REMARK SMILES IDX 9 65 10 66 13 67 11 68 12 69 14 70 15 71 16 72 17 73 18 75
REMARK SMILES IDX 19 76 23 77 20 78 22 79 21 80 24 81 25 82 29 83 26 84 28 85
REMARK SMILES IDX 27 86
REMARK H PARENT 77 23 51 34 17 74
REMARK Flexibility Score: inf
ROOT
ATOM      1  C   UNL A   1      37.981  21.782  25.373  1.00  0.00     0.275 C 
ENDROOT
BRANCH   1   2
ATOM      2  C   UNL A   1      38.370  20.345  25.028  1.00  0.00     0.275 C 
BRANCH   2   3
ATOM      3  O   UNL A   1      39.218  19.719  26.000  1.00  0.00    -0.458 OA
BRANCH   3   4
ATOM      4  C   UNL A   1      40.569  19.822  25.968  1.00  0.00     0.338 C 
ATOM      5  O   UNL A   1      41.289  18.865  25.709  1.00  0.00    -0.246 OA
BRANCH   4   6
ATOM      6  C   UNL A   1      41.169  21.047  26.547  1.00  0.00     0.060 A 
ATOM      7  C   UNL A   1      41.090  21.380  27.902  1.00  0.00     0.016 A 
ATOM      8  C   UNL A   1      41.798  21.926  25.656  1.00  0.00     0.016 A 
ATOM      9  C   UNL A   1      41.714  22.528  28.384  1.00  0.00     0.010 A 
ATOM     10  C   UNL A   1      42.394  23.097  26.129  1.00  0.00     0.010 A 
ATOM     11  C   UNL A   1      42.346  23.402  27.496  1.00  0.00    -0.014 A 
BRANCH  11  12
ATOM     12  C   UNL A   1      42.643  24.772  27.956  1.00  0.00     0.031 A 
ATOM     13  C   UNL A   1      44.087  25.120  28.113  1.00  0.00     0.074 A 
ATOM     14  C   UNL A   1      41.685  25.695  28.145  1.00  0.00     0.049 A 
ATOM     15  N   UNL A   1      44.631  26.279  28.357  1.00  0.00    -0.248 NA
ATOM     16  C   UNL A   1      45.052  24.022  27.911  1.00  0.00     0.031 C 
ATOM     17  C   UNL A   1      40.268  25.483  27.901  1.00  0.00     0.029 A 
ATOM     18  N   UNL A   1      41.754  26.989  28.586  1.00  0.00    -0.354 N 
ATOM     19  C   UNL A   1      45.995  26.066  28.250  1.00  0.00     0.074 A 
ATOM     20  C   UNL A   1      46.205  24.658  28.009  1.00  0.00     0.031 C 
ATOM     21  C   UNL A   1      39.578  26.572  28.281  1.00  0.00     0.029 A 
ATOM     22  C   UNL A   1      40.522  27.578  28.751  1.00  0.00     0.049 A 
ATOM     23  H   UNL A   1      42.603  27.452  28.768  1.00  0.00     0.167 HD
ATOM     24  C   UNL A   1      46.986  26.981  28.304  1.00  0.00     0.037 A 
ATOM     25  C   UNL A   1      40.210  28.801  29.217  1.00  0.00     0.037 A 
ATOM     26  C   UNL A   1      46.768  28.357  28.630  1.00  0.00     0.049 A 
ATOM     27  C   UNL A   1      41.342  29.755  29.485  1.00  0.00     0.074 A 
ATOM     28  C   UNL A   1      47.693  29.367  28.800  1.00  0.00     0.029 A 
ATOM     29  N   UNL A   1      45.514  28.905  28.872  1.00  0.00    -0.354 N 
ATOM     30  N   UNL A   1      42.631  29.564  29.322  1.00  0.00    -0.248 NA
ATOM     31  C   UNL A   1      40.987  31.098  29.956  1.00  0.00     0.031 C 
ATOM     32  C   UNL A   1      47.000  30.519  29.190  1.00  0.00     0.029 A 
ATOM     33  C   UNL A   1      45.641  30.234  29.226  1.00  0.00     0.049 A 
ATOM     34  H   UNL A   1      44.661  28.419  28.800  1.00  0.00     0.167 HD
ATOM     35  C   UNL A   1      43.236  30.777  29.613  1.00  0.00     0.074 A 
ATOM     36  C   UNL A   1      42.172  31.693  29.978  1.00  0.00     0.031 C 
ATOM     37  C   UNL A   1      44.550  31.112  29.565  1.00  0.00     0.037 A 
BRANCH  24  38
ATOM     38  C   UNL A   1      48.358  26.458  28.029  1.00  0.00     0.057 A 
ATOM     39  C   UNL A   1      48.891  26.481  26.730  1.00  0.00     0.134 A 
ATOM     40  C   UNL A   1      49.086  25.799  29.022  1.00  0.00     0.134 A 
ATOM     41  F   UNL A   1      48.212  27.057  25.726  1.00  0.00    -0.206 F 
ATOM     42  C   UNL A   1      50.090  25.838  26.427  1.00  0.00     0.040 A 
ATOM     43  C   UNL A   1      50.294  25.163  28.732  1.00  0.00     0.040 A 
ATOM     44  F   UNL A   1      48.610  25.716  30.273  1.00  0.00    -0.206 F 
ATOM     45  C   UNL A   1      50.794  25.173  27.429  1.00  0.00     0.006 A 
ENDBRANCH  24  38
BRANCH  25  46
ATOM     46  C   UNL A   1      38.795  29.199  29.429  1.00  0.00     0.057 A 
ATOM     47  C   UNL A   1      38.175  29.085  30.678  1.00  0.00     0.134 A 
ATOM     48  C   UNL A   1      38.010  29.666  28.366  1.00  0.00     0.134 A 
ATOM     49  F   UNL A   1      38.865  28.627  31.734  1.00  0.00    -0.206 F 
ATOM     50  C   UNL A   1      36.823  29.393  30.859  1.00  0.00     0.040 A 
ATOM     51  C   UNL A   1      36.662  29.994  28.535  1.00  0.00     0.040 A 
ATOM     52  F   UNL A   1      38.539  29.802  27.140  1.00  0.00    -0.206 F 
ATOM     53  C   UNL A   1      36.062  29.849  29.784  1.00  0.00     0.006 A 
ENDBRANCH  25  46
BRANCH  37  54
ATOM     54  C   UNL A   1      44.893  32.533  29.876  1.00  0.00     0.057 A 
ATOM     55  C   UNL A   1      44.814  33.536  28.905  1.00  0.00     0.134 A 
ATOM     56  C   UNL A   1      45.245  32.905  31.179  1.00  0.00     0.134 A 
ATOM     57  F   UNL A   1      44.497  33.232  27.637  1.00  0.00    -0.206 F 
ATOM     58  C   UNL A   1      45.084  34.867  29.218  1.00  0.00     0.040 A 
ATOM     59  C   UNL A   1      45.496  34.235  31.509  1.00  0.00     0.040 A 
ATOM     60  F   UNL A   1      45.330  31.985  32.152  1.00  0.00    -0.206 F 
ATOM     61  C   UNL A   1      45.418  35.221  30.526  1.00  0.00     0.006 A 
ENDBRANCH  37  54
ENDBRANCH  11  12
ENDBRANCH   4   6
ENDBRANCH   3   4
ENDBRANCH   2   3
ENDBRANCH   1   2
BRANCH   1  62
ATOM     62  O   UNL A   1      36.576  22.072  25.379  1.00  0.00    -0.458 OA
BRANCH  62  63
ATOM     63  C   UNL A   1      36.007  22.261  24.156  1.00  0.00     0.349 C 
ATOM     64  O   UNL A   1      36.598  22.734  23.194  1.00  0.00    -0.245 OA
BRANCH  63  65
ATOM     65  C   UNL A   1      34.645  21.765  24.126  1.00  0.00     0.133 A 
ATOM     66  S   UNL A   1      34.377  20.228  24.878  1.00  0.00    -0.136 S 
ATOM     67  C   UNL A   1      33.478  22.235  23.539  1.00  0.00     0.113 A 
ATOM     68  C   UNL A   1      32.710  20.257  24.542  1.00  0.00     0.067 A 
ATOM     69  C   UNL A   1      32.368  21.347  23.776  1.00  0.00     0.035 A 
BRANCH  67  70
ATOM     70  S   UNL A   1      33.281  23.698  22.618  1.00  0.00     0.263 S 
ATOM     71  O   UNL A   1      34.068  24.678  23.342  1.00  0.00    -0.201 OA
ATOM     72  O   UNL A   1      33.636  23.372  21.255  1.00  0.00    -0.201 OA
BRANCH  70  73
ATOM     73  N   UNL A   1      31.707  24.300  22.649  1.00  0.00    -0.277 N 
ATOM     74  H   UNL A   1      30.943  23.746  22.372  1.00  0.00     0.180 HD
BRANCH  73  75
ATOM     75  C   UNL A   1      31.527  25.649  23.095  1.00  0.00     0.072 A 
ATOM     76  C   UNL A   1      31.446  26.653  22.118  1.00  0.00     0.029 A 
ATOM     77  C   UNL A   1      31.341  25.933  24.470  1.00  0.00     0.061 A 
ATOM     78  C   UNL A   1      31.170  27.965  22.487  1.00  0.00     0.002 A 
ATOM     79  C   UNL A   1      31.014  27.261  24.795  1.00  0.00     0.028 A 
ATOM     80  C   UNL A   1      30.929  28.264  23.822  1.00  0.00     0.002 A 
BRANCH  77  81
ATOM     81  N   UNL A   1      31.515  25.008  25.496  1.00  0.00    -0.370 N 
ATOM     82  C   UNL A   1      32.753  25.025  26.279  1.00  0.00     0.116 C 
ATOM     83  C   UNL A   1      30.363  24.344  26.107  1.00  0.00     0.116 C 
ATOM     84  C   UNL A   1      33.143  23.627  26.737  1.00  0.00     0.021 C 
ATOM     85  C   UNL A   1      30.749  22.934  26.553  1.00  0.00     0.021 C 
ATOM     86  C   UNL A   1      31.979  22.953  27.455  1.00  0.00     0.004 C 
ENDBRANCH  77  81
ENDBRANCH  73  75
ENDBRANCH  70  73
ENDBRANCH  67  70
ENDBRANCH  63  65
ENDBRANCH  62  63
ENDBRANCH   1  62
TORSDOF 15
ENDMDL
