MODEL 1
REMARK VINA RESULT:     -11.3      0.000      0.000
REMARK SMILES O=C(CN1C(=O)/C(=C2/Sc3ccccc3N2CCCS(=O)(=O)[O-])SC1=S)OCCOC(=O)c1ccc(-c2c3nc(c(-c4c(F)cccc4F)c4ccc([nH]4)c(-c4c(F)cccc4F)c4nc(c(-c5c(F)cccc5F)c5ccc2[nH]5)C=C4)C=C3)cc1
REMARK SMILES IDX 27 1 2 2 1 3 3 4 4 5 5 6 25 7 6 8 7 9 24 10 26 11 8 12 9 13
REMARK SMILES IDX 16 14 10 15 15 16 11 17 14 18 12 19 13 20 17 21 18 22 19 23
REMARK SMILES IDX 20 24 21 25 22 26 23 27 28 28 29 29 30 30 31 31 32 32 33 33
REMARK SMILES IDX 34 34 86 35 35 36 85 37 36 38 37 39 38 40 79 41 39 42 84 43
REMARK SMILES IDX 78 44 80 45 40 46 83 47 77 48 76 49 41 51 67 52 50 53 66 54
REMARK SMILES IDX 51 55 54 56 65 57 81 58 52 59 53 60 64 62 82 63 55 64 42 65
REMARK SMILES IDX 43 66 48 67 44 68 45 69 47 70 49 71 46 72 68 73 69 74 74 75
REMARK SMILES IDX 70 76 71 77 73 78 75 79 72 80 56 81 57 82 62 83 58 84 59 85
REMARK SMILES IDX 61 86 63 87 60 88
REMARK H PARENT 80 50 54 61
REMARK Flexibility Score: inf
ROOT
ATOM      1  O   UNL A   1      37.805  21.706  24.603  1.00  0.00    -0.461 OA
ENDROOT
BRANCH   1   2
ATOM      2  C   UNL A   1      36.873  22.680  24.473  1.00  0.00     0.326 C 
ATOM      3  O   UNL A   1      36.893  23.721  25.116  1.00  0.00    -0.250 OA
BRANCH   2   4
ATOM      4  C   UNL A   1      35.739  22.249  23.526  1.00  0.00     0.250 C 
BRANCH   4   5
ATOM      5  N   UNL A   1      34.425  22.657  24.070  1.00  0.00    -0.281 N 
ATOM      6  C   UNL A   1      33.876  23.861  23.705  1.00  0.00     0.269 C 
ATOM      7  C   UNL A   1      33.573  21.895  24.821  1.00  0.00     0.148 C 
ATOM      8  O   UNL A   1      34.034  24.383  22.613  1.00  0.00    -0.268 OA
ATOM      9  C   UNL A   1      32.903  24.327  24.717  1.00  0.00     0.111 C 
ATOM     10  S   UNL A   1      32.212  22.874  25.372  1.00  0.00    -0.052 SA
ATOM     11  S   UNL A   1      33.682  20.280  25.176  1.00  0.00    -0.052 S 
ATOM     12  C   UNL A   1      32.736  25.595  25.168  1.00  0.00     0.100 C 
ATOM     13  S   UNL A   1      31.467  25.874  26.445  1.00  0.00    -0.068 SA
ATOM     14  N   UNL A   1      33.433  26.790  24.869  1.00  0.00    -0.334 N 
ATOM     15  C   UNL A   1      31.975  27.574  26.569  1.00  0.00     0.037 A 
ATOM     16  C   UNL A   1      33.061  27.861  25.727  1.00  0.00     0.056 A 
ATOM     17  C   UNL A   1      31.388  28.551  27.360  1.00  0.00     0.017 A 
ATOM     18  C   UNL A   1      33.642  29.127  25.788  1.00  0.00     0.027 A 
ATOM     19  C   UNL A   1      31.938  29.833  27.363  1.00  0.00     0.001 A 
ATOM     20  C   UNL A   1      33.080  30.111  26.605  1.00  0.00     0.002 A 
BRANCH  14  21
ATOM     21  C   UNL A   1      34.076  27.191  23.619  1.00  0.00     0.124 C 
BRANCH  21  22
ATOM     22  C   UNL A   1      33.065  27.461  22.509  1.00  0.00     0.037 C 
BRANCH  22  23
ATOM     23  C   UNL A   1      32.447  28.830  22.533  1.00  0.00     0.124 C 
BRANCH  23  24
ATOM     24  S   UNL A   1      30.691  28.930  22.877  1.00  0.00     0.095 S 
ATOM     25  O   UNL A   1      30.497  29.709  24.077  1.00  0.00    -0.243 OA
ATOM     26  O   UNL A   1      29.983  29.261  21.659  1.00  0.00    -0.243 OA
ATOM     27  O   UNL A   1      30.337  27.411  23.266  1.00  0.00    -0.748 OA
ENDBRANCH  23  24
ENDBRANCH  22  23
ENDBRANCH  21  22
ENDBRANCH  14  21
ENDBRANCH   4   5
ENDBRANCH   2   4
ENDBRANCH   1   2
BRANCH   1  28
ATOM     28  C   UNL A   1      37.468  20.295  24.712  1.00  0.00     0.274 C 
BRANCH  28  29
ATOM     29  C   UNL A   1      38.651  19.486  25.288  1.00  0.00     0.275 C 
BRANCH  29  30
ATOM     30  O   UNL A   1      39.514  20.316  26.060  1.00  0.00    -0.458 OA
BRANCH  30  31
ATOM     31  C   UNL A   1      40.795  19.856  26.081  1.00  0.00     0.338 C 
ATOM     32  O   UNL A   1      41.198  18.806  25.644  1.00  0.00    -0.246 OA
BRANCH  31  33
ATOM     33  C   UNL A   1      41.649  20.990  26.486  1.00  0.00     0.060 A 
ATOM     34  C   UNL A   1      42.128  21.893  25.536  1.00  0.00     0.016 A 
ATOM     35  C   UNL A   1      41.974  21.124  27.841  1.00  0.00     0.016 A 
ATOM     36  C   UNL A   1      42.847  23.000  25.958  1.00  0.00     0.010 A 
ATOM     37  C   UNL A   1      42.666  22.251  28.268  1.00  0.00     0.010 A 
ATOM     38  C   UNL A   1      43.051  23.218  27.331  1.00  0.00    -0.014 A 
BRANCH  38  39
ATOM     39  C   UNL A   1      43.453  24.568  27.765  1.00  0.00     0.031 A 
ATOM     40  C   UNL A   1      44.875  25.004  27.789  1.00  0.00     0.074 A 
ATOM     41  C   UNL A   1      42.467  25.411  28.118  1.00  0.00     0.049 A 
ATOM     42  N   UNL A   1      45.371  26.207  27.907  1.00  0.00    -0.248 NA
ATOM     43  C   UNL A   1      45.876  23.947  27.654  1.00  0.00     0.031 C 
ATOM     44  C   UNL A   1      41.044  25.065  28.186  1.00  0.00     0.029 A 
ATOM     45  N   UNL A   1      42.512  26.729  28.466  1.00  0.00    -0.354 N 
ATOM     46  C   UNL A   1      46.744  26.054  27.778  1.00  0.00     0.074 A 
ATOM     47  C   UNL A   1      47.006  24.639  27.642  1.00  0.00     0.031 C 
ATOM     48  C   UNL A   1      40.347  26.159  28.526  1.00  0.00     0.029 A 
ATOM     49  C   UNL A   1      41.277  27.263  28.723  1.00  0.00     0.049 A 
ATOM     50  H   UNL A   1      43.349  27.245  28.529  1.00  0.00     0.167 HD
ATOM     51  C   UNL A   1      47.696  27.016  27.770  1.00  0.00     0.037 A 
ATOM     52  C   UNL A   1      40.941  28.514  29.075  1.00  0.00     0.037 A 
ATOM     53  C   UNL A   1      47.426  28.401  28.053  1.00  0.00     0.049 A 
ATOM     54  C   UNL A   1      42.028  29.543  29.175  1.00  0.00     0.074 A 
ATOM     55  C   UNL A   1      48.308  29.463  28.114  1.00  0.00     0.029 A 
ATOM     56  N   UNL A   1      46.171  28.901  28.374  1.00  0.00    -0.354 N 
ATOM     57  N   UNL A   1      43.311  29.424  28.930  1.00  0.00    -0.248 NA
ATOM     58  C   UNL A   1      41.613  30.887  29.591  1.00  0.00     0.031 C 
ATOM     59  C   UNL A   1      47.597  30.593  28.539  1.00  0.00     0.029 A 
ATOM     60  C   UNL A   1      46.261  30.249  28.680  1.00  0.00     0.049 A 
ATOM     61  H   UNL A   1      45.340  28.375  28.385  1.00  0.00     0.167 HD
ATOM     62  C   UNL A   1      43.858  30.681  29.146  1.00  0.00     0.074 A 
ATOM     63  C   UNL A   1      42.755  31.552  29.504  1.00  0.00     0.031 C 
ATOM     64  C   UNL A   1      45.150  31.084  29.060  1.00  0.00     0.037 A 
BRANCH  51  65
ATOM     65  C   UNL A   1      49.099  26.581  27.475  1.00  0.00     0.057 A 
ATOM     66  C   UNL A   1      50.000  26.283  28.504  1.00  0.00     0.134 A 
ATOM     67  C   UNL A   1      49.562  26.459  26.157  1.00  0.00     0.134 A 
ATOM     68  F   UNL A   1      49.622  26.375  29.788  1.00  0.00    -0.206 F 
ATOM     69  C   UNL A   1      51.310  25.883  28.233  1.00  0.00     0.040 A 
ATOM     70  C   UNL A   1      50.863  26.039  25.873  1.00  0.00     0.040 A 
ATOM     71  F   UNL A   1      48.746  26.716  25.122  1.00  0.00    -0.206 F 
ATOM     72  C   UNL A   1      51.743  25.753  26.915  1.00  0.00     0.006 A 
ENDBRANCH  51  65
BRANCH  52  73
ATOM     73  C   UNL A   1      39.526  28.852  29.351  1.00  0.00     0.057 A 
ATOM     74  C   UNL A   1      38.683  29.322  28.336  1.00  0.00     0.134 A 
ATOM     75  C   UNL A   1      38.977  28.695  30.628  1.00  0.00     0.134 A 
ATOM     76  F   UNL A   1      39.155  29.510  27.094  1.00  0.00    -0.206 F 
ATOM     77  C   UNL A   1      37.342  29.616  28.579  1.00  0.00     0.040 A 
ATOM     78  C   UNL A   1      37.630  28.957  30.878  1.00  0.00     0.040 A 
ATOM     79  F   UNL A   1      39.734  28.244  31.638  1.00  0.00    -0.206 F 
ATOM     80  C   UNL A   1      36.809  29.421  29.851  1.00  0.00     0.006 A 
ENDBRANCH  52  73
BRANCH  64  81
ATOM     81  C   UNL A   1      45.418  32.530  29.360  1.00  0.00     0.057 A 
ATOM     82  C   UNL A   1      45.805  32.932  30.645  1.00  0.00     0.134 A 
ATOM     83  C   UNL A   1      45.310  33.522  28.377  1.00  0.00     0.134 A 
ATOM     84  F   UNL A   1      45.918  32.035  31.636  1.00  0.00    -0.206 F 
ATOM     85  C   UNL A   1      46.085  34.266  30.936  1.00  0.00     0.040 A 
ATOM     86  C   UNL A   1      45.624  34.854  28.646  1.00  0.00     0.040 A 
ATOM     87  F   UNL A   1      44.959  33.200  27.121  1.00  0.00    -0.206 F 
ATOM     88  C   UNL A   1      46.009  35.229  29.932  1.00  0.00     0.006 A 
ENDBRANCH  64  81
ENDBRANCH  38  39
ENDBRANCH  31  33
ENDBRANCH  30  31
ENDBRANCH  29  30
ENDBRANCH  28  29
ENDBRANCH   1  28
TORSDOF 16
ENDMDL
MODEL 2
REMARK VINA RESULT:     -11.1      4.489      9.783
REMARK SMILES O=C(CN1C(=O)/C(=C2/Sc3ccccc3N2CCCS(=O)(=O)[O-])SC1=S)OCCOC(=O)c1ccc(-c2c3nc(c(-c4c(F)cccc4F)c4ccc([nH]4)c(-c4c(F)cccc4F)c4nc(c(-c5c(F)cccc5F)c5ccc2[nH]5)C=C4)C=C3)cc1
REMARK SMILES IDX 27 1 2 2 1 3 3 4 4 5 5 6 25 7 6 8 7 9 24 10 26 11 8 12 9 13
REMARK SMILES IDX 16 14 10 15 15 16 11 17 14 18 12 19 13 20 17 21 18 22 19 23
REMARK SMILES IDX 20 24 21 25 22 26 23 27 28 28 29 29 30 30 31 31 32 32 33 33
REMARK SMILES IDX 34 34 86 35 35 36 85 37 36 38 37 39 38 40 79 41 39 42 84 43
REMARK SMILES IDX 78 44 80 45 40 46 83 47 77 48 76 49 41 51 67 52 50 53 66 54
REMARK SMILES IDX 51 55 54 56 65 57 81 58 52 59 53 60 64 62 82 63 55 64 42 65
REMARK SMILES IDX 43 66 48 67 44 68 45 69 47 70 49 71 46 72 68 73 69 74 74 75
REMARK SMILES IDX 70 76 71 77 73 78 75 79 72 80 56 81 57 82 62 83 58 84 59 85
REMARK SMILES IDX 61 86 63 87 60 88
REMARK H PARENT 80 50 54 61
REMARK Flexibility Score: inf
ROOT
ATOM      1  O   UNL A   1      32.572  30.404  26.541  1.00  0.00    -0.461 OA
ENDROOT
BRANCH   1   2
ATOM      2  C   UNL A   1      32.552  29.151  27.055  1.00  0.00     0.326 C 
ATOM      3  O   UNL A   1      33.505  28.646  27.635  1.00  0.00    -0.250 OA
BRANCH   2   4
ATOM      4  C   UNL A   1      31.247  28.418  26.699  1.00  0.00     0.250 C 
BRANCH   4   5
ATOM      5  N   UNL A   1      31.447  27.541  25.525  1.00  0.00    -0.281 N 
ATOM      6  C   UNL A   1      31.732  26.210  25.705  1.00  0.00     0.269 C 
ATOM      7  C   UNL A   1      31.240  27.863  24.212  1.00  0.00     0.148 C 
ATOM      8  O   UNL A   1      31.314  25.540  26.636  1.00  0.00    -0.268 OA
ATOM      9  C   UNL A   1      32.419  25.651  24.520  1.00  0.00     0.111 C 
ATOM     10  S   UNL A   1      31.777  26.541  23.173  1.00  0.00    -0.052 SA
ATOM     11  S   UNL A   1      30.552  29.235  23.587  1.00  0.00    -0.052 S 
ATOM     12  C   UNL A   1      33.458  24.780  24.512  1.00  0.00     0.100 C 
ATOM     13  S   UNL A   1      34.123  24.277  22.892  1.00  0.00    -0.068 SA
ATOM     14  N   UNL A   1      34.201  24.206  25.571  1.00  0.00    -0.334 N 
ATOM     15  C   UNL A   1      35.414  23.370  23.712  1.00  0.00     0.037 A 
ATOM     16  C   UNL A   1      35.346  23.502  25.108  1.00  0.00     0.056 A 
ATOM     17  C   UNL A   1      36.382  22.585  23.101  1.00  0.00     0.017 A 
ATOM     18  C   UNL A   1      36.353  22.933  25.887  1.00  0.00     0.027 A 
ATOM     19  C   UNL A   1      37.347  21.967  23.897  1.00  0.00     0.001 A 
ATOM     20  C   UNL A   1      37.351  22.166  25.281  1.00  0.00     0.002 A 
BRANCH  14  21
ATOM     21  C   UNL A   1      33.759  23.854  26.919  1.00  0.00     0.124 C 
BRANCH  21  22
ATOM     22  C   UNL A   1      32.737  22.721  26.915  1.00  0.00     0.037 C 
BRANCH  22  23
ATOM     23  C   UNL A   1      33.317  21.343  26.768  1.00  0.00     0.124 C 
BRANCH  23  24
ATOM     24  S   UNL A   1      32.990  20.476  25.235  1.00  0.00     0.095 S 
ATOM     25  O   UNL A   1      32.317  19.235  25.539  1.00  0.00    -0.243 OA
ATOM     26  O   UNL A   1      32.435  21.400  24.270  1.00  0.00    -0.243 OA
ATOM     27  O   UNL A   1      34.471  20.076  24.751  1.00  0.00    -0.748 OA
ENDBRANCH  23  24
ENDBRANCH  22  23
ENDBRANCH  21  22
ENDBRANCH  14  21
ENDBRANCH   4   5
ENDBRANCH   2   4
ENDBRANCH   1   2
BRANCH   1  28
ATOM     28  C   UNL A   1      31.400  31.264  26.503  1.00  0.00     0.274 C 
BRANCH  28  29
ATOM     29  C   UNL A   1      31.760  32.709  26.914  1.00  0.00     0.275 C 
BRANCH  29  30
ATOM     30  O   UNL A   1      33.087  32.781  27.430  1.00  0.00    -0.458 OA
BRANCH  30  31
ATOM     31  C   UNL A   1      33.284  33.883  28.203  1.00  0.00     0.338 C 
ATOM     32  O   UNL A   1      32.536  34.820  28.339  1.00  0.00    -0.246 OA
BRANCH  31  33
ATOM     33  C   UNL A   1      34.452  33.600  29.061  1.00  0.00     0.060 A 
ATOM     34  C   UNL A   1      34.335  32.746  30.160  1.00  0.00     0.016 A 
ATOM     35  C   UNL A   1      35.668  34.218  28.751  1.00  0.00     0.016 A 
ATOM     36  C   UNL A   1      35.469  32.424  30.888  1.00  0.00     0.010 A 
ATOM     37  C   UNL A   1      36.811  33.870  29.460  1.00  0.00     0.010 A 
ATOM     38  C   UNL A   1      36.719  32.927  30.492  1.00  0.00    -0.014 A 
BRANCH  38  39
ATOM     39  C   UNL A   1      37.929  32.268  31.019  1.00  0.00     0.031 A 
ATOM     40  C   UNL A   1      38.510  32.617  32.342  1.00  0.00     0.074 A 
ATOM     41  C   UNL A   1      38.477  31.307  30.256  1.00  0.00     0.049 A 
ATOM     42  N   UNL A   1      39.406  31.979  33.048  1.00  0.00    -0.248 NA
ATOM     43  C   UNL A   1      38.012  33.843  32.962  1.00  0.00     0.031 C 
ATOM     44  C   UNL A   1      38.020  30.928  28.915  1.00  0.00     0.029 A 
ATOM     45  N   UNL A   1      39.522  30.467  30.506  1.00  0.00    -0.354 N 
ATOM     46  C   UNL A   1      39.517  32.690  34.233  1.00  0.00     0.074 A 
ATOM     47  C   UNL A   1      38.650  33.841  34.124  1.00  0.00     0.031 C 
ATOM     48  C   UNL A   1      38.766  29.906  28.474  1.00  0.00     0.029 A 
ATOM     49  C   UNL A   1      39.762  29.583  29.487  1.00  0.00     0.049 A 
ATOM     50  H   UNL A   1      40.052  30.494  31.336  1.00  0.00     0.167 HD
ATOM     51  C   UNL A   1      40.274  32.398  35.317  1.00  0.00     0.037 A 
ATOM     52  C   UNL A   1      40.688  28.616  29.393  1.00  0.00     0.037 A 
ATOM     53  C   UNL A   1      41.237  31.330  35.346  1.00  0.00     0.049 A 
ATOM     54  C   UNL A   1      41.599  28.383  30.562  1.00  0.00     0.074 A 
ATOM     55  C   UNL A   1      42.092  30.958  36.367  1.00  0.00     0.029 A 
ATOM     56  N   UNL A   1      41.505  30.491  34.273  1.00  0.00    -0.354 N 
ATOM     57  N   UNL A   1      41.618  28.976  31.732  1.00  0.00    -0.248 NA
ATOM     58  C   UNL A   1      42.611  27.335  30.398  1.00  0.00     0.031 C 
ATOM     59  C   UNL A   1      42.923  29.938  35.887  1.00  0.00     0.029 A 
ATOM     60  C   UNL A   1      42.542  29.630  34.589  1.00  0.00     0.049 A 
ATOM     61  H   UNL A   1      41.027  30.506  33.412  1.00  0.00     0.167 HD
ATOM     62  C   UNL A   1      42.633  28.363  32.452  1.00  0.00     0.074 A 
ATOM     63  C   UNL A   1      43.177  27.327  31.596  1.00  0.00     0.031 C 
ATOM     64  C   UNL A   1      43.081  28.628  33.705  1.00  0.00     0.037 A 
BRANCH  51  65
ATOM     65  C   UNL A   1      40.097  33.269  36.524  1.00  0.00     0.057 A 
ATOM     66  C   UNL A   1      40.924  34.376  36.749  1.00  0.00     0.134 A 
ATOM     67  C   UNL A   1      39.099  33.005  37.473  1.00  0.00     0.134 A 
ATOM     68  F   UNL A   1      41.897  34.688  35.880  1.00  0.00    -0.206 F 
ATOM     69  C   UNL A   1      40.767  35.186  37.876  1.00  0.00     0.040 A 
ATOM     70  C   UNL A   1      38.917  33.821  38.592  1.00  0.00     0.040 A 
ATOM     71  F   UNL A   1      38.263  31.967  37.310  1.00  0.00    -0.206 F 
ATOM     72  C   UNL A   1      39.757  34.913  38.797  1.00  0.00     0.006 A 
ENDBRANCH  51  65
BRANCH  52  73
ATOM     73  C   UNL A   1      40.791  27.806  28.157  1.00  0.00     0.057 A 
ATOM     74  C   UNL A   1      41.560  28.238  27.070  1.00  0.00     0.134 A 
ATOM     75  C   UNL A   1      40.139  26.574  28.040  1.00  0.00     0.134 A 
ATOM     76  F   UNL A   1      42.195  29.419  27.114  1.00  0.00    -0.206 F 
ATOM     77  C   UNL A   1      41.685  27.470  25.913  1.00  0.00     0.040 A 
ATOM     78  C   UNL A   1      40.279  25.782  26.900  1.00  0.00     0.040 A 
ATOM     79  F   UNL A   1      39.392  26.107  29.050  1.00  0.00    -0.206 F 
ATOM     80  C   UNL A   1      41.054  26.231  25.832  1.00  0.00     0.006 A 
ENDBRANCH  52  73
BRANCH  64  81
ATOM     81  C   UNL A   1      44.211  27.774  34.203  1.00  0.00     0.057 A 
ATOM     82  C   UNL A   1      43.956  26.546  34.825  1.00  0.00     0.134 A 
ATOM     83  C   UNL A   1      45.550  28.159  34.052  1.00  0.00     0.134 A 
ATOM     84  F   UNL A   1      42.697  26.122  35.011  1.00  0.00    -0.206 F 
ATOM     85  C   UNL A   1      44.993  25.726  35.269  1.00  0.00     0.040 A 
ATOM     86  C   UNL A   1      46.596  27.331  34.458  1.00  0.00     0.040 A 
ATOM     87  F   UNL A   1      45.862  29.317  33.449  1.00  0.00    -0.206 F 
ATOM     88  C   UNL A   1      46.318  26.111  35.072  1.00  0.00     0.006 A 
ENDBRANCH  64  81
ENDBRANCH  38  39
ENDBRANCH  31  33
ENDBRANCH  30  31
ENDBRANCH  29  30
ENDBRANCH  28  29
ENDBRANCH   1  28
TORSDOF 16
ENDMDL
MODEL 3
REMARK VINA RESULT:     -11.1      4.177      7.938
REMARK SMILES O=C(CN1C(=O)/C(=C2/Sc3ccccc3N2CCCS(=O)(=O)[O-])SC1=S)OCCOC(=O)c1ccc(-c2c3nc(c(-c4c(F)cccc4F)c4ccc([nH]4)c(-c4c(F)cccc4F)c4nc(c(-c5c(F)cccc5F)c5ccc2[nH]5)C=C4)C=C3)cc1
REMARK SMILES IDX 27 1 2 2 1 3 3 4 4 5 5 6 25 7 6 8 7 9 24 10 26 11 8 12 9 13
REMARK SMILES IDX 16 14 10 15 15 16 11 17 14 18 12 19 13 20 17 21 18 22 19 23
REMARK SMILES IDX 20 24 21 25 22 26 23 27 28 28 29 29 30 30 31 31 32 32 33 33
REMARK SMILES IDX 34 34 86 35 35 36 85 37 36 38 37 39 38 40 79 41 39 42 84 43
REMARK SMILES IDX 78 44 80 45 40 46 83 47 77 48 76 49 41 51 67 52 50 53 66 54
REMARK SMILES IDX 51 55 54 56 65 57 81 58 52 59 53 60 64 62 82 63 55 64 42 65
REMARK SMILES IDX 43 66 48 67 44 68 45 69 47 70 49 71 46 72 68 73 69 74 74 75
REMARK SMILES IDX 70 76 71 77 73 78 75 79 72 80 56 81 57 82 62 83 58 84 59 85
REMARK SMILES IDX 61 86 63 87 60 88
REMARK H PARENT 80 50 54 61
REMARK Flexibility Score: inf
ROOT
ATOM      1  O   UNL A   1      37.781  21.706  24.656  1.00  0.00    -0.461 OA
ENDROOT
BRANCH   1   2
ATOM      2  C   UNL A   1      37.074  22.828  24.385  1.00  0.00     0.326 C 
ATOM      3  O   UNL A   1      37.256  23.894  24.958  1.00  0.00    -0.250 OA
BRANCH   2   4
ATOM      4  C   UNL A   1      35.946  22.551  23.375  1.00  0.00     0.250 C 
BRANCH   4   5
ATOM      5  N   UNL A   1      34.631  22.896  23.957  1.00  0.00    -0.281 N 
ATOM      6  C   UNL A   1      34.011  24.068  23.602  1.00  0.00     0.269 C 
ATOM      7  C   UNL A   1      33.842  22.098  24.740  1.00  0.00     0.148 C 
ATOM      8  O   UNL A   1      34.108  24.588  22.502  1.00  0.00    -0.268 OA
ATOM      9  C   UNL A   1      33.047  24.493  24.641  1.00  0.00     0.111 C 
ATOM     10  S   UNL A   1      32.451  23.012  25.327  1.00  0.00    -0.052 SA
ATOM     11  S   UNL A   1      34.044  20.493  25.101  1.00  0.00    -0.052 S 
ATOM     12  C   UNL A   1      32.830  25.753  25.090  1.00  0.00     0.100 C 
ATOM     13  S   UNL A   1      31.589  25.978  26.404  1.00  0.00    -0.068 SA
ATOM     14  N   UNL A   1      33.456  26.980  24.761  1.00  0.00    -0.334 N 
ATOM     15  C   UNL A   1      32.014  27.702  26.501  1.00  0.00     0.037 A 
ATOM     16  C   UNL A   1      33.058  28.037  25.624  1.00  0.00     0.056 A 
ATOM     17  C   UNL A   1      31.403  28.655  27.305  1.00  0.00     0.017 A 
ATOM     18  C   UNL A   1      33.575  29.332  25.658  1.00  0.00     0.027 A 
ATOM     19  C   UNL A   1      31.887  29.963  27.282  1.00  0.00     0.001 A 
ATOM     20  C   UNL A   1      32.989  30.292  26.486  1.00  0.00     0.002 A 
BRANCH  14  21
ATOM     21  C   UNL A   1      34.039  27.403  23.489  1.00  0.00     0.124 C 
BRANCH  21  22
ATOM     22  C   UNL A   1      32.986  27.572  22.398  1.00  0.00     0.037 C 
BRANCH  22  23
ATOM     23  C   UNL A   1      32.307  28.912  22.374  1.00  0.00     0.124 C 
BRANCH  23  24
ATOM     24  S   UNL A   1      30.568  28.958  22.801  1.00  0.00     0.095 S 
ATOM     25  O   UNL A   1      30.411  29.700  24.030  1.00  0.00    -0.243 OA
ATOM     26  O   UNL A   1      29.795  29.301  21.627  1.00  0.00    -0.243 OA
ATOM     27  O   UNL A   1      30.270  27.420  23.166  1.00  0.00    -0.748 OA
ENDBRANCH  23  24
ENDBRANCH  22  23
ENDBRANCH  21  22
ENDBRANCH  14  21
ENDBRANCH   4   5
ENDBRANCH   2   4
ENDBRANCH   1   2
BRANCH   1  28
ATOM     28  C   UNL A   1      38.306  21.400  25.978  1.00  0.00     0.274 C 
BRANCH  28  29
ATOM     29  C   UNL A   1      39.760  21.902  26.126  1.00  0.00     0.275 C 
BRANCH  29  30
ATOM     30  O   UNL A   1      39.840  22.972  27.065  1.00  0.00    -0.458 OA
BRANCH  30  31
ATOM     31  C   UNL A   1      40.932  23.759  26.863  1.00  0.00     0.338 C 
ATOM     32  O   UNL A   1      41.866  23.534  26.133  1.00  0.00    -0.246 OA
BRANCH  31  33
ATOM     33  C   UNL A   1      40.637  25.066  27.484  1.00  0.00     0.060 A 
ATOM     34  C   UNL A   1      39.575  25.203  28.380  1.00  0.00     0.016 A 
ATOM     35  C   UNL A   1      41.440  26.159  27.141  1.00  0.00     0.016 A 
ATOM     36  C   UNL A   1      39.383  26.417  29.019  1.00  0.00     0.010 A 
ATOM     37  C   UNL A   1      41.268  27.367  27.806  1.00  0.00     0.010 A 
ATOM     38  C   UNL A   1      40.275  27.476  28.788  1.00  0.00    -0.014 A 
BRANCH  38  39
ATOM     39  C   UNL A   1      40.292  28.591  29.753  1.00  0.00     0.031 A 
ATOM     40  C   UNL A   1      39.329  29.721  29.677  1.00  0.00     0.074 A 
ATOM     41  C   UNL A   1      41.208  28.530  30.734  1.00  0.00     0.049 A 
ATOM     42  N   UNL A   1      39.053  30.636  30.568  1.00  0.00    -0.248 NA
ATOM     43  C   UNL A   1      38.565  29.835  28.436  1.00  0.00     0.031 C 
ATOM     44  C   UNL A   1      42.239  27.494  30.866  1.00  0.00     0.029 A 
ATOM     45  N   UNL A   1      41.408  29.344  31.811  1.00  0.00    -0.354 N 
ATOM     46  C   UNL A   1      38.023  31.386  30.020  1.00  0.00     0.074 A 
ATOM     47  C   UNL A   1      37.770  30.863  28.697  1.00  0.00     0.031 C 
ATOM     48  C   UNL A   1      42.943  27.722  31.983  1.00  0.00     0.029 A 
ATOM     49  C   UNL A   1      42.430  28.927  32.622  1.00  0.00     0.049 A 
ATOM     50  H   UNL A   1      40.871  30.151  31.987  1.00  0.00     0.167 HD
ATOM     51  C   UNL A   1      37.348  32.416  30.581  1.00  0.00     0.037 A 
ATOM     52  C   UNL A   1      42.894  29.466  33.761  1.00  0.00     0.037 A 
ATOM     53  C   UNL A   1      37.713  33.012  31.839  1.00  0.00     0.049 A 
ATOM     54  C   UNL A   1      42.204  30.681  34.308  1.00  0.00     0.074 A 
ATOM     55  C   UNL A   1      37.134  34.083  32.494  1.00  0.00     0.029 A 
ATOM     56  N   UNL A   1      38.797  32.609  32.608  1.00  0.00    -0.354 N 
ATOM     57  N   UNL A   1      41.150  31.314  33.853  1.00  0.00    -0.248 NA
ATOM     58  C   UNL A   1      42.766  31.248  35.538  1.00  0.00     0.031 C 
ATOM     59  C   UNL A   1      37.910  34.371  33.624  1.00  0.00     0.029 A 
ATOM     60  C   UNL A   1      38.933  33.438  33.708  1.00  0.00     0.049 A 
ATOM     61  H   UNL A   1      39.383  31.847  32.400  1.00  0.00     0.167 HD
ATOM     62  C   UNL A   1      40.909  32.346  34.748  1.00  0.00     0.074 A 
ATOM     63  C   UNL A   1      41.909  32.225  35.792  1.00  0.00     0.031 C 
ATOM     64  C   UNL A   1      39.955  33.309  34.716  1.00  0.00     0.037 A 
BRANCH  51  65
ATOM     65  C   UNL A   1      36.180  32.961  29.815  1.00  0.00     0.057 A 
ATOM     66  C   UNL A   1      36.361  33.834  28.736  1.00  0.00     0.134 A 
ATOM     67  C   UNL A   1      34.863  32.618  30.154  1.00  0.00     0.134 A 
ATOM     68  F   UNL A   1      37.594  34.201  28.356  1.00  0.00    -0.206 F 
ATOM     69  C   UNL A   1      35.276  34.348  28.024  1.00  0.00     0.040 A 
ATOM     70  C   UNL A   1      33.770  33.108  29.436  1.00  0.00     0.040 A 
ATOM     71  F   UNL A   1      34.619  31.774  31.170  1.00  0.00    -0.206 F 
ATOM     72  C   UNL A   1      33.976  33.980  28.369  1.00  0.00     0.006 A 
ENDBRANCH  51  65
BRANCH  52  73
ATOM     73  C   UNL A   1      44.057  28.860  34.448  1.00  0.00     0.057 A 
ATOM     74  C   UNL A   1      45.366  29.250  34.137  1.00  0.00     0.134 A 
ATOM     75  C   UNL A   1      43.889  27.892  35.443  1.00  0.00     0.134 A 
ATOM     76  F   UNL A   1      45.593  30.160  33.178  1.00  0.00    -0.206 F 
ATOM     77  C   UNL A   1      46.466  28.704  34.797  1.00  0.00     0.040 A 
ATOM     78  C   UNL A   1      44.979  27.360  36.133  1.00  0.00     0.040 A 
ATOM     79  F   UNL A   1      42.659  27.483  35.787  1.00  0.00    -0.206 F 
ATOM     80  C   UNL A   1      46.272  27.766  35.808  1.00  0.00     0.006 A 
ENDBRANCH  52  73
BRANCH  64  81
ATOM     81  C   UNL A   1      39.964  34.294  35.849  1.00  0.00     0.057 A 
ATOM     82  C   UNL A   1      40.645  35.512  35.730  1.00  0.00     0.134 A 
ATOM     83  C   UNL A   1      39.286  34.045  37.050  1.00  0.00     0.134 A 
ATOM     84  F   UNL A   1      41.323  35.810  34.612  1.00  0.00    -0.206 F 
ATOM     85  C   UNL A   1      40.641  36.451  36.760  1.00  0.00     0.040 A 
ATOM     86  C   UNL A   1      39.244  34.992  38.073  1.00  0.00     0.040 A 
ATOM     87  F   UNL A   1      38.601  32.903  37.221  1.00  0.00    -0.206 F 
ATOM     88  C   UNL A   1      39.927  36.199  37.930  1.00  0.00     0.006 A 
ENDBRANCH  64  81
ENDBRANCH  38  39
ENDBRANCH  31  33
ENDBRANCH  30  31
ENDBRANCH  29  30
ENDBRANCH  28  29
ENDBRANCH   1  28
TORSDOF 16
ENDMDL
