MODEL 1
REMARK VINA RESULT:     -12.3      0.000      0.000
REMARK SMILES COc1ccccc1[C@@H]1C[N@@H+](Cc2cn3cc(C)ccc3n2)C[C@H]1C(=O)OCCOC(=O)c1ccc(-c2c3nc(c(-c4c(F)cccc4F)c4ccc([nH]4)c(-c4c(F)cccc4F)c4nc(c(-c5c(F)cccc5F)c5ccc2[nH]5)C=C4)C=C3)cc1
REMARK SMILES IDX 28 1 27 2 25 3 26 4 24 5 9 6 10 7 11 8 23 9 8 11 3 12 4 13
REMARK SMILES IDX 5 14 7 15 6 16 2 17 1 18 12 19 13 20 14 21 22 22 15 23 21 24
REMARK SMILES IDX 16 25 20 26 17 27 19 28 18 29 29 30 30 31 31 32 32 33 33 34
REMARK SMILES IDX 34 35 86 36 35 37 85 38 36 39 37 40 38 41 79 42 39 43 84 44
REMARK SMILES IDX 78 45 80 46 40 47 83 48 77 49 76 50 41 52 67 53 50 54 66 55
REMARK SMILES IDX 51 56 54 57 65 58 81 59 52 60 53 61 64 63 82 64 55 65 42 66
REMARK SMILES IDX 43 67 48 68 44 69 45 70 47 71 49 72 46 73 68 74 69 75 74 76
REMARK SMILES IDX 70 77 71 78 73 79 75 80 72 81 56 82 57 83 62 84 58 85 59 86
REMARK SMILES IDX 61 87 63 88 60 89
REMARK H PARENT 11 10 80 51 54 62
REMARK Flexibility Score: inf
ROOT
ATOM      1  C   UNL A   1      32.221  29.420  27.541  1.00  0.00     0.274 C 
ENDROOT
BRANCH   1   2
ATOM      2  O   UNL A   1      32.874  28.138  27.481  1.00  0.00    -0.462 OA
BRANCH   2   3
ATOM      3  C   UNL A   1      32.328  27.183  26.684  1.00  0.00     0.315 C 
ATOM      4  O   UNL A   1      31.166  26.796  26.767  1.00  0.00    -0.252 OA
BRANCH   3   5
ATOM      5  C   UNL A   1      33.326  26.561  25.730  1.00  0.00     0.167 C 
ATOM      6  C   UNL A   1      33.045  25.148  25.215  1.00  0.00     0.098 C 
ATOM      7  C   UNL A   1      33.818  25.148  23.886  1.00  0.00     0.272 C 
ATOM      8  N   UNL A   1      33.673  26.495  23.324  1.00  0.00    -0.329 N 
ATOM      9  C   UNL A   1      33.443  27.409  24.455  1.00  0.00     0.278 C 
ATOM     10  H   UNL A   1      34.529  26.754  22.833  1.00  0.00     0.348 HD
BRANCH   6  11
ATOM     11  C   UNL A   1      33.393  23.927  26.052  1.00  0.00     0.004 A 
ATOM     12  C   UNL A   1      32.532  23.325  26.983  1.00  0.00     0.122 A 
ATOM     13  C   UNL A   1      32.954  22.235  27.760  1.00  0.00     0.047 A 
ATOM     14  C   UNL A   1      34.247  21.728  27.619  1.00  0.00     0.004 A 
ATOM     15  C   UNL A   1      34.702  23.412  25.952  1.00  0.00     0.008 A 
ATOM     16  C   UNL A   1      35.125  22.324  26.722  1.00  0.00     0.001 A 
BRANCH  12  17
ATOM     17  O   UNL A   1      31.326  23.905  27.266  1.00  0.00    -0.496 OA
ATOM     18  C   UNL A   1      30.221  23.107  26.851  1.00  0.00     0.278 C 
ENDBRANCH  12  17
ENDBRANCH   6  11
BRANCH   8  19
ATOM     19  C   UNL A   1      32.669  26.605  22.250  1.00  0.00     0.321 C 
BRANCH  19  20
ATOM     20  C   UNL A   1      31.511  27.505  22.569  1.00  0.00     0.114 A 
ATOM     21  C   UNL A   1      31.478  28.889  22.566  1.00  0.00     0.122 A 
ATOM     22  N   UNL A   1      30.265  26.999  22.875  1.00  0.00    -0.228 NA
ATOM     23  N   UNL A   1      30.169  29.232  22.766  1.00  0.00    -0.306 N 
ATOM     24  C   UNL A   1      29.471  28.048  22.964  1.00  0.00     0.137 A 
ATOM     25  C   UNL A   1      29.575  30.491  22.769  1.00  0.00     0.096 A 
ATOM     26  C   UNL A   1      28.071  28.157  23.187  1.00  0.00     0.048 A 
ATOM     27  C   UNL A   1      28.247  30.598  22.975  1.00  0.00    -0.034 A 
ATOM     28  C   UNL A   1      27.481  29.369  23.181  1.00  0.00     0.009 A 
ATOM     29  C   UNL A   1      27.515  31.903  22.991  1.00  0.00     0.046 C 
ENDBRANCH  19  20
ENDBRANCH   8  19
ENDBRANCH   3   5
ENDBRANCH   2   3
ENDBRANCH   1   2
BRANCH   1  30
ATOM     30  C   UNL A   1      32.874  30.471  26.650  1.00  0.00     0.275 C 
BRANCH  30  31
ATOM     31  O   UNL A   1      34.289  30.524  26.834  1.00  0.00    -0.458 OA
BRANCH  31  32
ATOM     32  C   UNL A   1      34.672  31.478  27.705  1.00  0.00     0.338 C 
ATOM     33  O   UNL A   1      34.236  32.618  27.806  1.00  0.00    -0.246 OA
BRANCH  32  34
ATOM     34  C   UNL A   1      35.830  31.027  28.462  1.00  0.00     0.060 A 
ATOM     35  C   UNL A   1      36.814  31.959  28.792  1.00  0.00     0.016 A 
ATOM     36  C   UNL A   1      36.045  29.654  28.586  1.00  0.00     0.016 A 
ATOM     37  C   UNL A   1      38.086  31.514  29.096  1.00  0.00     0.010 A 
ATOM     38  C   UNL A   1      37.307  29.208  28.918  1.00  0.00     0.010 A 
ATOM     39  C   UNL A   1      38.339  30.139  29.090  1.00  0.00    -0.014 A 
BRANCH  39  40
ATOM     40  C   UNL A   1      39.707  29.683  29.311  1.00  0.00     0.031 A 
ATOM     41  C   UNL A   1      40.168  29.695  30.723  1.00  0.00     0.074 A 
ATOM     42  C   UNL A   1      40.427  29.106  28.326  1.00  0.00     0.049 A 
ATOM     43  N   UNL A   1      41.287  30.133  31.199  1.00  0.00    -0.248 NA
ATOM     44  C   UNL A   1      39.238  29.180  31.743  1.00  0.00     0.031 C 
ATOM     45  C   UNL A   1      39.951  28.785  26.976  1.00  0.00     0.029 A 
ATOM     46  N   UNL A   1      41.678  28.555  28.358  1.00  0.00    -0.354 N 
ATOM     47  C   UNL A   1      41.279  29.791  32.549  1.00  0.00     0.074 A 
ATOM     48  C   UNL A   1      39.958  29.308  32.855  1.00  0.00     0.031 C 
ATOM     49  C   UNL A   1      40.796  27.902  26.409  1.00  0.00     0.029 A 
ATOM     50  C   UNL A   1      41.931  27.702  27.294  1.00  0.00     0.049 A 
ATOM     51  H   UNL A   1      42.334  28.746  29.066  1.00  0.00     0.167 HD
ATOM     52  C   UNL A   1      42.424  29.704  33.273  1.00  0.00     0.037 A 
ATOM     53  C   UNL A   1      42.963  26.840  27.149  1.00  0.00     0.037 A 
ATOM     54  C   UNL A   1      43.532  30.365  32.647  1.00  0.00     0.049 A 
ATOM     55  C   UNL A   1      44.070  27.251  28.038  1.00  0.00     0.074 A 
ATOM     56  C   UNL A   1      44.042  31.642  32.595  1.00  0.00     0.029 A 
ATOM     57  N   UNL A   1      44.165  29.631  31.686  1.00  0.00    -0.354 N 
ATOM     58  N   UNL A   1      44.770  28.338  27.878  1.00  0.00    -0.248 NA
ATOM     59  C   UNL A   1      44.273  26.560  29.309  1.00  0.00     0.031 C 
ATOM     60  C   UNL A   1      44.920  31.683  31.471  1.00  0.00     0.029 A 
ATOM     61  C   UNL A   1      44.906  30.434  30.860  1.00  0.00     0.049 A 
ATOM     62  H   UNL A   1      44.098  28.652  31.597  1.00  0.00     0.167 HD
ATOM     63  C   UNL A   1      45.167  28.677  29.154  1.00  0.00     0.074 A 
ATOM     64  C   UNL A   1      45.006  27.473  29.952  1.00  0.00     0.031 C 
ATOM     65  C   UNL A   1      45.254  29.981  29.535  1.00  0.00     0.037 A 
BRANCH  52  66
ATOM     66  C   UNL A   1      42.651  28.669  34.342  1.00  0.00     0.057 A 
ATOM     67  C   UNL A   1      42.938  29.072  35.655  1.00  0.00     0.134 A 
ATOM     68  C   UNL A   1      42.903  27.311  34.055  1.00  0.00     0.134 A 
ATOM     69  F   UNL A   1      42.773  30.349  36.034  1.00  0.00    -0.206 F 
ATOM     70  C   UNL A   1      43.471  28.194  36.607  1.00  0.00     0.040 A 
ATOM     71  C   UNL A   1      43.386  26.414  35.012  1.00  0.00     0.040 A 
ATOM     72  F   UNL A   1      42.791  26.815  32.815  1.00  0.00    -0.206 F 
ATOM     73  C   UNL A   1      43.697  26.860  36.287  1.00  0.00     0.006 A 
ENDBRANCH  52  66
BRANCH  53  74
ATOM     74  C   UNL A   1      43.005  25.586  26.369  1.00  0.00     0.057 A 
ATOM     75  C   UNL A   1      43.945  25.394  25.349  1.00  0.00     0.134 A 
ATOM     76  C   UNL A   1      42.265  24.454  26.754  1.00  0.00     0.134 A 
ATOM     77  F   UNL A   1      44.727  26.403  24.942  1.00  0.00    -0.206 F 
ATOM     78  C   UNL A   1      44.145  24.144  24.750  1.00  0.00     0.040 A 
ATOM     79  C   UNL A   1      42.444  23.205  26.156  1.00  0.00     0.040 A 
ATOM     80  F   UNL A   1      41.400  24.507  27.778  1.00  0.00    -0.206 F 
ATOM     81  C   UNL A   1      43.396  23.043  25.157  1.00  0.00     0.006 A 
ENDBRANCH  53  74
BRANCH  65  82
ATOM     82  C   UNL A   1      45.473  30.991  28.459  1.00  0.00     0.057 A 
ATOM     83  C   UNL A   1      46.734  31.325  27.951  1.00  0.00     0.134 A 
ATOM     84  C   UNL A   1      44.363  31.623  27.889  1.00  0.00     0.134 A 
ATOM     85  F   UNL A   1      47.840  30.709  28.391  1.00  0.00    -0.206 F 
ATOM     86  C   UNL A   1      46.887  32.289  26.952  1.00  0.00     0.040 A 
ATOM     87  C   UNL A   1      44.499  32.566  26.870  1.00  0.00     0.040 A 
ATOM     88  F   UNL A   1      43.123  31.314  28.301  1.00  0.00    -0.206 F 
ATOM     89  C   UNL A   1      45.767  32.912  26.408  1.00  0.00     0.006 A 
ENDBRANCH  65  82
ENDBRANCH  39  40
ENDBRANCH  32  34
ENDBRANCH  31  32
ENDBRANCH  30  31
ENDBRANCH   1  30
TORSDOF 15
ENDMDL
MODEL 2
REMARK VINA RESULT:     -12.2      2.451      5.287
REMARK SMILES COc1ccccc1[C@@H]1C[N@@H+](Cc2cn3cc(C)ccc3n2)C[C@H]1C(=O)OCCOC(=O)c1ccc(-c2c3nc(c(-c4c(F)cccc4F)c4ccc([nH]4)c(-c4c(F)cccc4F)c4nc(c(-c5c(F)cccc5F)c5ccc2[nH]5)C=C4)C=C3)cc1
REMARK SMILES IDX 28 1 27 2 25 3 26 4 24 5 9 6 10 7 11 8 23 9 8 11 3 12 4 13
REMARK SMILES IDX 5 14 7 15 6 16 2 17 1 18 12 19 13 20 14 21 22 22 15 23 21 24
REMARK SMILES IDX 16 25 20 26 17 27 19 28 18 29 29 30 30 31 31 32 32 33 33 34
REMARK SMILES IDX 34 35 86 36 35 37 85 38 36 39 37 40 38 41 79 42 39 43 84 44
REMARK SMILES IDX 78 45 80 46 40 47 83 48 77 49 76 50 41 52 67 53 50 54 66 55
REMARK SMILES IDX 51 56 54 57 65 58 81 59 52 60 53 61 64 63 82 64 55 65 42 66
REMARK SMILES IDX 43 67 48 68 44 69 45 70 47 71 49 72 46 73 68 74 69 75 74 76
REMARK SMILES IDX 70 77 71 78 73 79 75 80 72 81 56 82 57 83 62 84 58 85 59 86
REMARK SMILES IDX 61 87 63 88 60 89
REMARK H PARENT 11 10 80 51 54 62
REMARK Flexibility Score: inf
ROOT
ATOM      1  C   UNL A   1      34.311  28.888  26.423  1.00  0.00     0.274 C 
ENDROOT
BRANCH   1   2
ATOM      2  O   UNL A   1      33.024  28.241  26.437  1.00  0.00    -0.462 OA
BRANCH   2   3
ATOM      3  C   UNL A   1      32.973  26.918  26.134  1.00  0.00     0.315 C 
ATOM      4  O   UNL A   1      33.961  26.199  26.016  1.00  0.00    -0.252 OA
BRANCH   3   5
ATOM      5  C   UNL A   1      31.569  26.423  25.859  1.00  0.00     0.167 C 
ATOM      6  C   UNL A   1      31.139  26.249  24.401  1.00  0.00     0.098 C 
ATOM      7  C   UNL A   1      30.036  25.186  24.532  1.00  0.00     0.272 C 
ATOM      8  N   UNL A   1      30.468  24.271  25.594  1.00  0.00    -0.329 N 
ATOM      9  C   UNL A   1      31.363  25.034  26.480  1.00  0.00     0.278 C 
ATOM     10  H   UNL A   1      29.655  23.943  26.115  1.00  0.00     0.348 HD
BRANCH   6  11
ATOM     11  C   UNL A   1      30.663  27.436  23.579  1.00  0.00     0.004 A 
ATOM     12  C   UNL A   1      31.463  28.155  22.676  1.00  0.00     0.122 A 
ATOM     13  C   UNL A   1      30.961  29.278  22.000  1.00  0.00     0.047 A 
ATOM     14  C   UNL A   1      29.649  29.703  22.217  1.00  0.00     0.004 A 
ATOM     15  C   UNL A   1      29.351  27.905  23.799  1.00  0.00     0.008 A 
ATOM     16  C   UNL A   1      28.847  29.021  23.125  1.00  0.00     0.001 A 
BRANCH  12  17
ATOM     17  O   UNL A   1      32.796  27.870  22.576  1.00  0.00    -0.496 OA
ATOM     18  C   UNL A   1      33.623  28.996  22.851  1.00  0.00     0.278 C 
ENDBRANCH  12  17
ENDBRANCH   6  11
BRANCH   8  19
ATOM     19  C   UNL A   1      31.042  23.001  25.110  1.00  0.00     0.321 C 
BRANCH  19  20
ATOM     20  C   UNL A   1      32.542  22.967  25.081  1.00  0.00     0.114 A 
ATOM     21  C   UNL A   1      33.405  22.480  26.047  1.00  0.00     0.122 A 
ATOM     22  N   UNL A   1      33.254  23.412  23.986  1.00  0.00    -0.228 NA
ATOM     23  N   UNL A   1      34.655  22.527  25.489  1.00  0.00    -0.306 N 
ATOM     24  C   UNL A   1      34.514  23.116  24.240  1.00  0.00     0.137 A 
ATOM     25  C   UNL A   1      35.869  22.080  26.003  1.00  0.00     0.096 A 
ATOM     26  C   UNL A   1      35.695  23.265  23.464  1.00  0.00     0.048 A 
ATOM     27  C   UNL A   1      36.990  22.214  25.267  1.00  0.00    -0.034 A 
ATOM     28  C   UNL A   1      36.875  22.827  23.943  1.00  0.00     0.009 A 
ATOM     29  C   UNL A   1      38.340  21.762  25.726  1.00  0.00     0.046 C 
ENDBRANCH  19  20
ENDBRANCH   8  19
ENDBRANCH   3   5
ENDBRANCH   2   3
ENDBRANCH   1   2
BRANCH   1  30
ATOM     30  C   UNL A   1      34.570  29.740  27.660  1.00  0.00     0.275 C 
BRANCH  30  31
ATOM     31  O   UNL A   1      35.501  30.790  27.401  1.00  0.00    -0.458 OA
BRANCH  31  32
ATOM     32  C   UNL A   1      36.466  30.884  28.337  1.00  0.00     0.338 C 
ATOM     33  O   UNL A   1      36.662  31.805  29.120  1.00  0.00    -0.246 OA
BRANCH  32  34
ATOM     34  C   UNL A   1      37.392  29.767  28.214  1.00  0.00     0.060 A 
ATOM     35  C   UNL A   1      37.494  28.868  29.275  1.00  0.00     0.016 A 
ATOM     36  C   UNL A   1      38.326  29.795  27.178  1.00  0.00     0.016 A 
ATOM     37  C   UNL A   1      38.633  28.094  29.390  1.00  0.00     0.010 A 
ATOM     38  C   UNL A   1      39.448  29.000  27.277  1.00  0.00     0.010 A 
ATOM     39  C   UNL A   1      39.634  28.217  28.423  1.00  0.00    -0.014 A 
BRANCH  39  40
ATOM     40  C   UNL A   1      40.875  27.471  28.607  1.00  0.00     0.031 A 
ATOM     41  C   UNL A   1      41.611  27.749  29.866  1.00  0.00     0.074 A 
ATOM     42  C   UNL A   1      41.218  26.459  27.783  1.00  0.00     0.049 A 
ATOM     43  N   UNL A   1      42.875  27.966  30.026  1.00  0.00    -0.248 NA
ATOM     44  C   UNL A   1      40.823  27.832  31.107  1.00  0.00     0.031 C 
ATOM     45  C   UNL A   1      40.408  25.919  26.685  1.00  0.00     0.029 A 
ATOM     46  N   UNL A   1      42.286  25.605  27.835  1.00  0.00    -0.354 N 
ATOM     47  C   UNL A   1      43.072  28.037  31.402  1.00  0.00     0.074 A 
ATOM     48  C   UNL A   1      41.770  28.058  32.015  1.00  0.00     0.031 C 
ATOM     49  C   UNL A   1      40.887  24.708  26.338  1.00  0.00     0.029 A 
ATOM     50  C   UNL A   1      42.105  24.451  27.088  1.00  0.00     0.049 A 
ATOM     51  H   UNL A   1      43.102  25.793  28.352  1.00  0.00     0.167 HD
ATOM     52  C   UNL A   1      44.292  27.835  31.963  1.00  0.00     0.037 A 
ATOM     53  C   UNL A   1      42.856  23.326  27.104  1.00  0.00     0.037 A 
ATOM     54  C   UNL A   1      45.366  27.948  31.019  1.00  0.00     0.049 A 
ATOM     55  C   UNL A   1      44.189  23.638  27.661  1.00  0.00     0.074 A 
ATOM     56  C   UNL A   1      46.135  28.956  30.487  1.00  0.00     0.029 A 
ATOM     57  N   UNL A   1      45.596  26.823  30.281  1.00  0.00    -0.354 N 
ATOM     58  N   UNL A   1      45.072  24.389  27.066  1.00  0.00    -0.248 NA
ATOM     59  C   UNL A   1      44.489  23.308  29.052  1.00  0.00     0.031 C 
ATOM     60  C   UNL A   1      46.742  28.425  29.310  1.00  0.00     0.029 A 
ATOM     61  C   UNL A   1      46.312  27.113  29.150  1.00  0.00     0.049 A 
ATOM     62  H   UNL A   1      45.287  25.921  30.528  1.00  0.00     0.167 HD
ATOM     63  C   UNL A   1      45.795  24.947  28.097  1.00  0.00     0.074 A 
ATOM     64  C   UNL A   1      45.531  24.116  29.261  1.00  0.00     0.031 C 
ATOM     65  C   UNL A   1      46.259  26.224  28.015  1.00  0.00     0.037 A 
BRANCH  52  66
ATOM     66  C   UNL A   1      44.493  27.124  33.275  1.00  0.00     0.057 A 
ATOM     67  C   UNL A   1      44.285  25.739  33.358  1.00  0.00     0.134 A 
ATOM     68  C   UNL A   1      44.576  27.801  34.510  1.00  0.00     0.134 A 
ATOM     69  F   UNL A   1      44.152  24.996  32.248  1.00  0.00    -0.206 F 
ATOM     70  C   UNL A   1      44.138  25.078  34.584  1.00  0.00     0.040 A 
ATOM     71  C   UNL A   1      44.482  27.144  35.740  1.00  0.00     0.040 A 
ATOM     72  F   UNL A   1      44.651  29.137  34.583  1.00  0.00    -0.206 F 
ATOM     73  C   UNL A   1      44.235  25.780  35.780  1.00  0.00     0.006 A 
ENDBRANCH  52  66
BRANCH  53  74
ATOM     74  C   UNL A   1      42.442  21.946  26.781  1.00  0.00     0.057 A 
ATOM     75  C   UNL A   1      43.150  21.172  25.853  1.00  0.00     0.134 A 
ATOM     76  C   UNL A   1      41.470  21.272  27.541  1.00  0.00     0.134 A 
ATOM     77  F   UNL A   1      44.125  21.716  25.112  1.00  0.00    -0.206 F 
ATOM     78  C   UNL A   1      42.911  19.801  25.695  1.00  0.00     0.040 A 
ATOM     79  C   UNL A   1      41.212  19.908  27.383  1.00  0.00     0.040 A 
ATOM     80  F   UNL A   1      40.795  21.899  28.516  1.00  0.00    -0.206 F 
ATOM     81  C   UNL A   1      41.942  19.164  26.466  1.00  0.00     0.006 A 
ENDBRANCH  53  74
BRANCH  65  82
ATOM     82  C   UNL A   1      46.475  26.782  26.648  1.00  0.00     0.057 A 
ATOM     83  C   UNL A   1      45.491  27.464  25.922  1.00  0.00     0.134 A 
ATOM     84  C   UNL A   1      47.738  26.656  26.059  1.00  0.00     0.134 A 
ATOM     85  F   UNL A   1      44.281  27.693  26.447  1.00  0.00    -0.206 F 
ATOM     86  C   UNL A   1      45.740  27.955  24.638  1.00  0.00     0.040 A 
ATOM     87  C   UNL A   1      48.008  27.167  24.790  1.00  0.00     0.040 A 
ATOM     88  F   UNL A   1      48.736  26.051  26.722  1.00  0.00    -0.206 F 
ATOM     89  C   UNL A   1      47.003  27.807  24.069  1.00  0.00     0.006 A 
ENDBRANCH  65  82
ENDBRANCH  39  40
ENDBRANCH  32  34
ENDBRANCH  31  32
ENDBRANCH  30  31
ENDBRANCH   1  30
TORSDOF 15
ENDMDL
MODEL 3
REMARK VINA RESULT:     -12.2      3.239      8.205
REMARK SMILES COc1ccccc1[C@@H]1C[N@@H+](Cc2cn3cc(C)ccc3n2)C[C@H]1C(=O)OCCOC(=O)c1ccc(-c2c3nc(c(-c4c(F)cccc4F)c4ccc([nH]4)c(-c4c(F)cccc4F)c4nc(c(-c5c(F)cccc5F)c5ccc2[nH]5)C=C4)C=C3)cc1
REMARK SMILES IDX 28 1 27 2 25 3 26 4 24 5 9 6 10 7 11 8 23 9 8 11 3 12 4 13
REMARK SMILES IDX 5 14 7 15 6 16 2 17 1 18 12 19 13 20 14 21 22 22 15 23 21 24
REMARK SMILES IDX 16 25 20 26 17 27 19 28 18 29 29 30 30 31 31 32 32 33 33 34
REMARK SMILES IDX 34 35 86 36 35 37 85 38 36 39 37 40 38 41 79 42 39 43 84 44
REMARK SMILES IDX 78 45 80 46 40 47 83 48 77 49 76 50 41 52 67 53 50 54 66 55
REMARK SMILES IDX 51 56 54 57 65 58 81 59 52 60 53 61 64 63 82 64 55 65 42 66
REMARK SMILES IDX 43 67 48 68 44 69 45 70 47 71 49 72 46 73 68 74 69 75 74 76
REMARK SMILES IDX 70 77 71 78 73 79 75 80 72 81 56 82 57 83 62 84 58 85 59 86
REMARK SMILES IDX 61 87 63 88 60 89
REMARK H PARENT 11 10 80 51 54 62
REMARK Flexibility Score: inf
ROOT
ATOM      1  C   UNL A   1      37.402  21.612  24.417  1.00  0.00     0.274 C 
ENDROOT
BRANCH   1   2
ATOM      2  O   UNL A   1      36.052  22.109  24.485  1.00  0.00    -0.462 OA
BRANCH   2   3
ATOM      3  C   UNL A   1      35.832  23.403  24.133  1.00  0.00     0.315 C 
ATOM      4  O   UNL A   1      36.287  23.929  23.122  1.00  0.00    -0.252 OA
BRANCH   3   5
ATOM      5  C   UNL A   1      35.037  24.175  25.165  1.00  0.00     0.167 C 
ATOM      6  C   UNL A   1      33.705  24.792  24.734  1.00  0.00     0.098 C 
ATOM      7  C   UNL A   1      32.957  24.871  26.075  1.00  0.00     0.272 C 
ATOM      8  N   UNL A   1      33.339  23.674  26.833  1.00  0.00    -0.329 N 
ATOM      9  C   UNL A   1      34.666  23.262  26.342  1.00  0.00     0.278 C 
ATOM     10  H   UNL A   1      33.388  23.900  27.826  1.00  0.00     0.348 HD
BRANCH   6  11
ATOM     11  C   UNL A   1      33.660  26.123  24.001  1.00  0.00     0.004 A 
ATOM     12  C   UNL A   1      33.565  26.265  22.608  1.00  0.00     0.122 A 
ATOM     13  C   UNL A   1      33.590  27.533  22.006  1.00  0.00     0.047 A 
ATOM     14  C   UNL A   1      33.712  28.682  22.789  1.00  0.00     0.004 A 
ATOM     15  C   UNL A   1      33.811  27.299  24.764  1.00  0.00     0.008 A 
ATOM     16  C   UNL A   1      33.833  28.564  24.169  1.00  0.00     0.001 A 
BRANCH  12  17
ATOM     17  O   UNL A   1      33.620  25.158  21.808  1.00  0.00    -0.496 OA
ATOM     18  C   UNL A   1      32.756  25.250  20.679  1.00  0.00     0.278 C 
ENDBRANCH  12  17
ENDBRANCH   6  11
BRANCH   8  19
ATOM     19  C   UNL A   1      32.334  22.595  26.822  1.00  0.00     0.321 C 
BRANCH  19  20
ATOM     20  C   UNL A   1      32.650  21.459  25.894  1.00  0.00     0.114 A 
ATOM     21  C   UNL A   1      33.459  20.361  26.132  1.00  0.00     0.122 A 
ATOM     22  N   UNL A   1      32.086  21.372  24.638  1.00  0.00    -0.228 NA
ATOM     23  N   UNL A   1      33.301  19.539  25.049  1.00  0.00    -0.306 N 
ATOM     24  C   UNL A   1      32.468  20.204  24.160  1.00  0.00     0.137 A 
ATOM     25  C   UNL A   1      33.824  18.270  24.819  1.00  0.00     0.096 A 
ATOM     26  C   UNL A   1      32.153  19.531  22.948  1.00  0.00     0.048 A 
ATOM     27  C   UNL A   1      33.523  17.625  23.674  1.00  0.00    -0.034 A 
ATOM     28  C   UNL A   1      32.643  18.297  22.717  1.00  0.00     0.009 A 
ATOM     29  C   UNL A   1      34.029  16.259  23.335  1.00  0.00     0.046 C 
ENDBRANCH  19  20
ENDBRANCH   8  19
ENDBRANCH   3   5
ENDBRANCH   2   3
ENDBRANCH   1   2
BRANCH   1  30
ATOM     30  C   UNL A   1      38.112  21.611  25.766  1.00  0.00     0.275 C 
BRANCH  30  31
ATOM     31  O   UNL A   1      38.711  22.875  26.056  1.00  0.00    -0.458 OA
BRANCH  31  32
ATOM     32  C   UNL A   1      39.877  22.765  26.723  1.00  0.00     0.338 C 
ATOM     33  O   UNL A   1      40.389  21.748  27.173  1.00  0.00    -0.246 OA
BRANCH  32  34
ATOM     34  C   UNL A   1      40.426  24.086  26.990  1.00  0.00     0.060 A 
ATOM     35  C   UNL A   1      41.441  24.205  27.939  1.00  0.00     0.016 A 
ATOM     36  C   UNL A   1      39.739  25.198  26.502  1.00  0.00     0.016 A 
ATOM     37  C   UNL A   1      41.666  25.433  28.531  1.00  0.00     0.010 A 
ATOM     38  C   UNL A   1      39.984  26.430  27.072  1.00  0.00     0.010 A 
ATOM     39  C   UNL A   1      40.886  26.524  28.138  1.00  0.00    -0.014 A 
BRANCH  39  40
ATOM     40  C   UNL A   1      41.060  27.792  28.840  1.00  0.00     0.031 A 
ATOM     41  C   UNL A   1      42.219  28.612  28.406  1.00  0.00     0.074 A 
ATOM     42  C   UNL A   1      40.118  28.269  29.680  1.00  0.00     0.049 A 
ATOM     43  N   UNL A   1      43.093  29.219  29.140  1.00  0.00    -0.248 NA
ATOM     44  C   UNL A   1      42.454  28.741  26.958  1.00  0.00     0.031 C 
ATOM     45  C   UNL A   1      38.806  27.668  29.946  1.00  0.00     0.029 A 
ATOM     46  N   UNL A   1      40.065  29.453  30.362  1.00  0.00    -0.354 N 
ATOM     47  C   UNL A   1      43.882  29.951  28.256  1.00  0.00     0.074 A 
ATOM     48  C   UNL A   1      43.519  29.538  26.925  1.00  0.00     0.031 C 
ATOM     49  C   UNL A   1      38.009  28.587  30.527  1.00  0.00     0.029 A 
ATOM     50  C   UNL A   1      38.790  29.784  30.793  1.00  0.00     0.049 A 
ATOM     51  H   UNL A   1      40.856  30.015  30.531  1.00  0.00     0.167 HD
ATOM     52  C   UNL A   1      44.615  31.018  28.664  1.00  0.00     0.037 A 
ATOM     53  C   UNL A   1      38.362  30.968  31.289  1.00  0.00     0.037 A 
ATOM     54  C   UNL A   1      44.806  31.054  30.085  1.00  0.00     0.049 A 
ATOM     55  C   UNL A   1      39.523  31.741  31.776  1.00  0.00     0.074 A 
ATOM     56  C   UNL A   1      45.683  30.512  30.996  1.00  0.00     0.029 A 
ATOM     57  N   UNL A   1      43.764  31.588  30.786  1.00  0.00    -0.354 N 
ATOM     58  N   UNL A   1      40.241  31.406  32.810  1.00  0.00    -0.248 NA
ATOM     59  C   UNL A   1      40.080  32.810  30.951  1.00  0.00     0.031 C 
ATOM     60  C   UNL A   1      45.061  30.626  32.275  1.00  0.00     0.029 A 
ATOM     61  C   UNL A   1      43.815  31.219  32.104  1.00  0.00     0.049 A 
ATOM     62  H   UNL A   1      43.067  32.164  30.396  1.00  0.00     0.167 HD
ATOM     63  C   UNL A   1      41.492  31.915  32.535  1.00  0.00     0.074 A 
ATOM     64  C   UNL A   1      41.293  32.915  31.499  1.00  0.00     0.031 C 
ATOM     65  C   UNL A   1      42.617  31.245  32.908  1.00  0.00     0.037 A 
BRANCH  52  66
ATOM     66  C   UNL A   1      44.809  32.257  27.831  1.00  0.00     0.057 A 
ATOM     67  C   UNL A   1      43.806  33.238  27.794  1.00  0.00     0.134 A 
ATOM     68  C   UNL A   1      45.800  32.364  26.833  1.00  0.00     0.134 A 
ATOM     69  F   UNL A   1      42.790  33.215  28.671  1.00  0.00    -0.206 F 
ATOM     70  C   UNL A   1      43.773  34.236  26.812  1.00  0.00     0.040 A 
ATOM     71  C   UNL A   1      45.805  33.386  25.880  1.00  0.00     0.040 A 
ATOM     72  F   UNL A   1      46.748  31.431  26.672  1.00  0.00    -0.206 F 
ATOM     73  C   UNL A   1      44.774  34.313  25.851  1.00  0.00     0.006 A 
ENDBRANCH  52  66
BRANCH  53  74
ATOM     74  C   UNL A   1      36.999  31.537  31.249  1.00  0.00     0.057 A 
ATOM     75  C   UNL A   1      36.312  31.861  32.425  1.00  0.00     0.134 A 
ATOM     76  C   UNL A   1      36.422  31.984  30.048  1.00  0.00     0.134 A 
ATOM     77  F   UNL A   1      36.805  31.515  33.623  1.00  0.00    -0.206 F 
ATOM     78  C   UNL A   1      35.121  32.598  32.409  1.00  0.00     0.040 A 
ATOM     79  C   UNL A   1      35.228  32.707  30.016  1.00  0.00     0.040 A 
ATOM     80  F   UNL A   1      37.041  31.801  28.872  1.00  0.00    -0.206 F 
ATOM     81  C   UNL A   1      34.578  33.027  31.201  1.00  0.00     0.006 A 
ENDBRANCH  53  74
BRANCH  65  82
ATOM     82  C   UNL A   1      42.499  30.308  34.062  1.00  0.00     0.057 A 
ATOM     83  C   UNL A   1      42.167  28.954  33.934  1.00  0.00     0.134 A 
ATOM     84  C   UNL A   1      42.767  30.786  35.350  1.00  0.00     0.134 A 
ATOM     85  F   UNL A   1      41.971  28.403  32.729  1.00  0.00    -0.206 F 
ATOM     86  C   UNL A   1      42.055  28.121  35.050  1.00  0.00     0.040 A 
ATOM     87  C   UNL A   1      42.687  29.958  36.470  1.00  0.00     0.040 A 
ATOM     88  F   UNL A   1      43.133  32.064  35.535  1.00  0.00    -0.206 F 
ATOM     89  C   UNL A   1      42.316  28.623  36.323  1.00  0.00     0.006 A 
ENDBRANCH  65  82
ENDBRANCH  39  40
ENDBRANCH  32  34
ENDBRANCH  31  32
ENDBRANCH  30  31
ENDBRANCH   1  30
TORSDOF 15
ENDMDL
