MODEL 1
REMARK VINA RESULT:     -11.8      0.000      0.000
REMARK SMILES COc1cc(/C=C2/S/C(=[NH+]\C(C)=O)NC2=O)cc(Br)c1OCC(=O)OCCOC(=O)c1ccc(-c2c3nc(c(-c4c(F)cccc4F)c4ccc([nH]4)c(-c4c(F)cccc4F)c4nc(c(-c5c(F)cccc5F)c5ccc2[nH]5)C=C4)C=C3)cc1
REMARK SMILES IDX 26 1 25 2 23 3 24 4 22 5 21 6 20 7 3 8 4 9 5 10 18 11 17 12
REMARK SMILES IDX 19 13 2 14 1 15 6 16 7 17 8 18 15 19 9 20 14 21 16 22 10 23
REMARK SMILES IDX 11 25 12 27 13 28 27 29 28 30 29 31 30 32 31 33 32 34 84 35
REMARK SMILES IDX 33 36 83 37 34 38 35 39 36 40 77 41 37 42 82 43 76 44 78 45
REMARK SMILES IDX 38 46 81 47 75 48 74 49 39 51 65 52 48 53 64 54 49 55 52 56
REMARK SMILES IDX 63 57 79 58 50 59 51 60 62 62 80 63 53 64 40 65 41 66 46 67
REMARK SMILES IDX 42 68 43 69 45 70 47 71 44 72 66 73 67 74 72 75 68 76 69 77
REMARK SMILES IDX 71 78 73 79 70 80 54 81 55 82 60 83 56 84 57 85 59 86 61 87
REMARK SMILES IDX 58 88
REMARK H PARENT 14 24 10 26 78 50 52 61
REMARK Flexibility Score: inf
ROOT
ATOM      1  C   UNL A   1      35.172  21.066  24.624  1.00  0.00     0.274 C 
ENDROOT
BRANCH   1   2
ATOM      2  O   UNL A   1      34.069  20.467  25.341  1.00  0.00    -0.460 OA
BRANCH   2   3
ATOM      3  C   UNL A   1      32.856  20.580  24.747  1.00  0.00     0.344 C 
ATOM      4  O   UNL A   1      31.894  19.855  25.004  1.00  0.00    -0.248 OA
BRANCH   3   5
ATOM      5  C   UNL A   1      32.781  21.629  23.627  1.00  0.00     0.352 C 
BRANCH   5   6
ATOM      6  O   UNL A   1      32.000  22.806  23.578  1.00  0.00    -0.477 OA
BRANCH   6   7
ATOM      7  C   UNL A   1      32.451  23.895  24.275  1.00  0.00     0.176 A 
ATOM      8  C   UNL A   1      33.055  24.906  23.505  1.00  0.00     0.162 A 
ATOM      9  C   UNL A   1      33.592  26.047  24.118  1.00  0.00     0.058 A 
ATOM     10  C   UNL A   1      33.476  26.227  25.497  1.00  0.00    -0.019 A 
ATOM     11  C   UNL A   1      32.218  24.145  25.633  1.00  0.00     0.064 A 
ATOM     12  C   UNL A   1      32.751  25.293  26.244  1.00  0.00     0.028 A 
ATOM     13  Br  UNL A   1      31.048  23.100  26.705  1.00  0.00    -0.047 Br
BRANCH   8  14
ATOM     14  O   UNL A   1      33.097  24.710  22.143  1.00  0.00    -0.493 OA
ATOM     15  C   UNL A   1      32.853  25.879  21.366  1.00  0.00     0.278 C 
ENDBRANCH   8  14
BRANCH  10  16
ATOM     16  C   UNL A   1      34.036  27.411  26.159  1.00  0.00     0.032 C 
ATOM     17  C   UNL A   1      33.380  28.544  26.452  1.00  0.00     0.110 C 
ATOM     18  S   UNL A   1      34.168  29.923  27.160  1.00  0.00     0.007 SA
ATOM     19  C   UNL A   1      31.951  28.893  26.214  1.00  0.00     0.346 C 
ATOM     20  C   UNL A   1      32.790  30.954  26.957  1.00  0.00     0.324 C 
ATOM     21  N   UNL A   1      31.778  30.234  26.409  1.00  0.00    -0.199 N 
ATOM     22  O   UNL A   1      31.032  28.129  25.987  1.00  0.00    -0.240 OA
ATOM     23  N   UNL A   1      32.543  32.177  27.235  1.00  0.00    -0.204 N 
ATOM     24  H   UNL A   1      30.933  30.671  26.154  1.00  0.00     0.316 HD
ATOM     25  C   UNL A   1      33.285  33.128  27.877  1.00  0.00     0.304 C 
ATOM     26  H   UNL A   1      31.658  32.489  26.933  1.00  0.00     0.316 HD
ATOM     27  C   UNL A   1      34.774  33.057  28.063  1.00  0.00     0.144 C 
ATOM     28  O   UNL A   1      32.724  34.150  28.279  1.00  0.00    -0.247 OA
ENDBRANCH  10  16
ENDBRANCH   6   7
ENDBRANCH   5   6
ENDBRANCH   3   5
ENDBRANCH   2   3
ENDBRANCH   1   2
BRANCH   1  29
ATOM     29  C   UNL A   1      36.541  20.525  25.051  1.00  0.00     0.275 C 
BRANCH  29  30
ATOM     30  O   UNL A   1      37.572  21.531  25.006  1.00  0.00    -0.458 OA
BRANCH  30  31
ATOM     31  C   UNL A   1      38.651  21.217  25.752  1.00  0.00     0.338 C 
ATOM     32  O   UNL A   1      39.182  20.129  25.855  1.00  0.00    -0.246 OA
BRANCH  31  33
ATOM     33  C   UNL A   1      39.218  22.375  26.437  1.00  0.00     0.060 A 
ATOM     34  C   UNL A   1      38.742  23.641  26.102  1.00  0.00     0.016 A 
ATOM     35  C   UNL A   1      40.379  22.222  27.195  1.00  0.00     0.016 A 
ATOM     36  C   UNL A   1      39.452  24.770  26.496  1.00  0.00     0.010 A 
ATOM     37  C   UNL A   1      41.056  23.358  27.640  1.00  0.00     0.010 A 
ATOM     38  C   UNL A   1      40.608  24.640  27.279  1.00  0.00    -0.014 A 
BRANCH  38  39
ATOM     39  C   UNL A   1      41.336  25.844  27.745  1.00  0.00     0.031 A 
ATOM     40  C   UNL A   1      40.641  26.891  28.566  1.00  0.00     0.074 A 
ATOM     41  C   UNL A   1      42.626  26.007  27.395  1.00  0.00     0.049 A 
ATOM     42  N   UNL A   1      41.037  28.101  28.867  1.00  0.00    -0.248 NA
ATOM     43  C   UNL A   1      39.325  26.533  29.118  1.00  0.00     0.031 C 
ATOM     44  C   UNL A   1      43.428  25.037  26.648  1.00  0.00     0.029 A 
ATOM     45  N   UNL A   1      43.482  27.057  27.605  1.00  0.00    -0.354 N 
ATOM     46  C   UNL A   1      40.007  28.665  29.607  1.00  0.00     0.074 A 
ATOM     47  C   UNL A   1      38.966  27.663  29.715  1.00  0.00     0.031 C 
ATOM     48  C   UNL A   1      44.658  25.535  26.462  1.00  0.00     0.029 A 
ATOM     49  C   UNL A   1      44.704  26.889  27.002  1.00  0.00     0.049 A 
ATOM     50  H   UNL A   1      43.245  27.852  28.135  1.00  0.00     0.167 HD
ATOM     51  C   UNL A   1      39.940  29.909  30.140  1.00  0.00     0.037 A 
ATOM     52  C   UNL A   1      45.728  27.747  26.846  1.00  0.00     0.037 A 
ATOM     53  C   UNL A   1      40.999  30.882  30.058  1.00  0.00     0.049 A 
ATOM     54  C   UNL A   1      45.605  29.140  27.387  1.00  0.00     0.074 A 
ATOM     55  C   UNL A   1      41.035  32.164  30.581  1.00  0.00     0.029 A 
ATOM     56  N   UNL A   1      42.212  30.679  29.418  1.00  0.00    -0.354 N 
ATOM     57  N   UNL A   1      44.608  29.684  28.042  1.00  0.00    -0.248 NA
ATOM     58  C   UNL A   1      46.738  30.043  27.151  1.00  0.00     0.031 C 
ATOM     59  C   UNL A   1      42.256  32.748  30.228  1.00  0.00     0.029 A 
ATOM     60  C   UNL A   1      42.996  31.817  29.518  1.00  0.00     0.049 A 
ATOM     61  H   UNL A   1      42.477  29.849  28.959  1.00  0.00     0.167 HD
ATOM     62  C   UNL A   1      44.999  30.986  28.314  1.00  0.00     0.074 A 
ATOM     63  C   UNL A   1      46.327  31.150  27.757  1.00  0.00     0.031 C 
ATOM     64  C   UNL A   1      44.318  31.958  28.966  1.00  0.00     0.037 A 
BRANCH  51  65
ATOM     65  C   UNL A   1      38.672  30.307  30.834  1.00  0.00     0.057 A 
ATOM     66  C   UNL A   1      38.479  30.105  32.206  1.00  0.00     0.134 A 
ATOM     67  C   UNL A   1      37.657  30.966  30.128  1.00  0.00     0.134 A 
ATOM     68  F   UNL A   1      39.408  29.470  32.936  1.00  0.00    -0.206 F 
ATOM     69  C   UNL A   1      37.317  30.535  32.849  1.00  0.00     0.040 A 
ATOM     70  C   UNL A   1      36.500  31.418  30.763  1.00  0.00     0.040 A 
ATOM     71  F   UNL A   1      37.782  31.196  28.812  1.00  0.00    -0.206 F 
ATOM     72  C   UNL A   1      36.326  31.201  32.129  1.00  0.00     0.006 A 
ENDBRANCH  51  65
BRANCH  52  73
ATOM     73  C   UNL A   1      46.931  27.316  26.096  1.00  0.00     0.057 A 
ATOM     74  C   UNL A   1      47.999  26.689  26.743  1.00  0.00     0.134 A 
ATOM     75  C   UNL A   1      47.023  27.489  24.708  1.00  0.00     0.134 A 
ATOM     76  F   UNL A   1      47.973  26.514  28.072  1.00  0.00    -0.206 F 
ATOM     77  C   UNL A   1      49.120  26.249  26.038  1.00  0.00     0.040 A 
ATOM     78  C   UNL A   1      48.126  27.032  23.988  1.00  0.00     0.040 A 
ATOM     79  F   UNL A   1      46.026  28.079  24.031  1.00  0.00    -0.206 F 
ATOM     80  C   UNL A   1      49.181  26.412  24.655  1.00  0.00     0.006 A 
ENDBRANCH  52  73
BRANCH  64  81
ATOM     81  C   UNL A   1      45.014  33.272  29.148  1.00  0.00     0.057 A 
ATOM     82  C   UNL A   1      45.854  33.514  30.242  1.00  0.00     0.134 A 
ATOM     83  C   UNL A   1      44.878  34.286  28.193  1.00  0.00     0.134 A 
ATOM     84  F   UNL A   1      46.013  32.585  31.197  1.00  0.00    -0.206 F 
ATOM     85  C   UNL A   1      46.526  34.729  30.385  1.00  0.00     0.040 A 
ATOM     86  C   UNL A   1      45.559  35.497  28.316  1.00  0.00     0.040 A 
ATOM     87  F   UNL A   1      44.091  34.110  27.121  1.00  0.00    -0.206 F 
ATOM     88  C   UNL A   1      46.383  35.721  29.416  1.00  0.00     0.006 A 
ENDBRANCH  64  81
ENDBRANCH  38  39
ENDBRANCH  31  33
ENDBRANCH  30  31
ENDBRANCH  29  30
ENDBRANCH   1  29
TORSDOF 15
ENDMDL
MODEL 2
REMARK VINA RESULT:     -11.7      4.000      7.705
REMARK SMILES COc1cc(/C=C2/S/C(=[NH+]\C(C)=O)NC2=O)cc(Br)c1OCC(=O)OCCOC(=O)c1ccc(-c2c3nc(c(-c4c(F)cccc4F)c4ccc([nH]4)c(-c4c(F)cccc4F)c4nc(c(-c5c(F)cccc5F)c5ccc2[nH]5)C=C4)C=C3)cc1
REMARK SMILES IDX 26 1 25 2 23 3 24 4 22 5 21 6 20 7 3 8 4 9 5 10 18 11 17 12
REMARK SMILES IDX 19 13 2 14 1 15 6 16 7 17 8 18 15 19 9 20 14 21 16 22 10 23
REMARK SMILES IDX 11 25 12 27 13 28 27 29 28 30 29 31 30 32 31 33 32 34 84 35
REMARK SMILES IDX 33 36 83 37 34 38 35 39 36 40 77 41 37 42 82 43 76 44 78 45
REMARK SMILES IDX 38 46 81 47 75 48 74 49 39 51 65 52 48 53 64 54 49 55 52 56
REMARK SMILES IDX 63 57 79 58 50 59 51 60 62 62 80 63 53 64 40 65 41 66 46 67
REMARK SMILES IDX 42 68 43 69 45 70 47 71 44 72 66 73 67 74 72 75 68 76 69 77
REMARK SMILES IDX 71 78 73 79 70 80 54 81 55 82 60 83 56 84 57 85 59 86 61 87
REMARK SMILES IDX 58 88
REMARK H PARENT 14 24 10 26 78 50 52 61
REMARK Flexibility Score: inf
ROOT
ATOM      1  C   UNL A   1      41.705  20.231  26.273  1.00  0.00     0.274 C 
ENDROOT
BRANCH   1   2
ATOM      2  O   UNL A   1      40.356  20.677  26.547  1.00  0.00    -0.460 OA
BRANCH   2   3
ATOM      3  C   UNL A   1      39.388  20.109  25.787  1.00  0.00     0.344 C 
ATOM      4  O   UNL A   1      39.416  18.941  25.398  1.00  0.00    -0.248 OA
BRANCH   3   5
ATOM      5  C   UNL A   1      38.275  21.069  25.338  1.00  0.00     0.352 C 
BRANCH   5   6
ATOM      6  O   UNL A   1      36.897  20.798  25.176  1.00  0.00    -0.477 OA
BRANCH   6   7
ATOM      7  C   UNL A   1      36.033  21.858  25.231  1.00  0.00     0.176 A 
ATOM      8  C   UNL A   1      34.669  21.544  25.083  1.00  0.00     0.162 A 
ATOM      9  C   UNL A   1      33.698  22.557  25.080  1.00  0.00     0.058 A 
ATOM     10  C   UNL A   1      34.066  23.886  25.289  1.00  0.00    -0.019 A 
ATOM     11  C   UNL A   1      36.377  23.172  25.576  1.00  0.00     0.064 A 
ATOM     12  C   UNL A   1      35.402  24.183  25.579  1.00  0.00     0.028 A 
ATOM     13  Br  UNL A   1      38.091  23.667  26.231  1.00  0.00    -0.047 Br
BRANCH   8  14
ATOM     14  O   UNL A   1      34.349  20.213  24.935  1.00  0.00    -0.493 OA
ATOM     15  C   UNL A   1      33.047  19.860  25.392  1.00  0.00     0.278 C 
ENDBRANCH   8  14
BRANCH  10  16
ATOM     16  C   UNL A   1      33.067  24.961  25.284  1.00  0.00     0.032 C 
ATOM     17  C   UNL A   1      32.681  25.684  24.223  1.00  0.00     0.110 C 
ATOM     18  S   UNL A   1      31.549  27.000  24.350  1.00  0.00     0.007 SA
ATOM     19  C   UNL A   1      33.128  25.588  22.804  1.00  0.00     0.346 C 
ATOM     20  C   UNL A   1      31.807  27.525  22.719  1.00  0.00     0.324 C 
ATOM     21  N   UNL A   1      32.692  26.687  22.121  1.00  0.00    -0.199 N 
ATOM     22  O   UNL A   1      33.696  24.654  22.271  1.00  0.00    -0.240 OA
ATOM     23  N   UNL A   1      31.333  28.471  22.002  1.00  0.00    -0.204 N 
ATOM     24  H   UNL A   1      33.016  26.869  21.208  1.00  0.00     0.316 HD
ATOM     25  C   UNL A   1      30.365  29.402  22.254  1.00  0.00     0.304 C 
ATOM     26  H   UNL A   1      31.737  28.540  21.105  1.00  0.00     0.316 HD
ATOM     27  C   UNL A   1      29.896  29.784  23.630  1.00  0.00     0.144 C 
ATOM     28  O   UNL A   1      29.879  30.028  21.310  1.00  0.00    -0.247 OA
ENDBRANCH  10  16
ENDBRANCH   6   7
ENDBRANCH   5   6
ENDBRANCH   3   5
ENDBRANCH   2   3
ENDBRANCH   1   2
BRANCH   1  29
ATOM     29  C   UNL A   1      42.705  21.382  26.115  1.00  0.00     0.275 C 
BRANCH  29  30
ATOM     30  O   UNL A   1      42.140  22.514  25.423  1.00  0.00    -0.458 OA
BRANCH  30  31
ATOM     31  C   UNL A   1      42.974  23.573  25.374  1.00  0.00     0.338 C 
ATOM     32  O   UNL A   1      43.739  23.866  24.476  1.00  0.00    -0.246 OA
BRANCH  31  33
ATOM     33  C   UNL A   1      42.845  24.445  26.537  1.00  0.00     0.060 A 
ATOM     34  C   UNL A   1      41.789  24.222  27.419  1.00  0.00     0.016 A 
ATOM     35  C   UNL A   1      43.597  25.619  26.600  1.00  0.00     0.016 A 
ATOM     36  C   UNL A   1      41.454  25.197  28.352  1.00  0.00     0.010 A 
ATOM     37  C   UNL A   1      43.296  26.569  27.577  1.00  0.00     0.010 A 
ATOM     38  C   UNL A   1      42.211  26.373  28.450  1.00  0.00    -0.014 A 
BRANCH  38  39
ATOM     39  C   UNL A   1      41.888  27.389  29.479  1.00  0.00     0.031 A 
ATOM     40  C   UNL A   1      42.647  27.437  30.774  1.00  0.00     0.074 A 
ATOM     41  C   UNL A   1      40.880  28.253  29.255  1.00  0.00     0.049 A 
ATOM     42  N   UNL A   1      42.366  28.091  31.871  1.00  0.00    -0.248 NA
ATOM     43  C   UNL A   1      43.883  26.641  30.846  1.00  0.00     0.031 C 
ATOM     44  C   UNL A   1      40.105  28.343  28.017  1.00  0.00     0.029 A 
ATOM     45  N   UNL A   1      40.324  29.205  30.069  1.00  0.00    -0.354 N 
ATOM     46  C   UNL A   1      43.362  27.757  32.778  1.00  0.00     0.074 A 
ATOM     47  C   UNL A   1      44.261  26.844  32.102  1.00  0.00     0.031 C 
ATOM     48  C   UNL A   1      39.173  29.298  28.152  1.00  0.00     0.029 A 
ATOM     49  C   UNL A   1      39.233  29.825  29.510  1.00  0.00     0.049 A 
ATOM     50  H   UNL A   1      40.671  29.423  30.964  1.00  0.00     0.167 HD
ATOM     51  C   UNL A   1      43.504  28.174  34.059  1.00  0.00     0.037 A 
ATOM     52  C   UNL A   1      38.341  30.677  30.047  1.00  0.00     0.037 A 
ATOM     53  C   UNL A   1      42.624  29.113  34.707  1.00  0.00     0.049 A 
ATOM     54  C   UNL A   1      38.481  31.074  31.485  1.00  0.00     0.074 A 
ATOM     55  C   UNL A   1      42.694  29.612  35.997  1.00  0.00     0.029 A 
ATOM     56  N   UNL A   1      41.517  29.700  34.112  1.00  0.00    -0.354 N 
ATOM     57  N   UNL A   1      39.397  30.716  32.353  1.00  0.00    -0.248 NA
ATOM     58  C   UNL A   1      37.456  31.975  32.026  1.00  0.00     0.031 C 
ATOM     59  C   UNL A   1      41.611  30.475  36.193  1.00  0.00     0.029 A 
ATOM     60  C   UNL A   1      40.887  30.543  35.013  1.00  0.00     0.049 A 
ATOM     61  H   UNL A   1      41.223  29.541  33.186  1.00  0.00     0.167 HD
ATOM     62  C   UNL A   1      39.070  31.361  33.536  1.00  0.00     0.074 A 
ATOM     63  C   UNL A   1      37.875  32.137  33.274  1.00  0.00     0.031 C 
ATOM     64  C   UNL A   1      39.705  31.314  34.732  1.00  0.00     0.037 A 
BRANCH  51  65
ATOM     65  C   UNL A   1      44.633  27.600  34.863  1.00  0.00     0.057 A 
ATOM     66  C   UNL A   1      44.517  26.383  35.544  1.00  0.00     0.134 A 
ATOM     67  C   UNL A   1      45.876  28.245  34.897  1.00  0.00     0.134 A 
ATOM     68  F   UNL A   1      43.350  25.721  35.561  1.00  0.00    -0.206 F 
ATOM     69  C   UNL A   1      45.595  25.832  36.240  1.00  0.00     0.040 A 
ATOM     70  C   UNL A   1      46.967  27.695  35.571  1.00  0.00     0.040 A 
ATOM     71  F   UNL A   1      46.055  29.412  34.260  1.00  0.00    -0.206 F 
ATOM     72  C   UNL A   1      46.827  26.484  36.248  1.00  0.00     0.006 A 
ENDBRANCH  51  65
BRANCH  52  73
ATOM     73  C   UNL A   1      37.211  31.163  29.221  1.00  0.00     0.057 A 
ATOM     74  C   UNL A   1      36.108  30.348  28.956  1.00  0.00     0.134 A 
ATOM     75  C   UNL A   1      37.193  32.467  28.709  1.00  0.00     0.134 A 
ATOM     76  F   UNL A   1      36.079  29.084  29.405  1.00  0.00    -0.206 F 
ATOM     77  C   UNL A   1      35.024  30.810  28.208  1.00  0.00     0.040 A 
ATOM     78  C   UNL A   1      36.106  32.950  27.981  1.00  0.00     0.040 A 
ATOM     79  F   UNL A   1      38.221  33.299  28.936  1.00  0.00    -0.206 F 
ATOM     80  C   UNL A   1      35.017  32.118  27.727  1.00  0.00     0.006 A 
ENDBRANCH  52  73
BRANCH  64  81
ATOM     81  C   UNL A   1      39.141  32.156  35.835  1.00  0.00     0.057 A 
ATOM     82  C   UNL A   1      38.213  31.645  36.750  1.00  0.00     0.134 A 
ATOM     83  C   UNL A   1      39.569  33.478  36.009  1.00  0.00     0.134 A 
ATOM     84  F   UNL A   1      37.755  30.390  36.625  1.00  0.00    -0.206 F 
ATOM     85  C   UNL A   1      37.720  32.426  37.796  1.00  0.00     0.040 A 
ATOM     86  C   UNL A   1      39.098  34.261  37.062  1.00  0.00     0.040 A 
ATOM     87  F   UNL A   1      40.462  34.021  35.167  1.00  0.00    -0.206 F 
ATOM     88  C   UNL A   1      38.168  33.736  37.957  1.00  0.00     0.006 A 
ENDBRANCH  64  81
ENDBRANCH  38  39
ENDBRANCH  31  33
ENDBRANCH  30  31
ENDBRANCH  29  30
ENDBRANCH   1  29
TORSDOF 15
ENDMDL
MODEL 3
REMARK VINA RESULT:     -11.6      3.992      9.163
REMARK SMILES COc1cc(/C=C2/S/C(=[NH+]\C(C)=O)NC2=O)cc(Br)c1OCC(=O)OCCOC(=O)c1ccc(-c2c3nc(c(-c4c(F)cccc4F)c4ccc([nH]4)c(-c4c(F)cccc4F)c4nc(c(-c5c(F)cccc5F)c5ccc2[nH]5)C=C4)C=C3)cc1
REMARK SMILES IDX 26 1 25 2 23 3 24 4 22 5 21 6 20 7 3 8 4 9 5 10 18 11 17 12
REMARK SMILES IDX 19 13 2 14 1 15 6 16 7 17 8 18 15 19 9 20 14 21 16 22 10 23
REMARK SMILES IDX 11 25 12 27 13 28 27 29 28 30 29 31 30 32 31 33 32 34 84 35
REMARK SMILES IDX 33 36 83 37 34 38 35 39 36 40 77 41 37 42 82 43 76 44 78 45
REMARK SMILES IDX 38 46 81 47 75 48 74 49 39 51 65 52 48 53 64 54 49 55 52 56
REMARK SMILES IDX 63 57 79 58 50 59 51 60 62 62 80 63 53 64 40 65 41 66 46 67
REMARK SMILES IDX 42 68 43 69 45 70 47 71 44 72 66 73 67 74 72 75 68 76 69 77
REMARK SMILES IDX 71 78 73 79 70 80 54 81 55 82 60 83 56 84 57 85 59 86 61 87
REMARK SMILES IDX 58 88
REMARK H PARENT 14 24 10 26 78 50 52 61
REMARK Flexibility Score: inf
ROOT
ATOM      1  C   UNL A   1      32.314  29.021  24.512  1.00  0.00     0.274 C 
ENDROOT
BRANCH   1   2
ATOM      2  O   UNL A   1      31.768  29.095  23.175  1.00  0.00    -0.460 OA
BRANCH   2   3
ATOM      3  C   UNL A   1      30.838  28.157  22.871  1.00  0.00     0.344 C 
ATOM      4  O   UNL A   1      29.978  28.298  22.001  1.00  0.00    -0.248 OA
BRANCH   3   5
ATOM      5  C   UNL A   1      30.857  26.914  23.775  1.00  0.00     0.352 C 
BRANCH   5   6
ATOM      6  O   UNL A   1      30.654  25.563  23.411  1.00  0.00    -0.477 OA
BRANCH   6   7
ATOM      7  C   UNL A   1      31.714  24.707  23.541  1.00  0.00     0.176 A 
ATOM      8  C   UNL A   1      31.594  23.733  24.550  1.00  0.00     0.162 A 
ATOM      9  C   UNL A   1      32.638  22.830  24.800  1.00  0.00     0.058 A 
ATOM     10  C   UNL A   1      33.786  22.843  24.007  1.00  0.00    -0.019 A 
ATOM     11  C   UNL A   1      32.805  24.624  22.665  1.00  0.00     0.064 A 
ATOM     12  C   UNL A   1      33.846  23.713  22.914  1.00  0.00     0.028 A 
ATOM     13  Br  UNL A   1      32.897  25.563  21.016  1.00  0.00    -0.047 Br
BRANCH   8  14
ATOM     14  O   UNL A   1      30.420  23.723  25.269  1.00  0.00    -0.493 OA
ATOM     15  C   UNL A   1      30.579  23.480  26.663  1.00  0.00     0.278 C 
ENDBRANCH   8  14
BRANCH  10  16
ATOM     16  C   UNL A   1      34.892  21.910  24.255  1.00  0.00     0.032 C 
ATOM     17  C   UNL A   1      35.975  22.143  25.010  1.00  0.00     0.110 C 
ATOM     18  S   UNL A   1      37.272  20.994  25.163  1.00  0.00     0.007 SA
ATOM     19  C   UNL A   1      36.334  23.360  25.793  1.00  0.00     0.346 C 
ATOM     20  C   UNL A   1      38.304  22.104  26.004  1.00  0.00     0.324 C 
ATOM     21  N   UNL A   1      37.641  23.275  26.180  1.00  0.00    -0.199 N 
ATOM     22  O   UNL A   1      35.591  24.256  26.147  1.00  0.00    -0.240 OA
ATOM     23  N   UNL A   1      39.484  22.030  26.491  1.00  0.00    -0.204 N 
ATOM     24  H   UNL A   1      38.095  24.053  26.579  1.00  0.00     0.316 HD
ATOM     25  C   UNL A   1      40.362  20.988  26.583  1.00  0.00     0.304 C 
ATOM     26  H   UNL A   1      39.819  22.877  26.868  1.00  0.00     0.316 HD
ATOM     27  C   UNL A   1      40.287  19.740  25.748  1.00  0.00     0.144 C 
ATOM     28  O   UNL A   1      41.325  21.085  27.347  1.00  0.00    -0.247 OA
ENDBRANCH  10  16
ENDBRANCH   6   7
ENDBRANCH   5   6
ENDBRANCH   3   5
ENDBRANCH   2   3
ENDBRANCH   1   2
BRANCH   1  29
ATOM     29  C   UNL A   1      31.748  30.084  25.460  1.00  0.00     0.275 C 
BRANCH  29  30
ATOM     30  O   UNL A   1      32.330  30.016  26.777  1.00  0.00    -0.458 OA
BRANCH  30  31
ATOM     31  C   UNL A   1      32.975  31.146  27.130  1.00  0.00     0.338 C 
ATOM     32  O   UNL A   1      32.526  32.276  27.144  1.00  0.00    -0.246 OA
BRANCH  31  33
ATOM     33  C   UNL A   1      34.341  30.897  27.583  1.00  0.00     0.060 A 
ATOM     34  C   UNL A   1      34.701  29.592  27.913  1.00  0.00     0.016 A 
ATOM     35  C   UNL A   1      35.157  31.976  27.925  1.00  0.00     0.016 A 
ATOM     36  C   UNL A   1      35.871  29.361  28.628  1.00  0.00     0.010 A 
ATOM     37  C   UNL A   1      36.360  31.735  28.589  1.00  0.00     0.010 A 
ATOM     38  C   UNL A   1      36.718  30.427  28.961  1.00  0.00    -0.014 A 
BRANCH  38  39
ATOM     39  C   UNL A   1      37.993  30.177  29.675  1.00  0.00     0.031 A 
ATOM     40  C   UNL A   1      39.050  29.299  29.071  1.00  0.00     0.074 A 
ATOM     41  C   UNL A   1      38.181  30.721  30.892  1.00  0.00     0.049 A 
ATOM     42  N   UNL A   1      40.115  28.785  29.632  1.00  0.00    -0.248 NA
ATOM     43  C   UNL A   1      38.889  28.950  27.651  1.00  0.00     0.031 C 
ATOM     44  C   UNL A   1      37.254  31.635  31.561  1.00  0.00     0.029 A 
ATOM     45  N   UNL A   1      39.206  30.568  31.789  1.00  0.00    -0.354 N 
ATOM     46  C   UNL A   1      40.729  28.019  28.650  1.00  0.00     0.074 A 
ATOM     47  C   UNL A   1      39.921  28.138  27.454  1.00  0.00     0.031 C 
ATOM     48  C   UNL A   1      37.751  31.961  32.762  1.00  0.00     0.029 A 
ATOM     49  C   UNL A   1      38.986  31.216  32.979  1.00  0.00     0.049 A 
ATOM     50  H   UNL A   1      40.018  30.045  31.600  1.00  0.00     0.167 HD
ATOM     51  C   UNL A   1      41.861  27.281  28.748  1.00  0.00     0.037 A 
ATOM     52  C   UNL A   1      39.666  31.172  34.139  1.00  0.00     0.037 A 
ATOM     53  C   UNL A   1      42.676  27.202  29.933  1.00  0.00     0.049 A 
ATOM     54  C   UNL A   1      40.879  30.298  34.243  1.00  0.00     0.074 A 
ATOM     55  C   UNL A   1      43.851  26.496  30.126  1.00  0.00     0.029 A 
ATOM     56  N   UNL A   1      42.405  27.858  31.124  1.00  0.00    -0.354 N 
ATOM     57  N   UNL A   1      41.426  29.536  33.327  1.00  0.00    -0.248 NA
ATOM     58  C   UNL A   1      41.557  30.259  35.544  1.00  0.00     0.031 C 
ATOM     59  C   UNL A   1      44.273  26.697  31.444  1.00  0.00     0.029 A 
ATOM     60  C   UNL A   1      43.381  27.559  32.061  1.00  0.00     0.049 A 
ATOM     61  H   UNL A   1      41.632  28.448  31.281  1.00  0.00     0.167 HD
ATOM     62  C   UNL A   1      42.523  28.942  33.933  1.00  0.00     0.074 A 
ATOM     63  C   UNL A   1      42.567  29.435  35.295  1.00  0.00     0.031 C 
ATOM     64  C   UNL A   1      43.413  28.067  33.408  1.00  0.00     0.037 A 
BRANCH  51  65
ATOM     65  C   UNL A   1      42.276  26.472  27.555  1.00  0.00     0.057 A 
ATOM     66  C   UNL A   1      43.115  26.989  26.561  1.00  0.00     0.134 A 
ATOM     67  C   UNL A   1      41.882  25.133  27.437  1.00  0.00     0.134 A 
ATOM     68  F   UNL A   1      43.518  28.267  26.608  1.00  0.00    -0.206 F 
ATOM     69  C   UNL A   1      43.540  26.204  25.486  1.00  0.00     0.040 A 
ATOM     70  C   UNL A   1      42.316  24.333  26.380  1.00  0.00     0.040 A 
ATOM     71  F   UNL A   1      41.083  24.575  28.359  1.00  0.00    -0.206 F 
ATOM     72  C   UNL A   1      43.147  24.870  25.398  1.00  0.00     0.006 A 
ENDBRANCH  51  65
BRANCH  52  73
ATOM     73  C   UNL A   1      39.172  31.945  35.303  1.00  0.00     0.057 A 
ATOM     74  C   UNL A   1      39.511  33.289  35.473  1.00  0.00     0.134 A 
ATOM     75  C   UNL A   1      38.319  31.365  36.251  1.00  0.00     0.134 A 
ATOM     76  F   UNL A   1      40.339  33.892  34.606  1.00  0.00    -0.206 F 
ATOM     77  C   UNL A   1      39.021  34.033  36.547  1.00  0.00     0.040 A 
ATOM     78  C   UNL A   1      37.803  32.102  37.316  1.00  0.00     0.040 A 
ATOM     79  F   UNL A   1      37.953  30.079  36.137  1.00  0.00    -0.206 F 
ATOM     80  C   UNL A   1      38.157  33.442  37.467  1.00  0.00     0.006 A 
ENDBRANCH  52  73
BRANCH  64  81
ATOM     81  C   UNL A   1      44.532  27.619  34.296  1.00  0.00     0.057 A 
ATOM     82  C   UNL A   1      45.722  28.348  34.406  1.00  0.00     0.134 A 
ATOM     83  C   UNL A   1      44.397  26.469  35.084  1.00  0.00     0.134 A 
ATOM     84  F   UNL A   1      45.915  29.450  33.665  1.00  0.00    -0.206 F 
ATOM     85  C   UNL A   1      46.745  27.942  35.263  1.00  0.00     0.040 A 
ATOM     86  C   UNL A   1      45.405  26.064  35.958  1.00  0.00     0.040 A 
ATOM     87  F   UNL A   1      43.277  25.732  35.026  1.00  0.00    -0.206 F 
ATOM     88  C   UNL A   1      46.585  26.800  36.046  1.00  0.00     0.006 A 
ENDBRANCH  64  81
ENDBRANCH  38  39
ENDBRANCH  31  33
ENDBRANCH  30  31
ENDBRANCH  29  30
ENDBRANCH   1  29
TORSDOF 15
ENDMDL
