MODEL 1
REMARK VINA RESULT:     -12.5      0.000      0.000
REMARK SMILES O=C(OCCOC(=O)c1cc2c(Cl)c(C(F)(F)F)cnc2n1S(=O)(=O)c1ccccc1)c1ccc(-c2c3nc(c(-c4c(F)cccc4F)c4ccc([nH]4)c(-c4c(F)cccc4F)c4nc(c(-c5c(F)cccc5F)c5ccc2[nH]5)C=C4)C=C3)cc1
REMARK SMILES IDX 4 1 3 2 2 3 1 4 32 5 33 6 85 7 34 8 84 9 35 10 36 11 37 12
REMARK SMILES IDX 78 13 38 14 83 15 77 16 79 17 39 18 82 19 76 20 75 21 40 23
REMARK SMILES IDX 66 24 49 25 65 26 50 27 53 28 64 29 80 30 51 31 52 32 63 34
REMARK SMILES IDX 81 35 54 36 41 37 42 38 47 39 43 40 44 41 46 42 48 43 45 44
REMARK SMILES IDX 67 45 68 46 73 47 69 48 70 49 72 50 74 51 71 52 55 53 56 54
REMARK SMILES IDX 61 55 57 56 58 57 60 58 62 59 59 60 5 61 6 62 7 63 8 64 9 65
REMARK SMILES IDX 10 66 22 67 11 68 21 69 12 70 20 71 13 72 14 73 19 74 23 75
REMARK SMILES IDX 24 76 25 77 26 78 27 79 31 80 28 81 30 82 29 83 15 84 16 85
REMARK SMILES IDX 17 86 18 87
REMARK H PARENT 79 22 53 33
REMARK Flexibility Score: inf
ROOT
ATOM      1  C   UNL A   1      32.284  30.617  26.793  1.00  0.00     0.275 C 
ENDROOT
BRANCH   1   2
ATOM      2  O   UNL A   1      33.497  30.303  27.511  1.00  0.00    -0.458 OA
BRANCH   2   3
ATOM      3  C   UNL A   1      34.362  31.294  27.817  1.00  0.00     0.338 C 
ATOM      4  O   UNL A   1      34.035  32.448  28.041  1.00  0.00    -0.246 OA
BRANCH   3   5
ATOM      5  C   UNL A   1      35.733  30.789  28.073  1.00  0.00     0.060 A 
ATOM      6  C   UNL A   1      36.085  29.454  27.856  1.00  0.00     0.016 A 
ATOM      7  C   UNL A   1      36.693  31.699  28.537  1.00  0.00     0.016 A 
ATOM      8  C   UNL A   1      37.362  29.013  28.160  1.00  0.00     0.010 A 
ATOM      9  C   UNL A   1      37.977  31.260  28.839  1.00  0.00     0.010 A 
ATOM     10  C   UNL A   1      38.295  29.908  28.684  1.00  0.00    -0.014 A 
BRANCH  10  11
ATOM     11  C   UNL A   1      39.581  29.357  29.089  1.00  0.00     0.031 A 
ATOM     12  C   UNL A   1      39.902  29.336  30.542  1.00  0.00     0.074 A 
ATOM     13  C   UNL A   1      40.423  28.797  28.201  1.00  0.00     0.049 A 
ATOM     14  N   UNL A   1      40.910  29.869  31.158  1.00  0.00    -0.248 NA
ATOM     15  C   UNL A   1      38.963  28.637  31.428  1.00  0.00     0.031 C 
ATOM     16  C   UNL A   1      40.154  28.457  26.802  1.00  0.00     0.029 A 
ATOM     17  N   UNL A   1      41.680  28.313  28.411  1.00  0.00    -0.354 N 
ATOM     18  C   UNL A   1      40.835  29.430  32.481  1.00  0.00     0.074 A 
ATOM     19  C   UNL A   1      39.564  28.763  32.612  1.00  0.00     0.031 C 
ATOM     20  C   UNL A   1      41.128  27.637  26.355  1.00  0.00     0.029 A 
ATOM     21  C   UNL A   1      42.142  27.503  27.389  1.00  0.00     0.049 A 
ATOM     22  H   UNL A   1      42.208  28.520  29.214  1.00  0.00     0.167 HD
ATOM     23  C   UNL A   1      41.905  29.478  33.324  1.00  0.00     0.037 A 
ATOM     24  C   UNL A   1      43.243  26.717  27.412  1.00  0.00     0.037 A 
ATOM     25  C   UNL A   1      42.897  30.423  32.884  1.00  0.00     0.049 A 
ATOM     26  C   UNL A   1      44.137  27.194  28.491  1.00  0.00     0.074 A 
ATOM     27  C   UNL A   1      42.914  31.779  32.613  1.00  0.00     0.029 A 
ATOM     28  N   UNL A   1      44.090  29.948  32.400  1.00  0.00    -0.354 N 
ATOM     29  N   UNL A   1      44.810  28.310  28.455  1.00  0.00    -0.248 NA
ATOM     30  C   UNL A   1      44.004  26.591  29.810  1.00  0.00     0.031 C 
ATOM     31  C   UNL A   1      43.865  31.938  31.561  1.00  0.00     0.029 A 
ATOM     32  C   UNL A   1      44.364  30.669  31.269  1.00  0.00     0.049 A 
ATOM     33  H   UNL A   1      44.640  29.230  32.788  1.00  0.00     0.167 HD
ATOM     34  C   UNL A   1      44.831  28.756  29.767  1.00  0.00     0.074 A 
ATOM     35  C   UNL A   1      44.430  27.604  30.568  1.00  0.00     0.031 C 
ATOM     36  C   UNL A   1      44.897  30.087  30.062  1.00  0.00     0.037 A 
BRANCH  23  37
ATOM     37  C   UNL A   1      42.220  28.426  34.368  1.00  0.00     0.057 A 
ATOM     38  C   UNL A   1      41.897  28.545  35.734  1.00  0.00     0.134 A 
ATOM     39  C   UNL A   1      42.566  27.122  33.954  1.00  0.00     0.134 A 
ATOM     40  F   UNL A   1      41.495  29.700  36.277  1.00  0.00    -0.206 F 
ATOM     41  C   UNL A   1      41.872  27.452  36.608  1.00  0.00     0.040 A 
ATOM     42  C   UNL A   1      42.489  26.013  34.806  1.00  0.00     0.040 A 
ATOM     43  F   UNL A   1      42.898  26.869  32.679  1.00  0.00    -0.206 F 
ATOM     44  C   UNL A   1      42.129  26.174  36.136  1.00  0.00     0.006 A 
ENDBRANCH  23  37
BRANCH  24  45
ATOM     45  C   UNL A   1      43.447  25.441  26.701  1.00  0.00     0.057 A 
ATOM     46  C   UNL A   1      44.188  25.380  25.506  1.00  0.00     0.134 A 
ATOM     47  C   UNL A   1      42.740  24.285  27.049  1.00  0.00     0.134 A 
ATOM     48  F   UNL A   1      44.821  26.461  25.027  1.00  0.00    -0.206 F 
ATOM     49  C   UNL A   1      44.242  24.231  24.714  1.00  0.00     0.040 A 
ATOM     50  C   UNL A   1      42.773  23.130  26.258  1.00  0.00     0.040 A 
ATOM     51  F   UNL A   1      41.961  24.265  28.140  1.00  0.00    -0.206 F 
ATOM     52  C   UNL A   1      43.525  23.101  25.086  1.00  0.00     0.006 A 
ENDBRANCH  24  45
BRANCH  36  53
ATOM     53  C   UNL A   1      45.242  31.032  28.950  1.00  0.00     0.057 A 
ATOM     54  C   UNL A   1      44.234  31.469  28.086  1.00  0.00     0.134 A 
ATOM     55  C   UNL A   1      46.558  31.399  28.635  1.00  0.00     0.134 A 
ATOM     56  F   UNL A   1      42.959  31.099  28.290  1.00  0.00    -0.206 F 
ATOM     57  C   UNL A   1      44.516  32.258  26.968  1.00  0.00     0.040 A 
ATOM     58  C   UNL A   1      46.851  32.214  27.539  1.00  0.00     0.040 A 
ATOM     59  F   UNL A   1      47.594  30.932  29.345  1.00  0.00    -0.206 F 
ATOM     60  C   UNL A   1      45.828  32.643  26.700  1.00  0.00     0.006 A 
ENDBRANCH  36  53
ENDBRANCH  10  11
ENDBRANCH   3   5
ENDBRANCH   2   3
ENDBRANCH   1   2
BRANCH   1  61
ATOM     61  C   UNL A   1      32.004  29.847  25.501  1.00  0.00     0.275 C 
BRANCH  61  62
ATOM     62  O   UNL A   1      32.420  28.474  25.603  1.00  0.00    -0.457 OA
BRANCH  62  63
ATOM     63  C   UNL A   1      33.523  28.140  24.881  1.00  0.00     0.356 C 
ATOM     64  O   UNL A   1      34.345  28.914  24.407  1.00  0.00    -0.244 OA
BRANCH  63  65
ATOM     65  C   UNL A   1      33.610  26.712  24.782  1.00  0.00     0.145 A 
ATOM     66  C   UNL A   1      33.930  25.796  25.771  1.00  0.00     0.048 A 
ATOM     67  N   UNL A   1      33.450  25.997  23.617  1.00  0.00    -0.209 N 
ATOM     68  C   UNL A   1      33.914  24.493  25.196  1.00  0.00     0.040 A 
ATOM     69  C   UNL A   1      33.615  24.655  23.843  1.00  0.00     0.156 A 
ATOM     70  C   UNL A   1      34.120  23.171  25.636  1.00  0.00     0.065 A 
ATOM     71  N   UNL A   1      33.539  23.662  22.939  1.00  0.00    -0.237 NA
ATOM     72  Cl  UNL A   1      34.413  22.997  27.312  1.00  0.00    -0.083 Cl
ATOM     73  C   UNL A   1      34.066  22.110  24.739  1.00  0.00     0.093 A 
ATOM     74  C   UNL A   1      33.780  22.425  23.422  1.00  0.00     0.128 A 
BRANCH  67  75
ATOM     75  S   UNL A   1      32.854  26.692  22.191  1.00  0.00     0.270 S 
ATOM     76  O   UNL A   1      33.867  27.658  21.809  1.00  0.00    -0.201 OA
ATOM     77  O   UNL A   1      32.538  25.563  21.335  1.00  0.00    -0.201 OA
BRANCH  75  78
ATOM     78  C   UNL A   1      31.346  27.544  22.538  1.00  0.00     0.088 A 
ATOM     79  C   UNL A   1      30.301  26.882  23.190  1.00  0.00     0.022 A 
ATOM     80  C   UNL A   1      31.185  28.861  22.089  1.00  0.00     0.022 A 
ATOM     81  C   UNL A   1      29.104  27.559  23.427  1.00  0.00     0.001 A 
ATOM     82  C   UNL A   1      29.992  29.534  22.344  1.00  0.00     0.001 A 
ATOM     83  C   UNL A   1      28.954  28.885  23.013  1.00  0.00     0.000 A 
ENDBRANCH  75  78
ENDBRANCH  67  75
BRANCH  73  84
ATOM     84  C   UNL A   1      34.272  20.688  25.141  1.00  0.00     0.419 C 
ATOM     85  F   UNL A   1      35.568  20.382  25.413  1.00  0.00    -0.166 F 
ATOM     86  F   UNL A   1      33.554  20.352  26.248  1.00  0.00    -0.166 F 
ATOM     87  F   UNL A   1      33.887  19.802  24.178  1.00  0.00    -0.166 F 
ENDBRANCH  73  84
ENDBRANCH  63  65
ENDBRANCH  62  63
ENDBRANCH  61  62
ENDBRANCH   1  61
TORSDOF 14
ENDMDL
MODEL 2
REMARK VINA RESULT:     -12.5      2.106      6.001
REMARK SMILES O=C(OCCOC(=O)c1cc2c(Cl)c(C(F)(F)F)cnc2n1S(=O)(=O)c1ccccc1)c1ccc(-c2c3nc(c(-c4c(F)cccc4F)c4ccc([nH]4)c(-c4c(F)cccc4F)c4nc(c(-c5c(F)cccc5F)c5ccc2[nH]5)C=C4)C=C3)cc1
REMARK SMILES IDX 4 1 3 2 2 3 1 4 32 5 33 6 85 7 34 8 84 9 35 10 36 11 37 12
REMARK SMILES IDX 78 13 38 14 83 15 77 16 79 17 39 18 82 19 76 20 75 21 40 23
REMARK SMILES IDX 66 24 49 25 65 26 50 27 53 28 64 29 80 30 51 31 52 32 63 34
REMARK SMILES IDX 81 35 54 36 41 37 42 38 47 39 43 40 44 41 46 42 48 43 45 44
REMARK SMILES IDX 67 45 68 46 73 47 69 48 70 49 72 50 74 51 71 52 55 53 56 54
REMARK SMILES IDX 61 55 57 56 58 57 60 58 62 59 59 60 5 61 6 62 7 63 8 64 9 65
REMARK SMILES IDX 10 66 22 67 11 68 21 69 12 70 20 71 13 72 14 73 19 74 23 75
REMARK SMILES IDX 24 76 25 77 26 78 27 79 31 80 28 81 30 82 29 83 15 84 16 85
REMARK SMILES IDX 17 86 18 87
REMARK H PARENT 79 22 53 33
REMARK Flexibility Score: inf
ROOT
ATOM      1  C   UNL A   1      34.133  30.170  27.431  1.00  0.00     0.275 C 
ENDROOT
BRANCH   1   2
ATOM      2  O   UNL A   1      35.226  29.390  27.962  1.00  0.00    -0.458 OA
BRANCH   2   3
ATOM      3  C   UNL A   1      36.150  29.990  28.744  1.00  0.00     0.338 C 
ATOM      4  O   UNL A   1      35.890  30.799  29.619  1.00  0.00    -0.246 OA
BRANCH   3   5
ATOM      5  C   UNL A   1      37.499  29.396  28.582  1.00  0.00     0.060 A 
ATOM      6  C   UNL A   1      38.056  28.545  29.541  1.00  0.00     0.016 A 
ATOM      7  C   UNL A   1      38.218  29.703  27.418  1.00  0.00     0.016 A 
ATOM      8  C   UNL A   1      39.341  28.056  29.375  1.00  0.00     0.010 A 
ATOM      9  C   UNL A   1      39.506  29.210  27.246  1.00  0.00     0.010 A 
ATOM     10  C   UNL A   1      40.077  28.418  28.247  1.00  0.00    -0.014 A 
BRANCH  10  11
ATOM     11  C   UNL A   1      41.460  27.964  28.189  1.00  0.00     0.031 A 
ATOM     12  C   UNL A   1      41.736  26.654  27.540  1.00  0.00     0.074 A 
ATOM     13  C   UNL A   1      42.476  28.735  28.619  1.00  0.00     0.049 A 
ATOM     14  N   UNL A   1      42.320  25.609  28.037  1.00  0.00    -0.248 NA
ATOM     15  C   UNL A   1      41.286  26.482  26.153  1.00  0.00     0.031 C 
ATOM     16  C   UNL A   1      42.430  30.149  29.000  1.00  0.00     0.029 A 
ATOM     17  N   UNL A   1      43.801  28.425  28.700  1.00  0.00    -0.354 N 
ATOM     18  C   UNL A   1      42.473  24.710  26.981  1.00  0.00     0.074 A 
ATOM     19  C   UNL A   1      41.728  25.255  25.875  1.00  0.00     0.031 C 
ATOM     20  C   UNL A   1      43.691  30.627  29.063  1.00  0.00     0.029 A 
ATOM     21  C   UNL A   1      44.622  29.528  28.855  1.00  0.00     0.049 A 
ATOM     22  H   UNL A   1      44.142  27.504  28.653  1.00  0.00     0.167 HD
ATOM     23  C   UNL A   1      43.359  23.675  27.032  1.00  0.00     0.037 A 
ATOM     24  C   UNL A   1      45.970  29.557  28.749  1.00  0.00     0.037 A 
ATOM     25  C   UNL A   1      43.725  23.343  28.384  1.00  0.00     0.049 A 
ATOM     26  C   UNL A   1      46.483  28.177  28.909  1.00  0.00     0.074 A 
ATOM     27  C   UNL A   1      43.042  22.953  29.521  1.00  0.00     0.029 A 
ATOM     28  N   UNL A   1      44.995  23.634  28.813  1.00  0.00    -0.354 N 
ATOM     29  N   UNL A   1      46.484  27.515  30.032  1.00  0.00    -0.248 NA
ATOM     30  C   UNL A   1      46.670  27.371  27.712  1.00  0.00     0.031 C 
ATOM     31  C   UNL A   1      43.781  23.506  30.609  1.00  0.00     0.029 A 
ATOM     32  C   UNL A   1      44.865  24.189  30.058  1.00  0.00     0.049 A 
ATOM     33  H   UNL A   1      45.834  23.477  28.323  1.00  0.00     0.167 HD
ATOM     34  C   UNL A   1      46.262  26.196  29.668  1.00  0.00     0.074 A 
ATOM     35  C   UNL A   1      46.508  26.151  28.231  1.00  0.00     0.031 C 
ATOM     36  C   UNL A   1      45.631  25.325  30.508  1.00  0.00     0.037 A 
BRANCH  23  37
ATOM     37  C   UNL A   1      44.165  23.179  25.848  1.00  0.00     0.057 A 
ATOM     38  C   UNL A   1      45.123  23.952  25.163  1.00  0.00     0.134 A 
ATOM     39  C   UNL A   1      44.223  21.794  25.583  1.00  0.00     0.134 A 
ATOM     40  F   UNL A   1      45.239  25.272  25.342  1.00  0.00    -0.206 F 
ATOM     41  C   UNL A   1      46.090  23.392  24.321  1.00  0.00     0.040 A 
ATOM     42  C   UNL A   1      45.221  21.218  24.787  1.00  0.00     0.040 A 
ATOM     43  F   UNL A   1      43.366  20.943  26.168  1.00  0.00    -0.206 F 
ATOM     44  C   UNL A   1      46.168  22.017  24.162  1.00  0.00     0.006 A 
ENDBRANCH  23  37
BRANCH  24  45
ATOM     45  C   UNL A   1      46.808  30.680  28.287  1.00  0.00     0.057 A 
ATOM     46  C   UNL A   1      47.589  31.428  29.188  1.00  0.00     0.134 A 
ATOM     47  C   UNL A   1      46.700  31.192  26.990  1.00  0.00     0.134 A 
ATOM     48  F   UNL A   1      47.677  31.082  30.481  1.00  0.00    -0.206 F 
ATOM     49  C   UNL A   1      48.242  32.605  28.817  1.00  0.00     0.040 A 
ATOM     50  C   UNL A   1      47.338  32.379  26.608  1.00  0.00     0.040 A 
ATOM     51  F   UNL A   1      45.933  30.579  26.078  1.00  0.00    -0.206 F 
ATOM     52  C   UNL A   1      48.111  33.089  27.523  1.00  0.00     0.006 A 
ENDBRANCH  24  45
BRANCH  36  53
ATOM     53  C   UNL A   1      45.446  25.742  31.936  1.00  0.00     0.057 A 
ATOM     54  C   UNL A   1      44.324  26.498  32.289  1.00  0.00     0.134 A 
ATOM     55  C   UNL A   1      46.417  25.537  32.927  1.00  0.00     0.134 A 
ATOM     56  F   UNL A   1      43.388  26.790  31.372  1.00  0.00    -0.206 F 
ATOM     57  C   UNL A   1      44.159  27.009  33.578  1.00  0.00     0.040 A 
ATOM     58  C   UNL A   1      46.249  26.015  34.229  1.00  0.00     0.040 A 
ATOM     59  F   UNL A   1      47.573  24.921  32.645  1.00  0.00    -0.206 F 
ATOM     60  C   UNL A   1      45.118  26.756  34.556  1.00  0.00     0.006 A 
ENDBRANCH  36  53
ENDBRANCH  10  11
ENDBRANCH   3   5
ENDBRANCH   2   3
ENDBRANCH   1   2
BRANCH   1  61
ATOM     61  C   UNL A   1      33.582  29.778  26.058  1.00  0.00     0.275 C 
BRANCH  61  62
ATOM     62  O   UNL A   1      33.511  28.350  25.906  1.00  0.00    -0.457 OA
BRANCH  62  63
ATOM     63  C   UNL A   1      32.258  27.829  25.832  1.00  0.00     0.356 C 
ATOM     64  O   UNL A   1      31.210  28.417  26.071  1.00  0.00    -0.244 OA
BRANCH  63  65
ATOM     65  C   UNL A   1      32.335  26.469  25.387  1.00  0.00     0.145 A 
ATOM     66  C   UNL A   1      32.609  25.331  26.129  1.00  0.00     0.048 A 
ATOM     67  N   UNL A   1      32.214  26.066  24.076  1.00  0.00    -0.209 N 
ATOM     68  C   UNL A   1      32.603  24.211  25.250  1.00  0.00     0.040 A 
ATOM     69  C   UNL A   1      32.358  24.707  23.969  1.00  0.00     0.156 A 
ATOM     70  C   UNL A   1      32.779  22.817  25.356  1.00  0.00     0.065 A 
ATOM     71  N   UNL A   1      32.307  23.969  22.845  1.00  0.00    -0.237 NA
ATOM     72  Cl  UNL A   1      33.006  22.230  26.946  1.00  0.00    -0.083 Cl
ATOM     73  C   UNL A   1      32.750  22.011  24.223  1.00  0.00     0.093 A 
ATOM     74  C   UNL A   1      32.518  22.646  23.016  1.00  0.00     0.128 A 
BRANCH  67  75
ATOM     75  S   UNL A   1      31.681  27.102  22.846  1.00  0.00     0.270 S 
ATOM     76  O   UNL A   1      32.500  28.291  22.994  1.00  0.00    -0.201 OA
ATOM     77  O   UNL A   1      31.739  26.301  21.637  1.00  0.00    -0.201 OA
BRANCH  75  78
ATOM     78  C   UNL A   1      29.989  27.528  23.129  1.00  0.00     0.088 A 
ATOM     79  C   UNL A   1      29.116  26.593  23.693  1.00  0.00     0.022 A 
ATOM     80  C   UNL A   1      29.521  28.781  22.716  1.00  0.00     0.022 A 
ATOM     81  C   UNL A   1      27.776  26.933  23.878  1.00  0.00     0.001 A 
ATOM     82  C   UNL A   1      28.185  29.118  22.919  1.00  0.00     0.001 A 
ATOM     83  C   UNL A   1      27.314  28.196  23.501  1.00  0.00     0.000 A 
ENDBRANCH  75  78
ENDBRANCH  67  75
BRANCH  73  84
ATOM     84  C   UNL A   1      32.926  20.531  24.268  1.00  0.00     0.419 C 
ATOM     85  F   UNL A   1      32.607  19.909  23.103  1.00  0.00    -0.166 F 
ATOM     86  F   UNL A   1      34.205  20.169  24.563  1.00  0.00    -0.166 F 
ATOM     87  F   UNL A   1      32.153  19.932  25.219  1.00  0.00    -0.166 F 
ENDBRANCH  73  84
ENDBRANCH  63  65
ENDBRANCH  62  63
ENDBRANCH  61  62
ENDBRANCH   1  61
TORSDOF 14
ENDMDL
MODEL 3
REMARK VINA RESULT:     -12.2      3.481      7.739
REMARK SMILES O=C(OCCOC(=O)c1cc2c(Cl)c(C(F)(F)F)cnc2n1S(=O)(=O)c1ccccc1)c1ccc(-c2c3nc(c(-c4c(F)cccc4F)c4ccc([nH]4)c(-c4c(F)cccc4F)c4nc(c(-c5c(F)cccc5F)c5ccc2[nH]5)C=C4)C=C3)cc1
REMARK SMILES IDX 4 1 3 2 2 3 1 4 32 5 33 6 85 7 34 8 84 9 35 10 36 11 37 12
REMARK SMILES IDX 78 13 38 14 83 15 77 16 79 17 39 18 82 19 76 20 75 21 40 23
REMARK SMILES IDX 66 24 49 25 65 26 50 27 53 28 64 29 80 30 51 31 52 32 63 34
REMARK SMILES IDX 81 35 54 36 41 37 42 38 47 39 43 40 44 41 46 42 48 43 45 44
REMARK SMILES IDX 67 45 68 46 73 47 69 48 70 49 72 50 74 51 71 52 55 53 56 54
REMARK SMILES IDX 61 55 57 56 58 57 60 58 62 59 59 60 5 61 6 62 7 63 8 64 9 65
REMARK SMILES IDX 10 66 22 67 11 68 21 69 12 70 20 71 13 72 14 73 19 74 23 75
REMARK SMILES IDX 24 76 25 77 26 78 27 79 31 80 28 81 30 82 29 83 15 84 16 85
REMARK SMILES IDX 17 86 18 87
REMARK H PARENT 79 22 53 33
REMARK Flexibility Score: inf
ROOT
ATOM      1  C   UNL A   1      37.400  21.013  24.923  1.00  0.00     0.275 C 
ENDROOT
BRANCH   1   2
ATOM      2  O   UNL A   1      38.242  22.134  25.269  1.00  0.00    -0.458 OA
BRANCH   2   3
ATOM      3  C   UNL A   1      39.269  21.953  26.127  1.00  0.00     0.338 C 
ATOM      4  O   UNL A   1      39.937  20.934  26.194  1.00  0.00    -0.246 OA
BRANCH   3   5
ATOM      5  C   UNL A   1      39.648  23.203  26.828  1.00  0.00     0.060 A 
ATOM      6  C   UNL A   1      38.862  24.357  26.766  1.00  0.00     0.016 A 
ATOM      7  C   UNL A   1      40.832  23.203  27.580  1.00  0.00     0.016 A 
ATOM      8  C   UNL A   1      39.281  25.519  27.391  1.00  0.00     0.010 A 
ATOM      9  C   UNL A   1      41.253  24.367  28.213  1.00  0.00     0.010 A 
ATOM     10  C   UNL A   1      40.492  25.533  28.083  1.00  0.00    -0.014 A 
BRANCH  10  11
ATOM     11  C   UNL A   1      40.931  26.814  28.620  1.00  0.00     0.031 A 
ATOM     12  C   UNL A   1      42.123  27.456  28.002  1.00  0.00     0.074 A 
ATOM     13  C   UNL A   1      40.238  27.453  29.580  1.00  0.00     0.049 A 
ATOM     14  N   UNL A   1      43.233  27.817  28.565  1.00  0.00    -0.248 NA
ATOM     15  C   UNL A   1      42.074  27.716  26.558  1.00  0.00     0.031 C 
ATOM     16  C   UNL A   1      38.902  27.132  30.087  1.00  0.00     0.029 A 
ATOM     17  N   UNL A   1      40.557  28.608  30.231  1.00  0.00    -0.354 N 
ATOM     18  C   UNL A   1      43.955  28.509  27.592  1.00  0.00     0.074 A 
ATOM     19  C   UNL A   1      43.242  28.326  26.353  1.00  0.00     0.031 C 
ATOM     20  C   UNL A   1      38.440  28.180  30.802  1.00  0.00     0.029 A 
ATOM     21  C   UNL A   1      39.492  29.179  30.905  1.00  0.00     0.049 A 
ATOM     22  H   UNL A   1      41.460  28.998  30.222  1.00  0.00     0.167 HD
ATOM     23  C   UNL A   1      44.985  29.345  27.909  1.00  0.00     0.037 A 
ATOM     24  C   UNL A   1      39.447  30.415  31.452  1.00  0.00     0.037 A 
ATOM     25  C   UNL A   1      45.526  29.064  29.213  1.00  0.00     0.049 A 
ATOM     26  C   UNL A   1      40.835  30.896  31.640  1.00  0.00     0.074 A 
ATOM     27  C   UNL A   1      46.090  27.962  29.829  1.00  0.00     0.029 A 
ATOM     28  N   UNL A   1      45.306  29.963  30.225  1.00  0.00    -0.354 N 
ATOM     29  N   UNL A   1      41.666  30.424  32.527  1.00  0.00    -0.248 NA
ATOM     30  C   UNL A   1      41.443  31.677  30.573  1.00  0.00     0.031 C 
ATOM     31  C   UNL A   1      45.715  28.068  31.201  1.00  0.00     0.029 A 
ATOM     32  C   UNL A   1      44.954  29.230  31.326  1.00  0.00     0.049 A 
ATOM     33  H   UNL A   1      45.384  30.943  30.171  1.00  0.00     0.167 HD
ATOM     34  C   UNL A   1      42.911  30.496  31.922  1.00  0.00     0.074 A 
ATOM     35  C   UNL A   1      42.729  31.383  30.779  1.00  0.00     0.031 C 
ATOM     36  C   UNL A   1      43.903  29.612  32.236  1.00  0.00     0.037 A 
BRANCH  23  37
ATOM     37  C   UNL A   1      45.289  30.642  27.187  1.00  0.00     0.057 A 
ATOM     38  C   UNL A   1      44.411  31.742  27.134  1.00  0.00     0.134 A 
ATOM     39  C   UNL A   1      46.617  30.927  26.806  1.00  0.00     0.134 A 
ATOM     40  F   UNL A   1      43.131  31.657  27.514  1.00  0.00    -0.206 F 
ATOM     41  C   UNL A   1      44.827  33.030  26.779  1.00  0.00     0.040 A 
ATOM     42  C   UNL A   1      47.055  32.222  26.504  1.00  0.00     0.040 A 
ATOM     43  F   UNL A   1      47.556  29.968  26.809  1.00  0.00    -0.206 F 
ATOM     44  C   UNL A   1      46.161  33.283  26.502  1.00  0.00     0.006 A 
ENDBRANCH  23  37
BRANCH  24  45
ATOM     45  C   UNL A   1      38.266  31.286  31.599  1.00  0.00     0.057 A 
ATOM     46  C   UNL A   1      37.508  31.295  32.786  1.00  0.00     0.134 A 
ATOM     47  C   UNL A   1      37.715  31.970  30.510  1.00  0.00     0.134 A 
ATOM     48  F   UNL A   1      37.893  30.589  33.859  1.00  0.00    -0.206 F 
ATOM     49  C   UNL A   1      36.285  31.962  32.890  1.00  0.00     0.040 A 
ATOM     50  C   UNL A   1      36.484  32.630  30.596  1.00  0.00     0.040 A 
ATOM     51  F   UNL A   1      38.337  31.970  29.322  1.00  0.00    -0.206 F 
ATOM     52  C   UNL A   1      35.765  32.627  31.788  1.00  0.00     0.006 A 
ENDBRANCH  24  45
BRANCH  36  53
ATOM     53  C   UNL A   1      43.716  28.755  33.451  1.00  0.00     0.057 A 
ATOM     54  C   UNL A   1      44.370  29.097  34.639  1.00  0.00     0.134 A 
ATOM     55  C   UNL A   1      43.027  27.533  33.430  1.00  0.00     0.134 A 
ATOM     56  F   UNL A   1      45.104  30.220  34.708  1.00  0.00    -0.206 F 
ATOM     57  C   UNL A   1      44.322  28.275  35.767  1.00  0.00     0.040 A 
ATOM     58  C   UNL A   1      42.945  26.717  34.560  1.00  0.00     0.040 A 
ATOM     59  F   UNL A   1      42.468  27.075  32.301  1.00  0.00    -0.206 F 
ATOM     60  C   UNL A   1      43.596  27.086  35.733  1.00  0.00     0.006 A 
ENDBRANCH  36  53
ENDBRANCH  10  11
ENDBRANCH   3   5
ENDBRANCH   2   3
ENDBRANCH   1   2
BRANCH   1  61
ATOM     61  C   UNL A   1      35.887  21.190  25.067  1.00  0.00     0.275 C 
BRANCH  61  62
ATOM     62  O   UNL A   1      35.479  22.531  24.744  1.00  0.00    -0.457 OA
BRANCH  62  63
ATOM     63  C   UNL A   1      35.063  23.286  25.795  1.00  0.00     0.356 C 
ATOM     64  O   UNL A   1      35.512  23.259  26.935  1.00  0.00    -0.244 OA
BRANCH  63  65
ATOM     65  C   UNL A   1      34.022  24.171  25.361  1.00  0.00     0.145 A 
ATOM     66  C   UNL A   1      34.138  25.389  24.711  1.00  0.00     0.048 A 
ATOM     67  N   UNL A   1      32.679  23.974  25.594  1.00  0.00    -0.209 N 
ATOM     68  C   UNL A   1      32.831  25.914  24.505  1.00  0.00     0.040 A 
ATOM     69  C   UNL A   1      31.939  25.005  25.075  1.00  0.00     0.156 A 
ATOM     70  C   UNL A   1      32.262  27.057  23.910  1.00  0.00     0.065 A 
ATOM     71  N   UNL A   1      30.602  25.152  25.123  1.00  0.00    -0.237 NA
ATOM     72  Cl  UNL A   1      33.372  28.116  23.156  1.00  0.00    -0.083 Cl
ATOM     73  C   UNL A   1      30.887  27.262  23.942  1.00  0.00     0.093 A 
ATOM     74  C   UNL A   1      30.128  26.284  24.562  1.00  0.00     0.128 A 
BRANCH  67  75
ATOM     75  S   UNL A   1      32.059  22.515  26.189  1.00  0.00     0.270 S 
ATOM     76  O   UNL A   1      32.899  22.202  27.330  1.00  0.00    -0.201 OA
ATOM     77  O   UNL A   1      30.637  22.758  26.353  1.00  0.00    -0.201 OA
BRANCH  75  78
ATOM     78  C   UNL A   1      32.251  21.253  24.968  1.00  0.00     0.088 A 
ATOM     79  C   UNL A   1      32.034  21.545  23.618  1.00  0.00     0.022 A 
ATOM     80  C   UNL A   1      32.551  19.947  25.374  1.00  0.00     0.022 A 
ATOM     81  C   UNL A   1      32.158  20.530  22.669  1.00  0.00     0.001 A 
ATOM     82  C   UNL A   1      32.688  18.943  24.419  1.00  0.00     0.001 A 
ATOM     83  C   UNL A   1      32.493  19.233  23.068  1.00  0.00     0.000 A 
ENDBRANCH  75  78
ENDBRANCH  67  75
BRANCH  73  84
ATOM     84  C   UNL A   1      30.223  28.448  23.328  1.00  0.00     0.419 C 
ATOM     85  F   UNL A   1      28.866  28.410  23.402  1.00  0.00    -0.166 F 
ATOM     86  F   UNL A   1      30.610  29.617  23.906  1.00  0.00    -0.166 F 
ATOM     87  F   UNL A   1      30.506  28.589  22.002  1.00  0.00    -0.166 F 
ENDBRANCH  73  84
ENDBRANCH  63  65
ENDBRANCH  62  63
ENDBRANCH  61  62
ENDBRANCH   1  61
TORSDOF 14
ENDMDL
