MODEL 1
REMARK VINA RESULT:     -10.9      0.000      0.000
REMARK SMILES CN(CCS(C)(=O)=O)S(=O)(=O)c1cc(C(=O)OCCOC(=O)c2ccc(-c3c4nc(c(-c5c(F)cccc5F)c5ccc([nH]5)c(-c5c(F)cccc5F)c5nc(c(-c6c(F)cccc6F)c6ccc3[nH]6)C=C5)C=C4)cc2)ccc1F
REMARK SMILES IDX 17 1 15 2 16 3 14 4 12 5 13 6 79 7 78 8 80 9 77 10 9 11
REMARK SMILES IDX 10 12 11 13 2 14 1 15 3 16 4 17 5 18 6 19 7 20 8 21 18 22
REMARK SMILES IDX 19 23 20 24 21 25 22 26 23 27 24 28 76 29 25 30 75 31 26 32
REMARK SMILES IDX 27 33 28 34 69 35 29 36 74 37 68 38 70 39 30 40 73 41 67 42
REMARK SMILES IDX 66 43 31 45 57 46 40 47 56 48 41 49 44 50 55 51 71 52 42 53
REMARK SMILES IDX 43 54 54 56 72 57 45 58 32 59 33 60 38 61 34 62 35 63 37 64
REMARK SMILES IDX 39 65 36 66 58 67 59 68 64 69 60 70 61 71 63 72 65 73 62 74
REMARK SMILES IDX 46 75 47 76 52 77 48 78 49 79 51 80 53 81 50 82
REMARK H PARENT 70 44 44 55
REMARK Flexibility Score: inf
ROOT
ATOM      1  O   UNL A   1      31.586  28.489  23.703  1.00  0.00    -0.458 OA
ENDROOT
BRANCH   1   2
ATOM      2  C   UNL A   1      32.920  28.428  23.496  1.00  0.00     0.338 C 
ATOM      3  O   UNL A   1      33.630  29.255  22.949  1.00  0.00    -0.246 OA
BRANCH   2   4
ATOM      4  C   UNL A   1      33.488  27.212  24.113  1.00  0.00     0.061 A 
ATOM      5  C   UNL A   1      33.951  24.835  23.907  1.00  0.00     0.119 A 
ATOM      6  C   UNL A   1      33.545  26.046  23.342  1.00  0.00     0.040 A 
ATOM      7  C   UNL A   1      34.331  24.799  25.239  1.00  0.00     0.143 A 
ATOM      8  C   UNL A   1      34.286  25.963  26.015  1.00  0.00     0.041 A 
ATOM      9  F   UNL A   1      34.771  23.674  25.813  1.00  0.00    -0.206 F 
ATOM     10  C   UNL A   1      33.863  27.175  25.456  1.00  0.00     0.019 A 
BRANCH   5  11
ATOM     11  S   UNL A   1      34.004  23.379  22.913  1.00  0.00     0.245 S 
ATOM     12  O   UNL A   1      35.253  22.689  23.090  1.00  0.00    -0.207 OA
ATOM     13  O   UNL A   1      33.544  23.784  21.597  1.00  0.00    -0.207 OA
BRANCH  11  14
ATOM     14  N   UNL A   1      32.793  22.335  23.546  1.00  0.00    -0.200 NA
ATOM     15  C   UNL A   1      33.385  21.221  24.344  1.00  0.00     0.124 C 
BRANCH  14  16
ATOM     16  C   UNL A   1      31.519  22.859  24.115  1.00  0.00     0.118 C 
BRANCH  16  17
ATOM     17  C   UNL A   1      31.030  22.294  25.431  1.00  0.00     0.153 C 
BRANCH  17  18
ATOM     18  S   UNL A   1      30.855  23.462  26.775  1.00  0.00     0.148 S 
ATOM     19  C   UNL A   1      30.661  25.078  26.063  1.00  0.00     0.158 C 
ATOM     20  O   UNL A   1      29.596  23.154  27.434  1.00  0.00    -0.229 OA
ATOM     21  O   UNL A   1      32.083  23.506  27.534  1.00  0.00    -0.229 OA
ENDBRANCH  17  18
ENDBRANCH  16  17
ENDBRANCH  14  16
ENDBRANCH  11  14
ENDBRANCH   5  11
ENDBRANCH   2   4
ENDBRANCH   1   2
BRANCH   1  22
ATOM     22  C   UNL A   1      31.171  28.857  25.038  1.00  0.00     0.275 C 
BRANCH  22  23
ATOM     23  C   UNL A   1      31.580  30.297  25.351  1.00  0.00     0.275 C 
BRANCH  23  24
ATOM     24  O   UNL A   1      32.039  30.370  26.714  1.00  0.00    -0.458 OA
BRANCH  24  25
ATOM     25  C   UNL A   1      32.657  31.519  27.074  1.00  0.00     0.338 C 
ATOM     26  O   UNL A   1      32.177  32.639  27.100  1.00  0.00    -0.246 OA
BRANCH  25  27
ATOM     27  C   UNL A   1      34.038  31.229  27.513  1.00  0.00     0.060 A 
ATOM     28  C   UNL A   1      34.453  29.908  27.633  1.00  0.00     0.016 A 
ATOM     29  C   UNL A   1      34.869  32.253  27.963  1.00  0.00     0.016 A 
ATOM     30  C   UNL A   1      35.608  29.602  28.349  1.00  0.00     0.010 A 
ATOM     31  C   UNL A   1      36.102  31.944  28.557  1.00  0.00     0.010 A 
ATOM     32  C   UNL A   1      36.461  30.610  28.822  1.00  0.00    -0.014 A 
BRANCH  32  33
ATOM     33  C   UNL A   1      37.663  30.256  29.645  1.00  0.00     0.031 A 
ATOM     34  C   UNL A   1      38.830  29.514  29.029  1.00  0.00     0.074 A 
ATOM     35  C   UNL A   1      37.767  30.655  30.932  1.00  0.00     0.049 A 
ATOM     36  N   UNL A   1      39.884  29.000  29.616  1.00  0.00    -0.248 NA
ATOM     37  C   UNL A   1      38.801  29.304  27.574  1.00  0.00     0.031 C 
ATOM     38  C   UNL A   1      36.757  31.409  31.674  1.00  0.00     0.029 A 
ATOM     39  N   UNL A   1      38.797  30.519  31.835  1.00  0.00    -0.354 N 
ATOM     40  C   UNL A   1      40.593  28.339  28.618  1.00  0.00     0.074 A 
ATOM     41  C   UNL A   1      39.855  28.523  27.388  1.00  0.00     0.031 C 
ATOM     42  C   UNL A   1      37.253  31.760  32.868  1.00  0.00     0.029 A 
ATOM     43  C   UNL A   1      38.574  31.161  33.029  1.00  0.00     0.049 A 
ATOM     44  H   UNL A   1      39.617  30.010  31.642  1.00  0.00     0.167 HD
ATOM     45  C   UNL A   1      41.753  27.644  28.714  1.00  0.00     0.037 A 
ATOM     46  C   UNL A   1      39.326  31.244  34.144  1.00  0.00     0.037 A 
ATOM     47  C   UNL A   1      42.547  27.540  29.910  1.00  0.00     0.049 A 
ATOM     48  C   UNL A   1      40.622  30.488  34.223  1.00  0.00     0.074 A 
ATOM     49  C   UNL A   1      43.735  26.851  30.098  1.00  0.00     0.029 A 
ATOM     50  N   UNL A   1      42.262  28.175  31.106  1.00  0.00    -0.354 N 
ATOM     51  N   UNL A   1      41.216  29.773  33.301  1.00  0.00    -0.248 NA
ATOM     52  C   UNL A   1      41.330  30.520  35.511  1.00  0.00     0.031 C 
ATOM     53  C   UNL A   1      44.156  27.053  31.416  1.00  0.00     0.029 A 
ATOM     54  C   UNL A   1      43.250  27.896  32.037  1.00  0.00     0.049 A 
ATOM     55  H   UNL A   1      41.474  28.741  31.271  1.00  0.00     0.167 HD
ATOM     56  C   UNL A   1      42.358  29.258  33.899  1.00  0.00     0.074 A 
ATOM     57  C   UNL A   1      42.397  29.776  35.250  1.00  0.00     0.031 C 
ATOM     58  C   UNL A   1      43.280  28.414  33.379  1.00  0.00     0.037 A 
BRANCH  45  59
ATOM     59  C   UNL A   1      42.233  26.909  27.495  1.00  0.00     0.057 A 
ATOM     60  C   UNL A   1      41.941  25.547  27.335  1.00  0.00     0.134 A 
ATOM     61  C   UNL A   1      43.033  27.517  26.522  1.00  0.00     0.134 A 
ATOM     62  F   UNL A   1      41.189  24.900  28.238  1.00  0.00    -0.206 F 
ATOM     63  C   UNL A   1      42.437  24.815  26.255  1.00  0.00     0.040 A 
ATOM     64  C   UNL A   1      43.515  26.801  25.423  1.00  0.00     0.040 A 
ATOM     65  F   UNL A   1      43.340  28.820  26.612  1.00  0.00    -0.206 F 
ATOM     66  C   UNL A   1      43.224  25.443  25.293  1.00  0.00     0.006 A 
ENDBRANCH  45  59
BRANCH  46  67
ATOM     67  C   UNL A   1      38.862  32.064  35.293  1.00  0.00     0.057 A 
ATOM     68  C   UNL A   1      38.193  31.496  36.383  1.00  0.00     0.134 A 
ATOM     69  C   UNL A   1      39.069  33.448  35.313  1.00  0.00     0.134 A 
ATOM     70  F   UNL A   1      37.961  30.176  36.422  1.00  0.00    -0.206 F 
ATOM     71  C   UNL A   1      37.722  32.276  37.439  1.00  0.00     0.040 A 
ATOM     72  C   UNL A   1      38.630  34.238  36.376  1.00  0.00     0.040 A 
ATOM     73  F   UNL A   1      39.721  34.047  34.306  1.00  0.00    -0.206 F 
ATOM     74  C   UNL A   1      37.944  33.653  37.439  1.00  0.00     0.006 A 
ENDBRANCH  46  67
BRANCH  58  75
ATOM     75  C   UNL A   1      44.410  27.993  34.270  1.00  0.00     0.057 A 
ATOM     76  C   UNL A   1      45.596  28.734  34.325  1.00  0.00     0.134 A 
ATOM     77  C   UNL A   1      44.340  26.823  35.037  1.00  0.00     0.134 A 
ATOM     78  F   UNL A   1      45.729  29.861  33.609  1.00  0.00    -0.206 F 
ATOM     79  C   UNL A   1      46.676  28.325  35.109  1.00  0.00     0.040 A 
ATOM     80  C   UNL A   1      45.406  26.414  35.841  1.00  0.00     0.040 A 
ATOM     81  F   UNL A   1      43.226  26.075  35.035  1.00  0.00    -0.206 F 
ATOM     82  C   UNL A   1      46.580  27.163  35.873  1.00  0.00     0.006 A 
ENDBRANCH  58  75
ENDBRANCH  32  33
ENDBRANCH  25  27
ENDBRANCH  24  25
ENDBRANCH  23  24
ENDBRANCH  22  23
ENDBRANCH   1  22
TORSDOF 16
ENDMDL
MODEL 2
REMARK VINA RESULT:     -10.8      3.984      8.850
REMARK SMILES CN(CCS(C)(=O)=O)S(=O)(=O)c1cc(C(=O)OCCOC(=O)c2ccc(-c3c4nc(c(-c5c(F)cccc5F)c5ccc([nH]5)c(-c5c(F)cccc5F)c5nc(c(-c6c(F)cccc6F)c6ccc3[nH]6)C=C5)C=C4)cc2)ccc1F
REMARK SMILES IDX 17 1 15 2 16 3 14 4 12 5 13 6 79 7 78 8 80 9 77 10 9 11
REMARK SMILES IDX 10 12 11 13 2 14 1 15 3 16 4 17 5 18 6 19 7 20 8 21 18 22
REMARK SMILES IDX 19 23 20 24 21 25 22 26 23 27 24 28 76 29 25 30 75 31 26 32
REMARK SMILES IDX 27 33 28 34 69 35 29 36 74 37 68 38 70 39 30 40 73 41 67 42
REMARK SMILES IDX 66 43 31 45 57 46 40 47 56 48 41 49 44 50 55 51 71 52 42 53
REMARK SMILES IDX 43 54 54 56 72 57 45 58 32 59 33 60 38 61 34 62 35 63 37 64
REMARK SMILES IDX 39 65 36 66 58 67 59 68 64 69 60 70 61 71 63 72 65 73 62 74
REMARK SMILES IDX 46 75 47 76 52 77 48 78 49 79 51 80 53 81 50 82
REMARK H PARENT 70 44 44 55
REMARK Flexibility Score: inf
ROOT
ATOM      1  O   UNL A   1      35.546  22.572  24.917  1.00  0.00    -0.458 OA
ENDROOT
BRANCH   1   2
ATOM      2  C   UNL A   1      35.045  23.350  23.932  1.00  0.00     0.338 C 
ATOM      3  O   UNL A   1      35.308  23.309  22.742  1.00  0.00    -0.246 OA
BRANCH   2   4
ATOM      4  C   UNL A   1      34.015  24.266  24.463  1.00  0.00     0.061 A 
ATOM      5  C   UNL A   1      32.277  25.894  23.981  1.00  0.00     0.119 A 
ATOM      6  C   UNL A   1      33.182  24.922  23.550  1.00  0.00     0.040 A 
ATOM      7  C   UNL A   1      32.184  26.187  25.332  1.00  0.00     0.143 A 
ATOM      8  C   UNL A   1      33.007  25.528  26.253  1.00  0.00     0.041 A 
ATOM      9  F   UNL A   1      31.301  27.077  25.798  1.00  0.00    -0.206 F 
ATOM     10  C   UNL A   1      33.928  24.565  25.823  1.00  0.00     0.019 A 
BRANCH   5  11
ATOM     11  S   UNL A   1      31.246  26.712  22.807  1.00  0.00     0.245 S 
ATOM     12  O   UNL A   1      29.860  26.547  23.145  1.00  0.00    -0.207 OA
ATOM     13  O   UNL A   1      31.757  26.331  21.502  1.00  0.00    -0.207 OA
BRANCH  11  14
ATOM     14  N   UNL A   1      31.578  28.391  22.981  1.00  0.00    -0.200 NA
ATOM     15  C   UNL A   1      33.013  28.702  22.710  1.00  0.00     0.124 C 
BRANCH  14  16
ATOM     16  C   UNL A   1      30.641  29.437  22.481  1.00  0.00     0.118 C 
BRANCH  16  17
ATOM     17  C   UNL A   1      29.550  29.930  23.404  1.00  0.00     0.153 C 
BRANCH  17  18
ATOM     18  S   UNL A   1      27.920  30.095  22.685  1.00  0.00     0.148 S 
ATOM     19  C   UNL A   1      26.988  28.648  23.126  1.00  0.00     0.158 C 
ATOM     20  O   UNL A   1      27.278  31.213  23.356  1.00  0.00    -0.229 OA
ATOM     21  O   UNL A   1      28.029  30.075  21.244  1.00  0.00    -0.229 OA
ENDBRANCH  17  18
ENDBRANCH  16  17
ENDBRANCH  14  16
ENDBRANCH  11  14
ENDBRANCH   5  11
ENDBRANCH   2   4
ENDBRANCH   1   2
BRANCH   1  22
ATOM     22  C   UNL A   1      35.242  21.163  24.824  1.00  0.00     0.275 C 
BRANCH  22  23
ATOM     23  C   UNL A   1      36.510  20.326  25.003  1.00  0.00     0.275 C 
BRANCH  23  24
ATOM     24  O   UNL A   1      37.660  21.184  24.889  1.00  0.00    -0.458 OA
BRANCH  24  25
ATOM     25  C   UNL A   1      38.733  20.845  25.642  1.00  0.00     0.338 C 
ATOM     26  O   UNL A   1      39.242  19.743  25.749  1.00  0.00    -0.246 OA
BRANCH  25  27
ATOM     27  C   UNL A   1      39.281  22.048  26.304  1.00  0.00     0.060 A 
ATOM     28  C   UNL A   1      38.665  23.277  26.103  1.00  0.00     0.016 A 
ATOM     29  C   UNL A   1      40.493  21.990  26.989  1.00  0.00     0.016 A 
ATOM     30  C   UNL A   1      39.335  24.454  26.431  1.00  0.00     0.010 A 
ATOM     31  C   UNL A   1      41.096  23.172  27.445  1.00  0.00     0.010 A 
ATOM     32  C   UNL A   1      40.561  24.430  27.112  1.00  0.00    -0.014 A 
BRANCH  32  33
ATOM     33  C   UNL A   1      41.291  25.708  27.395  1.00  0.00     0.031 A 
ATOM     34  C   UNL A   1      40.715  26.733  28.349  1.00  0.00     0.074 A 
ATOM     35  C   UNL A   1      42.513  25.942  26.867  1.00  0.00     0.049 A 
ATOM     36  N   UNL A   1      41.132  27.950  28.604  1.00  0.00    -0.248 NA
ATOM     37  C   UNL A   1      39.507  26.352  29.097  1.00  0.00     0.031 C 
ATOM     38  C   UNL A   1      43.234  25.049  25.960  1.00  0.00     0.029 A 
ATOM     39  N   UNL A   1      43.388  26.988  27.054  1.00  0.00    -0.354 N 
ATOM     40  C   UNL A   1      40.194  28.501  29.470  1.00  0.00     0.074 A 
ATOM     41  C   UNL A   1      39.191  27.486  29.705  1.00  0.00     0.031 C 
ATOM     42  C   UNL A   1      44.470  25.526  25.758  1.00  0.00     0.029 A 
ATOM     43  C   UNL A   1      44.597  26.817  26.425  1.00  0.00     0.049 A 
ATOM     44  H   UNL A   1      43.167  27.784  27.589  1.00  0.00     0.167 HD
ATOM     45  C   UNL A   1      40.168  29.739  30.023  1.00  0.00     0.037 A 
ATOM     46  C   UNL A   1      45.683  27.613  26.361  1.00  0.00     0.037 A 
ATOM     47  C   UNL A   1      41.211  30.722  29.878  1.00  0.00     0.049 A 
ATOM     48  C   UNL A   1      45.646  28.971  27.003  1.00  0.00     0.074 A 
ATOM     49  C   UNL A   1      41.265  32.004  30.401  1.00  0.00     0.029 A 
ATOM     50  N   UNL A   1      42.400  30.517  29.199  1.00  0.00    -0.354 N 
ATOM     51  N   UNL A   1      44.698  29.517  27.722  1.00  0.00    -0.248 NA
ATOM     52  C   UNL A   1      46.816  29.837  26.789  1.00  0.00     0.031 C 
ATOM     53  C   UNL A   1      42.479  32.583  30.018  1.00  0.00     0.029 A 
ATOM     54  C   UNL A   1      43.195  31.649  29.289  1.00  0.00     0.049 A 
ATOM     55  H   UNL A   1      42.644  29.691  28.723  1.00  0.00     0.167 HD
ATOM     56  C   UNL A   1      45.147  30.793  28.034  1.00  0.00     0.074 A 
ATOM     57  C   UNL A   1      46.471  30.926  27.463  1.00  0.00     0.031 C 
ATOM     58  C   UNL A   1      44.509  31.773  28.716  1.00  0.00     0.037 A 
BRANCH  45  59
ATOM     59  C   UNL A   1      38.957  30.125  30.823  1.00  0.00     0.057 A 
ATOM     60  C   UNL A   1      38.893  29.822  32.191  1.00  0.00     0.134 A 
ATOM     61  C   UNL A   1      37.835  30.724  30.241  1.00  0.00     0.134 A 
ATOM     62  F   UNL A   1      39.930  29.236  32.808  1.00  0.00    -0.206 F 
ATOM     63  C   UNL A   1      37.752  30.094  32.947  1.00  0.00     0.040 A 
ATOM     64  C   UNL A   1      36.697  31.025  30.993  1.00  0.00     0.040 A 
ATOM     65  F   UNL A   1      37.837  31.048  28.939  1.00  0.00    -0.206 F 
ATOM     66  C   UNL A   1      36.650  30.700  32.349  1.00  0.00     0.006 A 
ENDBRANCH  45  59
BRANCH  46  67
ATOM     67  C   UNL A   1      46.899  27.153  25.644  1.00  0.00     0.057 A 
ATOM     68  C   UNL A   1      47.885  26.387  26.279  1.00  0.00     0.134 A 
ATOM     69  C   UNL A   1      47.108  27.486  24.301  1.00  0.00     0.134 A 
ATOM     70  F   UNL A   1      47.746  26.038  27.566  1.00  0.00    -0.206 F 
ATOM     71  C   UNL A   1      49.046  25.994  25.613  1.00  0.00     0.040 A 
ATOM     72  C   UNL A   1      48.250  27.074  23.613  1.00  0.00     0.040 A 
ATOM     73  F   UNL A   1      46.190  28.201  23.634  1.00  0.00    -0.206 F 
ATOM     74  C   UNL A   1      49.229  26.334  24.274  1.00  0.00     0.006 A 
ENDBRANCH  46  67
BRANCH  58  75
ATOM     75  C   UNL A   1      45.229  33.078  28.883  1.00  0.00     0.057 A 
ATOM     76  C   UNL A   1      45.086  34.103  27.941  1.00  0.00     0.134 A 
ATOM     77  C   UNL A   1      46.102  33.300  29.955  1.00  0.00     0.134 A 
ATOM     78  F   UNL A   1      44.271  33.951  26.886  1.00  0.00    -0.206 F 
ATOM     79  C   UNL A   1      45.792  35.302  28.056  1.00  0.00     0.040 A 
ATOM     80  C   UNL A   1      46.797  34.502  30.093  1.00  0.00     0.040 A 
ATOM     81  F   UNL A   1      46.273  32.359  30.898  1.00  0.00    -0.206 F 
ATOM     82  C   UNL A   1      46.647  35.505  29.137  1.00  0.00     0.006 A 
ENDBRANCH  58  75
ENDBRANCH  32  33
ENDBRANCH  25  27
ENDBRANCH  24  25
ENDBRANCH  23  24
ENDBRANCH  22  23
ENDBRANCH   1  22
TORSDOF 16
ENDMDL
MODEL 3
REMARK VINA RESULT:     -10.8      3.822      8.775
REMARK SMILES CN(CCS(C)(=O)=O)S(=O)(=O)c1cc(C(=O)OCCOC(=O)c2ccc(-c3c4nc(c(-c5c(F)cccc5F)c5ccc([nH]5)c(-c5c(F)cccc5F)c5nc(c(-c6c(F)cccc6F)c6ccc3[nH]6)C=C5)C=C4)cc2)ccc1F
REMARK SMILES IDX 17 1 15 2 16 3 14 4 12 5 13 6 79 7 78 8 80 9 77 10 9 11
REMARK SMILES IDX 10 12 11 13 2 14 1 15 3 16 4 17 5 18 6 19 7 20 8 21 18 22
REMARK SMILES IDX 19 23 20 24 21 25 22 26 23 27 24 28 76 29 25 30 75 31 26 32
REMARK SMILES IDX 27 33 28 34 69 35 29 36 74 37 68 38 70 39 30 40 73 41 67 42
REMARK SMILES IDX 66 43 31 45 57 46 40 47 56 48 41 49 44 50 55 51 71 52 42 53
REMARK SMILES IDX 43 54 54 56 72 57 45 58 32 59 33 60 38 61 34 62 35 63 37 64
REMARK SMILES IDX 39 65 36 66 58 67 59 68 64 69 60 70 61 71 63 72 65 73 62 74
REMARK SMILES IDX 46 75 47 76 52 77 48 78 49 79 51 80 53 81 50 82
REMARK H PARENT 70 44 44 55
REMARK Flexibility Score: inf
ROOT
ATOM      1  O   UNL A   1      35.187  21.239  26.054  1.00  0.00    -0.458 OA
ENDROOT
BRANCH   1   2
ATOM      2  C   UNL A   1      33.923  21.715  26.090  1.00  0.00     0.338 C 
ATOM      3  O   UNL A   1      32.894  21.089  26.288  1.00  0.00    -0.246 OA
BRANCH   2   4
ATOM      4  C   UNL A   1      33.914  23.184  25.935  1.00  0.00     0.061 A 
ATOM      5  C   UNL A   1      32.594  25.217  25.754  1.00  0.00     0.119 A 
ATOM      6  C   UNL A   1      32.685  23.848  26.018  1.00  0.00     0.040 A 
ATOM      7  C   UNL A   1      33.742  25.927  25.437  1.00  0.00     0.143 A 
ATOM      8  C   UNL A   1      34.976  25.271  25.362  1.00  0.00     0.041 A 
ATOM      9  F   UNL A   1      33.713  27.246  25.221  1.00  0.00    -0.206 F 
ATOM     10  C   UNL A   1      35.068  23.896  25.609  1.00  0.00     0.019 A 
BRANCH   5  11
ATOM     11  S   UNL A   1      31.031  26.026  25.856  1.00  0.00     0.245 S 
ATOM     12  O   UNL A   1      31.189  27.379  26.317  1.00  0.00    -0.207 OA
ATOM     13  O   UNL A   1      30.149  25.094  26.535  1.00  0.00    -0.207 OA
BRANCH  11  14
ATOM     14  N   UNL A   1      30.456  26.142  24.240  1.00  0.00    -0.200 NA
ATOM     15  C   UNL A   1      28.991  26.427  24.193  1.00  0.00     0.124 C 
BRANCH  14  16
ATOM     16  C   UNL A   1      31.229  26.842  23.175  1.00  0.00     0.118 C 
BRANCH  16  17
ATOM     17  C   UNL A   1      31.363  26.177  21.823  1.00  0.00     0.153 C 
BRANCH  17  18
ATOM     18  S   UNL A   1      32.977  25.516  21.424  1.00  0.00     0.148 S 
ATOM     19  C   UNL A   1      33.142  23.957  22.260  1.00  0.00     0.158 C 
ATOM     20  O   UNL A   1      32.966  25.216  20.002  1.00  0.00    -0.229 OA
ATOM     21  O   UNL A   1      33.997  26.376  21.979  1.00  0.00    -0.229 OA
ENDBRANCH  17  18
ENDBRANCH  16  17
ENDBRANCH  14  16
ENDBRANCH  11  14
ENDBRANCH   5  11
ENDBRANCH   2   4
ENDBRANCH   1   2
BRANCH   1  22
ATOM     22  C   UNL A   1      35.477  20.296  24.998  1.00  0.00     0.275 C 
BRANCH  22  23
ATOM     23  C   UNL A   1      36.987  20.151  24.805  1.00  0.00     0.275 C 
BRANCH  23  24
ATOM     24  O   UNL A   1      37.645  21.306  25.359  1.00  0.00    -0.458 OA
BRANCH  24  25
ATOM     25  C   UNL A   1      38.845  21.084  25.946  1.00  0.00     0.338 C 
ATOM     26  O   UNL A   1      39.492  20.051  25.934  1.00  0.00    -0.246 OA
BRANCH  25  27
ATOM     27  C   UNL A   1      39.329  22.326  26.583  1.00  0.00     0.060 A 
ATOM     28  C   UNL A   1      38.789  23.547  26.196  1.00  0.00     0.016 A 
ATOM     29  C   UNL A   1      40.428  22.301  27.439  1.00  0.00     0.016 A 
ATOM     30  C   UNL A   1      39.442  24.733  26.523  1.00  0.00     0.010 A 
ATOM     31  C   UNL A   1      40.997  23.505  27.882  1.00  0.00     0.010 A 
ATOM     32  C   UNL A   1      40.555  24.742  27.376  1.00  0.00    -0.014 A 
BRANCH  32  33
ATOM     33  C   UNL A   1      41.278  26.024  27.659  1.00  0.00     0.031 A 
ATOM     34  C   UNL A   1      40.670  27.069  28.570  1.00  0.00     0.074 A 
ATOM     35  C   UNL A   1      42.519  26.245  27.172  1.00  0.00     0.049 A 
ATOM     36  N   UNL A   1      41.080  28.290  28.815  1.00  0.00    -0.248 NA
ATOM     37  C   UNL A   1      39.434  26.706  29.280  1.00  0.00     0.031 C 
ATOM     38  C   UNL A   1      43.271  25.332  26.311  1.00  0.00     0.029 A 
ATOM     39  N   UNL A   1      43.389  27.293  27.370  1.00  0.00    -0.354 N 
ATOM     40  C   UNL A   1      40.112  28.861  29.635  1.00  0.00     0.074 A 
ATOM     41  C   UNL A   1      39.099  27.853  29.853  1.00  0.00     0.031 C 
ATOM     42  C   UNL A   1      44.515  25.802  26.145  1.00  0.00     0.029 A 
ATOM     43  C   UNL A   1      44.621  27.107  26.789  1.00  0.00     0.049 A 
ATOM     44  H   UNL A   1      43.151  28.100  27.880  1.00  0.00     0.167 HD
ATOM     45  C   UNL A   1      40.069  30.110  30.160  1.00  0.00     0.037 A 
ATOM     46  C   UNL A   1      45.710  27.899  26.750  1.00  0.00     0.037 A 
ATOM     47  C   UNL A   1      41.119  31.087  30.034  1.00  0.00     0.049 A 
ATOM     48  C   UNL A   1      45.653  29.270  27.361  1.00  0.00     0.074 A 
ATOM     49  C   UNL A   1      41.157  32.380  30.532  1.00  0.00     0.029 A 
ATOM     50  N   UNL A   1      42.331  30.867  29.404  1.00  0.00    -0.354 N 
ATOM     51  N   UNL A   1      44.680  29.832  28.033  1.00  0.00    -0.248 NA
ATOM     52  C   UNL A   1      46.832  30.129  27.174  1.00  0.00     0.031 C 
ATOM     53  C   UNL A   1      42.386  32.949  30.182  1.00  0.00     0.029 A 
ATOM     54  C   UNL A   1      43.126  31.999  29.500  1.00  0.00     0.049 A 
ATOM     55  H   UNL A   1      42.591  30.031  28.955  1.00  0.00     0.167 HD
ATOM     56  C   UNL A   1      45.121  31.114  28.336  1.00  0.00     0.074 A 
ATOM     57  C   UNL A   1      46.465  31.232  27.812  1.00  0.00     0.031 C 
ATOM     58  C   UNL A   1      44.461  32.109  28.974  1.00  0.00     0.037 A 
BRANCH  45  59
ATOM     59  C   UNL A   1      38.830  30.514  30.907  1.00  0.00     0.057 A 
ATOM     60  C   UNL A   1      37.781  31.156  30.233  1.00  0.00     0.134 A 
ATOM     61  C   UNL A   1      38.698  30.337  32.288  1.00  0.00     0.134 A 
ATOM     62  F   UNL A   1      37.850  31.368  28.910  1.00  0.00    -0.206 F 
ATOM     63  C   UNL A   1      36.650  31.616  30.909  1.00  0.00     0.040 A 
ATOM     64  C   UNL A   1      37.560  30.770  32.973  1.00  0.00     0.040 A 
ATOM     65  F   UNL A   1      39.662  29.721  32.990  1.00  0.00    -0.206 F 
ATOM     66  C   UNL A   1      36.536  31.420  32.284  1.00  0.00     0.006 A 
ENDBRANCH  45  59
BRANCH  46  67
ATOM     67  C   UNL A   1      46.951  27.422  26.088  1.00  0.00     0.057 A 
ATOM     68  C   UNL A   1      47.149  27.552  24.708  1.00  0.00     0.134 A 
ATOM     69  C   UNL A   1      47.966  26.806  26.829  1.00  0.00     0.134 A 
ATOM     70  F   UNL A   1      46.212  28.129  23.942  1.00  0.00    -0.206 F 
ATOM     71  C   UNL A   1      48.297  27.063  24.085  1.00  0.00     0.040 A 
ATOM     72  C   UNL A   1      49.134  26.339  26.224  1.00  0.00     0.040 A 
ATOM     73  F   UNL A   1      47.843  26.671  28.158  1.00  0.00    -0.206 F 
ATOM     74  C   UNL A   1      49.296  26.457  24.845  1.00  0.00     0.006 A 
ENDBRANCH  46  67
BRANCH  58  75
ATOM     75  C   UNL A   1      45.177  33.416  29.141  1.00  0.00     0.057 A 
ATOM     76  C   UNL A   1      45.957  33.668  30.275  1.00  0.00     0.134 A 
ATOM     77  C   UNL A   1      45.052  34.444  28.198  1.00  0.00     0.134 A 
ATOM     78  F   UNL A   1      46.111  32.727  31.219  1.00  0.00    -0.206 F 
ATOM     79  C   UNL A   1      46.586  34.899  30.469  1.00  0.00     0.040 A 
ATOM     80  C   UNL A   1      45.691  35.673  28.370  1.00  0.00     0.040 A 
ATOM     81  F   UNL A   1      44.326  34.260  27.084  1.00  0.00    -0.206 F 
ATOM     82  C   UNL A   1      46.456  35.904  29.512  1.00  0.00     0.006 A 
ENDBRANCH  58  75
ENDBRANCH  32  33
ENDBRANCH  25  27
ENDBRANCH  24  25
ENDBRANCH  23  24
ENDBRANCH  22  23
ENDBRANCH   1  22
TORSDOF 16
ENDMDL
