MODEL 1
REMARK VINA RESULT:     -10.0      0.000      0.000
REMARK SMILES CC(C)N(CCC#N)C(=O)c1ccncc1/C=C/C(=O)OCCOC(=O)c1ccc(-c2c3nc(c(-c4c(F)cccc4F)c4ccc([nH]4)c(-c4c(F)cccc4F)c4nc(c(-c5c(F)cccc5F)c5ccc2[nH]5)C=C4)C=C3)cc1
REMARK SMILES IDX 19 1 20 2 18 3 17 4 16 5 11 6 12 7 13 8 15 9 14 10 9 11
REMARK SMILES IDX 10 12 4 13 2 14 1 15 3 16 5 17 6 18 7 19 8 20 21 21 22 22
REMARK SMILES IDX 23 23 24 24 25 25 26 26 27 27 28 28 80 29 29 30 79 31 30 32
REMARK SMILES IDX 31 33 32 34 73 35 33 36 78 37 72 38 74 39 34 40 77 41 71 42
REMARK SMILES IDX 70 43 35 45 61 46 44 47 60 48 45 49 48 50 59 51 75 52 46 53
REMARK SMILES IDX 47 54 58 56 76 57 49 58 36 59 37 60 42 61 38 62 39 63 41 64
REMARK SMILES IDX 43 65 40 66 62 67 63 68 68 69 64 70 65 71 67 72 69 73 66 74
REMARK SMILES IDX 50 75 51 76 56 77 52 78 53 79 55 80 57 81 54 82
REMARK H PARENT 74 44 48 55
REMARK Flexibility Score: inf
ROOT
ATOM      1  C   UNL A   1      33.721  30.178  27.202  1.00  0.00     0.330 C 
ATOM      2  O   UNL A   1      34.752  29.527  27.285  1.00  0.00    -0.247 OA
ENDROOT
BRANCH   1   3
ATOM      3  C   UNL A   1      32.435  29.561  26.785  1.00  0.00     0.094 C 
ATOM      4  C   UNL A   1      32.286  29.009  25.571  1.00  0.00     0.018 C 
BRANCH   4   5
ATOM      5  C   UNL A   1      31.033  28.736  24.823  1.00  0.00     0.006 A 
ATOM      6  C   UNL A   1      30.619  27.419  24.497  1.00  0.00     0.050 A 
ATOM      7  C   UNL A   1      29.946  27.248  23.286  1.00  0.00     0.034 A 
ATOM      8  C   UNL A   1      29.470  28.359  22.604  1.00  0.00     0.112 A 
ATOM      9  C   UNL A   1      30.446  29.779  24.100  1.00  0.00     0.119 A 
ATOM     10  N   UNL A   1      29.656  29.621  23.015  1.00  0.00    -0.264 NA
BRANCH   6  11
ATOM     11  C   UNL A   1      30.870  26.279  25.465  1.00  0.00     0.254 C 
ATOM     12  O   UNL A   1      30.211  26.281  26.507  1.00  0.00    -0.269 OA
BRANCH  11  13
ATOM     13  N   UNL A   1      31.747  25.180  25.228  1.00  0.00    -0.335 N 
BRANCH  13  14
ATOM     14  C   UNL A   1      32.958  25.089  26.100  1.00  0.00     0.079 C 
ATOM     15  C   UNL A   1      33.352  23.653  26.486  1.00  0.00     0.031 C 
ATOM     16  C   UNL A   1      34.155  25.857  25.534  1.00  0.00     0.031 C 
ENDBRANCH  13  14
BRANCH  13  17
ATOM     17  C   UNL A   1      31.532  24.029  24.315  1.00  0.00     0.135 C 
BRANCH  17  18
ATOM     18  C   UNL A   1      31.942  24.186  22.843  1.00  0.00     0.141 C 
BRANCH  18  19
ATOM     19  C   UNL A   1      33.365  23.719  22.587  1.00  0.00     0.064 C 
ATOM     20  N   UNL A   1      34.546  23.330  22.376  1.00  0.00    -0.198 NA
ENDBRANCH  18  19
ENDBRANCH  17  18
ENDBRANCH  13  17
ENDBRANCH  11  13
ENDBRANCH   6  11
ENDBRANCH   4   5
ENDBRANCH   1   3
BRANCH   1  21
ATOM     21  O   UNL A   1      33.545  31.457  27.613  1.00  0.00    -0.459 OA
BRANCH  21  22
ATOM     22  C   UNL A   1      32.306  32.103  27.281  1.00  0.00     0.275 C 
BRANCH  22  23
ATOM     23  C   UNL A   1      32.534  33.610  27.118  1.00  0.00     0.275 C 
BRANCH  23  24
ATOM     24  O   UNL A   1      32.279  34.315  28.349  1.00  0.00    -0.458 OA
BRANCH  24  25
ATOM     25  C   UNL A   1      33.279  35.116  28.784  1.00  0.00     0.338 C 
ATOM     26  O   UNL A   1      33.261  36.336  28.877  1.00  0.00    -0.246 OA
BRANCH  25  27
ATOM     27  C   UNL A   1      34.409  34.296  29.255  1.00  0.00     0.060 A 
ATOM     28  C   UNL A   1      34.166  33.366  30.268  1.00  0.00     0.016 A 
ATOM     29  C   UNL A   1      35.703  34.469  28.759  1.00  0.00     0.016 A 
ATOM     30  C   UNL A   1      35.207  32.602  30.792  1.00  0.00     0.010 A 
ATOM     31  C   UNL A   1      36.750  33.700  29.283  1.00  0.00     0.010 A 
ATOM     32  C   UNL A   1      36.511  32.766  30.306  1.00  0.00    -0.014 A 
BRANCH  32  33
ATOM     33  C   UNL A   1      37.621  31.979  30.899  1.00  0.00     0.031 A 
ATOM     34  C   UNL A   1      38.069  32.249  32.306  1.00  0.00     0.074 A 
ATOM     35  C   UNL A   1      38.212  31.008  30.179  1.00  0.00     0.049 A 
ATOM     36  N   UNL A   1      39.046  31.700  32.984  1.00  0.00    -0.248 NA
ATOM     37  C   UNL A   1      37.321  33.274  33.048  1.00  0.00     0.031 C 
ATOM     38  C   UNL A   1      37.845  30.629  28.815  1.00  0.00     0.029 A 
ATOM     39  N   UNL A   1      39.247  30.165  30.497  1.00  0.00    -0.354 N 
ATOM     40  C   UNL A   1      39.036  32.316  34.228  1.00  0.00     0.074 A 
ATOM     41  C   UNL A   1      37.974  33.302  34.201  1.00  0.00     0.031 C 
ATOM     42  C   UNL A   1      38.643  29.625  28.413  1.00  0.00     0.029 A 
ATOM     43  C   UNL A   1      39.598  29.319  29.474  1.00  0.00     0.049 A 
ATOM     44  H   UNL A   1      39.693  30.166  31.374  1.00  0.00     0.167 HD
ATOM     45  C   UNL A   1      39.834  32.078  35.297  1.00  0.00     0.037 A 
ATOM     46  C   UNL A   1      40.593  28.414  29.393  1.00  0.00     0.037 A 
ATOM     47  C   UNL A   1      40.887  31.095  35.323  1.00  0.00     0.049 A 
ATOM     48  C   UNL A   1      41.504  28.210  30.572  1.00  0.00     0.074 A 
ATOM     49  C   UNL A   1      41.740  30.772  36.365  1.00  0.00     0.029 A 
ATOM     50  N   UNL A   1      41.234  30.279  34.256  1.00  0.00    -0.354 N 
ATOM     51  N   UNL A   1      41.480  28.790  31.747  1.00  0.00    -0.248 NA
ATOM     52  C   UNL A   1      42.583  27.224  30.412  1.00  0.00     0.031 C 
ATOM     53  C   UNL A   1      42.632  29.793  35.914  1.00  0.00     0.029 A 
ATOM     54  C   UNL A   1      42.304  29.471  34.606  1.00  0.00     0.049 A 
ATOM     55  H   UNL A   1      40.786  30.275  33.379  1.00  0.00     0.167 HD
ATOM     56  C   UNL A   1      42.523  28.228  32.472  1.00  0.00     0.074 A 
ATOM     57  C   UNL A   1      43.151  27.248  31.610  1.00  0.00     0.031 C 
ATOM     58  C   UNL A   1      42.922  28.499  33.739  1.00  0.00     0.037 A 
BRANCH  45  59
ATOM     59  C   UNL A   1      39.613  32.918  36.521  1.00  0.00     0.057 A 
ATOM     60  C   UNL A   1      40.363  34.074  36.774  1.00  0.00     0.134 A 
ATOM     61  C   UNL A   1      38.619  32.578  37.448  1.00  0.00     0.134 A 
ATOM     62  F   UNL A   1      41.338  34.449  35.932  1.00  0.00    -0.206 F 
ATOM     63  C   UNL A   1      40.152  34.846  37.917  1.00  0.00     0.040 A 
ATOM     64  C   UNL A   1      38.381  33.355  38.583  1.00  0.00     0.040 A 
ATOM     65  F   UNL A   1      37.859  31.488  37.264  1.00  0.00    -0.206 F 
ATOM     66  C   UNL A   1      39.154  34.489  38.824  1.00  0.00     0.006 A 
ENDBRANCH  45  59
BRANCH  46  67
ATOM     67  C   UNL A   1      40.787  27.642  28.140  1.00  0.00     0.057 A 
ATOM     68  C   UNL A   1      40.184  26.394  27.954  1.00  0.00     0.134 A 
ATOM     69  C   UNL A   1      41.584  28.137  27.098  1.00  0.00     0.134 A 
ATOM     70  F   UNL A   1      39.431  25.857  28.926  1.00  0.00    -0.206 F 
ATOM     71  C   UNL A   1      40.372  25.660  26.782  1.00  0.00     0.040 A 
ATOM     72  C   UNL A   1      41.760  27.425  25.912  1.00  0.00     0.040 A 
ATOM     73  F   UNL A   1      42.190  29.327  27.217  1.00  0.00    -0.206 F 
ATOM     74  C   UNL A   1      41.156  26.179  25.753  1.00  0.00     0.006 A 
ENDBRANCH  46  67
BRANCH  58  75
ATOM     75  C   UNL A   1      44.078  27.708  34.278  1.00  0.00     0.057 A 
ATOM     76  C   UNL A   1      45.393  28.186  34.219  1.00  0.00     0.134 A 
ATOM     77  C   UNL A   1      43.867  26.469  34.896  1.00  0.00     0.134 A 
ATOM     78  F   UNL A   1      45.663  29.361  33.629  1.00  0.00    -0.206 F 
ATOM     79  C   UNL A   1      46.460  27.450  34.735  1.00  0.00     0.040 A 
ATOM     80  C   UNL A   1      44.923  25.734  35.438  1.00  0.00     0.040 A 
ATOM     81  F   UNL A   1      42.631  25.957  34.993  1.00  0.00    -0.206 F 
ATOM     82  C   UNL A   1      46.225  26.222  35.353  1.00  0.00     0.006 A 
ENDBRANCH  58  75
ENDBRANCH  32  33
ENDBRANCH  25  27
ENDBRANCH  24  25
ENDBRANCH  23  24
ENDBRANCH  22  23
ENDBRANCH  21  22
ENDBRANCH   1  21
TORSDOF 18
ENDMDL
MODEL 2
REMARK VINA RESULT:     -10.0      1.097      2.395
REMARK SMILES CC(C)N(CCC#N)C(=O)c1ccncc1/C=C/C(=O)OCCOC(=O)c1ccc(-c2c3nc(c(-c4c(F)cccc4F)c4ccc([nH]4)c(-c4c(F)cccc4F)c4nc(c(-c5c(F)cccc5F)c5ccc2[nH]5)C=C4)C=C3)cc1
REMARK SMILES IDX 19 1 20 2 18 3 17 4 16 5 11 6 12 7 13 8 15 9 14 10 9 11
REMARK SMILES IDX 10 12 4 13 2 14 1 15 3 16 5 17 6 18 7 19 8 20 21 21 22 22
REMARK SMILES IDX 23 23 24 24 25 25 26 26 27 27 28 28 80 29 29 30 79 31 30 32
REMARK SMILES IDX 31 33 32 34 73 35 33 36 78 37 72 38 74 39 34 40 77 41 71 42
REMARK SMILES IDX 70 43 35 45 61 46 44 47 60 48 45 49 48 50 59 51 75 52 46 53
REMARK SMILES IDX 47 54 58 56 76 57 49 58 36 59 37 60 42 61 38 62 39 63 41 64
REMARK SMILES IDX 43 65 40 66 62 67 63 68 68 69 64 70 65 71 67 72 69 73 66 74
REMARK SMILES IDX 50 75 51 76 56 77 52 78 53 79 55 80 57 81 54 82
REMARK H PARENT 74 44 48 55
REMARK Flexibility Score: inf
ROOT
ATOM      1  C   UNL A   1      33.497  29.590  26.575  1.00  0.00     0.330 C 
ATOM      2  O   UNL A   1      34.517  30.059  27.056  1.00  0.00    -0.247 OA
ENDROOT
BRANCH   1   3
ATOM      3  C   UNL A   1      33.513  28.342  25.768  1.00  0.00     0.094 C 
ATOM      4  C   UNL A   1      33.120  27.168  26.287  1.00  0.00     0.018 C 
BRANCH   4   5
ATOM      5  C   UNL A   1      33.442  25.795  25.825  1.00  0.00     0.006 A 
ATOM      6  C   UNL A   1      32.505  24.733  25.902  1.00  0.00     0.050 A 
ATOM      7  C   UNL A   1      33.012  23.458  26.160  1.00  0.00     0.034 A 
ATOM      8  C   UNL A   1      34.377  23.229  26.052  1.00  0.00     0.112 A 
ATOM      9  C   UNL A   1      34.785  25.441  25.669  1.00  0.00     0.119 A 
ATOM     10  N   UNL A   1      35.270  24.183  25.755  1.00  0.00    -0.264 NA
BRANCH   6  11
ATOM     11  C   UNL A   1      31.031  24.996  25.662  1.00  0.00     0.254 C 
ATOM     12  O   UNL A   1      30.290  24.941  26.647  1.00  0.00    -0.269 OA
BRANCH  11  13
ATOM     13  N   UNL A   1      30.457  25.371  24.412  1.00  0.00    -0.335 N 
BRANCH  13  14
ATOM     14  C   UNL A   1      29.847  26.733  24.335  1.00  0.00     0.079 C 
ATOM     15  C   UNL A   1      30.667  27.747  23.517  1.00  0.00     0.031 C 
ATOM     16  C   UNL A   1      28.388  26.705  23.876  1.00  0.00     0.031 C 
ENDBRANCH  13  14
BRANCH  13  17
ATOM     17  C   UNL A   1      30.520  24.628  23.127  1.00  0.00     0.135 C 
BRANCH  17  18
ATOM     18  C   UNL A   1      31.866  24.013  22.712  1.00  0.00     0.141 C 
BRANCH  18  19
ATOM     19  C   UNL A   1      32.841  25.056  22.192  1.00  0.00     0.064 C 
ATOM     20  N   UNL A   1      33.651  25.922  21.762  1.00  0.00    -0.198 NA
ENDBRANCH  18  19
ENDBRANCH  17  18
ENDBRANCH  13  17
ENDBRANCH  11  13
ENDBRANCH   6  11
ENDBRANCH   4   5
ENDBRANCH   1   3
BRANCH   1  21
ATOM     21  O   UNL A   1      32.230  30.003  26.820  1.00  0.00    -0.459 OA
BRANCH  21  22
ATOM     22  C   UNL A   1      31.778  31.202  26.169  1.00  0.00     0.275 C 
BRANCH  22  23
ATOM     23  C   UNL A   1      31.660  32.335  27.193  1.00  0.00     0.275 C 
BRANCH  23  24
ATOM     24  O   UNL A   1      32.605  33.389  26.920  1.00  0.00    -0.458 OA
BRANCH  24  25
ATOM     25  C   UNL A   1      33.084  34.043  28.003  1.00  0.00     0.338 C 
ATOM     26  O   UNL A   1      32.593  35.019  28.555  1.00  0.00    -0.246 OA
BRANCH  25  27
ATOM     27  C   UNL A   1      34.269  33.341  28.529  1.00  0.00     0.060 A 
ATOM     28  C   UNL A   1      34.066  32.328  29.468  1.00  0.00     0.016 A 
ATOM     29  C   UNL A   1      35.565  33.702  28.158  1.00  0.00     0.016 A 
ATOM     30  C   UNL A   1      35.151  31.667  30.042  1.00  0.00     0.010 A 
ATOM     31  C   UNL A   1      36.657  33.038  28.732  1.00  0.00     0.010 A 
ATOM     32  C   UNL A   1      36.458  32.020  29.682  1.00  0.00    -0.014 A 
BRANCH  32  33
ATOM     33  C   UNL A   1      37.608  31.342  30.328  1.00  0.00     0.031 A 
ATOM     34  C   UNL A   1      37.961  31.649  31.754  1.00  0.00     0.074 A 
ATOM     35  C   UNL A   1      38.323  30.433  29.639  1.00  0.00     0.049 A 
ATOM     36  N   UNL A   1      38.951  31.195  32.480  1.00  0.00    -0.248 NA
ATOM     37  C   UNL A   1      37.083  32.596  32.458  1.00  0.00     0.031 C 
ATOM     38  C   UNL A   1      38.060  30.024  28.260  1.00  0.00     0.029 A 
ATOM     39  N   UNL A   1      39.418  29.691  30.009  1.00  0.00    -0.354 N 
ATOM     40  C   UNL A   1      38.823  31.803  33.721  1.00  0.00     0.074 A 
ATOM     41  C   UNL A   1      37.674  32.683  33.640  1.00  0.00     0.031 C 
ATOM     42  C   UNL A   1      38.968  29.102  27.899  1.00  0.00     0.029 A 
ATOM     43  C   UNL A   1      39.897  28.886  29.005  1.00  0.00     0.049 A 
ATOM     44  H   UNL A   1      39.819  29.733  30.906  1.00  0.00     0.167 HD
ATOM     45  C   UNL A   1      39.588  31.639  34.827  1.00  0.00     0.037 A 
ATOM     46  C   UNL A   1      40.976  28.081  28.974  1.00  0.00     0.037 A 
ATOM     47  C   UNL A   1      40.727  30.762  34.906  1.00  0.00     0.049 A 
ATOM     48  C   UNL A   1      41.844  27.961  30.195  1.00  0.00     0.074 A 
ATOM     49  C   UNL A   1      41.557  30.519  35.988  1.00  0.00     0.029 A 
ATOM     50  N   UNL A   1      41.202  29.985  33.859  1.00  0.00    -0.354 N 
ATOM     51  N   UNL A   1      41.709  28.533  31.367  1.00  0.00    -0.248 NA
ATOM     52  C   UNL A   1      43.019  27.083  30.090  1.00  0.00     0.031 C 
ATOM     53  C   UNL A   1      42.559  29.630  35.582  1.00  0.00     0.029 A 
ATOM     54  C   UNL A   1      42.326  29.282  34.261  1.00  0.00     0.049 A 
ATOM     55  H   UNL A   1      40.799  29.941  32.961  1.00  0.00     0.167 HD
ATOM     56  C   UNL A   1      42.764  28.071  32.142  1.00  0.00     0.074 A 
ATOM     57  C   UNL A   1      43.524  27.158  31.313  1.00  0.00     0.031 C 
ATOM     58  C   UNL A   1      43.075  28.376  33.426  1.00  0.00     0.037 A 
BRANCH  45  59
ATOM     59  C   UNL A   1      39.229  32.452  36.038  1.00  0.00     0.057 A 
ATOM     60  C   UNL A   1      39.755  33.731  36.256  1.00  0.00     0.134 A 
ATOM     61  C   UNL A   1      38.325  31.955  36.986  1.00  0.00     0.134 A 
ATOM     62  F   UNL A   1      40.635  34.261  35.392  1.00  0.00    -0.206 F 
ATOM     63  C   UNL A   1      39.418  34.476  37.387  1.00  0.00     0.040 A 
ATOM     64  C   UNL A   1      37.961  32.700  38.109  1.00  0.00     0.040 A 
ATOM     65  F   UNL A   1      37.778  30.739  36.835  1.00  0.00    -0.206 F 
ATOM     66  C   UNL A   1      38.514  33.962  38.316  1.00  0.00     0.006 A 
ENDBRANCH  45  59
BRANCH  46  67
ATOM     67  C   UNL A   1      41.303  27.334  27.733  1.00  0.00     0.057 A 
ATOM     68  C   UNL A   1      42.063  27.917  26.714  1.00  0.00     0.134 A 
ATOM     69  C   UNL A   1      40.860  26.019  27.538  1.00  0.00     0.134 A 
ATOM     70  F   UNL A   1      42.493  29.181  26.831  1.00  0.00    -0.206 F 
ATOM     71  C   UNL A   1      42.365  27.223  25.541  1.00  0.00     0.040 A 
ATOM     72  C   UNL A   1      41.176  25.305  26.382  1.00  0.00     0.040 A 
ATOM     73  F   UNL A   1      40.127  25.406  28.479  1.00  0.00    -0.206 F 
ATOM     74  C   UNL A   1      41.926  25.910  25.376  1.00  0.00     0.006 A 
ENDBRANCH  46  67
BRANCH  58  75
ATOM     75  C   UNL A   1      44.274  27.698  34.023  1.00  0.00     0.057 A 
ATOM     76  C   UNL A   1      45.544  28.285  33.997  1.00  0.00     0.134 A 
ATOM     77  C   UNL A   1      44.147  26.457  34.660  1.00  0.00     0.134 A 
ATOM     78  F   UNL A   1      45.735  29.467  33.391  1.00  0.00    -0.206 F 
ATOM     79  C   UNL A   1      46.651  27.653  34.566  1.00  0.00     0.040 A 
ATOM     80  C   UNL A   1      45.242  25.826  35.253  1.00  0.00     0.040 A 
ATOM     81  F   UNL A   1      42.956  25.843  34.726  1.00  0.00    -0.206 F 
ATOM     82  C   UNL A   1      46.500  26.422  35.202  1.00  0.00     0.006 A 
ENDBRANCH  58  75
ENDBRANCH  32  33
ENDBRANCH  25  27
ENDBRANCH  24  25
ENDBRANCH  23  24
ENDBRANCH  22  23
ENDBRANCH  21  22
ENDBRANCH   1  21
TORSDOF 18
ENDMDL
MODEL 3
REMARK VINA RESULT:      -9.9      0.938      6.313
REMARK SMILES CC(C)N(CCC#N)C(=O)c1ccncc1/C=C/C(=O)OCCOC(=O)c1ccc(-c2c3nc(c(-c4c(F)cccc4F)c4ccc([nH]4)c(-c4c(F)cccc4F)c4nc(c(-c5c(F)cccc5F)c5ccc2[nH]5)C=C4)C=C3)cc1
REMARK SMILES IDX 19 1 20 2 18 3 17 4 16 5 11 6 12 7 13 8 15 9 14 10 9 11
REMARK SMILES IDX 10 12 4 13 2 14 1 15 3 16 5 17 6 18 7 19 8 20 21 21 22 22
REMARK SMILES IDX 23 23 24 24 25 25 26 26 27 27 28 28 80 29 29 30 79 31 30 32
REMARK SMILES IDX 31 33 32 34 73 35 33 36 78 37 72 38 74 39 34 40 77 41 71 42
REMARK SMILES IDX 70 43 35 45 61 46 44 47 60 48 45 49 48 50 59 51 75 52 46 53
REMARK SMILES IDX 47 54 58 56 76 57 49 58 36 59 37 60 42 61 38 62 39 63 41 64
REMARK SMILES IDX 43 65 40 66 62 67 63 68 68 69 64 70 65 71 67 72 69 73 66 74
REMARK SMILES IDX 50 75 51 76 56 77 52 78 53 79 55 80 57 81 54 82
REMARK H PARENT 74 44 48 55
REMARK Flexibility Score: inf
ROOT
ATOM      1  C   UNL A   1      33.974  30.060  27.269  1.00  0.00     0.330 C 
ATOM      2  O   UNL A   1      34.967  29.357  27.372  1.00  0.00    -0.247 OA
ENDROOT
BRANCH   1   3
ATOM      3  C   UNL A   1      32.654  29.500  26.879  1.00  0.00     0.094 C 
ATOM      4  C   UNL A   1      32.464  28.926  25.680  1.00  0.00     0.018 C 
BRANCH   4   5
ATOM      5  C   UNL A   1      31.192  28.700  24.950  1.00  0.00     0.006 A 
ATOM      6  C   UNL A   1      30.714  27.398  24.651  1.00  0.00     0.050 A 
ATOM      7  C   UNL A   1      30.020  27.239  23.450  1.00  0.00     0.034 A 
ATOM      8  C   UNL A   1      29.588  28.359  22.754  1.00  0.00     0.112 A 
ATOM      9  C   UNL A   1      30.646  29.756  24.215  1.00  0.00     0.119 A 
ATOM     10  N   UNL A   1      29.837  29.618  23.142  1.00  0.00    -0.264 NA
BRANCH   6  11
ATOM     11  C   UNL A   1      30.922  26.263  25.636  1.00  0.00     0.254 C 
ATOM     12  O   UNL A   1      30.304  26.333  26.700  1.00  0.00    -0.269 OA
BRANCH  11  13
ATOM     13  N   UNL A   1      31.712  25.102  25.392  1.00  0.00    -0.335 N 
BRANCH  13  14
ATOM     14  C   UNL A   1      33.038  25.038  26.080  1.00  0.00     0.079 C 
ATOM     15  C   UNL A   1      33.450  23.623  26.525  1.00  0.00     0.031 C 
ATOM     16  C   UNL A   1      34.155  25.712  25.280  1.00  0.00     0.031 C 
ENDBRANCH  13  14
BRANCH  13  17
ATOM     17  C   UNL A   1      31.319  23.876  24.653  1.00  0.00     0.135 C 
BRANCH  17  18
ATOM     18  C   UNL A   1      31.397  23.900  23.118  1.00  0.00     0.141 C 
BRANCH  18  19
ATOM     19  C   UNL A   1      32.797  23.601  22.608  1.00  0.00     0.064 C 
ATOM     20  N   UNL A   1      33.959  23.353  22.185  1.00  0.00    -0.198 NA
ENDBRANCH  18  19
ENDBRANCH  17  18
ENDBRANCH  13  17
ENDBRANCH  11  13
ENDBRANCH   6  11
ENDBRANCH   4   5
ENDBRANCH   1   3
BRANCH   1  21
ATOM     21  O   UNL A   1      33.870  31.360  27.634  1.00  0.00    -0.459 OA
BRANCH  21  22
ATOM     22  C   UNL A   1      32.624  32.030  27.381  1.00  0.00     0.275 C 
BRANCH  22  23
ATOM     23  C   UNL A   1      32.878  33.522  27.141  1.00  0.00     0.275 C 
BRANCH  23  24
ATOM     24  O   UNL A   1      32.158  34.336  28.089  1.00  0.00    -0.458 OA
BRANCH  24  25
ATOM     25  C   UNL A   1      32.906  35.214  28.795  1.00  0.00     0.338 C 
ATOM     26  O   UNL A   1      32.644  36.386  29.032  1.00  0.00    -0.246 OA
BRANCH  25  27
ATOM     27  C   UNL A   1      34.082  34.529  29.362  1.00  0.00     0.060 A 
ATOM     28  C   UNL A   1      33.928  33.866  30.582  1.00  0.00     0.016 A 
ATOM     29  C   UNL A   1      35.333  34.578  28.745  1.00  0.00     0.016 A 
ATOM     30  C   UNL A   1      35.018  33.248  31.193  1.00  0.00     0.010 A 
ATOM     31  C   UNL A   1      36.429  33.955  29.357  1.00  0.00     0.010 A 
ATOM     32  C   UNL A   1      36.280  33.292  30.587  1.00  0.00    -0.014 A 
BRANCH  32  33
ATOM     33  C   UNL A   1      37.443  32.668  31.265  1.00  0.00     0.031 A 
ATOM     34  C   UNL A   1      38.139  31.494  30.640  1.00  0.00     0.074 A 
ATOM     35  C   UNL A   1      37.886  33.170  32.432  1.00  0.00     0.049 A 
ATOM     36  N   UNL A   1      39.142  30.786  31.096  1.00  0.00    -0.248 NA
ATOM     37  C   UNL A   1      37.639  31.056  29.329  1.00  0.00     0.031 C 
ATOM     38  C   UNL A   1      37.316  34.325  33.124  1.00  0.00     0.029 A 
ATOM     39  N   UNL A   1      38.920  32.768  33.242  1.00  0.00    -0.354 N 
ATOM     40  C   UNL A   1      39.390  29.816  30.134  1.00  0.00     0.074 A 
ATOM     41  C   UNL A   1      38.412  30.008  29.082  1.00  0.00     0.031 C 
ATOM     42  C   UNL A   1      38.008  34.542  34.254  1.00  0.00     0.029 A 
ATOM     43  C   UNL A   1      39.043  33.519  34.385  1.00  0.00     0.049 A 
ATOM     44  H   UNL A   1      39.514  32.015  33.025  1.00  0.00     0.167 HD
ATOM     45  C   UNL A   1      40.348  28.858  30.126  1.00  0.00     0.037 A 
ATOM     46  C   UNL A   1      39.882  33.385  35.430  1.00  0.00     0.037 A 
ATOM     47  C   UNL A   1      41.321  28.671  31.171  1.00  0.00     0.049 A 
ATOM     48  C   UNL A   1      40.897  32.277  35.426  1.00  0.00     0.074 A 
ATOM     49  C   UNL A   1      42.340  27.736  31.245  1.00  0.00     0.029 A 
ATOM     50  N   UNL A   1      41.395  29.432  32.329  1.00  0.00    -0.354 N 
ATOM     51  N   UNL A   1      41.129  31.370  34.507  1.00  0.00    -0.248 NA
ATOM     52  C   UNL A   1      41.768  32.170  36.606  1.00  0.00     0.031 C 
ATOM     53  C   UNL A   1      43.001  27.901  32.467  1.00  0.00     0.029 A 
ATOM     54  C   UNL A   1      42.425  28.972  33.134  1.00  0.00     0.049 A 
ATOM     55  H   UNL A   1      40.802  30.187  32.546  1.00  0.00     0.167 HD
ATOM     56  C   UNL A   1      42.183  30.602  34.986  1.00  0.00     0.074 A 
ATOM     57  C   UNL A   1      42.555  31.157  36.271  1.00  0.00     0.031 C 
ATOM     58  C   UNL A   1      42.786  29.532  34.412  1.00  0.00     0.037 A 
BRANCH  45  59
ATOM     59  C   UNL A   1      40.370  27.918  28.955  1.00  0.00     0.057 A 
ATOM     60  C   UNL A   1      39.650  26.717  28.954  1.00  0.00     0.134 A 
ATOM     61  C   UNL A   1      41.104  28.233  27.804  1.00  0.00     0.134 A 
ATOM     62  F   UNL A   1      38.936  26.351  30.029  1.00  0.00    -0.206 F 
ATOM     63  C   UNL A   1      39.681  25.849  27.861  1.00  0.00     0.040 A 
ATOM     64  C   UNL A   1      41.123  27.384  26.695  1.00  0.00     0.040 A 
ATOM     65  F   UNL A   1      41.810  29.371  27.735  1.00  0.00    -0.206 F 
ATOM     66  C   UNL A   1      40.416  26.184  26.725  1.00  0.00     0.006 A 
ENDBRANCH  45  59
BRANCH  46  67
ATOM     67  C   UNL A   1      39.784  34.320  36.579  1.00  0.00     0.057 A 
ATOM     68  C   UNL A   1      39.003  34.017  37.699  1.00  0.00     0.134 A 
ATOM     69  C   UNL A   1      40.469  35.543  36.580  1.00  0.00     0.134 A 
ATOM     70  F   UNL A   1      38.304  32.873  37.745  1.00  0.00    -0.206 F 
ATOM     71  C   UNL A   1      38.900  34.898  38.777  1.00  0.00     0.040 A 
ATOM     72  C   UNL A   1      40.394  36.421  37.662  1.00  0.00     0.040 A 
ATOM     73  F   UNL A   1      41.232  35.892  35.535  1.00  0.00    -0.206 F 
ATOM     74  C   UNL A   1      39.603  36.101  38.763  1.00  0.00     0.006 A 
ENDBRANCH  46  67
BRANCH  58  75
ATOM     75  C   UNL A   1      43.930  28.908  35.157  1.00  0.00     0.057 A 
ATOM     76  C   UNL A   1      43.732  27.881  36.088  1.00  0.00     0.134 A 
ATOM     77  C   UNL A   1      45.247  29.315  34.913  1.00  0.00     0.134 A 
ATOM     78  F   UNL A   1      42.493  27.453  36.377  1.00  0.00    -0.206 F 
ATOM     79  C   UNL A   1      44.802  27.296  36.766  1.00  0.00     0.040 A 
ATOM     80  C   UNL A   1      46.328  28.722  35.567  1.00  0.00     0.040 A 
ATOM     81  F   UNL A   1      45.507  30.289  34.027  1.00  0.00    -0.206 F 
ATOM     82  C   UNL A   1      46.106  27.713  36.501  1.00  0.00     0.006 A 
ENDBRANCH  58  75
ENDBRANCH  32  33
ENDBRANCH  25  27
ENDBRANCH  24  25
ENDBRANCH  23  24
ENDBRANCH  22  23
ENDBRANCH  21  22
ENDBRANCH   1  21
TORSDOF 18
ENDMDL
