MODEL 1
REMARK VINA RESULT:     -12.9      0.000      0.000
REMARK SMILES O=C(OCCOC(=O)c1cc(S(=O)(=O)ON2C(=O)c3cccc4cccc(c34)C2=O)ccc1Br)c1ccc(-c2c3nc(c(-c4c(F)cccc4F)c4ccc([nH]4)c(-c4c(F)cccc4F)c4nc(c(-c5c(F)cccc5F)c5ccc2[nH]5)C=C4)C=C3)cc1
REMARK SMILES IDX 5 1 4 2 3 3 2 4 1 5 35 6 36 7 88 8 37 9 87 10 38 11 39 12
REMARK SMILES IDX 40 13 81 14 41 15 86 16 80 17 82 18 42 19 85 20 79 21 78 22
REMARK SMILES IDX 43 24 69 25 52 26 68 27 53 28 56 29 67 30 83 31 54 32 55 33
REMARK SMILES IDX 66 35 84 36 57 37 44 38 45 39 50 40 46 41 47 42 49 43 51 44
REMARK SMILES IDX 48 45 70 46 71 47 76 48 72 49 73 50 75 51 77 52 74 53 58 54
REMARK SMILES IDX 59 55 64 56 60 57 61 58 63 59 65 60 62 61 6 62 7 63 8 64
REMARK SMILES IDX 9 65 10 66 33 67 11 68 32 69 34 70 31 71 12 72 13 73 14 74
REMARK SMILES IDX 15 75 16 76 17 77 29 78 18 79 19 80 27 81 30 82 20 83 28 84
REMARK SMILES IDX 26 85 21 86 23 87 25 88 22 89 24 90
REMARK H PARENT 82 23 56 34
REMARK Flexibility Score: inf
ROOT
ATOM      1  C   UNL A   1      31.050  31.925  26.497  1.00  0.00     0.275 C 
ENDROOT
BRANCH   1   2
ATOM      2  C   UNL A   1      32.347  32.622  26.913  1.00  0.00     0.275 C 
BRANCH   2   3
ATOM      3  O   UNL A   1      32.159  33.851  27.630  1.00  0.00    -0.458 OA
BRANCH   3   4
ATOM      4  C   UNL A   1      32.990  34.497  28.478  1.00  0.00     0.338 C 
ATOM      5  O   UNL A   1      32.744  35.670  28.758  1.00  0.00    -0.246 OA
BRANCH   4   6
ATOM      6  C   UNL A   1      34.265  33.913  29.005  1.00  0.00     0.060 A 
ATOM      7  C   UNL A   1      35.564  34.272  28.642  1.00  0.00     0.016 A 
ATOM      8  C   UNL A   1      34.118  32.897  29.962  1.00  0.00     0.016 A 
ATOM      9  C   UNL A   1      36.678  33.704  29.269  1.00  0.00     0.010 A 
ATOM     10  C   UNL A   1      35.223  32.337  30.608  1.00  0.00     0.010 A 
ATOM     11  C   UNL A   1      36.515  32.736  30.256  1.00  0.00    -0.014 A 
BRANCH  11  12
ATOM     12  C   UNL A   1      37.690  32.006  30.774  1.00  0.00     0.031 A 
ATOM     13  C   UNL A   1      38.185  32.357  32.143  1.00  0.00     0.074 A 
ATOM     14  C   UNL A   1      38.270  31.025  30.061  1.00  0.00     0.049 A 
ATOM     15  N   UNL A   1      39.154  31.819  32.834  1.00  0.00    -0.248 NA
ATOM     16  C   UNL A   1      37.478  33.446  32.837  1.00  0.00     0.031 C 
ATOM     17  C   UNL A   1      37.812  30.552  28.759  1.00  0.00     0.029 A 
ATOM     18  N   UNL A   1      39.369  30.250  30.324  1.00  0.00    -0.354 N 
ATOM     19  C   UNL A   1      39.147  32.482  34.052  1.00  0.00     0.074 A 
ATOM     20  C   UNL A   1      38.141  33.515  33.977  1.00  0.00     0.031 C 
ATOM     21  C   UNL A   1      38.649  29.603  28.308  1.00  0.00     0.029 A 
ATOM     22  C   UNL A   1      39.693  29.390  29.303  1.00  0.00     0.049 A 
ATOM     23  H   UNL A   1      39.877  30.305  31.165  1.00  0.00     0.167 HD
ATOM     24  C   UNL A   1      39.886  32.219  35.154  1.00  0.00     0.037 A 
ATOM     25  C   UNL A   1      40.715  28.519  29.197  1.00  0.00     0.037 A 
ATOM     26  C   UNL A   1      40.902  31.206  35.201  1.00  0.00     0.049 A 
ATOM     27  C   UNL A   1      41.620  28.339  30.384  1.00  0.00     0.074 A 
ATOM     28  C   UNL A   1      41.724  30.852  36.253  1.00  0.00     0.029 A 
ATOM     29  N   UNL A   1      41.244  30.394  34.128  1.00  0.00    -0.354 N 
ATOM     30  N   UNL A   1      41.571  28.931  31.554  1.00  0.00    -0.248 NA
ATOM     31  C   UNL A   1      42.692  27.346  30.256  1.00  0.00     0.031 C 
ATOM     32  C   UNL A   1      42.602  29.860  35.799  1.00  0.00     0.029 A 
ATOM     33  C   UNL A   1      42.288  29.557  34.481  1.00  0.00     0.049 A 
ATOM     34  H   UNL A   1      40.808  30.410  33.245  1.00  0.00     0.167 HD
ATOM     35  C   UNL A   1      42.563  28.341  32.323  1.00  0.00     0.074 A 
ATOM     36  C   UNL A   1      43.207  27.353  31.478  1.00  0.00     0.031 C 
ATOM     37  C   UNL A   1      42.898  28.576  33.616  1.00  0.00     0.037 A 
BRANCH  24  38
ATOM     38  C   UNL A   1      39.617  33.078  36.353  1.00  0.00     0.057 A 
ATOM     39  C   UNL A   1      38.638  32.739  37.300  1.00  0.00     0.134 A 
ATOM     40  C   UNL A   1      40.279  34.299  36.519  1.00  0.00     0.134 A 
ATOM     41  F   UNL A   1      37.946  31.596  37.182  1.00  0.00    -0.206 F 
ATOM     42  C   UNL A   1      38.293  33.608  38.336  1.00  0.00     0.040 A 
ATOM     43  C   UNL A   1      39.962  35.163  37.569  1.00  0.00     0.040 A 
ATOM     44  F   UNL A   1      41.222  34.687  35.647  1.00  0.00    -0.206 F 
ATOM     45  C   UNL A   1      38.956  34.825  38.472  1.00  0.00     0.006 A 
ENDBRANCH  24  38
BRANCH  25  46
ATOM     46  C   UNL A   1      40.897  27.725  27.955  1.00  0.00     0.057 A 
ATOM     47  C   UNL A   1      41.668  28.205  26.889  1.00  0.00     0.134 A 
ATOM     48  C   UNL A   1      40.304  26.466  27.802  1.00  0.00     0.134 A 
ATOM     49  F   UNL A   1      42.254  29.408  26.969  1.00  0.00    -0.206 F 
ATOM     50  C   UNL A   1      41.826  27.472  25.710  1.00  0.00     0.040 A 
ATOM     51  C   UNL A   1      40.467  25.714  26.635  1.00  0.00     0.040 A 
ATOM     52  F   UNL A   1      39.562  25.942  28.790  1.00  0.00    -0.206 F 
ATOM     53  C   UNL A   1      41.226  26.221  25.582  1.00  0.00     0.006 A 
ENDBRANCH  25  46
BRANCH  37  54
ATOM     54  C   UNL A   1      43.970  27.711  34.209  1.00  0.00     0.057 A 
ATOM     55  C   UNL A   1      43.691  26.455  34.760  1.00  0.00     0.134 A 
ATOM     56  C   UNL A   1      45.307  28.127  34.179  1.00  0.00     0.134 A 
ATOM     57  F   UNL A   1      42.429  26.007  34.830  1.00  0.00    -0.206 F 
ATOM     58  C   UNL A   1      44.706  25.651  35.281  1.00  0.00     0.040 A 
ATOM     59  C   UNL A   1      46.332  27.319  34.669  1.00  0.00     0.040 A 
ATOM     60  F   UNL A   1      45.639  29.318  33.656  1.00  0.00    -0.206 F 
ATOM     61  C   UNL A   1      46.032  26.079  35.227  1.00  0.00     0.006 A 
ENDBRANCH  37  54
ENDBRANCH  11  12
ENDBRANCH   4   6
ENDBRANCH   3   4
ENDBRANCH   2   3
ENDBRANCH   1   2
BRANCH   1  62
ATOM     62  O   UNL A   1      31.250  30.712  25.749  1.00  0.00    -0.458 OA
BRANCH  62  63
ATOM     63  C   UNL A   1      31.671  29.638  26.466  1.00  0.00     0.339 C 
ATOM     64  O   UNL A   1      31.389  29.379  27.625  1.00  0.00    -0.246 OA
BRANCH  63  65
ATOM     65  C   UNL A   1      32.440  28.710  25.607  1.00  0.00     0.075 A 
ATOM     66  C   UNL A   1      31.730  28.025  24.613  1.00  0.00     0.039 A 
ATOM     67  C   UNL A   1      33.806  28.465  25.758  1.00  0.00     0.032 A 
ATOM     68  C   UNL A   1      32.397  27.164  23.721  1.00  0.00     0.097 A 
ATOM     69  C   UNL A   1      34.460  27.584  24.874  1.00  0.00     0.018 A 
ATOM     70  Br  UNL A   1      34.834  29.239  27.155  1.00  0.00    -0.050 Br
ATOM     71  C   UNL A   1      33.766  26.948  23.835  1.00  0.00     0.024 A 
BRANCH  68  72
ATOM     72  S   UNL A   1      31.394  26.414  22.445  1.00  0.00     0.318 S 
ATOM     73  O   UNL A   1      30.133  27.122  22.546  1.00  0.00    -0.192 OA
ATOM     74  O   UNL A   1      32.249  26.442  21.276  1.00  0.00    -0.192 OA
BRANCH  72  75
ATOM     75  O   UNL A   1      31.141  24.851  22.847  1.00  0.00    -0.134 OA
BRANCH  75  76
ATOM     76  N   UNL A   1      32.136  24.168  23.620  1.00  0.00    -0.127 N 
ATOM     77  C   UNL A   1      33.315  23.684  23.080  1.00  0.00     0.286 C 
ATOM     78  C   UNL A   1      31.713  24.012  24.941  1.00  0.00     0.286 C 
ATOM     79  O   UNL A   1      33.669  23.721  21.909  1.00  0.00    -0.266 OA
ATOM     80  C   UNL A   1      34.243  23.015  24.017  1.00  0.00     0.051 A 
ATOM     81  C   UNL A   1      32.631  23.253  25.835  1.00  0.00     0.051 A 
ATOM     82  O   UNL A   1      30.650  24.438  25.388  1.00  0.00    -0.266 OA
ATOM     83  C   UNL A   1      35.488  22.573  23.544  1.00  0.00     0.014 A 
ATOM     84  C   UNL A   1      33.859  22.795  25.341  1.00  0.00     0.007 A 
ATOM     85  C   UNL A   1      32.266  22.995  27.164  1.00  0.00     0.014 A 
ATOM     86  C   UNL A   1      36.354  21.887  24.388  1.00  0.00     0.001 A 
ATOM     87  C   UNL A   1      34.737  22.081  26.195  1.00  0.00    -0.017 A 
ATOM     88  C   UNL A   1      33.124  22.277  27.998  1.00  0.00     0.001 A 
ATOM     89  C   UNL A   1      35.977  21.635  25.704  1.00  0.00     0.009 A 
ATOM     90  C   UNL A   1      34.352  21.825  27.518  1.00  0.00     0.009 A 
ENDBRANCH  75  76
ENDBRANCH  72  75
ENDBRANCH  68  72
ENDBRANCH  63  65
ENDBRANCH  62  63
ENDBRANCH   1  62
TORSDOF 14
ENDMDL
MODEL 2
REMARK VINA RESULT:     -12.7      4.558      9.757
REMARK SMILES O=C(OCCOC(=O)c1cc(S(=O)(=O)ON2C(=O)c3cccc4cccc(c34)C2=O)ccc1Br)c1ccc(-c2c3nc(c(-c4c(F)cccc4F)c4ccc([nH]4)c(-c4c(F)cccc4F)c4nc(c(-c5c(F)cccc5F)c5ccc2[nH]5)C=C4)C=C3)cc1
REMARK SMILES IDX 5 1 4 2 3 3 2 4 1 5 35 6 36 7 88 8 37 9 87 10 38 11 39 12
REMARK SMILES IDX 40 13 81 14 41 15 86 16 80 17 82 18 42 19 85 20 79 21 78 22
REMARK SMILES IDX 43 24 69 25 52 26 68 27 53 28 56 29 67 30 83 31 54 32 55 33
REMARK SMILES IDX 66 35 84 36 57 37 44 38 45 39 50 40 46 41 47 42 49 43 51 44
REMARK SMILES IDX 48 45 70 46 71 47 76 48 72 49 73 50 75 51 77 52 74 53 58 54
REMARK SMILES IDX 59 55 64 56 60 57 61 58 63 59 65 60 62 61 6 62 7 63 8 64
REMARK SMILES IDX 9 65 10 66 33 67 11 68 32 69 34 70 31 71 12 72 13 73 14 74
REMARK SMILES IDX 15 75 16 76 17 77 29 78 18 79 19 80 27 81 30 82 20 83 28 84
REMARK SMILES IDX 26 85 21 86 23 87 25 88 22 89 24 90
REMARK H PARENT 82 23 56 34
REMARK Flexibility Score: inf
ROOT
ATOM      1  C   UNL A   1      37.753  20.924  25.347  1.00  0.00     0.275 C 
ENDROOT
BRANCH   1   2
ATOM      2  C   UNL A   1      38.368  19.577  24.961  1.00  0.00     0.275 C 
BRANCH   2   3
ATOM      3  O   UNL A   1      39.359  19.091  25.879  1.00  0.00    -0.458 OA
BRANCH   3   4
ATOM      4  C   UNL A   1      40.660  19.434  26.015  1.00  0.00     0.338 C 
ATOM      5  O   UNL A   1      41.517  18.590  25.756  1.00  0.00    -0.246 OA
BRANCH   4   6
ATOM      6  C   UNL A   1      41.124  20.740  26.581  1.00  0.00     0.060 A 
ATOM      7  C   UNL A   1      41.118  21.121  27.924  1.00  0.00     0.016 A 
ATOM      8  C   UNL A   1      41.611  21.669  25.647  1.00  0.00     0.016 A 
ATOM      9  C   UNL A   1      41.656  22.345  28.335  1.00  0.00     0.010 A 
ATOM     10  C   UNL A   1      42.167  22.886  26.050  1.00  0.00     0.010 A 
ATOM     11  C   UNL A   1      42.186  23.233  27.403  1.00  0.00    -0.014 A 
BRANCH  11  12
ATOM     12  C   UNL A   1      42.574  24.596  27.820  1.00  0.00     0.031 A 
ATOM     13  C   UNL A   1      44.033  24.932  27.846  1.00  0.00     0.074 A 
ATOM     14  C   UNL A   1      41.647  25.522  28.121  1.00  0.00     0.049 A 
ATOM     15  N   UNL A   1      44.613  26.070  28.116  1.00  0.00    -0.248 NA
ATOM     16  C   UNL A   1      44.962  23.844  27.497  1.00  0.00     0.031 C 
ATOM     17  C   UNL A   1      40.204  25.319  28.045  1.00  0.00     0.029 A 
ATOM     18  N   UNL A   1      41.775  26.815  28.555  1.00  0.00    -0.354 N 
ATOM     19  C   UNL A   1      45.969  25.841  27.936  1.00  0.00     0.074 A 
ATOM     20  C   UNL A   1      46.134  24.441  27.620  1.00  0.00     0.031 C 
ATOM     21  C   UNL A   1      39.574  26.429  28.467  1.00  0.00     0.029 A 
ATOM     22  C   UNL A   1      40.575  27.427  28.826  1.00  0.00     0.049 A 
ATOM     23  H   UNL A   1      42.645  27.263  28.663  1.00  0.00     0.167 HD
ATOM     24  C   UNL A   1      46.985  26.732  27.986  1.00  0.00     0.037 A 
ATOM     25  C   UNL A   1      40.320  28.661  29.297  1.00  0.00     0.037 A 
ATOM     26  C   UNL A   1      46.806  28.115  28.330  1.00  0.00     0.049 A 
ATOM     27  C   UNL A   1      41.477  29.603  29.485  1.00  0.00     0.074 A 
ATOM     28  C   UNL A   1      47.755  29.114  28.425  1.00  0.00     0.029 A 
ATOM     29  N   UNL A   1      45.582  28.686  28.656  1.00  0.00    -0.354 N 
ATOM     30  N   UNL A   1      42.752  29.394  29.258  1.00  0.00    -0.248 NA
ATOM     31  C   UNL A   1      41.162  30.958  29.951  1.00  0.00     0.031 C 
ATOM     32  C   UNL A   1      47.112  30.279  28.862  1.00  0.00     0.029 A 
ATOM     33  C   UNL A   1      45.754  30.019  28.983  1.00  0.00     0.049 A 
ATOM     34  H   UNL A   1      44.719  28.212  28.654  1.00  0.00     0.167 HD
ATOM     35  C   UNL A   1      43.386  30.606  29.493  1.00  0.00     0.074 A 
ATOM     36  C   UNL A   1      42.352  31.540  29.895  1.00  0.00     0.031 C 
ATOM     37  C   UNL A   1      44.699  30.925  29.368  1.00  0.00     0.037 A 
BRANCH  24  38
ATOM     38  C   UNL A   1      48.354  26.197  27.691  1.00  0.00     0.057 A 
ATOM     39  C   UNL A   1      49.146  25.606  28.688  1.00  0.00     0.134 A 
ATOM     40  C   UNL A   1      48.922  26.349  26.422  1.00  0.00     0.134 A 
ATOM     41  F   UNL A   1      48.671  25.457  29.934  1.00  0.00    -0.206 F 
ATOM     42  C   UNL A   1      50.470  25.237  28.445  1.00  0.00     0.040 A 
ATOM     43  C   UNL A   1      50.236  25.957  26.160  1.00  0.00     0.040 A 
ATOM     44  F   UNL A   1      48.221  26.911  25.425  1.00  0.00    -0.206 F 
ATOM     45  C   UNL A   1      51.018  25.413  27.177  1.00  0.00     0.006 A 
ENDBRANCH  24  38
BRANCH  25  46
ATOM     46  C   UNL A   1      38.922  29.087  29.569  1.00  0.00     0.057 A 
ATOM     47  C   UNL A   1      38.368  28.994  30.850  1.00  0.00     0.134 A 
ATOM     48  C   UNL A   1      38.106  29.596  28.551  1.00  0.00     0.134 A 
ATOM     49  F   UNL A   1      39.094  28.506  31.865  1.00  0.00    -0.206 F 
ATOM     50  C   UNL A   1      37.048  29.373  31.107  1.00  0.00     0.040 A 
ATOM     51  C   UNL A   1      36.789  29.995  28.796  1.00  0.00     0.040 A 
ATOM     52  F   UNL A   1      38.580  29.723  27.302  1.00  0.00    -0.206 F 
ATOM     53  C   UNL A   1      36.255  29.878  30.078  1.00  0.00     0.006 A 
ENDBRANCH  25  46
BRANCH  37  54
ATOM     54  C   UNL A   1      45.077  32.355  29.612  1.00  0.00     0.057 A 
ATOM     55  C   UNL A   1      44.981  33.330  28.612  1.00  0.00     0.134 A 
ATOM     56  C   UNL A   1      45.496  32.766  30.884  1.00  0.00     0.134 A 
ATOM     57  F   UNL A   1      44.599  32.997  27.370  1.00  0.00    -0.206 F 
ATOM     58  C   UNL A   1      45.310  34.663  28.865  1.00  0.00     0.040 A 
ATOM     59  C   UNL A   1      45.797  34.099  31.157  1.00  0.00     0.040 A 
ATOM     60  F   UNL A   1      45.600  31.879  31.886  1.00  0.00    -0.206 F 
ATOM     61  C   UNL A   1      45.710  35.051  30.144  1.00  0.00     0.006 A 
ENDBRANCH  37  54
ENDBRANCH  11  12
ENDBRANCH   4   6
ENDBRANCH   3   4
ENDBRANCH   2   3
ENDBRANCH   1   2
BRANCH   1  62
ATOM     62  O   UNL A   1      36.563  21.257  24.611  1.00  0.00    -0.458 OA
BRANCH  62  63
ATOM     63  C   UNL A   1      35.438  21.434  25.353  1.00  0.00     0.339 C 
ATOM     64  O   UNL A   1      35.363  21.450  26.570  1.00  0.00    -0.246 OA
BRANCH  63  65
ATOM     65  C   UNL A   1      34.284  21.743  24.480  1.00  0.00     0.075 A 
ATOM     66  C   UNL A   1      34.170  23.061  24.017  1.00  0.00     0.039 A 
ATOM     67  C   UNL A   1      33.304  20.813  24.129  1.00  0.00     0.032 A 
ATOM     68  C   UNL A   1      33.130  23.425  23.141  1.00  0.00     0.097 A 
ATOM     69  C   UNL A   1      32.255  21.193  23.269  1.00  0.00     0.018 A 
ATOM     70  Br  UNL A   1      33.292  19.039  24.807  1.00  0.00    -0.050 Br
ATOM     71  C   UNL A   1      32.175  22.493  22.749  1.00  0.00     0.024 A 
BRANCH  68  72
ATOM     72  S   UNL A   1      33.142  25.114  22.556  1.00  0.00     0.318 S 
ATOM     73  O   UNL A   1      34.554  25.416  22.421  1.00  0.00    -0.192 OA
ATOM     74  O   UNL A   1      32.207  25.100  21.449  1.00  0.00    -0.192 OA
BRANCH  72  75
ATOM     75  O   UNL A   1      32.521  26.065  23.728  1.00  0.00    -0.134 OA
BRANCH  75  76
ATOM     76  N   UNL A   1      31.383  26.881  23.423  1.00  0.00    -0.127 N 
ATOM     77  C   UNL A   1      31.480  28.116  22.805  1.00  0.00     0.286 C 
ATOM     78  C   UNL A   1      30.210  26.290  23.894  1.00  0.00     0.286 C 
ATOM     79  O   UNL A   1      32.500  28.703  22.468  1.00  0.00    -0.266 OA
ATOM     80  C   UNL A   1      30.209  28.826  22.548  1.00  0.00     0.051 A 
ATOM     81  C   UNL A   1      28.959  27.074  23.700  1.00  0.00     0.051 A 
ATOM     82  O   UNL A   1      30.157  25.198  24.457  1.00  0.00    -0.266 OA
ATOM     83  C   UNL A   1      30.237  30.046  21.853  1.00  0.00     0.014 A 
ATOM     84  C   UNL A   1      29.007  28.303  23.029  1.00  0.00     0.007 A 
ATOM     85  C   UNL A   1      27.739  26.588  24.191  1.00  0.00     0.014 A 
ATOM     86  C   UNL A   1      29.064  30.764  21.652  1.00  0.00     0.001 A 
ATOM     87  C   UNL A   1      27.815  29.045  22.836  1.00  0.00    -0.017 A 
ATOM     88  C   UNL A   1      26.569  27.328  24.016  1.00  0.00     0.001 A 
ATOM     89  C   UNL A   1      27.861  30.270  22.149  1.00  0.00     0.009 A 
ATOM     90  C   UNL A   1      26.607  28.547  23.342  1.00  0.00     0.009 A 
ENDBRANCH  75  76
ENDBRANCH  72  75
ENDBRANCH  68  72
ENDBRANCH  63  65
ENDBRANCH  62  63
ENDBRANCH   1  62
TORSDOF 14
ENDMDL
MODEL 3
REMARK VINA RESULT:     -12.6      4.307      9.593
REMARK SMILES O=C(OCCOC(=O)c1cc(S(=O)(=O)ON2C(=O)c3cccc4cccc(c34)C2=O)ccc1Br)c1ccc(-c2c3nc(c(-c4c(F)cccc4F)c4ccc([nH]4)c(-c4c(F)cccc4F)c4nc(c(-c5c(F)cccc5F)c5ccc2[nH]5)C=C4)C=C3)cc1
REMARK SMILES IDX 5 1 4 2 3 3 2 4 1 5 35 6 36 7 88 8 37 9 87 10 38 11 39 12
REMARK SMILES IDX 40 13 81 14 41 15 86 16 80 17 82 18 42 19 85 20 79 21 78 22
REMARK SMILES IDX 43 24 69 25 52 26 68 27 53 28 56 29 67 30 83 31 54 32 55 33
REMARK SMILES IDX 66 35 84 36 57 37 44 38 45 39 50 40 46 41 47 42 49 43 51 44
REMARK SMILES IDX 48 45 70 46 71 47 76 48 72 49 73 50 75 51 77 52 74 53 58 54
REMARK SMILES IDX 59 55 64 56 60 57 61 58 63 59 65 60 62 61 6 62 7 63 8 64
REMARK SMILES IDX 9 65 10 66 33 67 11 68 32 69 34 70 31 71 12 72 13 73 14 74
REMARK SMILES IDX 15 75 16 76 17 77 29 78 18 79 19 80 27 81 30 82 20 83 28 84
REMARK SMILES IDX 26 85 21 86 23 87 25 88 22 89 24 90
REMARK H PARENT 82 23 56 34
REMARK Flexibility Score: inf
ROOT
ATOM      1  C   UNL A   1      37.304  20.511  24.929  1.00  0.00     0.275 C 
ENDROOT
BRANCH   1   2
ATOM      2  C   UNL A   1      38.347  19.401  25.071  1.00  0.00     0.275 C 
BRANCH   2   3
ATOM      3  O   UNL A   1      39.250  19.571  26.175  1.00  0.00    -0.458 OA
BRANCH   3   4
ATOM      4  C   UNL A   1      40.543  19.966  26.185  1.00  0.00     0.338 C 
ATOM      5  O   UNL A   1      41.407  19.147  25.874  1.00  0.00    -0.246 OA
BRANCH   4   6
ATOM      6  C   UNL A   1      41.003  21.305  26.674  1.00  0.00     0.060 A 
ATOM      7  C   UNL A   1      41.106  21.722  28.002  1.00  0.00     0.016 A 
ATOM      8  C   UNL A   1      41.362  22.225  25.677  1.00  0.00     0.016 A 
ATOM      9  C   UNL A   1      41.629  22.977  28.332  1.00  0.00     0.010 A 
ATOM     10  C   UNL A   1      41.902  23.474  25.996  1.00  0.00     0.010 A 
ATOM     11  C   UNL A   1      42.032  23.859  27.333  1.00  0.00    -0.014 A 
BRANCH  11  12
ATOM     12  C   UNL A   1      42.400  25.247  27.679  1.00  0.00     0.031 A 
ATOM     13  C   UNL A   1      43.784  25.709  27.342  1.00  0.00     0.074 A 
ATOM     14  C   UNL A   1      41.508  26.085  28.235  1.00  0.00     0.049 A 
ATOM     15  N   UNL A   1      44.318  26.891  27.490  1.00  0.00    -0.248 NA
ATOM     16  C   UNL A   1      44.679  24.710  26.734  1.00  0.00     0.031 C 
ATOM     17  C   UNL A   1      40.115  25.758  28.522  1.00  0.00     0.029 A 
ATOM     18  N   UNL A   1      41.636  27.381  28.661  1.00  0.00    -0.354 N 
ATOM     19  C   UNL A   1      45.597  26.784  26.963  1.00  0.00     0.074 A 
ATOM     20  C   UNL A   1      45.790  25.406  26.573  1.00  0.00     0.031 C 
ATOM     21  C   UNL A   1      39.526  26.804  29.125  1.00  0.00     0.029 A 
ATOM     22  C   UNL A   1      40.499  27.883  29.247  1.00  0.00     0.049 A 
ATOM     23  H   UNL A   1      42.464  27.903  28.557  1.00  0.00     0.167 HD
ATOM     24  C   UNL A   1      46.514  27.761  26.780  1.00  0.00     0.037 A 
ATOM     25  C   UNL A   1      40.273  29.086  29.806  1.00  0.00     0.037 A 
ATOM     26  C   UNL A   1      46.315  29.119  27.200  1.00  0.00     0.049 A 
ATOM     27  C   UNL A   1      41.358  30.124  29.721  1.00  0.00     0.074 A 
ATOM     28  C   UNL A   1      47.172  30.197  27.081  1.00  0.00     0.029 A 
ATOM     29  N   UNL A   1      45.174  29.578  27.845  1.00  0.00    -0.354 N 
ATOM     30  N   UNL A   1      42.545  30.030  29.171  1.00  0.00    -0.248 NA
ATOM     31  C   UNL A   1      41.062  31.442  30.294  1.00  0.00     0.031 C 
ATOM     32  C   UNL A   1      46.568  31.297  27.703  1.00  0.00     0.029 A 
ATOM     33  C   UNL A   1      45.313  30.918  28.159  1.00  0.00     0.049 A 
ATOM     34  H   UNL A   1      44.381  29.030  28.049  1.00  0.00     0.167 HD
ATOM     35  C   UNL A   1      43.115  31.290  29.273  1.00  0.00     0.074 A 
ATOM     36  C   UNL A   1      42.145  32.127  29.954  1.00  0.00     0.031 C 
ATOM     37  C   UNL A   1      44.321  31.724  28.827  1.00  0.00     0.037 A 
BRANCH  24  38
ATOM     38  C   UNL A   1      47.800  27.350  26.129  1.00  0.00     0.057 A 
ATOM     39  C   UNL A   1      47.959  27.358  24.735  1.00  0.00     0.134 A 
ATOM     40  C   UNL A   1      48.862  26.857  26.896  1.00  0.00     0.134 A 
ATOM     41  F   UNL A   1      46.967  27.791  23.941  1.00  0.00    -0.206 F 
ATOM     42  C   UNL A   1      49.105  26.844  24.127  1.00  0.00     0.040 A 
ATOM     43  C   UNL A   1      50.025  26.366  26.300  1.00  0.00     0.040 A 
ATOM     44  F   UNL A   1      48.775  26.816  28.234  1.00  0.00    -0.206 F 
ATOM     45  C   UNL A   1      50.142  26.345  24.911  1.00  0.00     0.006 A 
ENDBRANCH  24  38
BRANCH  25  46
ATOM     46  C   UNL A   1      38.962  29.385  30.438  1.00  0.00     0.057 A 
ATOM     47  C   UNL A   1      37.925  29.988  29.716  1.00  0.00     0.134 A 
ATOM     48  C   UNL A   1      38.713  29.075  31.781  1.00  0.00     0.134 A 
ATOM     49  F   UNL A   1      38.103  30.318  28.429  1.00  0.00    -0.206 F 
ATOM     50  C   UNL A   1      36.697  30.290  30.309  1.00  0.00     0.040 A 
ATOM     51  C   UNL A   1      37.484  29.356  32.384  1.00  0.00     0.040 A 
ATOM     52  F   UNL A   1      39.660  28.485  32.526  1.00  0.00    -0.206 F 
ATOM     53  C   UNL A   1      36.474  29.972  31.647  1.00  0.00     0.006 A 
ENDBRANCH  25  46
BRANCH  37  54
ATOM     54  C   UNL A   1      44.629  33.180  29.010  1.00  0.00     0.057 A 
ATOM     55  C   UNL A   1      45.230  33.672  30.175  1.00  0.00     0.134 A 
ATOM     56  C   UNL A   1      44.365  34.091  27.979  1.00  0.00     0.134 A 
ATOM     57  F   UNL A   1      45.495  32.853  31.203  1.00  0.00    -0.206 F 
ATOM     58  C   UNL A   1      45.537  35.026  30.316  1.00  0.00     0.040 A 
ATOM     59  C   UNL A   1      44.696  35.440  28.096  1.00  0.00     0.040 A 
ATOM     60  F   UNL A   1      43.798  33.678  26.834  1.00  0.00    -0.206 F 
ATOM     61  C   UNL A   1      45.278  35.912  29.269  1.00  0.00     0.006 A 
ENDBRANCH  37  54
ENDBRANCH  11  12
ENDBRANCH   4   6
ENDBRANCH   3   4
ENDBRANCH   2   3
ENDBRANCH   1   2
BRANCH   1  62
ATOM     62  O   UNL A   1      37.782  21.681  24.241  1.00  0.00    -0.458 OA
BRANCH  62  63
ATOM     63  C   UNL A   1      36.825  22.496  23.726  1.00  0.00     0.339 C 
ATOM     64  O   UNL A   1      36.753  22.899  22.577  1.00  0.00    -0.246 OA
BRANCH  63  65
ATOM     65  C   UNL A   1      35.766  22.750  24.727  1.00  0.00     0.075 A 
ATOM     66  C   UNL A   1      34.458  22.390  24.376  1.00  0.00     0.039 A 
ATOM     67  C   UNL A   1      35.996  23.349  25.967  1.00  0.00     0.032 A 
ATOM     68  C   UNL A   1      33.401  22.550  25.291  1.00  0.00     0.097 A 
ATOM     69  C   UNL A   1      34.926  23.525  26.867  1.00  0.00     0.018 A 
ATOM     70  Br  UNL A   1      37.705  23.993  26.487  1.00  0.00    -0.050 Br
ATOM     71  C   UNL A   1      33.628  23.104  26.546  1.00  0.00     0.024 A 
BRANCH  68  72
ATOM     72  S   UNL A   1      31.795  21.976  24.754  1.00  0.00     0.318 S 
ATOM     73  O   UNL A   1      32.109  20.997  23.732  1.00  0.00    -0.192 OA
ATOM     74  O   UNL A   1      31.111  21.665  25.993  1.00  0.00    -0.192 OA
BRANCH  72  75
ATOM     75  O   UNL A   1      31.015  23.226  24.049  1.00  0.00    -0.134 OA
BRANCH  75  76
ATOM     76  N   UNL A   1      31.484  24.558  24.294  1.00  0.00    -0.127 N 
ATOM     77  C   UNL A   1      31.148  25.283  25.425  1.00  0.00     0.286 C 
ATOM     78  C   UNL A   1      32.246  25.019  23.220  1.00  0.00     0.286 C 
ATOM     79  O   UNL A   1      30.405  24.942  26.336  1.00  0.00    -0.266 OA
ATOM     80  C   UNL A   1      31.726  26.640  25.534  1.00  0.00     0.051 A 
ATOM     81  C   UNL A   1      32.736  26.422  23.322  1.00  0.00     0.051 A 
ATOM     82  O   UNL A   1      32.513  24.357  22.220  1.00  0.00    -0.266 OA
ATOM     83  C   UNL A   1      31.486  27.393  26.694  1.00  0.00     0.014 A 
ATOM     84  C   UNL A   1      32.465  27.170  24.475  1.00  0.00     0.007 A 
ATOM     85  C   UNL A   1      33.462  26.992  22.267  1.00  0.00     0.014 A 
ATOM     86  C   UNL A   1      31.967  28.693  26.796  1.00  0.00     0.001 A 
ATOM     87  C   UNL A   1      32.940  28.502  24.575  1.00  0.00    -0.017 A 
ATOM     88  C   UNL A   1      33.913  28.309  22.360  1.00  0.00     0.001 A 
ATOM     89  C   UNL A   1      32.682  29.247  25.739  1.00  0.00     0.009 A 
ATOM     90  C   UNL A   1      33.656  29.058  23.507  1.00  0.00     0.009 A 
ENDBRANCH  75  76
ENDBRANCH  72  75
ENDBRANCH  68  72
ENDBRANCH  63  65
ENDBRANCH  62  63
ENDBRANCH   1  62
TORSDOF 14
ENDMDL
