MODEL 1
REMARK VINA RESULT:      -9.5      0.000      0.000
REMARK SMILES C[C@@H](C(=O)OCCOC(=O)c1ccc(-c2c3nc(c(-c4c(F)cccc4F)c4ccc([nH]4)c(-c4c(F)cccc4F)c4nc(c(-c5c(F)cccc5F)c5ccc2[nH]5)C=C4)C=C3)cc1)c1cccn(C(F)F)c1=O
REMARK SMILES IDX 6 1 5 2 3 3 4 4 2 5 1 6 65 7 66 8 73 9 67 10 69 11 74 12
REMARK SMILES IDX 68 13 70 14 71 15 72 16 7 17 8 18 9 19 10 20 11 21 12 22
REMARK SMILES IDX 64 23 13 24 63 25 14 26 15 27 16 28 57 29 17 30 62 31 56 32
REMARK SMILES IDX 58 33 18 34 61 35 55 36 54 37 19 39 45 40 28 41 44 42 29 43
REMARK SMILES IDX 32 44 43 45 59 46 30 47 31 48 42 50 60 51 33 52 20 53 21 54
REMARK SMILES IDX 26 55 22 56 23 57 25 58 27 59 24 60 46 61 47 62 52 63 48 64
REMARK SMILES IDX 49 65 51 66 53 67 50 68 34 69 35 70 40 71 36 72 37 73 39 74
REMARK SMILES IDX 41 75 38 76
REMARK H PARENT 58 38 32 49
REMARK Flexibility Score: inf
ROOT
ATOM      1  C   UNL A   1      42.257  19.719  26.040  1.00  0.00     0.274 C 
ENDROOT
BRANCH   1   2
ATOM      2  O   UNL A   1      43.021  20.797  26.619  1.00  0.00    -0.462 OA
BRANCH   2   3
ATOM      3  C   UNL A   1      43.801  21.525  25.762  1.00  0.00     0.313 C 
ATOM      4  O   UNL A   1      44.452  21.016  24.860  1.00  0.00    -0.252 OA
BRANCH   3   5
ATOM      5  C   UNL A   1      43.767  23.030  26.121  1.00  0.00     0.132 C 
ATOM      6  C   UNL A   1      43.027  23.789  25.003  1.00  0.00     0.025 C 
BRANCH   5   7
ATOM      7  C   UNL A   1      45.155  23.610  26.401  1.00  0.00     0.032 A 
ATOM      8  C   UNL A   1      45.702  23.787  27.622  1.00  0.00     0.012 A 
ATOM      9  C   UNL A   1      45.990  24.045  25.217  1.00  0.00     0.259 A 
ATOM     10  C   UNL A   1      46.962  24.462  27.810  1.00  0.00     0.019 A 
ATOM     11  N   UNL A   1      47.029  24.918  25.501  1.00  0.00    -0.258 N 
ATOM     12  O   UNL A   1      45.738  23.636  24.087  1.00  0.00    -0.269 OA
ATOM     13  C   UNL A   1      47.549  25.059  26.770  1.00  0.00     0.095 A 
BRANCH  11  14
ATOM     14  C   UNL A   1      47.636  25.593  24.388  1.00  0.00     0.451 C 
ATOM     15  F   UNL A   1      47.087  26.828  24.238  1.00  0.00    -0.185 F 
ATOM     16  F   UNL A   1      48.956  25.796  24.625  1.00  0.00    -0.185 F 
ENDBRANCH  11  14
ENDBRANCH   5   7
ENDBRANCH   3   5
ENDBRANCH   2   3
ENDBRANCH   1   2
BRANCH   1  17
ATOM     17  C   UNL A   1      40.735  19.896  26.154  1.00  0.00     0.275 C 
BRANCH  17  18
ATOM     18  O   UNL A   1      40.363  20.931  27.085  1.00  0.00    -0.458 OA
BRANCH  18  19
ATOM     19  C   UNL A   1      39.666  21.960  26.549  1.00  0.00     0.338 C 
ATOM     20  O   UNL A   1      38.728  21.876  25.765  1.00  0.00    -0.246 OA
BRANCH  19  21
ATOM     21  C   UNL A   1      40.062  23.241  27.173  1.00  0.00     0.060 A 
ATOM     22  C   UNL A   1      39.485  24.404  26.651  1.00  0.00     0.016 A 
ATOM     23  C   UNL A   1      40.986  23.325  28.218  1.00  0.00     0.016 A 
ATOM     24  C   UNL A   1      39.812  25.649  27.178  1.00  0.00     0.010 A 
ATOM     25  C   UNL A   1      41.343  24.583  28.725  1.00  0.00     0.010 A 
ATOM     26  C   UNL A   1      40.761  25.750  28.203  1.00  0.00    -0.014 A 
BRANCH  26  27
ATOM     27  C   UNL A   1      41.165  27.104  28.647  1.00  0.00     0.031 A 
ATOM     28  C   UNL A   1      42.561  27.580  28.377  1.00  0.00     0.074 A 
ATOM     29  C   UNL A   1      40.252  27.944  29.168  1.00  0.00     0.049 A 
ATOM     30  N   UNL A   1      43.092  28.757  28.589  1.00  0.00    -0.248 NA
ATOM     31  C   UNL A   1      43.483  26.601  27.778  1.00  0.00     0.031 C 
ATOM     32  C   UNL A   1      38.849  27.615  29.405  1.00  0.00     0.029 A 
ATOM     33  N   UNL A   1      40.358  29.261  29.534  1.00  0.00    -0.354 N 
ATOM     34  C   UNL A   1      44.413  28.655  28.177  1.00  0.00     0.074 A 
ATOM     35  C   UNL A   1      44.599  27.309  27.676  1.00  0.00     0.031 C 
ATOM     36  C   UNL A   1      38.204  28.726  29.799  1.00  0.00     0.029 A 
ATOM     37  C   UNL A   1      39.158  29.830  29.887  1.00  0.00     0.049 A 
ATOM     38  H   UNL A   1      41.211  29.753  29.541  1.00  0.00     0.167 HD
ATOM     39  C   UNL A   1      45.390  29.589  28.242  1.00  0.00     0.037 A 
ATOM     40  C   UNL A   1      38.866  31.100  30.230  1.00  0.00     0.037 A 
ATOM     41  C   UNL A   1      45.213  30.918  28.762  1.00  0.00     0.049 A 
ATOM     42  C   UNL A   1      39.979  32.112  30.315  1.00  0.00     0.074 A 
ATOM     43  C   UNL A   1      46.162  31.911  28.940  1.00  0.00     0.029 A 
ATOM     44  N   UNL A   1      44.003  31.440  29.192  1.00  0.00    -0.354 N 
ATOM     45  N   UNL A   1      41.239  31.992  29.971  1.00  0.00    -0.248 NA
ATOM     46  C   UNL A   1      39.632  33.428  30.875  1.00  0.00     0.031 C 
ATOM     47  C   UNL A   1      45.532  33.020  29.515  1.00  0.00     0.029 A 
ATOM     48  C   UNL A   1      44.184  32.733  29.656  1.00  0.00     0.049 A 
ATOM     49  H   UNL A   1      43.142  30.962  29.171  1.00  0.00     0.167 HD
ATOM     50  C   UNL A   1      41.834  33.209  30.282  1.00  0.00     0.074 A 
ATOM     51  C   UNL A   1      40.790  34.068  30.798  1.00  0.00     0.031 C 
ATOM     52  C   UNL A   1      43.135  33.573  30.173  1.00  0.00     0.037 A 
BRANCH  39  53
ATOM     53  C   UNL A   1      46.762  29.168  27.816  1.00  0.00     0.057 A 
ATOM     54  C   UNL A   1      47.216  29.323  26.501  1.00  0.00     0.134 A 
ATOM     55  C   UNL A   1      47.643  28.600  28.746  1.00  0.00     0.134 A 
ATOM     56  F   UNL A   1      46.412  29.841  25.561  1.00  0.00    -0.206 F 
ATOM     57  C   UNL A   1      48.496  28.914  26.122  1.00  0.00     0.040 A 
ATOM     58  C   UNL A   1      48.930  28.203  28.383  1.00  0.00     0.040 A 
ATOM     59  F   UNL A   1      47.265  28.421  30.020  1.00  0.00    -0.206 F 
ATOM     60  C   UNL A   1      49.358  28.356  27.065  1.00  0.00     0.006 A 
ENDBRANCH  39  53
BRANCH  40  61
ATOM     61  C   UNL A   1      37.468  31.505  30.528  1.00  0.00     0.057 A 
ATOM     62  C   UNL A   1      36.618  31.953  29.508  1.00  0.00     0.134 A 
ATOM     63  C   UNL A   1      36.961  31.504  31.833  1.00  0.00     0.134 A 
ATOM     64  F   UNL A   1      37.055  32.008  28.241  1.00  0.00    -0.206 F 
ATOM     65  C   UNL A   1      35.323  32.399  29.777  1.00  0.00     0.040 A 
ATOM     66  C   UNL A   1      35.659  31.922  32.112  1.00  0.00     0.040 A 
ATOM     67  F   UNL A   1      37.726  31.097  32.856  1.00  0.00    -0.206 F 
ATOM     68  C   UNL A   1      34.839  32.380  31.083  1.00  0.00     0.006 A 
ENDBRANCH  40  61
BRANCH  52  69
ATOM     69  C   UNL A   1      43.504  34.949  30.640  1.00  0.00     0.057 A 
ATOM     70  C   UNL A   1      43.479  36.045  29.769  1.00  0.00     0.134 A 
ATOM     71  C   UNL A   1      43.841  35.191  31.978  1.00  0.00     0.134 A 
ATOM     72  F   UNL A   1      43.174  35.877  28.473  1.00  0.00    -0.206 F 
ATOM     73  C   UNL A   1      43.793  37.333  30.207  1.00  0.00     0.040 A 
ATOM     74  C   UNL A   1      44.136  36.478  32.432  1.00  0.00     0.040 A 
ATOM     75  F   UNL A   1      43.875  34.186  32.864  1.00  0.00    -0.206 F 
ATOM     76  C   UNL A   1      44.116  37.552  31.545  1.00  0.00     0.006 A 
ENDBRANCH  52  69
ENDBRANCH  26  27
ENDBRANCH  19  21
ENDBRANCH  18  19
ENDBRANCH  17  18
ENDBRANCH   1  17
TORSDOF 13
ENDMDL
MODEL 2
REMARK VINA RESULT:      -9.4      4.985     10.891
REMARK SMILES C[C@@H](C(=O)OCCOC(=O)c1ccc(-c2c3nc(c(-c4c(F)cccc4F)c4ccc([nH]4)c(-c4c(F)cccc4F)c4nc(c(-c5c(F)cccc5F)c5ccc2[nH]5)C=C4)C=C3)cc1)c1cccn(C(F)F)c1=O
REMARK SMILES IDX 6 1 5 2 3 3 4 4 2 5 1 6 65 7 66 8 73 9 67 10 69 11 74 12
REMARK SMILES IDX 68 13 70 14 71 15 72 16 7 17 8 18 9 19 10 20 11 21 12 22
REMARK SMILES IDX 64 23 13 24 63 25 14 26 15 27 16 28 57 29 17 30 62 31 56 32
REMARK SMILES IDX 58 33 18 34 61 35 55 36 54 37 19 39 45 40 28 41 44 42 29 43
REMARK SMILES IDX 32 44 43 45 59 46 30 47 31 48 42 50 60 51 33 52 20 53 21 54
REMARK SMILES IDX 26 55 22 56 23 57 25 58 27 59 24 60 46 61 47 62 52 63 48 64
REMARK SMILES IDX 49 65 51 66 53 67 50 68 34 69 35 70 40 71 36 72 37 73 39 74
REMARK SMILES IDX 41 75 38 76
REMARK H PARENT 58 38 32 49
REMARK Flexibility Score: inf
ROOT
ATOM      1  C   UNL A   1      33.877  34.536  29.334  1.00  0.00     0.274 C 
ENDROOT
BRANCH   1   2
ATOM      2  O   UNL A   1      33.898  33.862  30.610  1.00  0.00    -0.462 OA
BRANCH   2   3
ATOM      3  C   UNL A   1      34.826  34.297  31.517  1.00  0.00     0.313 C 
ATOM      4  O   UNL A   1      34.690  35.325  32.167  1.00  0.00    -0.252 OA
BRANCH   3   5
ATOM      5  C   UNL A   1      36.047  33.348  31.562  1.00  0.00     0.132 C 
ATOM      6  C   UNL A   1      35.545  31.901  31.719  1.00  0.00     0.025 C 
BRANCH   5   7
ATOM      7  C   UNL A   1      37.065  33.733  32.639  1.00  0.00     0.032 A 
ATOM      8  C   UNL A   1      38.234  34.372  32.425  1.00  0.00     0.012 A 
ATOM      9  C   UNL A   1      36.755  33.354  34.070  1.00  0.00     0.259 A 
ATOM     10  C   UNL A   1      39.200  34.583  33.473  1.00  0.00     0.019 A 
ATOM     11  N   UNL A   1      37.837  33.339  34.937  1.00  0.00    -0.258 N 
ATOM     12  O   UNL A   1      35.609  33.078  34.412  1.00  0.00    -0.269 OA
ATOM     13  C   UNL A   1      39.010  34.011  34.665  1.00  0.00     0.095 A 
BRANCH  11  14
ATOM     14  C   UNL A   1      37.649  32.689  36.204  1.00  0.00     0.451 C 
ATOM     15  F   UNL A   1      38.122  31.415  36.147  1.00  0.00    -0.185 F 
ATOM     16  F   UNL A   1      38.374  33.315  37.165  1.00  0.00    -0.185 F 
ENDBRANCH  11  14
ENDBRANCH   5   7
ENDBRANCH   3   5
ENDBRANCH   2   3
ENDBRANCH   1   2
BRANCH   1  17
ATOM     17  C   UNL A   1      33.564  33.617  28.144  1.00  0.00     0.275 C 
BRANCH  17  18
ATOM     18  O   UNL A   1      34.731  32.935  27.645  1.00  0.00    -0.458 OA
BRANCH  18  19
ATOM     19  C   UNL A   1      34.642  31.584  27.629  1.00  0.00     0.338 C 
ATOM     20  O   UNL A   1      33.778  30.917  27.074  1.00  0.00    -0.246 OA
BRANCH  19  21
ATOM     21  C   UNL A   1      35.848  30.974  28.230  1.00  0.00     0.060 A 
ATOM     22  C   UNL A   1      37.016  31.744  28.226  1.00  0.00     0.016 A 
ATOM     23  C   UNL A   1      35.861  29.682  28.763  1.00  0.00     0.016 A 
ATOM     24  C   UNL A   1      38.194  31.238  28.766  1.00  0.00     0.010 A 
ATOM     25  C   UNL A   1      37.058  29.158  29.275  1.00  0.00     0.010 A 
ATOM     26  C   UNL A   1      38.229  29.933  29.274  1.00  0.00    -0.014 A 
BRANCH  26  27
ATOM     27  C   UNL A   1      39.534  29.398  29.727  1.00  0.00     0.031 A 
ATOM     28  C   UNL A   1      40.103  29.859  31.036  1.00  0.00     0.074 A 
ATOM     29  C   UNL A   1      40.136  28.414  29.036  1.00  0.00     0.049 A 
ATOM     30  N   UNL A   1      41.174  29.449  31.665  1.00  0.00    -0.248 NA
ATOM     31  C   UNL A   1      39.360  30.920  31.736  1.00  0.00     0.031 C 
ATOM     32  C   UNL A   1      39.636  27.835  27.791  1.00  0.00     0.029 A 
ATOM     33  N   UNL A   1      41.267  27.689  29.317  1.00  0.00    -0.354 N 
ATOM     34  C   UNL A   1      41.251  30.216  32.818  1.00  0.00     0.074 A 
ATOM     35  C   UNL A   1      40.103  31.099  32.819  1.00  0.00     0.031 C 
ATOM     36  C   UNL A   1      40.410  26.788  27.459  1.00  0.00     0.029 A 
ATOM     37  C   UNL A   1      41.486  26.654  28.440  1.00  0.00     0.049 A 
ATOM     38  H   UNL A   1      41.863  27.890  30.074  1.00  0.00     0.167 HD
ATOM     39  C   UNL A   1      42.210  30.207  33.774  1.00  0.00     0.037 A 
ATOM     40  C   UNL A   1      42.440  25.703  28.440  1.00  0.00     0.037 A 
ATOM     41  C   UNL A   1      43.363  29.348  33.763  1.00  0.00     0.049 A 
ATOM     42  C   UNL A   1      43.507  25.733  29.503  1.00  0.00     0.074 A 
ATOM     43  C   UNL A   1      44.429  29.319  34.646  1.00  0.00     0.029 A 
ATOM     44  N   UNL A   1      43.602  28.365  32.815  1.00  0.00    -0.354 N 
ATOM     45  N   UNL A   1      43.600  26.496  30.565  1.00  0.00    -0.248 NA
ATOM     46  C   UNL A   1      44.624  24.789  29.343  1.00  0.00     0.031 C 
ATOM     47  C   UNL A   1      45.333  28.344  34.209  1.00  0.00     0.029 A 
ATOM     48  C   UNL A   1      44.810  27.738  33.078  1.00  0.00     0.049 A 
ATOM     49  H   UNL A   1      43.003  28.146  32.065  1.00  0.00     0.167 HD
ATOM     50  C   UNL A   1      44.786  26.133  31.191  1.00  0.00     0.074 A 
ATOM     51  C   UNL A   1      45.355  25.050  30.417  1.00  0.00     0.031 C 
ATOM     52  C   UNL A   1      45.366  26.667  32.294  1.00  0.00     0.037 A 
BRANCH  39  53
ATOM     53  C   UNL A   1      42.090  31.224  34.867  1.00  0.00     0.057 A 
ATOM     54  C   UNL A   1      42.600  32.521  34.739  1.00  0.00     0.134 A 
ATOM     55  C   UNL A   1      41.446  30.893  36.066  1.00  0.00     0.134 A 
ATOM     56  F   UNL A   1      43.245  32.890  33.622  1.00  0.00    -0.206 F 
ATOM     57  C   UNL A   1      42.486  33.451  35.773  1.00  0.00     0.040 A 
ATOM     58  C   UNL A   1      41.311  31.819  37.100  1.00  0.00     0.040 A 
ATOM     59  F   UNL A   1      40.940  29.665  36.250  1.00  0.00    -0.206 F 
ATOM     60  C   UNL A   1      41.837  33.102  36.957  1.00  0.00     0.006 A 
ENDBRANCH  39  53
BRANCH  40  61
ATOM     61  C   UNL A   1      42.452  24.638  27.403  1.00  0.00     0.057 A 
ATOM     62  C   UNL A   1      43.077  24.848  26.167  1.00  0.00     0.134 A 
ATOM     63  C   UNL A   1      41.804  23.413  27.596  1.00  0.00     0.134 A 
ATOM     64  F   UNL A   1      43.688  26.014  25.909  1.00  0.00    -0.206 F 
ATOM     65  C   UNL A   1      43.043  23.885  25.157  1.00  0.00     0.040 A 
ATOM     66  C   UNL A   1      41.785  22.431  26.604  1.00  0.00     0.040 A 
ATOM     67  F   UNL A   1      41.177  23.153  28.753  1.00  0.00    -0.206 F 
ATOM     68  C   UNL A   1      42.399  22.670  25.376  1.00  0.00     0.006 A 
ENDBRANCH  40  61
BRANCH  52  69
ATOM     69  C   UNL A   1      46.689  26.103  32.715  1.00  0.00     0.057 A 
ATOM     70  C   UNL A   1      47.894  26.639  32.242  1.00  0.00     0.134 A 
ATOM     71  C   UNL A   1      46.765  25.048  33.633  1.00  0.00     0.134 A 
ATOM     72  F   UNL A   1      47.889  27.643  31.353  1.00  0.00    -0.206 F 
ATOM     73  C   UNL A   1      49.129  26.135  32.656  1.00  0.00     0.040 A 
ATOM     74  C   UNL A   1      47.994  24.551  34.070  1.00  0.00     0.040 A 
ATOM     75  F   UNL A   1      45.649  24.496  34.130  1.00  0.00    -0.206 F 
ATOM     76  C   UNL A   1      49.180  25.092  33.578  1.00  0.00     0.006 A 
ENDBRANCH  52  69
ENDBRANCH  26  27
ENDBRANCH  19  21
ENDBRANCH  18  19
ENDBRANCH  17  18
ENDBRANCH   1  17
TORSDOF 13
ENDMDL
MODEL 3
REMARK VINA RESULT:      -9.3      4.484      6.656
REMARK SMILES C[C@@H](C(=O)OCCOC(=O)c1ccc(-c2c3nc(c(-c4c(F)cccc4F)c4ccc([nH]4)c(-c4c(F)cccc4F)c4nc(c(-c5c(F)cccc5F)c5ccc2[nH]5)C=C4)C=C3)cc1)c1cccn(C(F)F)c1=O
REMARK SMILES IDX 6 1 5 2 3 3 4 4 2 5 1 6 65 7 66 8 73 9 67 10 69 11 74 12
REMARK SMILES IDX 68 13 70 14 71 15 72 16 7 17 8 18 9 19 10 20 11 21 12 22
REMARK SMILES IDX 64 23 13 24 63 25 14 26 15 27 16 28 57 29 17 30 62 31 56 32
REMARK SMILES IDX 58 33 18 34 61 35 55 36 54 37 19 39 45 40 28 41 44 42 29 43
REMARK SMILES IDX 32 44 43 45 59 46 30 47 31 48 42 50 60 51 33 52 20 53 21 54
REMARK SMILES IDX 26 55 22 56 23 57 25 58 27 59 24 60 46 61 47 62 52 63 48 64
REMARK SMILES IDX 49 65 51 66 53 67 50 68 34 69 35 70 40 71 36 72 37 73 39 74
REMARK SMILES IDX 41 75 38 76
REMARK H PARENT 58 38 32 49
REMARK Flexibility Score: inf
ROOT
ATOM      1  C   UNL A   1      36.636  22.936  23.564  1.00  0.00     0.274 C 
ENDROOT
BRANCH   1   2
ATOM      2  O   UNL A   1      35.466  22.975  22.722  1.00  0.00    -0.462 OA
BRANCH   2   3
ATOM      3  C   UNL A   1      34.380  23.647  23.214  1.00  0.00     0.313 C 
ATOM      4  O   UNL A   1      34.467  24.723  23.788  1.00  0.00    -0.252 OA
BRANCH   3   5
ATOM      5  C   UNL A   1      33.077  22.846  22.979  1.00  0.00     0.132 C 
ATOM      6  C   UNL A   1      31.875  23.798  23.128  1.00  0.00     0.025 C 
BRANCH   5   7
ATOM      7  C   UNL A   1      32.961  21.613  23.878  1.00  0.00     0.032 A 
ATOM      8  C   UNL A   1      33.293  21.558  25.185  1.00  0.00     0.012 A 
ATOM      9  C   UNL A   1      32.446  20.333  23.258  1.00  0.00     0.259 A 
ATOM     10  C   UNL A   1      33.278  20.325  25.932  1.00  0.00     0.019 A 
ATOM     11  N   UNL A   1      32.732  19.169  23.954  1.00  0.00    -0.258 N 
ATOM     12  O   UNL A   1      31.822  20.354  22.201  1.00  0.00    -0.269 OA
ATOM     13  C   UNL A   1      33.068  19.172  25.292  1.00  0.00     0.095 A 
BRANCH  11  14
ATOM     14  C   UNL A   1      32.546  17.928  23.255  1.00  0.00     0.451 C 
ATOM     15  F   UNL A   1      33.600  17.698  22.427  1.00  0.00    -0.185 F 
ATOM     16  F   UNL A   1      32.527  16.892  24.132  1.00  0.00    -0.185 F 
ENDBRANCH  11  14
ENDBRANCH   5   7
ENDBRANCH   3   5
ENDBRANCH   2   3
ENDBRANCH   1   2
BRANCH   1  17
ATOM     17  C   UNL A   1      36.867  21.584  24.256  1.00  0.00     0.275 C 
BRANCH  17  18
ATOM     18  O   UNL A   1      37.258  21.724  25.636  1.00  0.00    -0.458 OA
BRANCH  18  19
ATOM     19  C   UNL A   1      38.545  21.398  25.903  1.00  0.00     0.338 C 
ATOM     20  O   UNL A   1      39.117  20.363  25.581  1.00  0.00    -0.246 OA
BRANCH  19  21
ATOM     21  C   UNL A   1      39.262  22.546  26.497  1.00  0.00     0.060 A 
ATOM     22  C   UNL A   1      38.815  23.824  26.143  1.00  0.00     0.016 A 
ATOM     23  C   UNL A   1      40.357  22.400  27.353  1.00  0.00     0.016 A 
ATOM     24  C   UNL A   1      39.442  24.956  26.653  1.00  0.00     0.010 A 
ATOM     25  C   UNL A   1      41.012  23.541  27.839  1.00  0.00     0.010 A 
ATOM     26  C   UNL A   1      40.559  24.823  27.486  1.00  0.00    -0.014 A 
BRANCH  26  27
ATOM     27  C   UNL A   1      41.265  26.056  27.905  1.00  0.00     0.031 A 
ATOM     28  C   UNL A   1      42.633  26.342  27.358  1.00  0.00     0.074 A 
ATOM     29  C   UNL A   1      40.634  26.971  28.661  1.00  0.00     0.049 A 
ATOM     30  N   UNL A   1      43.383  27.402  27.514  1.00  0.00    -0.248 NA
ATOM     31  C   UNL A   1      43.233  25.294  26.516  1.00  0.00     0.031 C 
ATOM     32  C   UNL A   1      39.277  26.835  29.185  1.00  0.00     0.029 A 
ATOM     33  N   UNL A   1      41.030  28.220  29.068  1.00  0.00    -0.354 N 
ATOM     34  C   UNL A   1      44.553  27.142  26.814  1.00  0.00     0.074 A 
ATOM     35  C   UNL A   1      44.404  25.835  26.209  1.00  0.00     0.031 C 
ATOM     36  C   UNL A   1      38.922  27.990  29.775  1.00  0.00     0.029 A 
ATOM     37  C   UNL A   1      40.042  28.927  29.710  1.00  0.00     0.049 A 
ATOM     38  H   UNL A   1      41.936  28.576  28.914  1.00  0.00     0.167 HD
ATOM     39  C   UNL A   1      45.663  27.911  26.713  1.00  0.00     0.037 A 
ATOM     40  C   UNL A   1      40.043  30.189  30.180  1.00  0.00     0.037 A 
ATOM     41  C   UNL A   1      45.820  29.199  27.333  1.00  0.00     0.049 A 
ATOM     42  C   UNL A   1      41.300  31.012  30.074  1.00  0.00     0.074 A 
ATOM     43  C   UNL A   1      46.936  30.019  27.352  1.00  0.00     0.029 A 
ATOM     44  N   UNL A   1      44.831  29.853  28.050  1.00  0.00    -0.354 N 
ATOM     45  N   UNL A   1      42.422  30.738  29.452  1.00  0.00    -0.248 NA
ATOM     46  C   UNL A   1      41.300  32.308  30.770  1.00  0.00     0.031 C 
ATOM     47  C   UNL A   1      46.633  31.153  28.114  1.00  0.00     0.029 A 
ATOM     48  C   UNL A   1      45.316  31.058  28.534  1.00  0.00     0.049 A 
ATOM     49  H   UNL A   1      43.918  29.513  28.194  1.00  0.00     0.167 HD
ATOM     50  C   UNL A   1      43.261  31.819  29.692  1.00  0.00     0.074 A 
ATOM     51  C   UNL A   1      42.506  32.774  30.474  1.00  0.00     0.031 C 
ATOM     52  C   UNL A   1      44.553  31.993  29.318  1.00  0.00     0.037 A 
BRANCH  39  53
ATOM     53  C   UNL A   1      46.826  27.330  25.970  1.00  0.00     0.057 A 
ATOM     54  C   UNL A   1      46.997  27.511  24.593  1.00  0.00     0.134 A 
ATOM     55  C   UNL A   1      47.791  26.580  26.653  1.00  0.00     0.134 A 
ATOM     56  F   UNL A   1      46.095  28.203  23.881  1.00  0.00    -0.206 F 
ATOM     57  C   UNL A   1      48.083  26.953  23.918  1.00  0.00     0.040 A 
ATOM     58  C   UNL A   1      48.891  26.031  25.992  1.00  0.00     0.040 A 
ATOM     59  F   UNL A   1      47.680  26.368  27.973  1.00  0.00    -0.206 F 
ATOM     60  C   UNL A   1      49.036  26.214  24.618  1.00  0.00     0.006 A 
ENDBRANCH  39  53
BRANCH  40  61
ATOM     61  C   UNL A   1      38.825  30.769  30.804  1.00  0.00     0.057 A 
ATOM     62  C   UNL A   1      38.548  30.564  32.162  1.00  0.00     0.134 A 
ATOM     63  C   UNL A   1      37.887  31.493  30.059  1.00  0.00     0.134 A 
ATOM     64  F   UNL A   1      39.392  29.851  32.923  1.00  0.00    -0.206 F 
ATOM     65  C   UNL A   1      37.378  31.044  32.752  1.00  0.00     0.040 A 
ATOM     66  C   UNL A   1      36.725  32.002  30.642  1.00  0.00     0.040 A 
ATOM     67  F   UNL A   1      38.086  31.716  28.752  1.00  0.00    -0.206 F 
ATOM     68  C   UNL A   1      36.464  31.770  31.991  1.00  0.00     0.006 A 
ENDBRANCH  40  61
BRANCH  52  69
ATOM     69  C   UNL A   1      45.234  33.251  29.768  1.00  0.00     0.057 A 
ATOM     70  C   UNL A   1      45.185  34.421  29.000  1.00  0.00     0.134 A 
ATOM     71  C   UNL A   1      45.902  33.310  30.997  1.00  0.00     0.134 A 
ATOM     72  F   UNL A   1      44.570  34.427  27.808  1.00  0.00    -0.206 F 
ATOM     73  C   UNL A   1      45.793  35.602  29.430  1.00  0.00     0.040 A 
ATOM     74  C   UNL A   1      46.494  34.491  31.448  1.00  0.00     0.040 A 
ATOM     75  F   UNL A   1      45.977  32.227  31.785  1.00  0.00    -0.206 F 
ATOM     76  C   UNL A   1      46.444  35.640  30.661  1.00  0.00     0.006 A 
ENDBRANCH  52  69
ENDBRANCH  26  27
ENDBRANCH  19  21
ENDBRANCH  18  19
ENDBRANCH  17  18
ENDBRANCH   1  17
TORSDOF 13
ENDMDL
