MODEL 1
REMARK VINA RESULT:     -12.8      0.000      0.000
REMARK SMILES O=C(OCCOC(=O)[C@H]1[C@H]2CC[C@H](CC2)[C@H]1C(=O)Nc1ccc(C(=O)N2CCCC2)cc1)c1ccc(-c2c3nc(c(-c4c(F)cccc4F)c4ccc([nH]4)c(-c4c(F)cccc4F)c4nc(c(-c5c(F)cccc5F)c5ccc2[nH]5)C=C4)C=C3)cc1
REMARK SMILES IDX 5 1 4 2 3 3 2 4 1 5 33 6 34 7 86 8 35 9 85 10 36 11 37 12
REMARK SMILES IDX 38 13 79 14 39 15 84 16 78 17 80 18 40 19 83 20 77 21 76 22
REMARK SMILES IDX 41 24 67 25 50 26 66 27 51 28 54 29 65 30 81 31 52 32 53 33
REMARK SMILES IDX 64 35 82 36 55 37 42 38 43 39 48 40 44 41 45 42 47 43 49 44
REMARK SMILES IDX 46 45 68 46 69 47 74 48 70 49 71 50 73 51 75 52 72 53 56 54
REMARK SMILES IDX 57 55 62 56 58 57 59 58 61 59 63 60 60 61 6 62 7 63 8 64
REMARK SMILES IDX 9 65 10 66 16 67 15 68 11 69 13 70 14 71 12 72 17 73 18 74
REMARK SMILES IDX 19 75 20 77 21 78 32 79 22 80 31 81 23 82 24 83 25 84 26 85
REMARK SMILES IDX 27 86 30 87 28 88 29 89
REMARK H PARENT 80 23 54 34 19 76
REMARK Flexibility Score: inf
ROOT
ATOM      1  C   UNL A   1      36.887  22.721  25.267  1.00  0.00     0.274 C 
ENDROOT
BRANCH   1   2
ATOM      2  C   UNL A   1      38.240  22.796  25.975  1.00  0.00     0.275 C 
BRANCH   2   3
ATOM      3  O   UNL A   1      38.922  24.073  26.031  1.00  0.00    -0.458 OA
BRANCH   3   4
ATOM      4  C   UNL A   1      40.086  24.209  26.704  1.00  0.00     0.338 C 
ATOM      5  O   UNL A   1      41.077  23.526  26.473  1.00  0.00    -0.246 OA
BRANCH   4   6
ATOM      6  C   UNL A   1      40.114  25.372  27.647  1.00  0.00     0.060 A 
ATOM      7  C   UNL A   1      40.965  26.461  27.452  1.00  0.00     0.016 A 
ATOM      8  C   UNL A   1      39.166  25.444  28.685  1.00  0.00     0.016 A 
ATOM      9  C   UNL A   1      40.824  27.617  28.229  1.00  0.00     0.010 A 
ATOM     10  C   UNL A   1      39.070  26.591  29.508  1.00  0.00     0.010 A 
ATOM     11  C   UNL A   1      39.906  27.694  29.289  1.00  0.00    -0.014 A 
BRANCH  11  12
ATOM     12  C   UNL A   1      40.120  28.802  30.276  1.00  0.00     0.031 A 
ATOM     13  C   UNL A   1      39.154  29.935  30.199  1.00  0.00     0.074 A 
ATOM     14  C   UNL A   1      40.948  28.732  31.339  1.00  0.00     0.049 A 
ATOM     15  N   UNL A   1      38.939  30.882  31.068  1.00  0.00    -0.248 NA
ATOM     16  C   UNL A   1      38.325  30.012  28.986  1.00  0.00     0.031 C 
ATOM     17  C   UNL A   1      42.002  27.762  31.489  1.00  0.00     0.029 A 
ATOM     18  N   UNL A   1      41.017  29.432  32.523  1.00  0.00    -0.354 N 
ATOM     19  C   UNL A   1      37.923  31.645  30.526  1.00  0.00     0.074 A 
ATOM     20  C   UNL A   1      37.608  31.094  29.226  1.00  0.00     0.031 C 
ATOM     21  C   UNL A   1      42.466  27.751  32.743  1.00  0.00     0.029 A 
ATOM     22  C   UNL A   1      41.873  28.864  33.454  1.00  0.00     0.049 A 
ATOM     23  H   UNL A   1      40.506  30.256  32.693  1.00  0.00     0.167 HD
ATOM     24  C   UNL A   1      37.291  32.700  31.080  1.00  0.00     0.037 A 
ATOM     25  C   UNL A   1      42.196  29.216  34.716  1.00  0.00     0.037 A 
ATOM     26  C   UNL A   1      37.649  33.277  32.343  1.00  0.00     0.049 A 
ATOM     27  C   UNL A   1      41.588  30.484  35.233  1.00  0.00     0.074 A 
ATOM     28  C   UNL A   1      37.132  34.405  32.948  1.00  0.00     0.029 A 
ATOM     29  N   UNL A   1      38.634  32.780  33.187  1.00  0.00    -0.354 N 
ATOM     30  N   UNL A   1      40.649  31.221  34.691  1.00  0.00    -0.248 NA
ATOM     31  C   UNL A   1      42.125  31.012  36.494  1.00  0.00     0.031 C 
ATOM     32  C   UNL A   1      37.836  34.619  34.139  1.00  0.00     0.029 A 
ATOM     33  C   UNL A   1      38.752  33.592  34.303  1.00  0.00     0.049 A 
ATOM     34  H   UNL A   1      39.170  31.972  33.016  1.00  0.00     0.167 HD
ATOM     35  C   UNL A   1      40.486  32.305  35.536  1.00  0.00     0.074 A 
ATOM     36  C   UNL A   1      41.394  32.107  36.650  1.00  0.00     0.031 C 
ATOM     37  C   UNL A   1      39.670  33.376  35.394  1.00  0.00     0.037 A 
BRANCH  24  38
ATOM     38  C   UNL A   1      36.194  33.292  30.260  1.00  0.00     0.057 A 
ATOM     39  C   UNL A   1      34.857  32.920  30.454  1.00  0.00     0.134 A 
ATOM     40  C   UNL A   1      36.490  34.148  29.195  1.00  0.00     0.134 A 
ATOM     41  F   UNL A   1      34.525  32.055  31.426  1.00  0.00    -0.206 F 
ATOM     42  C   UNL A   1      33.851  33.364  29.597  1.00  0.00     0.040 A 
ATOM     43  C   UNL A   1      35.489  34.614  28.344  1.00  0.00     0.040 A 
ATOM     44  F   UNL A   1      37.757  34.510  28.943  1.00  0.00    -0.206 F 
ATOM     45  C   UNL A   1      34.167  34.215  28.538  1.00  0.00     0.006 A 
ENDBRANCH  24  38
BRANCH  25  46
ATOM     46  C   UNL A   1      43.188  28.448  35.533  1.00  0.00     0.057 A 
ATOM     47  C   UNL A   1      44.569  28.645  35.393  1.00  0.00     0.134 A 
ATOM     48  C   UNL A   1      42.789  27.456  36.442  1.00  0.00     0.134 A 
ATOM     49  F   UNL A   1      45.039  29.538  34.510  1.00  0.00    -0.206 F 
ATOM     50  C   UNL A   1      45.505  27.891  36.115  1.00  0.00     0.040 A 
ATOM     51  C   UNL A   1      43.709  26.726  37.201  1.00  0.00     0.040 A 
ATOM     52  F   UNL A   1      41.489  27.180  36.617  1.00  0.00    -0.206 F 
ATOM     53  C   UNL A   1      45.073  26.936  37.032  1.00  0.00     0.006 A 
ENDBRANCH  25  46
BRANCH  37  54
ATOM     54  C   UNL A   1      39.702  34.385  36.498  1.00  0.00     0.057 A 
ATOM     55  C   UNL A   1      40.439  35.572  36.399  1.00  0.00     0.134 A 
ATOM     56  C   UNL A   1      38.981  34.162  37.676  1.00  0.00     0.134 A 
ATOM     57  F   UNL A   1      41.170  35.830  35.303  1.00  0.00    -0.206 F 
ATOM     58  C   UNL A   1      40.478  36.490  37.447  1.00  0.00     0.040 A 
ATOM     59  C   UNL A   1      38.987  35.086  38.718  1.00  0.00     0.040 A 
ATOM     60  F   UNL A   1      38.255  33.043  37.828  1.00  0.00    -0.206 F 
ATOM     61  C   UNL A   1      39.745  36.250  38.609  1.00  0.00     0.006 A 
ENDBRANCH  37  54
ENDBRANCH  11  12
ENDBRANCH   4   6
ENDBRANCH   3   4
ENDBRANCH   2   3
ENDBRANCH   1   2
BRANCH   1  62
ATOM     62  O   UNL A   1      35.794  22.868  26.189  1.00  0.00    -0.462 OA
BRANCH  62  63
ATOM     63  C   UNL A   1      34.916  23.836  25.820  1.00  0.00     0.310 C 
ATOM     64  O   UNL A   1      35.255  24.964  25.482  1.00  0.00    -0.252 OA
BRANCH  63  65
ATOM     65  C   UNL A   1      33.475  23.383  25.780  1.00  0.00     0.115 C 
ATOM     66  C   UNL A   1      32.367  24.172  26.508  1.00  0.00     0.004 C 
ATOM     67  C   UNL A   1      32.974  23.101  24.359  1.00  0.00     0.096 C 
ATOM     68  C   UNL A   1      31.772  25.217  25.561  1.00  0.00     0.005 C 
ATOM     69  C   UNL A   1      31.282  23.164  26.897  1.00  0.00     0.005 C 
ATOM     70  C   UNL A   1      31.406  23.147  24.342  1.00  0.00     0.002 C 
ATOM     71  C   UNL A   1      30.978  24.603  24.413  1.00  0.00     0.005 C 
ATOM     72  C   UNL A   1      30.781  22.480  25.615  1.00  0.00     0.005 C 
BRANCH  67  73
ATOM     73  C   UNL A   1      33.696  23.766  23.134  1.00  0.00     0.228 C 
ATOM     74  O   UNL A   1      34.292  22.967  22.383  1.00  0.00    -0.274 OA
ATOM     75  N   UNL A   1      33.695  25.041  22.631  1.00  0.00    -0.326 N 
ATOM     76  H   UNL A   1      34.212  25.068  21.793  1.00  0.00     0.169 HD
BRANCH  75  77
ATOM     77  C   UNL A   1      33.194  26.333  22.923  1.00  0.00     0.041 A 
ATOM     78  C   UNL A   1      32.050  26.753  22.249  1.00  0.00     0.027 A 
ATOM     79  C   UNL A   1      33.762  27.249  23.809  1.00  0.00     0.027 A 
ATOM     80  C   UNL A   1      31.357  27.908  22.665  1.00  0.00     0.016 A 
ATOM     81  C   UNL A   1      33.050  28.395  24.260  1.00  0.00     0.016 A 
ATOM     82  C   UNL A   1      31.793  28.700  23.748  1.00  0.00     0.040 A 
BRANCH  82  83
ATOM     83  C   UNL A   1      30.788  29.682  24.309  1.00  0.00     0.253 C 
ATOM     84  O   UNL A   1      31.105  30.246  25.361  1.00  0.00    -0.269 OA
ATOM     85  N   UNL A   1      29.660  30.116  23.606  1.00  0.00    -0.339 N 
ATOM     86  C   UNL A   1      28.562  29.327  23.070  1.00  0.00     0.120 C 
ATOM     87  C   UNL A   1      29.181  31.472  23.875  1.00  0.00     0.120 C 
ATOM     88  C   UNL A   1      27.673  30.343  22.359  1.00  0.00     0.023 C 
ATOM     89  C   UNL A   1      27.842  31.621  23.166  1.00  0.00     0.023 C 
ENDBRANCH  82  83
ENDBRANCH  75  77
ENDBRANCH  67  73
ENDBRANCH  63  65
ENDBRANCH  62  63
ENDBRANCH   1  62
TORSDOF 14
ENDMDL
MODEL 2
REMARK VINA RESULT:     -12.6      5.483     10.415
REMARK SMILES O=C(OCCOC(=O)[C@H]1[C@H]2CC[C@H](CC2)[C@H]1C(=O)Nc1ccc(C(=O)N2CCCC2)cc1)c1ccc(-c2c3nc(c(-c4c(F)cccc4F)c4ccc([nH]4)c(-c4c(F)cccc4F)c4nc(c(-c5c(F)cccc5F)c5ccc2[nH]5)C=C4)C=C3)cc1
REMARK SMILES IDX 5 1 4 2 3 3 2 4 1 5 33 6 34 7 86 8 35 9 85 10 36 11 37 12
REMARK SMILES IDX 38 13 79 14 39 15 84 16 78 17 80 18 40 19 83 20 77 21 76 22
REMARK SMILES IDX 41 24 67 25 50 26 66 27 51 28 54 29 65 30 81 31 52 32 53 33
REMARK SMILES IDX 64 35 82 36 55 37 42 38 43 39 48 40 44 41 45 42 47 43 49 44
REMARK SMILES IDX 46 45 68 46 69 47 74 48 70 49 71 50 73 51 75 52 72 53 56 54
REMARK SMILES IDX 57 55 62 56 58 57 59 58 61 59 63 60 60 61 6 62 7 63 8 64
REMARK SMILES IDX 9 65 10 66 16 67 15 68 11 69 13 70 14 71 12 72 17 73 18 74
REMARK SMILES IDX 19 75 20 77 21 78 32 79 22 80 31 81 23 82 24 83 25 84 26 85
REMARK SMILES IDX 27 86 30 87 28 88 29 89
REMARK H PARENT 80 23 54 34 19 76
REMARK Flexibility Score: inf
ROOT
ATOM      1  C   UNL A   1      33.043  29.487  26.603  1.00  0.00     0.274 C 
ENDROOT
BRANCH   1   2
ATOM      2  C   UNL A   1      34.147  30.303  27.274  1.00  0.00     0.275 C 
BRANCH   2   3
ATOM      3  O   UNL A   1      34.989  29.652  28.255  1.00  0.00    -0.458 OA
BRANCH   3   4
ATOM      4  C   UNL A   1      35.878  30.361  28.988  1.00  0.00     0.338 C 
ATOM      5  O   UNL A   1      35.546  31.242  29.772  1.00  0.00    -0.246 OA
BRANCH   4   6
ATOM      6  C   UNL A   1      37.289  29.870  28.880  1.00  0.00     0.060 A 
ATOM      7  C   UNL A   1      37.996  29.406  29.989  1.00  0.00     0.016 A 
ATOM      8  C   UNL A   1      37.881  29.742  27.609  1.00  0.00     0.016 A 
ATOM      9  C   UNL A   1      39.231  28.768  29.823  1.00  0.00     0.010 A 
ATOM     10  C   UNL A   1      39.157  29.153  27.455  1.00  0.00     0.010 A 
ATOM     11  C   UNL A   1      39.851  28.660  28.568  1.00  0.00    -0.014 A 
BRANCH  11  12
ATOM     12  C   UNL A   1      41.312  28.325  28.573  1.00  0.00     0.031 A 
ATOM     13  C   UNL A   1      41.656  26.910  28.250  1.00  0.00     0.074 A 
ATOM     14  C   UNL A   1      42.307  29.236  28.616  1.00  0.00     0.049 A 
ATOM     15  N   UNL A   1      42.814  26.405  27.933  1.00  0.00    -0.248 NA
ATOM     16  C   UNL A   1      40.550  25.940  28.289  1.00  0.00     0.031 C 
ATOM     17  C   UNL A   1      42.140  30.607  29.023  1.00  0.00     0.029 A 
ATOM     18  N   UNL A   1      43.639  29.189  28.266  1.00  0.00    -0.354 N 
ATOM     19  C   UNL A   1      42.572  25.066  27.698  1.00  0.00     0.074 A 
ATOM     20  C   UNL A   1      41.173  24.820  27.970  1.00  0.00     0.031 C 
ATOM     21  C   UNL A   1      43.214  31.335  28.701  1.00  0.00     0.029 A 
ATOM     22  C   UNL A   1      44.247  30.434  28.234  1.00  0.00     0.049 A 
ATOM     23  H   UNL A   1      44.112  28.352  28.056  1.00  0.00     0.167 HD
ATOM     24  C   UNL A   1      43.440  24.129  27.266  1.00  0.00     0.037 A 
ATOM     25  C   UNL A   1      45.502  30.816  27.921  1.00  0.00     0.037 A 
ATOM     26  C   UNL A   1      44.838  24.366  27.054  1.00  0.00     0.049 A 
ATOM     27  C   UNL A   1      46.475  29.723  27.599  1.00  0.00     0.074 A 
ATOM     28  C   UNL A   1      45.820  23.460  26.708  1.00  0.00     0.029 A 
ATOM     29  N   UNL A   1      45.459  25.602  27.193  1.00  0.00    -0.354 N 
ATOM     30  N   UNL A   1      46.238  28.447  27.414  1.00  0.00    -0.248 NA
ATOM     31  C   UNL A   1      47.892  30.099  27.510  1.00  0.00     0.031 C 
ATOM     32  C   UNL A   1      47.044  24.137  26.681  1.00  0.00     0.029 A 
ATOM     33  C   UNL A   1      46.817  25.477  26.955  1.00  0.00     0.049 A 
ATOM     34  H   UNL A   1      45.000  26.441  27.427  1.00  0.00     0.167 HD
ATOM     35  C   UNL A   1      47.474  27.863  27.196  1.00  0.00     0.074 A 
ATOM     36  C   UNL A   1      48.454  28.932  27.230  1.00  0.00     0.031 C 
ATOM     37  C   UNL A   1      47.772  26.556  27.002  1.00  0.00     0.037 A 
BRANCH  24  38
ATOM     38  C   UNL A   1      42.863  22.768  27.060  1.00  0.00     0.057 A 
ATOM     39  C   UNL A   1      42.469  22.328  25.789  1.00  0.00     0.134 A 
ATOM     40  C   UNL A   1      42.593  21.941  28.154  1.00  0.00     0.134 A 
ATOM     41  F   UNL A   1      42.652  23.108  24.712  1.00  0.00    -0.206 F 
ATOM     42  C   UNL A   1      41.801  21.116  25.618  1.00  0.00     0.040 A 
ATOM     43  C   UNL A   1      41.944  20.718  27.992  1.00  0.00     0.040 A 
ATOM     44  F   UNL A   1      42.919  22.327  29.397  1.00  0.00    -0.206 F 
ATOM     45  C   UNL A   1      41.538  20.307  26.723  1.00  0.00     0.006 A 
ENDBRANCH  24  38
BRANCH  25  46
ATOM     46  C   UNL A   1      45.945  32.246  27.988  1.00  0.00     0.057 A 
ATOM     47  C   UNL A   1      46.473  32.800  29.163  1.00  0.00     0.134 A 
ATOM     48  C   UNL A   1      45.805  33.117  26.896  1.00  0.00     0.134 A 
ATOM     49  F   UNL A   1      46.594  32.052  30.268  1.00  0.00    -0.206 F 
ATOM     50  C   UNL A   1      46.838  34.151  29.248  1.00  0.00     0.040 A 
ATOM     51  C   UNL A   1      46.205  34.455  26.953  1.00  0.00     0.040 A 
ATOM     52  F   UNL A   1      45.281  32.678  25.742  1.00  0.00    -0.206 F 
ATOM     53  C   UNL A   1      46.715  34.980  28.135  1.00  0.00     0.006 A 
ENDBRANCH  25  46
BRANCH  37  54
ATOM     54  C   UNL A   1      49.214  26.232  26.771  1.00  0.00     0.057 A 
ATOM     55  C   UNL A   1      49.788  26.267  25.494  1.00  0.00     0.134 A 
ATOM     56  C   UNL A   1      50.037  25.879  27.846  1.00  0.00     0.134 A 
ATOM     57  F   UNL A   1      49.043  26.574  24.420  1.00  0.00    -0.206 F 
ATOM     58  C   UNL A   1      51.127  25.937  25.292  1.00  0.00     0.040 A 
ATOM     59  C   UNL A   1      51.384  25.578  27.662  1.00  0.00     0.040 A 
ATOM     60  F   UNL A   1      49.543  25.830  29.093  1.00  0.00    -0.206 F 
ATOM     61  C   UNL A   1      51.930  25.597  26.380  1.00  0.00     0.006 A 
ENDBRANCH  37  54
ENDBRANCH  11  12
ENDBRANCH   4   6
ENDBRANCH   3   4
ENDBRANCH   2   3
ENDBRANCH   1   2
BRANCH   1  62
ATOM     62  O   UNL A   1      33.437  29.028  25.298  1.00  0.00    -0.462 OA
BRANCH  62  63
ATOM     63  C   UNL A   1      33.532  27.677  25.218  1.00  0.00     0.310 C 
ATOM     64  O   UNL A   1      34.083  26.985  26.068  1.00  0.00    -0.252 OA
BRANCH  63  65
ATOM     65  C   UNL A   1      32.827  27.075  24.025  1.00  0.00     0.115 C 
ATOM     66  C   UNL A   1      33.555  26.110  23.066  1.00  0.00     0.004 C 
ATOM     67  C   UNL A   1      31.483  26.431  24.384  1.00  0.00     0.096 C 
ATOM     68  C   UNL A   1      33.372  24.670  23.548  1.00  0.00     0.005 C 
ATOM     69  C   UNL A   1      32.905  26.272  21.689  1.00  0.00     0.005 C 
ATOM     70  C   UNL A   1      31.076  25.415  23.260  1.00  0.00     0.002 C 
ATOM     71  C   UNL A   1      31.936  24.172  23.417  1.00  0.00     0.005 C 
ATOM     72  C   UNL A   1      31.406  25.956  21.826  1.00  0.00     0.005 C 
BRANCH  67  73
ATOM     73  C   UNL A   1      31.212  25.969  25.860  1.00  0.00     0.228 C 
ATOM     74  O   UNL A   1      30.373  26.657  26.476  1.00  0.00    -0.274 OA
ATOM     75  N   UNL A   1      31.607  24.872  26.582  1.00  0.00    -0.326 N 
ATOM     76  H   UNL A   1      31.173  24.882  27.466  1.00  0.00     0.169 HD
BRANCH  75  77
ATOM     77  C   UNL A   1      32.436  23.729  26.470  1.00  0.00     0.041 A 
ATOM     78  C   UNL A   1      31.824  22.509  26.191  1.00  0.00     0.027 A 
ATOM     79  C   UNL A   1      33.819  23.701  26.648  1.00  0.00     0.027 A 
ATOM     80  C   UNL A   1      32.596  21.389  25.820  1.00  0.00     0.016 A 
ATOM     81  C   UNL A   1      34.605  22.588  26.239  1.00  0.00     0.016 A 
ATOM     82  C   UNL A   1      34.004  21.437  25.742  1.00  0.00     0.040 A 
BRANCH  82  83
ATOM     83  C   UNL A   1      34.674  20.300  25.001  1.00  0.00     0.253 C 
ATOM     84  O   UNL A   1      35.909  20.298  25.006  1.00  0.00    -0.269 OA
ATOM     85  N   UNL A   1      33.984  19.186  24.512  1.00  0.00    -0.339 N 
ATOM     86  C   UNL A   1      32.890  19.141  23.555  1.00  0.00     0.120 C 
ATOM     87  C   UNL A   1      34.708  17.916  24.464  1.00  0.00     0.120 C 
ATOM     88  C   UNL A   1      32.517  17.664  23.470  1.00  0.00     0.023 C 
ATOM     89  C   UNL A   1      33.829  16.931  23.705  1.00  0.00     0.023 C 
ENDBRANCH  82  83
ENDBRANCH  75  77
ENDBRANCH  67  73
ENDBRANCH  63  65
ENDBRANCH  62  63
ENDBRANCH   1  62
TORSDOF 14
ENDMDL
MODEL 3
REMARK VINA RESULT:     -12.6      4.403      8.568
REMARK SMILES O=C(OCCOC(=O)[C@H]1[C@H]2CC[C@H](CC2)[C@H]1C(=O)Nc1ccc(C(=O)N2CCCC2)cc1)c1ccc(-c2c3nc(c(-c4c(F)cccc4F)c4ccc([nH]4)c(-c4c(F)cccc4F)c4nc(c(-c5c(F)cccc5F)c5ccc2[nH]5)C=C4)C=C3)cc1
REMARK SMILES IDX 5 1 4 2 3 3 2 4 1 5 33 6 34 7 86 8 35 9 85 10 36 11 37 12
REMARK SMILES IDX 38 13 79 14 39 15 84 16 78 17 80 18 40 19 83 20 77 21 76 22
REMARK SMILES IDX 41 24 67 25 50 26 66 27 51 28 54 29 65 30 81 31 52 32 53 33
REMARK SMILES IDX 64 35 82 36 55 37 42 38 43 39 48 40 44 41 45 42 47 43 49 44
REMARK SMILES IDX 46 45 68 46 69 47 74 48 70 49 71 50 73 51 75 52 72 53 56 54
REMARK SMILES IDX 57 55 62 56 58 57 59 58 61 59 63 60 60 61 6 62 7 63 8 64
REMARK SMILES IDX 9 65 10 66 16 67 15 68 11 69 13 70 14 71 12 72 17 73 18 74
REMARK SMILES IDX 19 75 20 77 21 78 32 79 22 80 31 81 23 82 24 83 25 84 26 85
REMARK SMILES IDX 27 86 30 87 28 88 29 89
REMARK H PARENT 80 23 54 34 19 76
REMARK Flexibility Score: inf
ROOT
ATOM      1  C   UNL A   1      36.381  22.990  23.461  1.00  0.00     0.274 C 
ENDROOT
BRANCH   1   2
ATOM      2  C   UNL A   1      36.789  21.719  24.205  1.00  0.00     0.275 C 
BRANCH   2   3
ATOM      3  O   UNL A   1      37.266  21.838  25.567  1.00  0.00    -0.458 OA
BRANCH   3   4
ATOM      4  C   UNL A   1      38.562  21.602  25.873  1.00  0.00     0.338 C 
ATOM      5  O   UNL A   1      39.156  20.587  25.530  1.00  0.00    -0.246 OA
BRANCH   4   6
ATOM      6  C   UNL A   1      39.255  22.756  26.529  1.00  0.00     0.060 A 
ATOM      7  C   UNL A   1      38.776  24.062  26.425  1.00  0.00     0.016 A 
ATOM      8  C   UNL A   1      40.342  22.511  27.391  1.00  0.00     0.016 A 
ATOM      9  C   UNL A   1      39.324  25.082  27.211  1.00  0.00     0.010 A 
ATOM     10  C   UNL A   1      40.932  23.557  28.136  1.00  0.00     0.010 A 
ATOM     11  C   UNL A   1      40.429  24.862  28.050  1.00  0.00    -0.014 A 
BRANCH  11  12
ATOM     12  C   UNL A   1      41.159  26.083  28.523  1.00  0.00     0.031 A 
ATOM     13  C   UNL A   1      42.546  26.253  28.004  1.00  0.00     0.074 A 
ATOM     14  C   UNL A   1      40.583  27.117  29.172  1.00  0.00     0.049 A 
ATOM     15  N   UNL A   1      43.303  27.314  28.033  1.00  0.00    -0.248 NA
ATOM     16  C   UNL A   1      43.160  25.075  27.371  1.00  0.00     0.031 C 
ATOM     17  C   UNL A   1      39.299  27.058  29.822  1.00  0.00     0.029 A 
ATOM     18  N   UNL A   1      40.948  28.432  29.355  1.00  0.00    -0.354 N 
ATOM     19  C   UNL A   1      44.467  26.944  27.389  1.00  0.00     0.074 A 
ATOM     20  C   UNL A   1      44.347  25.546  27.037  1.00  0.00     0.031 C 
ATOM     21  C   UNL A   1      38.863  28.284  30.130  1.00  0.00     0.029 A 
ATOM     22  C   UNL A   1      39.936  29.222  29.877  1.00  0.00     0.049 A 
ATOM     23  H   UNL A   1      41.843  28.779  29.134  1.00  0.00     0.167 HD
ATOM     24  C   UNL A   1      45.533  27.715  27.095  1.00  0.00     0.037 A 
ATOM     25  C   UNL A   1      39.879  30.537  30.173  1.00  0.00     0.037 A 
ATOM     26  C   UNL A   1      45.670  29.084  27.498  1.00  0.00     0.049 A 
ATOM     27  C   UNL A   1      41.139  31.322  29.976  1.00  0.00     0.074 A 
ATOM     28  C   UNL A   1      46.752  29.925  27.331  1.00  0.00     0.029 A 
ATOM     29  N   UNL A   1      44.696  29.809  28.173  1.00  0.00    -0.354 N 
ATOM     30  N   UNL A   1      42.253  30.948  29.395  1.00  0.00    -0.248 NA
ATOM     31  C   UNL A   1      41.169  32.681  30.531  1.00  0.00     0.031 C 
ATOM     32  C   UNL A   1      46.452  31.145  27.945  1.00  0.00     0.029 A 
ATOM     33  C   UNL A   1      45.160  31.084  28.445  1.00  0.00     0.049 A 
ATOM     34  H   UNL A   1      43.807  29.465  28.423  1.00  0.00     0.167 HD
ATOM     35  C   UNL A   1      43.122  32.018  29.521  1.00  0.00     0.074 A 
ATOM     36  C   UNL A   1      42.390  33.073  30.197  1.00  0.00     0.031 C 
ATOM     37  C   UNL A   1      44.414  32.113  29.127  1.00  0.00     0.037 A 
BRANCH  24  38
ATOM     38  C   UNL A   1      46.629  27.034  26.344  1.00  0.00     0.057 A 
ATOM     39  C   UNL A   1      47.658  26.356  27.012  1.00  0.00     0.134 A 
ATOM     40  C   UNL A   1      46.718  27.156  24.955  1.00  0.00     0.134 A 
ATOM     41  F   UNL A   1      47.652  26.260  28.352  1.00  0.00    -0.206 F 
ATOM     42  C   UNL A   1      48.755  25.843  26.321  1.00  0.00     0.040 A 
ATOM     43  C   UNL A   1      47.799  26.629  24.251  1.00  0.00     0.040 A 
ATOM     44  F   UNL A   1      45.777  27.823  24.269  1.00  0.00    -0.206 F 
ATOM     45  C   UNL A   1      48.825  25.979  24.935  1.00  0.00     0.006 A 
ENDBRANCH  24  38
BRANCH  25  46
ATOM     46  C   UNL A   1      38.660  31.173  30.766  1.00  0.00     0.057 A 
ATOM     47  C   UNL A   1      38.422  31.164  32.148  1.00  0.00     0.134 A 
ATOM     48  C   UNL A   1      37.668  31.762  29.967  1.00  0.00     0.134 A 
ATOM     49  F   UNL A   1      39.294  30.578  32.981  1.00  0.00    -0.206 F 
ATOM     50  C   UNL A   1      37.258  31.710  32.706  1.00  0.00     0.040 A 
ATOM     51  C   UNL A   1      36.522  32.348  30.512  1.00  0.00     0.040 A 
ATOM     52  F   UNL A   1      37.799  31.787  28.633  1.00  0.00    -0.206 F 
ATOM     53  C   UNL A   1      36.308  32.315  31.885  1.00  0.00     0.006 A 
ENDBRANCH  25  46
BRANCH  37  54
ATOM     54  C   UNL A   1      45.092  33.421  29.385  1.00  0.00     0.057 A 
ATOM     55  C   UNL A   1      45.035  34.482  28.472  1.00  0.00     0.134 A 
ATOM     56  C   UNL A   1      45.812  33.619  30.569  1.00  0.00     0.134 A 
ATOM     57  F   UNL A   1      44.381  34.344  27.308  1.00  0.00    -0.206 F 
ATOM     58  C   UNL A   1      45.695  35.685  28.717  1.00  0.00     0.040 A 
ATOM     59  C   UNL A   1      46.449  34.828  30.840  1.00  0.00     0.040 A 
ATOM     60  F   UNL A   1      45.900  32.640  31.483  1.00  0.00    -0.206 F 
ATOM     61  C   UNL A   1      46.399  35.862  29.907  1.00  0.00     0.006 A 
ENDBRANCH  37  54
ENDBRANCH  11  12
ENDBRANCH   4   6
ENDBRANCH   3   4
ENDBRANCH   2   3
ENDBRANCH   1   2
BRANCH   1  62
ATOM     62  O   UNL A   1      34.992  23.302  23.661  1.00  0.00    -0.462 OA
BRANCH  62  63
ATOM     63  C   UNL A   1      34.799  24.520  24.228  1.00  0.00     0.310 C 
ATOM     64  O   UNL A   1      35.396  24.903  25.229  1.00  0.00    -0.252 OA
BRANCH  63  65
ATOM     65  C   UNL A   1      33.839  25.410  23.474  1.00  0.00     0.115 C 
ATOM     66  C   UNL A   1      32.897  24.839  22.394  1.00  0.00     0.004 C 
ATOM     67  C   UNL A   1      32.992  26.295  24.395  1.00  0.00     0.096 C 
ATOM     68  C   UNL A   1      31.571  24.425  23.035  1.00  0.00     0.005 C 
ATOM     69  C   UNL A   1      32.644  25.960  21.382  1.00  0.00     0.005 C 
ATOM     70  C   UNL A   1      31.715  26.779  23.621  1.00  0.00     0.002 C 
ATOM     71  C   UNL A   1      30.749  25.610  23.533  1.00  0.00     0.005 C 
ATOM     72  C   UNL A   1      32.033  27.155  22.133  1.00  0.00     0.005 C 
BRANCH  67  73
ATOM     73  C   UNL A   1      32.772  25.874  25.891  1.00  0.00     0.228 C 
ATOM     74  O   UNL A   1      32.623  26.825  26.685  1.00  0.00    -0.274 OA
ATOM     75  N   UNL A   1      32.569  24.661  26.498  1.00  0.00    -0.326 N 
ATOM     76  H   UNL A   1      32.391  24.796  27.457  1.00  0.00     0.169 HD
BRANCH  75  77
ATOM     77  C   UNL A   1      32.533  23.278  26.196  1.00  0.00     0.041 A 
ATOM     78  C   UNL A   1      31.413  22.789  25.530  1.00  0.00     0.027 A 
ATOM     79  C   UNL A   1      33.510  22.341  26.535  1.00  0.00     0.027 A 
ATOM     80  C   UNL A   1      31.417  21.491  24.979  1.00  0.00     0.016 A 
ATOM     81  C   UNL A   1      33.539  21.045  25.952  1.00  0.00     0.016 A 
ATOM     82  C   UNL A   1      32.526  20.626  25.096  1.00  0.00     0.040 A 
BRANCH  82  83
ATOM     83  C   UNL A   1      32.542  19.427  24.173  1.00  0.00     0.253 C 
ATOM     84  O   UNL A   1      32.190  19.631  23.007  1.00  0.00    -0.269 OA
ATOM     85  N   UNL A   1      33.117  18.199  24.516  1.00  0.00    -0.339 N 
ATOM     86  C   UNL A   1      32.787  17.318  25.624  1.00  0.00     0.120 C 
ATOM     87  C   UNL A   1      33.694  17.402  23.433  1.00  0.00     0.120 C 
ATOM     88  C   UNL A   1      33.789  16.173  25.514  1.00  0.00     0.023 C 
ATOM     89  C   UNL A   1      34.048  16.043  24.021  1.00  0.00     0.023 C 
ENDBRANCH  82  83
ENDBRANCH  75  77
ENDBRANCH  67  73
ENDBRANCH  63  65
ENDBRANCH  62  63
ENDBRANCH   1  62
TORSDOF 14
ENDMDL
