MODEL 1
REMARK VINA RESULT:     -11.7      0.000      0.000
REMARK SMILES CCn1cnc(S(=O)(=O)N2CCC(C)(C(=O)OCCOC(=O)c3ccc(-c4c5nc(c(-c6c(F)cccc6F)c6ccc([nH]6)c(-c6c(F)cccc6F)c6nc(c(-c7c(F)cccc7F)c7ccc4[nH]7)C=C6)C=C5)cc3)CC2)c1
REMARK SMILES IDX 18 1 17 2 15 3 16 4 13 5 10 6 11 7 78 8 12 9 77 10 14 11
REMARK SMILES IDX 7 12 8 13 9 14 6 15 3 16 4 17 79 18 5 19 2 20 1 21 19 22
REMARK SMILES IDX 20 23 21 24 22 25 23 26 24 27 76 28 25 29 75 30 26 31 27 32
REMARK SMILES IDX 28 33 69 34 29 35 74 36 68 37 70 38 30 39 73 40 67 41 66 42
REMARK SMILES IDX 31 44 57 45 40 46 56 47 41 48 44 49 55 50 71 51 42 52 43 53
REMARK SMILES IDX 54 55 72 56 45 57 32 58 33 59 38 60 34 61 35 62 37 63 39 64
REMARK SMILES IDX 36 65 58 66 59 67 64 68 60 69 61 70 63 71 65 72 62 73 46 74
REMARK SMILES IDX 47 75 52 76 48 77 49 78 51 79 53 80 50 81
REMARK H PARENT 70 43 44 54
REMARK Flexibility Score: inf
ROOT
ATOM      1  C   UNL A   1      36.623  21.655  25.753  1.00  0.00     0.274 C 
ENDROOT
BRANCH   1   2
ATOM      2  O   UNL A   1      35.440  21.651  24.935  1.00  0.00    -0.462 OA
BRANCH   2   3
ATOM      3  C   UNL A   1      34.233  21.728  25.574  1.00  0.00     0.312 C 
ATOM      4  O   UNL A   1      33.923  21.050  26.547  1.00  0.00    -0.252 OA
BRANCH   3   5
ATOM      5  C   UNL A   1      33.264  22.641  24.815  1.00  0.00     0.068 C 
ATOM      6  N   UNL A   1      33.541  24.349  22.438  1.00  0.00    -0.196 NA
ATOM      7  C   UNL A   1      33.415  22.925  22.152  1.00  0.00     0.104 C 
ATOM      8  C   UNL A   1      34.382  24.639  23.580  1.00  0.00     0.104 C 
ATOM      9  C   UNL A   1      32.930  22.123  23.372  1.00  0.00     0.035 C 
ATOM     10  C   UNL A   1      33.740  24.125  24.858  1.00  0.00     0.035 C 
ATOM     11  C   UNL A   1      32.032  22.489  25.744  1.00  0.00     0.024 C 
BRANCH   6  12
ATOM     12  S   UNL A   1      32.645  25.553  21.668  1.00  0.00     0.262 S 
ATOM     13  O   UNL A   1      31.248  25.390  22.017  1.00  0.00    -0.205 OA
ATOM     14  O   UNL A   1      33.103  25.651  20.300  1.00  0.00    -0.205 OA
BRANCH  12  15
ATOM     15  C   UNL A   1      33.097  27.078  22.397  1.00  0.00     0.188 A 
ATOM     16  N   UNL A   1      33.294  28.617  23.931  1.00  0.00    -0.336 N 
ATOM     17  C   UNL A   1      34.180  28.859  22.926  1.00  0.00     0.201 A 
ATOM     18  C   UNL A   1      32.504  27.588  23.526  1.00  0.00     0.129 A 
ATOM     19  N   UNL A   1      34.121  27.922  21.997  1.00  0.00    -0.224 NA
BRANCH  16  20
ATOM     20  C   UNL A   1      33.201  29.260  25.225  1.00  0.00     0.120 C 
ATOM     21  C   UNL A   1      31.816  29.846  25.488  1.00  0.00     0.027 C 
ENDBRANCH  16  20
ENDBRANCH  12  15
ENDBRANCH   6  12
ENDBRANCH   3   5
ENDBRANCH   2   3
ENDBRANCH   1   2
BRANCH   1  22
ATOM     22  C   UNL A   1      37.800  21.010  25.032  1.00  0.00     0.275 C 
BRANCH  22  23
ATOM     23  O   UNL A   1      38.996  21.160  25.796  1.00  0.00    -0.458 OA
BRANCH  23  24
ATOM     24  C   UNL A   1      39.775  20.060  25.794  1.00  0.00     0.338 C 
ATOM     25  O   UNL A   1      39.458  18.918  25.492  1.00  0.00    -0.246 OA
BRANCH  24  26
ATOM     26  C   UNL A   1      41.074  20.381  26.393  1.00  0.00     0.060 A 
ATOM     27  C   UNL A   1      41.008  20.583  27.772  1.00  0.00     0.016 A 
ATOM     28  C   UNL A   1      41.791  21.236  25.564  1.00  0.00     0.016 A 
ATOM     29  C   UNL A   1      41.187  21.857  28.250  1.00  0.00     0.010 A 
ATOM     30  C   UNL A   1      42.101  22.471  26.060  1.00  0.00     0.010 A 
ATOM     31  C   UNL A   1      41.689  22.807  27.362  1.00  0.00    -0.014 A 
BRANCH  31  32
ATOM     32  C   UNL A   1      42.126  24.090  27.880  1.00  0.00     0.031 A 
ATOM     33  C   UNL A   1      41.034  25.118  27.792  1.00  0.00     0.074 A 
ATOM     34  C   UNL A   1      43.259  24.107  28.618  1.00  0.00     0.049 A 
ATOM     35  N   UNL A   1      41.120  26.382  27.537  1.00  0.00    -0.248 NA
ATOM     36  C   UNL A   1      39.626  24.637  27.839  1.00  0.00     0.031 C 
ATOM     37  C   UNL A   1      44.201  22.996  28.837  1.00  0.00     0.029 A 
ATOM     38  N   UNL A   1      43.677  25.032  29.522  1.00  0.00    -0.354 N 
ATOM     39  C   UNL A   1      39.814  26.873  27.610  1.00  0.00     0.074 A 
ATOM     40  C   UNL A   1      38.935  25.745  27.598  1.00  0.00     0.031 C 
ATOM     41  C   UNL A   1      44.886  23.204  29.981  1.00  0.00     0.029 A 
ATOM     42  C   UNL A   1      44.524  24.504  30.504  1.00  0.00     0.049 A 
ATOM     43  H   UNL A   1      43.413  25.979  29.489  1.00  0.00     0.167 HD
ATOM     44  C   UNL A   1      39.565  28.157  27.971  1.00  0.00     0.037 A 
ATOM     45  C   UNL A   1      44.763  25.075  31.713  1.00  0.00     0.037 A 
ATOM     46  C   UNL A   1      40.695  28.994  27.672  1.00  0.00     0.049 A 
ATOM     47  C   UNL A   1      44.318  26.492  31.608  1.00  0.00     0.074 A 
ATOM     48  C   UNL A   1      41.343  29.336  26.502  1.00  0.00     0.029 A 
ATOM     49  N   UNL A   1      41.571  29.276  28.691  1.00  0.00    -0.354 N 
ATOM     50  N   UNL A   1      44.887  27.365  30.821  1.00  0.00    -0.248 NA
ATOM     51  C   UNL A   1      42.935  26.776  31.967  1.00  0.00     0.031 C 
ATOM     52  C   UNL A   1      42.726  29.336  26.839  1.00  0.00     0.029 A 
ATOM     53  C   UNL A   1      42.839  29.085  28.206  1.00  0.00     0.049 A 
ATOM     54  H   UNL A   1      41.331  29.562  29.602  1.00  0.00     0.167 HD
ATOM     55  C   UNL A   1      43.832  28.064  30.249  1.00  0.00     0.074 A 
ATOM     56  C   UNL A   1      42.653  27.682  31.025  1.00  0.00     0.031 C 
ATOM     57  C   UNL A   1      43.949  28.651  29.022  1.00  0.00     0.037 A 
BRANCH  44  58
ATOM     58  C   UNL A   1      38.498  28.537  28.970  1.00  0.00     0.057 A 
ATOM     59  C   UNL A   1      37.586  29.549  28.627  1.00  0.00     0.134 A 
ATOM     60  C   UNL A   1      38.517  28.192  30.340  1.00  0.00     0.134 A 
ATOM     61  F   UNL A   1      37.460  29.960  27.356  1.00  0.00    -0.206 F 
ATOM     62  C   UNL A   1      36.837  30.240  29.587  1.00  0.00     0.040 A 
ATOM     63  C   UNL A   1      37.740  28.846  31.299  1.00  0.00     0.040 A 
ATOM     64  F   UNL A   1      39.348  27.276  30.851  1.00  0.00    -0.206 F 
ATOM     65  C   UNL A   1      36.926  29.901  30.930  1.00  0.00     0.006 A 
ENDBRANCH  44  58
BRANCH  45  66
ATOM     66  C   UNL A   1      44.962  24.394  33.016  1.00  0.00     0.057 A 
ATOM     67  C   UNL A   1      45.875  24.879  33.962  1.00  0.00     0.134 A 
ATOM     68  C   UNL A   1      44.081  23.394  33.470  1.00  0.00     0.134 A 
ATOM     69  F   UNL A   1      46.721  25.869  33.643  1.00  0.00    -0.206 F 
ATOM     70  C   UNL A   1      45.909  24.401  35.282  1.00  0.00     0.040 A 
ATOM     71  C   UNL A   1      44.109  22.903  34.781  1.00  0.00     0.040 A 
ATOM     72  F   UNL A   1      43.106  22.918  32.683  1.00  0.00    -0.206 F 
ATOM     73  C   UNL A   1      45.019  23.414  35.696  1.00  0.00     0.006 A 
ENDBRANCH  45  66
BRANCH  57  74
ATOM     74  C   UNL A   1      45.303  28.654  28.362  1.00  0.00     0.057 A 
ATOM     75  C   UNL A   1      45.753  27.655  27.484  1.00  0.00     0.134 A 
ATOM     76  C   UNL A   1      46.092  29.802  28.463  1.00  0.00     0.134 A 
ATOM     77  F   UNL A   1      45.018  26.564  27.242  1.00  0.00    -0.206 F 
ATOM     78  C   UNL A   1      46.946  27.778  26.765  1.00  0.00     0.040 A 
ATOM     79  C   UNL A   1      47.269  29.953  27.727  1.00  0.00     0.040 A 
ATOM     80  F   UNL A   1      45.697  30.826  29.234  1.00  0.00    -0.206 F 
ATOM     81  C   UNL A   1      47.704  28.937  26.880  1.00  0.00     0.006 A 
ENDBRANCH  57  74
ENDBRANCH  31  32
ENDBRANCH  24  26
ENDBRANCH  23  24
ENDBRANCH  22  23
ENDBRANCH   1  22
TORSDOF 14
ENDMDL
MODEL 2
REMARK VINA RESULT:     -11.6      1.447      1.963
REMARK SMILES CCn1cnc(S(=O)(=O)N2CCC(C)(C(=O)OCCOC(=O)c3ccc(-c4c5nc(c(-c6c(F)cccc6F)c6ccc([nH]6)c(-c6c(F)cccc6F)c6nc(c(-c7c(F)cccc7F)c7ccc4[nH]7)C=C6)C=C5)cc3)CC2)c1
REMARK SMILES IDX 18 1 17 2 15 3 16 4 13 5 10 6 11 7 78 8 12 9 77 10 14 11
REMARK SMILES IDX 7 12 8 13 9 14 6 15 3 16 4 17 79 18 5 19 2 20 1 21 19 22
REMARK SMILES IDX 20 23 21 24 22 25 23 26 24 27 76 28 25 29 75 30 26 31 27 32
REMARK SMILES IDX 28 33 69 34 29 35 74 36 68 37 70 38 30 39 73 40 67 41 66 42
REMARK SMILES IDX 31 44 57 45 40 46 56 47 41 48 44 49 55 50 71 51 42 52 43 53
REMARK SMILES IDX 54 55 72 56 45 57 32 58 33 59 38 60 34 61 35 62 37 63 39 64
REMARK SMILES IDX 36 65 58 66 59 67 64 68 60 69 61 70 63 71 65 72 62 73 46 74
REMARK SMILES IDX 47 75 52 76 48 77 49 78 51 79 53 80 50 81
REMARK H PARENT 70 43 44 54
REMARK Flexibility Score: inf
ROOT
ATOM      1  C   UNL A   1      37.121  22.113  25.231  1.00  0.00     0.274 C 
ENDROOT
BRANCH   1   2
ATOM      2  O   UNL A   1      35.820  21.867  24.668  1.00  0.00    -0.462 OA
BRANCH   2   3
ATOM      3  C   UNL A   1      35.374  22.736  23.711  1.00  0.00     0.312 C 
ATOM      4  O   UNL A   1      36.076  23.202  22.822  1.00  0.00    -0.252 OA
BRANCH   3   5
ATOM      5  C   UNL A   1      33.936  23.183  23.998  1.00  0.00     0.068 C 
ATOM      6  N   UNL A   1      32.649  25.815  24.235  1.00  0.00    -0.196 NA
ATOM      7  C   UNL A   1      32.911  25.388  22.866  1.00  0.00     0.104 C 
ATOM      8  C   UNL A   1      33.721  25.502  25.156  1.00  0.00     0.104 C 
ATOM      9  C   UNL A   1      33.254  23.891  22.775  1.00  0.00     0.035 C 
ATOM     10  C   UNL A   1      33.855  23.998  25.325  1.00  0.00     0.035 C 
ATOM     11  C   UNL A   1      33.306  21.787  24.236  1.00  0.00     0.024 C 
BRANCH   6  12
ATOM     12  S   UNL A   1      31.171  26.427  24.771  1.00  0.00     0.262 S 
ATOM     13  O   UNL A   1      31.396  27.200  25.975  1.00  0.00    -0.205 OA
ATOM     14  O   UNL A   1      30.189  25.368  24.694  1.00  0.00    -0.205 OA
BRANCH  12  15
ATOM     15  C   UNL A   1      30.642  27.606  23.591  1.00  0.00     0.188 A 
ATOM     16  N   UNL A   1      29.298  28.966  22.541  1.00  0.00    -0.336 N 
ATOM     17  C   UNL A   1      30.590  29.286  22.250  1.00  0.00     0.201 A 
ATOM     18  C   UNL A   1      29.325  27.813  23.259  1.00  0.00     0.129 A 
ATOM     19  N   UNL A   1      31.435  28.510  22.903  1.00  0.00    -0.224 NA
BRANCH  16  20
ATOM     20  C   UNL A   1      28.094  29.705  22.223  1.00  0.00     0.120 C 
ATOM     21  C   UNL A   1      27.749  30.744  23.286  1.00  0.00     0.027 C 
ENDBRANCH  16  20
ENDBRANCH  12  15
ENDBRANCH   6  12
ENDBRANCH   3   5
ENDBRANCH   2   3
ENDBRANCH   1   2
BRANCH   1  22
ATOM     22  C   UNL A   1      38.012  20.882  25.129  1.00  0.00     0.275 C 
BRANCH  22  23
ATOM     23  O   UNL A   1      39.257  21.113  25.787  1.00  0.00    -0.458 OA
BRANCH  23  24
ATOM     24  C   UNL A   1      40.037  20.015  25.861  1.00  0.00     0.338 C 
ATOM     25  O   UNL A   1      39.740  18.865  25.571  1.00  0.00    -0.246 OA
BRANCH  24  26
ATOM     26  C   UNL A   1      41.298  20.356  26.525  1.00  0.00     0.060 A 
ATOM     27  C   UNL A   1      41.153  20.584  27.894  1.00  0.00     0.016 A 
ATOM     28  C   UNL A   1      42.056  21.200  25.723  1.00  0.00     0.016 A 
ATOM     29  C   UNL A   1      41.298  21.868  28.357  1.00  0.00     0.010 A 
ATOM     30  C   UNL A   1      42.331  22.446  26.212  1.00  0.00     0.010 A 
ATOM     31  C   UNL A   1      41.844  22.804  27.481  1.00  0.00    -0.014 A 
BRANCH  31  32
ATOM     32  C   UNL A   1      42.244  24.100  27.999  1.00  0.00     0.031 A 
ATOM     33  C   UNL A   1      41.149  25.116  27.838  1.00  0.00     0.074 A 
ATOM     34  C   UNL A   1      43.338  24.139  28.792  1.00  0.00     0.049 A 
ATOM     35  N   UNL A   1      41.237  26.376  27.566  1.00  0.00    -0.248 NA
ATOM     36  C   UNL A   1      39.745  24.622  27.823  1.00  0.00     0.031 C 
ATOM     37  C   UNL A   1      44.278  23.041  29.076  1.00  0.00     0.029 A 
ATOM     38  N   UNL A   1      43.703  25.082  29.699  1.00  0.00    -0.354 N 
ATOM     39  C   UNL A   1      39.925  26.856  27.566  1.00  0.00     0.074 A 
ATOM     40  C   UNL A   1      39.057  25.720  27.529  1.00  0.00     0.031 C 
ATOM     41  C   UNL A   1      44.903  23.274  30.249  1.00  0.00     0.029 A 
ATOM     42  C   UNL A   1      44.503  24.579  30.731  1.00  0.00     0.049 A 
ATOM     43  H   UNL A   1      43.432  26.027  29.637  1.00  0.00     0.167 HD
ATOM     44  C   UNL A   1      39.648  28.144  27.892  1.00  0.00     0.037 A 
ATOM     45  C   UNL A   1      44.678  25.172  31.941  1.00  0.00     0.037 A 
ATOM     46  C   UNL A   1      40.784  28.985  27.635  1.00  0.00     0.049 A 
ATOM     47  C   UNL A   1      44.227  26.583  31.790  1.00  0.00     0.074 A 
ATOM     48  C   UNL A   1      41.487  29.314  26.494  1.00  0.00     0.029 A 
ATOM     49  N   UNL A   1      41.605  29.292  28.692  1.00  0.00    -0.354 N 
ATOM     50  N   UNL A   1      44.827  27.448  31.017  1.00  0.00    -0.248 NA
ATOM     51  C   UNL A   1      42.824  26.861  32.074  1.00  0.00     0.031 C 
ATOM     52  C   UNL A   1      42.851  29.333  26.899  1.00  0.00     0.029 A 
ATOM     53  C   UNL A   1      42.898  29.105  28.275  1.00  0.00     0.049 A 
ATOM     54  H   UNL A   1      41.319  29.592  29.585  1.00  0.00     0.167 HD
ATOM     55  C   UNL A   1      43.796  28.127  30.381  1.00  0.00     0.074 A 
ATOM     56  C   UNL A   1      42.583  27.748  31.104  1.00  0.00     0.031 C 
ATOM     57  C   UNL A   1      43.969  28.695  29.152  1.00  0.00     0.037 A 
BRANCH  44  58
ATOM     58  C   UNL A   1      38.529  28.531  28.830  1.00  0.00     0.057 A 
ATOM     59  C   UNL A   1      37.630  29.532  28.427  1.00  0.00     0.134 A 
ATOM     60  C   UNL A   1      38.480  28.204  30.204  1.00  0.00     0.134 A 
ATOM     61  F   UNL A   1      37.567  29.924  27.145  1.00  0.00    -0.206 F 
ATOM     62  C   UNL A   1      36.828  30.231  29.337  1.00  0.00     0.040 A 
ATOM     63  C   UNL A   1      37.651  28.867  31.113  1.00  0.00     0.040 A 
ATOM     64  F   UNL A   1      39.289  27.301  30.769  1.00  0.00    -0.206 F 
ATOM     65  C   UNL A   1      36.851  29.911  30.687  1.00  0.00     0.006 A 
ENDBRANCH  44  58
BRANCH  45  66
ATOM     66  C   UNL A   1      44.817  24.514  33.264  1.00  0.00     0.057 A 
ATOM     67  C   UNL A   1      45.614  25.067  34.274  1.00  0.00     0.134 A 
ATOM     68  C   UNL A   1      43.972  23.459  33.657  1.00  0.00     0.134 A 
ATOM     69  F   UNL A   1      46.414  26.112  34.012  1.00  0.00    -0.206 F 
ATOM     70  C   UNL A   1      45.574  24.601  35.598  1.00  0.00     0.040 A 
ATOM     71  C   UNL A   1      43.928  22.979  34.972  1.00  0.00     0.040 A 
ATOM     72  F   UNL A   1      43.099  22.912  32.801  1.00  0.00    -0.206 F 
ATOM     73  C   UNL A   1      44.723  23.558  35.951  1.00  0.00     0.006 A 
ENDBRANCH  45  66
BRANCH  57  74
ATOM     74  C   UNL A   1      45.354  28.700  28.560  1.00  0.00     0.057 A 
ATOM     75  C   UNL A   1      46.358  29.616  28.911  1.00  0.00     0.134 A 
ATOM     76  C   UNL A   1      45.743  27.622  27.760  1.00  0.00     0.134 A 
ATOM     77  F   UNL A   1      46.108  30.625  29.755  1.00  0.00    -0.206 F 
ATOM     78  C   UNL A   1      47.676  29.486  28.464  1.00  0.00     0.040 A 
ATOM     79  C   UNL A   1      47.063  27.460  27.333  1.00  0.00     0.040 A 
ATOM     80  F   UNL A   1      44.855  26.672  27.434  1.00  0.00    -0.206 F 
ATOM     81  C   UNL A   1      48.033  28.397  27.678  1.00  0.00     0.006 A 
ENDBRANCH  57  74
ENDBRANCH  31  32
ENDBRANCH  24  26
ENDBRANCH  23  24
ENDBRANCH  22  23
ENDBRANCH   1  22
TORSDOF 14
ENDMDL
MODEL 3
REMARK VINA RESULT:     -11.4      4.163      9.049
REMARK SMILES CCn1cnc(S(=O)(=O)N2CCC(C)(C(=O)OCCOC(=O)c3ccc(-c4c5nc(c(-c6c(F)cccc6F)c6ccc([nH]6)c(-c6c(F)cccc6F)c6nc(c(-c7c(F)cccc7F)c7ccc4[nH]7)C=C6)C=C5)cc3)CC2)c1
REMARK SMILES IDX 18 1 17 2 15 3 16 4 13 5 10 6 11 7 78 8 12 9 77 10 14 11
REMARK SMILES IDX 7 12 8 13 9 14 6 15 3 16 4 17 79 18 5 19 2 20 1 21 19 22
REMARK SMILES IDX 20 23 21 24 22 25 23 26 24 27 76 28 25 29 75 30 26 31 27 32
REMARK SMILES IDX 28 33 69 34 29 35 74 36 68 37 70 38 30 39 73 40 67 41 66 42
REMARK SMILES IDX 31 44 57 45 40 46 56 47 41 48 44 49 55 50 71 51 42 52 43 53
REMARK SMILES IDX 54 55 72 56 45 57 32 58 33 59 38 60 34 61 35 62 37 63 39 64
REMARK SMILES IDX 36 65 58 66 59 67 64 68 60 69 61 70 63 71 65 72 62 73 46 74
REMARK SMILES IDX 47 75 52 76 48 77 49 78 51 79 53 80 50 81
REMARK H PARENT 70 43 44 54
REMARK Flexibility Score: inf
ROOT
ATOM      1  C   UNL A   1      33.006  30.176  25.861  1.00  0.00     0.274 C 
ENDROOT
BRANCH   1   2
ATOM      2  O   UNL A   1      32.109  29.400  25.046  1.00  0.00    -0.462 OA
BRANCH   2   3
ATOM      3  C   UNL A   1      32.659  28.662  24.034  1.00  0.00     0.312 C 
ATOM      4  O   UNL A   1      33.414  29.114  23.181  1.00  0.00    -0.252 OA
BRANCH   3   5
ATOM      5  C   UNL A   1      32.073  27.246  24.003  1.00  0.00     0.068 C 
ATOM      6  N   UNL A   1      31.383  25.300  26.095  1.00  0.00    -0.196 NA
ATOM      7  C   UNL A   1      30.418  26.380  25.929  1.00  0.00     0.104 C 
ATOM      8  C   UNL A   1      32.761  25.733  26.004  1.00  0.00     0.104 C 
ATOM      9  C   UNL A   1      30.633  27.160  24.620  1.00  0.00     0.035 C 
ATOM     10  C   UNL A   1      33.076  26.210  24.596  1.00  0.00     0.035 C 
ATOM     11  C   UNL A   1      32.017  27.056  22.466  1.00  0.00     0.024 C 
BRANCH   6  12
ATOM     12  S   UNL A   1      30.970  23.666  26.179  1.00  0.00     0.262 S 
ATOM     13  O   UNL A   1      30.692  23.187  24.840  1.00  0.00    -0.205 OA
ATOM     14  O   UNL A   1      30.050  23.488  27.280  1.00  0.00    -0.205 OA
BRANCH  12  15
ATOM     15  C   UNL A   1      32.409  22.795  26.660  1.00  0.00     0.188 A 
ATOM     16  N   UNL A   1      34.401  21.919  26.502  1.00  0.00    -0.336 N 
ATOM     17  C   UNL A   1      34.051  22.021  27.814  1.00  0.00     0.201 A 
ATOM     18  C   UNL A   1      33.308  22.259  25.769  1.00  0.00     0.129 A 
ATOM     19  N   UNL A   1      32.867  22.588  27.951  1.00  0.00    -0.224 NA
BRANCH  16  20
ATOM     20  C   UNL A   1      35.690  21.576  25.937  1.00  0.00     0.120 C 
ATOM     21  C   UNL A   1      35.779  21.895  24.447  1.00  0.00     0.027 C 
ENDBRANCH  16  20
ENDBRANCH  12  15
ENDBRANCH   6  12
ENDBRANCH   3   5
ENDBRANCH   2   3
ENDBRANCH   1   2
BRANCH   1  22
ATOM     22  C   UNL A   1      32.242  31.076  26.824  1.00  0.00     0.275 C 
BRANCH  22  23
ATOM     23  O   UNL A   1      33.150  31.828  27.629  1.00  0.00    -0.458 OA
BRANCH  23  24
ATOM     24  C   UNL A   1      32.810  33.127  27.751  1.00  0.00     0.338 C 
ATOM     25  O   UNL A   1      31.870  33.707  27.227  1.00  0.00    -0.246 OA
BRANCH  24  26
ATOM     26  C   UNL A   1      33.854  33.838  28.494  1.00  0.00     0.060 A 
ATOM     27  C   UNL A   1      35.011  34.054  27.744  1.00  0.00     0.016 A 
ATOM     28  C   UNL A   1      33.912  33.381  29.806  1.00  0.00     0.016 A 
ATOM     29  C   UNL A   1      36.141  33.351  28.076  1.00  0.00     0.010 A 
ATOM     30  C   UNL A   1      35.075  32.789  30.211  1.00  0.00     0.010 A 
ATOM     31  C   UNL A   1      36.138  32.677  29.297  1.00  0.00    -0.014 A 
BRANCH  31  32
ATOM     32  C   UNL A   1      37.385  32.133  29.801  1.00  0.00     0.031 A 
ATOM     33  C   UNL A   1      37.607  30.729  29.313  1.00  0.00     0.074 A 
ATOM     34  C   UNL A   1      38.272  33.004  30.333  1.00  0.00     0.049 A 
ATOM     35  N   UNL A   1      38.146  29.727  29.925  1.00  0.00    -0.248 NA
ATOM     36  C   UNL A   1      36.996  30.345  28.011  1.00  0.00     0.031 C 
ATOM     37  C   UNL A   1      38.065  34.436  30.608  1.00  0.00     0.029 A 
ATOM     38  N   UNL A   1      39.612  32.860  30.508  1.00  0.00    -0.354 N 
ATOM     39  C   UNL A   1      38.133  28.673  29.009  1.00  0.00     0.074 A 
ATOM     40  C   UNL A   1      37.251  29.044  27.946  1.00  0.00     0.031 C 
ATOM     41  C   UNL A   1      39.258  35.067  30.638  1.00  0.00     0.029 A 
ATOM     42  C   UNL A   1      40.305  34.076  30.509  1.00  0.00     0.049 A 
ATOM     43  H   UNL A   1      40.052  31.987  30.624  1.00  0.00     0.167 HD
ATOM     44  C   UNL A   1      39.076  27.696  29.047  1.00  0.00     0.037 A 
ATOM     45  C   UNL A   1      41.635  34.214  30.271  1.00  0.00     0.037 A 
ATOM     46  C   UNL A   1      39.616  27.569  30.372  1.00  0.00     0.049 A 
ATOM     47  C   UNL A   1      42.237  32.861  30.434  1.00  0.00     0.074 A 
ATOM     48  C   UNL A   1      39.070  27.237  31.596  1.00  0.00     0.029 A 
ATOM     49  N   UNL A   1      40.804  28.202  30.643  1.00  0.00    -0.354 N 
ATOM     50  N   UNL A   1      42.269  32.224  31.574  1.00  0.00    -0.248 NA
ATOM     51  C   UNL A   1      42.309  32.024  29.243  1.00  0.00     0.031 C 
ATOM     52  C   UNL A   1      39.702  28.111  32.525  1.00  0.00     0.029 A 
ATOM     53  C   UNL A   1      40.656  28.859  31.837  1.00  0.00     0.049 A 
ATOM     54  H   UNL A   1      41.613  28.186  30.082  1.00  0.00     0.167 HD
ATOM     55  C   UNL A   1      41.936  30.914  31.253  1.00  0.00     0.074 A 
ATOM     56  C   UNL A   1      42.012  30.844  29.794  1.00  0.00     0.031 C 
ATOM     57  C   UNL A   1      41.342  30.087  32.163  1.00  0.00     0.037 A 
BRANCH  44  58
ATOM     58  C   UNL A   1      39.786  27.192  27.813  1.00  0.00     0.057 A 
ATOM     59  C   UNL A   1      39.886  25.805  27.615  1.00  0.00     0.134 A 
ATOM     60  C   UNL A   1      40.632  27.973  26.994  1.00  0.00     0.134 A 
ATOM     61  F   UNL A   1      39.127  24.953  28.321  1.00  0.00    -0.206 F 
ATOM     62  C   UNL A   1      40.833  25.237  26.755  1.00  0.00     0.040 A 
ATOM     63  C   UNL A   1      41.549  27.416  26.100  1.00  0.00     0.040 A 
ATOM     64  F   UNL A   1      40.695  29.307  27.072  1.00  0.00    -0.206 F 
ATOM     65  C   UNL A   1      41.680  26.043  26.007  1.00  0.00     0.006 A 
ENDBRANCH  44  58
BRANCH  45  66
ATOM     66  C   UNL A   1      42.319  35.311  29.543  1.00  0.00     0.057 A 
ATOM     67  C   UNL A   1      43.579  35.777  29.940  1.00  0.00     0.134 A 
ATOM     68  C   UNL A   1      41.867  35.760  28.288  1.00  0.00     0.134 A 
ATOM     69  F   UNL A   1      44.121  35.365  31.096  1.00  0.00    -0.206 F 
ATOM     70  C   UNL A   1      44.346  36.636  29.138  1.00  0.00     0.040 A 
ATOM     71  C   UNL A   1      42.617  36.623  27.481  1.00  0.00     0.040 A 
ATOM     72  F   UNL A   1      40.719  35.311  27.762  1.00  0.00    -0.206 F 
ATOM     73  C   UNL A   1      43.868  37.056  27.900  1.00  0.00     0.006 A 
ENDBRANCH  45  66
BRANCH  57  74
ATOM     74  C   UNL A   1      41.190  30.581  33.578  1.00  0.00     0.057 A 
ATOM     75  C   UNL A   1      42.219  30.567  34.532  1.00  0.00     0.134 A 
ATOM     76  C   UNL A   1      40.026  31.273  33.922  1.00  0.00     0.134 A 
ATOM     77  F   UNL A   1      43.408  30.017  34.258  1.00  0.00    -0.206 F 
ATOM     78  C   UNL A   1      42.088  31.183  35.780  1.00  0.00     0.040 A 
ATOM     79  C   UNL A   1      39.892  31.922  35.152  1.00  0.00     0.040 A 
ATOM     80  F   UNL A   1      39.022  31.383  33.040  1.00  0.00    -0.206 F 
ATOM     81  C   UNL A   1      40.921  31.873  36.088  1.00  0.00     0.006 A 
ENDBRANCH  57  74
ENDBRANCH  31  32
ENDBRANCH  24  26
ENDBRANCH  23  24
ENDBRANCH  22  23
ENDBRANCH   1  22
TORSDOF 14
ENDMDL
