MODEL 1
REMARK VINA RESULT:     -14.8      0.000      0.000
REMARK SMILES O=C(OCCOC(=O)c1ccc(-c2c3nc(c(-c4c(F)cccc4F)c4ccc([nH]4)c(-c4c(F)cccc4F)c4nc(c(-c5c(F)cccc5F)c5ccc2[nH]5)C=C4)C=C3)cc1)C1=Cc2cc(Cl)cc(-c3ccc(Cl)cc3)c2O[C@@H]1C(F)(F)F
REMARK SMILES IDX 5 1 4 2 3 3 2 4 1 5 63 6 64 7 80 8 65 9 79 10 66 11 78 12
REMARK SMILES IDX 67 13 70 14 68 15 69 16 81 17 82 18 83 19 84 20 71 21 72 22
REMARK SMILES IDX 77 23 73 24 76 25 74 26 75 27 6 28 7 29 8 30 9 31 10 32
REMARK SMILES IDX 62 33 11 34 61 35 12 36 13 37 14 38 55 39 15 40 60 41 54 42
REMARK SMILES IDX 56 43 16 44 59 45 53 46 52 47 17 49 43 50 26 51 42 52 27 53
REMARK SMILES IDX 30 54 41 55 57 56 28 57 29 58 40 60 58 61 31 62 18 63 19 64
REMARK SMILES IDX 24 65 20 66 21 67 23 68 25 69 22 70 44 71 45 72 50 73 46 74
REMARK SMILES IDX 47 75 49 76 51 77 48 78 32 79 33 80 38 81 34 82 35 83 37 84
REMARK SMILES IDX 39 85 36 86
REMARK H PARENT 56 48 30 59
REMARK Flexibility Score: inf
ROOT
ATOM      1  C   UNL A   1      32.623  29.926  27.066  1.00  0.00     0.275 C 
ENDROOT
BRANCH   1   2
ATOM      2  C   UNL A   1      32.423  27.772  27.197  1.00  0.00     0.275 C 
BRANCH   2   3
ATOM      3  O   UNL A   1      33.136  26.723  26.273  1.00  0.00    -0.459 OA
BRANCH   3   4
ATOM      4  C   UNL A   1      32.447  25.587  26.117  1.00  0.00     0.338 C 
ATOM      5  O   UNL A   1      31.771  24.956  26.887  1.00  0.00    -0.246 OA
BRANCH   4   6
ATOM      6  C   UNL A   1      33.041  25.261  24.851  1.00  0.00     0.087 C 
ATOM      7  C   UNL A   1      34.479  24.985  25.020  1.00  0.00     0.027 C 
ATOM      8  C   UNL A   1      31.719  23.970  24.280  1.00  0.00     0.316 C 
ATOM      9  C   UNL A   1      35.195  23.336  24.844  1.00  0.00     0.019 A 
ATOM     10  O   UNL A   1      32.463  22.195  24.126  1.00  0.00    -0.475 OA
ATOM     11  C   UNL A   1      36.508  23.207  25.208  1.00  0.00     0.032 A 
ATOM     12  C   UNL A   1      34.224  21.917  24.512  1.00  0.00     0.135 A 
ATOM     13  C   UNL A   1      36.965  21.894  25.280  1.00  0.00     0.042 A 
ATOM     14  C   UNL A   1      34.758  20.656  24.668  1.00  0.00     0.026 A 
ATOM     15  Cl  UNL A   1      38.605  21.651  25.781  1.00  0.00    -0.084 Cl
ATOM     16  C   UNL A   1      36.154  20.723  25.028  1.00  0.00     0.033 A 
BRANCH   8  17
ATOM     17  C   UNL A   1      30.911  24.899  23.304  1.00  0.00     0.430 C 
ATOM     18  F   UNL A   1      31.646  25.290  22.253  1.00  0.00    -0.167 F 
ATOM     19  F   UNL A   1      29.902  24.157  22.751  1.00  0.00    -0.167 F 
ATOM     20  F   UNL A   1      30.248  25.932  23.851  1.00  0.00    -0.167 F 
ENDBRANCH   8  17
BRANCH  14  21
ATOM     21  C   UNL A   1      34.171  19.319  24.658  1.00  0.00    -0.015 A 
ATOM     22  C   UNL A   1      32.967  19.111  25.374  1.00  0.00     0.010 A 
ATOM     23  C   UNL A   1      34.891  18.195  24.244  1.00  0.00     0.010 A 
ATOM     24  C   UNL A   1      32.529  17.830  25.714  1.00  0.00     0.021 A 
ATOM     25  C   UNL A   1      34.449  16.905  24.580  1.00  0.00     0.021 A 
ATOM     26  C   UNL A   1      33.281  16.730  25.325  1.00  0.00     0.041 A 
ATOM     27  Cl  UNL A   1      32.790  15.152  25.803  1.00  0.00    -0.084 Cl
ENDBRANCH  14  21
ENDBRANCH   4   6
ENDBRANCH   3   4
ENDBRANCH   2   3
ENDBRANCH   1   2
BRANCH   1  28
ATOM     28  O   UNL A   1      33.982  30.853  27.500  1.00  0.00    -0.458 OA
BRANCH  28  29
ATOM     29  C   UNL A   1      34.792  31.232  28.535  1.00  0.00     0.338 C 
ATOM     30  O   UNL A   1      34.589  32.025  29.432  1.00  0.00    -0.246 OA
BRANCH  29  31
ATOM     31  C   UNL A   1      35.877  30.197  28.571  1.00  0.00     0.060 A 
ATOM     32  C   UNL A   1      36.703  30.051  27.443  1.00  0.00     0.016 A 
ATOM     33  C   UNL A   1      36.300  29.699  29.804  1.00  0.00     0.016 A 
ATOM     34  C   UNL A   1      38.045  29.661  27.609  1.00  0.00     0.010 A 
ATOM     35  C   UNL A   1      37.618  29.260  29.953  1.00  0.00     0.010 A 
ATOM     36  C   UNL A   1      38.526  29.317  28.880  1.00  0.00    -0.014 A 
BRANCH  36  37
ATOM     37  C   UNL A   1      39.903  28.796  29.092  1.00  0.00     0.031 A 
ATOM     38  C   UNL A   1      40.910  29.787  29.585  1.00  0.00     0.074 A 
ATOM     39  C   UNL A   1      40.294  27.554  28.735  1.00  0.00     0.049 A 
ATOM     40  N   UNL A   1      42.209  29.691  29.669  1.00  0.00    -0.248 NA
ATOM     41  C   UNL A   1      40.364  31.090  29.997  1.00  0.00     0.031 C 
ATOM     42  C   UNL A   1      39.426  26.487  28.238  1.00  0.00     0.029 A 
ATOM     43  N   UNL A   1      41.553  26.992  28.706  1.00  0.00    -0.354 N 
ATOM     44  C   UNL A   1      42.636  30.930  30.122  1.00  0.00     0.074 A 
ATOM     45  C   UNL A   1      41.467  31.769  30.251  1.00  0.00     0.031 C 
ATOM     46  C   UNL A   1      40.180  25.415  27.925  1.00  0.00     0.029 A 
ATOM     47  C   UNL A   1      41.589  25.721  28.174  1.00  0.00     0.049 A 
ATOM     48  H   UNL A   1      42.355  27.458  29.035  1.00  0.00     0.167 HD
ATOM     49  C   UNL A   1      43.890  31.342  30.409  1.00  0.00     0.037 A 
ATOM     50  C   UNL A   1      42.640  24.916  27.903  1.00  0.00     0.037 A 
ATOM     51  C   UNL A   1      45.057  30.527  30.251  1.00  0.00     0.049 A 
ATOM     52  C   UNL A   1      44.043  25.408  28.197  1.00  0.00     0.074 A 
ATOM     53  C   UNL A   1      46.374  30.845  30.523  1.00  0.00     0.029 A 
ATOM     54  N   UNL A   1      45.043  29.231  29.759  1.00  0.00    -0.354 N 
ATOM     55  N   UNL A   1      44.432  26.558  28.693  1.00  0.00    -0.248 NA
ATOM     56  C   UNL A   1      45.154  24.490  27.889  1.00  0.00     0.031 C 
ATOM     57  C   UNL A   1      47.164  29.751  30.158  1.00  0.00     0.029 A 
ATOM     58  C   UNL A   1      46.333  28.737  29.704  1.00  0.00     0.049 A 
ATOM     59  H   UNL A   1      44.236  28.736  29.489  1.00  0.00     0.167 HD
ATOM     60  C   UNL A   1      45.818  26.486  28.794  1.00  0.00     0.074 A 
ATOM     61  C   UNL A   1      46.207  25.180  28.308  1.00  0.00     0.031 C 
ATOM     62  C   UNL A   1      46.692  27.417  29.250  1.00  0.00     0.037 A 
BRANCH  49  63
ATOM     63  C   UNL A   1      44.022  32.758  30.879  1.00  0.00     0.057 A 
ATOM     64  C   UNL A   1      43.927  33.089  32.238  1.00  0.00     0.134 A 
ATOM     65  C   UNL A   1      44.133  33.806  29.960  1.00  0.00     0.134 A 
ATOM     66  F   UNL A   1      43.781  32.128  33.163  1.00  0.00    -0.206 F 
ATOM     67  C   UNL A   1      43.878  34.417  32.661  1.00  0.00     0.040 A 
ATOM     68  C   UNL A   1      44.119  35.138  30.374  1.00  0.00     0.040 A 
ATOM     69  F   UNL A   1      44.221  33.555  28.645  1.00  0.00    -0.206 F 
ATOM     70  C   UNL A   1      43.972  35.446  31.726  1.00  0.00     0.006 A 
ENDBRANCH  49  63
BRANCH  50  71
ATOM     71  C   UNL A   1      42.446  23.560  27.315  1.00  0.00     0.057 A 
ATOM     72  C   UNL A   1      42.247  22.438  28.132  1.00  0.00     0.134 A 
ATOM     73  C   UNL A   1      42.535  23.333  25.935  1.00  0.00     0.134 A 
ATOM     74  F   UNL A   1      42.191  22.578  29.465  1.00  0.00    -0.206 F 
ATOM     75  C   UNL A   1      42.166  21.145  27.606  1.00  0.00     0.040 A 
ATOM     76  C   UNL A   1      42.434  22.048  25.393  1.00  0.00     0.040 A 
ATOM     77  F   UNL A   1      42.738  24.356  25.093  1.00  0.00    -0.206 F 
ATOM     78  C   UNL A   1      42.258  20.947  26.230  1.00  0.00     0.006 A 
ENDBRANCH  50  71
BRANCH  62  79
ATOM     79  C   UNL A   1      48.148  27.057  29.307  1.00  0.00     0.057 A 
ATOM     80  C   UNL A   1      48.695  26.350  30.383  1.00  0.00     0.134 A 
ATOM     81  C   UNL A   1      48.980  27.314  28.209  1.00  0.00     0.134 A 
ATOM     82  F   UNL A   1      47.954  26.080  31.468  1.00  0.00    -0.206 F 
ATOM     83  C   UNL A   1      50.020  25.908  30.364  1.00  0.00     0.040 A 
ATOM     84  C   UNL A   1      50.297  26.858  28.168  1.00  0.00     0.040 A 
ATOM     85  F   UNL A   1      48.511  27.978  27.141  1.00  0.00    -0.206 F 
ATOM     86  C   UNL A   1      50.820  26.150  29.247  1.00  0.00     0.006 A 
ENDBRANCH  62  79
ENDBRANCH  36  37
ENDBRANCH  29  31
ENDBRANCH  28  29
ENDBRANCH   1  28
TORSDOF 13
ENDMDL
MODEL 2
REMARK VINA RESULT:     -14.7      3.627      7.788
REMARK SMILES O=C(OCCOC(=O)c1ccc(-c2c3nc(c(-c4c(F)cccc4F)c4ccc([nH]4)c(-c4c(F)cccc4F)c4nc(c(-c5c(F)cccc5F)c5ccc2[nH]5)C=C4)C=C3)cc1)C1=Cc2cc(Cl)cc(-c3ccc(Cl)cc3)c2O[C@@H]1C(F)(F)F
REMARK SMILES IDX 5 1 4 2 3 3 2 4 1 5 63 6 64 7 80 8 65 9 79 10 66 11 78 12
REMARK SMILES IDX 67 13 70 14 68 15 69 16 81 17 82 18 83 19 84 20 71 21 72 22
REMARK SMILES IDX 77 23 73 24 76 25 74 26 75 27 6 28 7 29 8 30 9 31 10 32
REMARK SMILES IDX 62 33 11 34 61 35 12 36 13 37 14 38 55 39 15 40 60 41 54 42
REMARK SMILES IDX 56 43 16 44 59 45 53 46 52 47 17 49 43 50 26 51 42 52 27 53
REMARK SMILES IDX 30 54 41 55 57 56 28 57 29 58 40 60 58 61 31 62 18 63 19 64
REMARK SMILES IDX 24 65 20 66 21 67 23 68 25 69 22 70 44 71 45 72 50 73 46 74
REMARK SMILES IDX 47 75 49 76 51 77 48 78 32 79 33 80 38 81 34 82 35 83 37 84
REMARK SMILES IDX 39 85 36 86
REMARK H PARENT 56 48 30 59
REMARK Flexibility Score: inf
ROOT
ATOM      1  C   UNL A   1      36.284  21.407  24.784  1.00  0.00     0.275 C 
ENDROOT
BRANCH   1   2
ATOM      2  C   UNL A   1      35.152  22.879  23.667  1.00  0.00     0.275 C 
BRANCH   2   3
ATOM      3  O   UNL A   1      34.932  24.378  24.078  1.00  0.00    -0.459 OA
BRANCH   3   4
ATOM      4  C   UNL A   1      34.003  25.005  23.348  1.00  0.00     0.338 C 
ATOM      5  O   UNL A   1      34.058  25.515  22.259  1.00  0.00    -0.246 OA
BRANCH   4   6
ATOM      6  C   UNL A   1      33.059  25.112  24.426  1.00  0.00     0.087 C 
ATOM      7  C   UNL A   1      33.481  26.163  25.370  1.00  0.00     0.027 C 
ATOM      8  C   UNL A   1      31.454  25.164  23.348  1.00  0.00     0.316 C 
ATOM      9  C   UNL A   1      32.611  27.734  25.552  1.00  0.00     0.019 A 
ATOM     10  O   UNL A   1      30.535  26.855  23.503  1.00  0.00    -0.475 OA
ATOM     11  C   UNL A   1      33.225  28.677  26.332  1.00  0.00     0.032 A 
ATOM     12  C   UNL A   1      31.221  28.161  24.576  1.00  0.00     0.135 A 
ATOM     13  C   UNL A   1      32.653  29.944  26.271  1.00  0.00     0.042 A 
ATOM     14  C   UNL A   1      30.766  29.462  24.542  1.00  0.00     0.026 A 
ATOM     15  Cl  UNL A   1      33.406  31.200  27.196  1.00  0.00    -0.084 Cl
ATOM     16  C   UNL A   1      31.519  30.299  25.446  1.00  0.00     0.033 A 
BRANCH   8  17
ATOM     17  C   UNL A   1      31.017  23.667  23.531  1.00  0.00     0.430 C 
ATOM     18  F   UNL A   1      30.683  23.390  24.800  1.00  0.00    -0.167 F 
ATOM     19  F   UNL A   1      29.856  23.475  22.830  1.00  0.00    -0.167 F 
ATOM     20  F   UNL A   1      31.826  22.725  23.019  1.00  0.00    -0.167 F 
ENDBRANCH   8  17
BRANCH  14  21
ATOM     21  C   UNL A   1      29.787  30.152  23.709  1.00  0.00    -0.015 A 
ATOM     22  C   UNL A   1      29.674  29.768  22.350  1.00  0.00     0.010 A 
ATOM     23  C   UNL A   1      29.192  31.354  24.102  1.00  0.00     0.010 A 
ATOM     24  C   UNL A   1      29.042  30.581  21.408  1.00  0.00     0.021 A 
ATOM     25  C   UNL A   1      28.551  32.171  23.157  1.00  0.00     0.021 A 
ATOM     26  C   UNL A   1      28.492  31.789  21.816  1.00  0.00     0.041 A 
ATOM     27  Cl  UNL A   1      27.778  32.833  20.650  1.00  0.00    -0.084 Cl
ENDBRANCH  14  21
ENDBRANCH   4   6
ENDBRANCH   3   4
ENDBRANCH   2   3
ENDBRANCH   1   2
BRANCH   1  28
ATOM     28  O   UNL A   1      37.967  21.385  25.029  1.00  0.00    -0.458 OA
BRANCH  28  29
ATOM     29  C   UNL A   1      38.975  20.919  25.828  1.00  0.00     0.338 C 
ATOM     30  O   UNL A   1      39.625  19.897  25.743  1.00  0.00    -0.246 OA
BRANCH  29  31
ATOM     31  C   UNL A   1      39.391  22.103  26.649  1.00  0.00     0.060 A 
ATOM     32  C   UNL A   1      40.438  21.944  27.573  1.00  0.00     0.016 A 
ATOM     33  C   UNL A   1      39.038  23.384  26.222  1.00  0.00     0.016 A 
ATOM     34  C   UNL A   1      41.294  23.027  27.849  1.00  0.00     0.010 A 
ATOM     35  C   UNL A   1      39.859  24.468  26.543  1.00  0.00     0.010 A 
ATOM     36  C   UNL A   1      41.039  24.286  27.287  1.00  0.00    -0.014 A 
BRANCH  36  37
ATOM     37  C   UNL A   1      41.848  25.485  27.632  1.00  0.00     0.031 A 
ATOM     38  C   UNL A   1      41.138  26.560  28.393  1.00  0.00     0.074 A 
ATOM     39  C   UNL A   1      43.103  25.693  27.180  1.00  0.00     0.049 A 
ATOM     40  N   UNL A   1      41.505  27.784  28.656  1.00  0.00    -0.248 NA
ATOM     41  C   UNL A   1      39.797  26.204  28.885  1.00  0.00     0.031 C 
ATOM     42  C   UNL A   1      43.917  24.740  26.426  1.00  0.00     0.029 A 
ATOM     43  N   UNL A   1      43.905  26.812  27.265  1.00  0.00    -0.354 N 
ATOM     44  C   UNL A   1      40.429  28.351  29.323  1.00  0.00     0.074 A 
ATOM     45  C   UNL A   1      39.386  27.353  29.385  1.00  0.00     0.031 C 
ATOM     46  C   UNL A   1      45.085  25.323  26.092  1.00  0.00     0.029 A 
ATOM     47  C   UNL A   1      45.099  26.701  26.585  1.00  0.00     0.049 A 
ATOM     48  H   UNL A   1      43.648  27.618  27.767  1.00  0.00     0.167 HD
ATOM     49  C   UNL A   1      40.312  29.592  29.843  1.00  0.00     0.037 A 
ATOM     50  C   UNL A   1      46.072  27.615  26.371  1.00  0.00     0.037 A 
ATOM     51  C   UNL A   1      41.330  30.596  29.757  1.00  0.00     0.049 A 
ATOM     52  C   UNL A   1      45.909  29.013  26.931  1.00  0.00     0.074 A 
ATOM     53  C   UNL A   1      41.316  31.883  30.260  1.00  0.00     0.029 A 
ATOM     54  N   UNL A   1      42.542  30.425  29.105  1.00  0.00    -0.354 N 
ATOM     55  N   UNL A   1      44.916  29.519  27.624  1.00  0.00    -0.248 NA
ATOM     56  C   UNL A   1      47.000  29.970  26.676  1.00  0.00     0.031 C 
ATOM     57  C   UNL A   1      42.508  32.506  29.877  1.00  0.00     0.029 A 
ATOM     58  C   UNL A   1      43.281  31.591  29.179  1.00  0.00     0.049 A 
ATOM     59  H   UNL A   1      42.832  29.598  28.657  1.00  0.00     0.167 HD
ATOM     60  C   UNL A   1      45.280  30.830  27.920  1.00  0.00     0.074 A 
ATOM     61  C   UNL A   1      46.584  31.046  27.332  1.00  0.00     0.031 C 
ATOM     62  C   UNL A   1      44.596  31.770  28.616  1.00  0.00     0.037 A 
BRANCH  49  63
ATOM     63  C   UNL A   1      39.006  29.903  30.507  1.00  0.00     0.057 A 
ATOM     64  C   UNL A   1      38.777  29.590  31.855  1.00  0.00     0.134 A 
ATOM     65  C   UNL A   1      37.936  30.415  29.767  1.00  0.00     0.134 A 
ATOM     66  F   UNL A   1      39.756  29.060  32.605  1.00  0.00    -0.206 F 
ATOM     67  C   UNL A   1      37.512  29.719  32.426  1.00  0.00     0.040 A 
ATOM     68  C   UNL A   1      36.674  30.581  30.337  1.00  0.00     0.040 A 
ATOM     69  F   UNL A   1      38.089  30.727  28.471  1.00  0.00    -0.206 F 
ATOM     70  C   UNL A   1      36.456  30.215  31.665  1.00  0.00     0.006 A 
ENDBRANCH  49  63
BRANCH  50  71
ATOM     71  C   UNL A   1      47.296  27.275  25.591  1.00  0.00     0.057 A 
ATOM     72  C   UNL A   1      48.433  26.748  26.220  1.00  0.00     0.134 A 
ATOM     73  C   UNL A   1      47.395  27.540  24.219  1.00  0.00     0.134 A 
ATOM     74  F   UNL A   1      48.421  26.507  27.540  1.00  0.00    -0.206 F 
ATOM     75  C   UNL A   1      49.624  26.520  25.524  1.00  0.00     0.040 A 
ATOM     76  C   UNL A   1      48.573  27.296  23.506  1.00  0.00     0.040 A 
ATOM     77  F   UNL A   1      46.353  28.056  23.553  1.00  0.00    -0.206 F 
ATOM     78  C   UNL A   1      49.696  26.793  24.160  1.00  0.00     0.006 A 
ENDBRANCH  50  71
BRANCH  62  79
ATOM     79  C   UNL A   1      45.250  33.102  28.842  1.00  0.00     0.057 A 
ATOM     80  C   UNL A   1      45.011  34.197  28.005  1.00  0.00     0.134 A 
ATOM     81  C   UNL A   1      46.029  33.318  29.987  1.00  0.00     0.134 A 
ATOM     82  F   UNL A   1      44.281  34.055  26.889  1.00  0.00    -0.206 F 
ATOM     83  C   UNL A   1      45.521  35.463  28.301  1.00  0.00     0.040 A 
ATOM     84  C   UNL A   1      46.524  34.582  30.306  1.00  0.00     0.040 A 
ATOM     85  F   UNL A   1      46.285  32.310  30.836  1.00  0.00    -0.206 F 
ATOM     86  C   UNL A   1      46.268  35.660  29.462  1.00  0.00     0.006 A 
ENDBRANCH  62  79
ENDBRANCH  36  37
ENDBRANCH  29  31
ENDBRANCH  28  29
ENDBRANCH   1  28
TORSDOF 13
ENDMDL
MODEL 3
REMARK VINA RESULT:     -14.6      3.006      7.138
REMARK SMILES O=C(OCCOC(=O)c1ccc(-c2c3nc(c(-c4c(F)cccc4F)c4ccc([nH]4)c(-c4c(F)cccc4F)c4nc(c(-c5c(F)cccc5F)c5ccc2[nH]5)C=C4)C=C3)cc1)C1=Cc2cc(Cl)cc(-c3ccc(Cl)cc3)c2O[C@@H]1C(F)(F)F
REMARK SMILES IDX 5 1 4 2 3 3 2 4 1 5 63 6 64 7 80 8 65 9 79 10 66 11 78 12
REMARK SMILES IDX 67 13 70 14 68 15 69 16 81 17 82 18 83 19 84 20 71 21 72 22
REMARK SMILES IDX 77 23 73 24 76 25 74 26 75 27 6 28 7 29 8 30 9 31 10 32
REMARK SMILES IDX 62 33 11 34 61 35 12 36 13 37 14 38 55 39 15 40 60 41 54 42
REMARK SMILES IDX 56 43 16 44 59 45 53 46 52 47 17 49 43 50 26 51 42 52 27 53
REMARK SMILES IDX 30 54 41 55 57 56 28 57 29 58 40 60 58 61 31 62 18 63 19 64
REMARK SMILES IDX 24 65 20 66 21 67 23 68 25 69 22 70 44 71 45 72 50 73 46 74
REMARK SMILES IDX 47 75 49 76 51 77 48 78 32 79 33 80 38 81 34 82 35 83 37 84
REMARK SMILES IDX 39 85 36 86
REMARK H PARENT 56 48 30 59
REMARK Flexibility Score: inf
ROOT
ATOM      1  C   UNL A   1      33.011  30.172  26.280  1.00  0.00     0.275 C 
ENDROOT
BRANCH   1   2
ATOM      2  C   UNL A   1      32.324  28.133  26.537  1.00  0.00     0.275 C 
BRANCH   2   3
ATOM      3  O   UNL A   1      33.189  26.838  26.340  1.00  0.00    -0.459 OA
BRANCH   3   4
ATOM      4  C   UNL A   1      32.464  25.733  26.136  1.00  0.00     0.338 C 
ATOM      5  O   UNL A   1      31.734  25.115  26.866  1.00  0.00    -0.246 OA
BRANCH   4   6
ATOM      6  C   UNL A   1      33.096  25.406  24.888  1.00  0.00     0.087 C 
ATOM      7  C   UNL A   1      34.526  25.121  25.102  1.00  0.00     0.027 C 
ATOM      8  C   UNL A   1      31.786  24.122  24.274  1.00  0.00     0.316 C 
ATOM      9  C   UNL A   1      35.239  23.469  24.945  1.00  0.00     0.019 A 
ATOM     10  O   UNL A   1      32.525  22.343  24.140  1.00  0.00    -0.475 OA
ATOM     11  C   UNL A   1      36.540  23.333  25.350  1.00  0.00     0.032 A 
ATOM     12  C   UNL A   1      34.272  22.056  24.580  1.00  0.00     0.135 A 
ATOM     13  C   UNL A   1      36.987  22.017  25.434  1.00  0.00     0.042 A 
ATOM     14  C   UNL A   1      34.794  20.791  24.751  1.00  0.00     0.026 A 
ATOM     15  Cl  UNL A   1      38.610  21.765  25.985  1.00  0.00    -0.084 Cl
ATOM     16  C   UNL A   1      36.179  20.851  25.154  1.00  0.00     0.033 A 
BRANCH   8  17
ATOM     17  C   UNL A   1      31.013  25.057  23.275  1.00  0.00     0.430 C 
ATOM     18  F   UNL A   1      31.663  25.200  22.111  1.00  0.00    -0.167 F 
ATOM     19  F   UNL A   1      29.843  24.435  22.932  1.00  0.00    -0.167 F 
ATOM     20  F   UNL A   1      30.587  26.240  23.749  1.00  0.00    -0.167 F 
ENDBRANCH   8  17
BRANCH  14  21
ATOM     21  C   UNL A   1      34.201  19.458  24.720  1.00  0.00    -0.015 A 
ATOM     22  C   UNL A   1      32.977  19.253  25.404  1.00  0.00     0.010 A 
ATOM     23  C   UNL A   1      34.926  18.332  24.321  1.00  0.00     0.010 A 
ATOM     24  C   UNL A   1      32.524  17.973  25.727  1.00  0.00     0.021 A 
ATOM     25  C   UNL A   1      34.469  17.043  24.640  1.00  0.00     0.021 A 
ATOM     26  C   UNL A   1      33.281  16.871  25.353  1.00  0.00     0.041 A 
ATOM     27  Cl  UNL A   1      32.769  15.294  25.812  1.00  0.00    -0.084 Cl
ENDBRANCH  14  21
ENDBRANCH   4   6
ENDBRANCH   3   4
ENDBRANCH   2   3
ENDBRANCH   1   2
BRANCH   1  28
ATOM     28  O   UNL A   1      32.832  31.456  27.381  1.00  0.00    -0.458 OA
BRANCH  28  29
ATOM     29  C   UNL A   1      32.875  32.815  27.530  1.00  0.00     0.338 C 
ATOM     30  O   UNL A   1      32.013  33.647  27.331  1.00  0.00    -0.246 OA
BRANCH  29  31
ATOM     31  C   UNL A   1      34.103  33.071  28.352  1.00  0.00     0.060 A 
ATOM     32  C   UNL A   1      34.150  32.567  29.664  1.00  0.00     0.016 A 
ATOM     33  C   UNL A   1      35.288  33.429  27.710  1.00  0.00     0.016 A 
ATOM     34  C   UNL A   1      35.382  32.170  30.214  1.00  0.00     0.010 A 
ATOM     35  C   UNL A   1      36.514  33.084  28.284  1.00  0.00     0.010 A 
ATOM     36  C   UNL A   1      36.571  32.376  29.498  1.00  0.00    -0.014 A 
BRANCH  36  37
ATOM     37  C   UNL A   1      37.907  32.075  30.078  1.00  0.00     0.031 A 
ATOM     38  C   UNL A   1      38.567  30.824  29.590  1.00  0.00     0.074 A 
ATOM     39  C   UNL A   1      38.458  32.780  31.089  1.00  0.00     0.049 A 
ATOM     40  N   UNL A   1      39.617  30.197  30.045  1.00  0.00    -0.248 NA
ATOM     41  C   UNL A   1      37.908  30.167  28.449  1.00  0.00     0.031 C 
ATOM     42  C   UNL A   1      37.928  34.014  31.667  1.00  0.00     0.029 A 
ATOM     43  N   UNL A   1      39.587  32.526  31.839  1.00  0.00    -0.354 N 
ATOM     44  C   UNL A   1      39.729  29.059  29.260  1.00  0.00     0.074 A 
ATOM     45  C   UNL A   1      38.621  29.063  28.334  1.00  0.00     0.031 C 
ATOM     46  C   UNL A   1      38.711  34.391  32.698  1.00  0.00     0.029 A 
ATOM     47  C   UNL A   1      39.787  33.415  32.873  1.00  0.00     0.049 A 
ATOM     48  H   UNL A   1      40.197  31.776  31.652  1.00  0.00     0.167 HD
ATOM     49  C   UNL A   1      40.672  28.092  29.299  1.00  0.00     0.037 A 
ATOM     50  C   UNL A   1      40.717  33.419  33.854  1.00  0.00     0.037 A 
ATOM     51  C   UNL A   1      41.755  28.065  30.235  1.00  0.00     0.049 A 
ATOM     52  C   UNL A   1      41.745  32.307  33.904  1.00  0.00     0.074 A 
ATOM     53  C   UNL A   1      42.771  27.136  30.353  1.00  0.00     0.029 A 
ATOM     54  N   UNL A   1      41.949  29.011  31.231  1.00  0.00    -0.354 N 
ATOM     55  N   UNL A   1      41.886  31.272  33.112  1.00  0.00    -0.248 NA
ATOM     56  C   UNL A   1      42.740  32.362  34.990  1.00  0.00     0.031 C 
ATOM     57  C   UNL A   1      43.559  27.499  31.449  1.00  0.00     0.029 A 
ATOM     58  C   UNL A   1      43.062  28.679  31.981  1.00  0.00     0.049 A 
ATOM     59  H   UNL A   1      41.379  29.799  31.382  1.00  0.00     0.167 HD
ATOM     60  C   UNL A   1      43.003  30.581  33.574  1.00  0.00     0.074 A 
ATOM     61  C   UNL A   1      43.504  31.312  34.718  1.00  0.00     0.031 C 
ATOM     62  C   UNL A   1      43.563  29.444  33.095  1.00  0.00     0.037 A 
BRANCH  49  63
ATOM     63  C   UNL A   1      40.510  26.981  28.308  1.00  0.00     0.057 A 
ATOM     64  C   UNL A   1      41.161  27.007  27.066  1.00  0.00     0.134 A 
ATOM     65  C   UNL A   1      39.613  25.936  28.551  1.00  0.00     0.134 A 
ATOM     66  F   UNL A   1      42.004  28.006  26.761  1.00  0.00    -0.206 F 
ATOM     67  C   UNL A   1      40.879  26.065  26.077  1.00  0.00     0.040 A 
ATOM     68  C   UNL A   1      39.348  24.968  27.582  1.00  0.00     0.040 A 
ATOM     69  F   UNL A   1      38.954  25.859  29.717  1.00  0.00    -0.206 F 
ATOM     70  C   UNL A   1      39.968  25.042  26.335  1.00  0.00     0.006 A 
ENDBRANCH  49  63
BRANCH  50  71
ATOM     71  C   UNL A   1      40.745  34.493  34.889  1.00  0.00     0.057 A 
ATOM     72  C   UNL A   1      41.553  35.628  34.733  1.00  0.00     0.134 A 
ATOM     73  C   UNL A   1      40.035  34.379  36.091  1.00  0.00     0.134 A 
ATOM     74  F   UNL A   1      42.291  35.782  33.623  1.00  0.00    -0.206 F 
ATOM     75  C   UNL A   1      41.673  36.594  35.737  1.00  0.00     0.040 A 
ATOM     76  C   UNL A   1      40.128  35.348  37.095  1.00  0.00     0.040 A 
ATOM     77  F   UNL A   1      39.253  33.315  36.317  1.00  0.00    -0.206 F 
ATOM     78  C   UNL A   1      40.956  36.456  36.923  1.00  0.00     0.006 A 
ENDBRANCH  50  71
BRANCH  62  79
ATOM     79  C   UNL A   1      44.813  28.937  33.752  1.00  0.00     0.057 A 
ATOM     80  C   UNL A   1      44.784  27.930  34.724  1.00  0.00     0.134 A 
ATOM     81  C   UNL A   1      46.069  29.377  33.312  1.00  0.00     0.134 A 
ATOM     82  F   UNL A   1      43.615  27.471  35.194  1.00  0.00    -0.206 F 
ATOM     83  C   UNL A   1      45.961  27.376  35.231  1.00  0.00     0.040 A 
ATOM     84  C   UNL A   1      47.251  28.815  33.794  1.00  0.00     0.040 A 
ATOM     85  F   UNL A   1      46.164  30.333  32.374  1.00  0.00    -0.206 F 
ATOM     86  C   UNL A   1      47.198  27.809  34.756  1.00  0.00     0.006 A 
ENDBRANCH  62  79
ENDBRANCH  36  37
ENDBRANCH  29  31
ENDBRANCH  28  29
ENDBRANCH   1  28
TORSDOF 13
ENDMDL
