MODEL 1
REMARK VINA RESULT:     -10.6      0.000      0.000
REMARK SMILES CC(C)c1nc(N(C)C[C@@H]2CC[N@@H+](C)C2)sc1C(=O)OCCOC(=O)c1ccc(-c2c3nc(c(-c4c(F)cccc4F)c4ccc([nH]4)c(-c4c(F)cccc4F)c4nc(c(-c5c(F)cccc5F)c5ccc2[nH]5)C=C4)C=C3)cc1
REMARK SMILES IDX 21 1 20 2 18 3 19 4 17 5 4 6 5 7 6 8 16 9 2 10 1 11 3 12
REMARK SMILES IDX 7 13 8 14 9 15 10 16 11 17 15 18 12 19 13 20 14 21 22 23
REMARK SMILES IDX 23 24 24 25 25 26 26 27 27 28 79 29 28 30 78 31 29 32 30 33
REMARK SMILES IDX 31 34 72 35 32 36 77 37 71 38 73 39 33 40 76 41 70 42 69 43
REMARK SMILES IDX 34 45 60 46 43 47 59 48 44 49 47 50 58 51 74 52 45 53 46 54
REMARK SMILES IDX 57 56 75 57 48 58 35 59 36 60 41 61 37 62 38 63 40 64 42 65
REMARK SMILES IDX 39 66 61 67 62 68 67 69 63 70 64 71 66 72 68 73 65 74 49 75
REMARK SMILES IDX 50 76 55 77 51 78 52 79 54 80 56 81 53 82
REMARK H PARENT 13 22 73 44 47 55
REMARK Flexibility Score: inf
ROOT
ATOM      1  C   UNL A   1      42.862  21.112  25.973  1.00  0.00     0.275 C 
ENDROOT
BRANCH   1   2
ATOM      2  O   UNL A   1      41.537  21.560  25.625  1.00  0.00    -0.458 OA
BRANCH   2   3
ATOM      3  C   UNL A   1      40.546  21.340  26.535  1.00  0.00     0.350 C 
ATOM      4  O   UNL A   1      40.672  20.598  27.498  1.00  0.00    -0.245 OA
BRANCH   3   5
ATOM      5  C   UNL A   1      39.394  22.181  26.260  1.00  0.00     0.137 A 
ATOM      6  C   UNL A   1      39.060  23.488  26.583  1.00  0.00     0.071 A 
ATOM      7  N   UNL A   1      37.744  23.827  26.264  1.00  0.00    -0.224 NA
ATOM      8  C   UNL A   1      37.079  22.821  25.744  1.00  0.00     0.186 A 
ATOM      9  S   UNL A   1      38.106  21.498  25.338  1.00  0.00    -0.089 S 
BRANCH   6  10
ATOM     10  C   UNL A   1      39.931  24.569  27.183  1.00  0.00     0.034 C 
ATOM     11  C   UNL A   1      40.359  25.604  26.130  1.00  0.00     0.014 C 
ATOM     12  C   UNL A   1      39.280  25.313  28.350  1.00  0.00     0.014 C 
ENDBRANCH   6  10
BRANCH   8  13
ATOM     13  N   UNL A   1      35.737  22.831  25.506  1.00  0.00    -0.351 N 
ATOM     14  C   UNL A   1      35.033  24.025  25.065  1.00  0.00     0.146 C 
BRANCH  13  15
ATOM     15  C   UNL A   1      34.916  21.677  25.880  1.00  0.00     0.128 C 
BRANCH  15  16
ATOM     16  C   UNL A   1      34.361  20.880  24.693  1.00  0.00     0.069 C 
ATOM     17  C   UNL A   1      32.839  20.992  24.529  1.00  0.00     0.072 C 
ATOM     18  C   UNL A   1      34.615  19.378  24.882  1.00  0.00     0.267 C 
ATOM     19  C   UNL A   1      32.338  19.557  24.507  1.00  0.00     0.262 C 
ATOM     20  N   UNL A   1      33.322  18.868  25.341  1.00  0.00    -0.337 N 
ATOM     21  C   UNL A   1      33.224  17.420  25.231  1.00  0.00     0.332 C 
ATOM     22  H   UNL A   1      33.175  19.048  26.335  1.00  0.00     0.347 HD
ENDBRANCH  15  16
ENDBRANCH  13  15
ENDBRANCH   8  13
ENDBRANCH   3   5
ENDBRANCH   2   3
ENDBRANCH   1   2
BRANCH   1  23
ATOM     23  C   UNL A   1      43.935  22.022  25.360  1.00  0.00     0.275 C 
BRANCH  23  24
ATOM     24  O   UNL A   1      43.463  23.378  25.227  1.00  0.00    -0.458 OA
BRANCH  24  25
ATOM     25  C   UNL A   1      44.408  24.336  25.360  1.00  0.00     0.338 C 
ATOM     26  O   UNL A   1      45.372  24.528  24.639  1.00  0.00    -0.246 OA
BRANCH  25  27
ATOM     27  C   UNL A   1      44.025  25.267  26.433  1.00  0.00     0.060 A 
ATOM     28  C   UNL A   1      43.501  24.703  27.593  1.00  0.00     0.016 A 
ATOM     29  C   UNL A   1      44.083  26.651  26.290  1.00  0.00     0.016 A 
ATOM     30  C   UNL A   1      43.025  25.505  28.622  1.00  0.00     0.010 A 
ATOM     31  C   UNL A   1      43.620  27.465  27.335  1.00  0.00     0.010 A 
ATOM     32  C   UNL A   1      43.081  26.897  28.507  1.00  0.00    -0.014 A 
BRANCH  32  33
ATOM     33  C   UNL A   1      42.532  27.736  29.603  1.00  0.00     0.031 A 
ATOM     34  C   UNL A   1      43.235  27.797  30.930  1.00  0.00     0.074 A 
ATOM     35  C   UNL A   1      41.433  28.485  29.388  1.00  0.00     0.049 A 
ATOM     36  N   UNL A   1      42.874  28.406  32.032  1.00  0.00    -0.248 NA
ATOM     37  C   UNL A   1      44.512  27.076  31.033  1.00  0.00     0.031 C 
ATOM     38  C   UNL A   1      40.697  28.563  28.124  1.00  0.00     0.029 A 
ATOM     39  N   UNL A   1      40.745  29.329  30.225  1.00  0.00    -0.354 N 
ATOM     40  C   UNL A   1      43.860  28.116  32.965  1.00  0.00     0.074 A 
ATOM     41  C   UNL A   1      44.827  27.265  32.306  1.00  0.00     0.031 C 
ATOM     42  C   UNL A   1      39.673  29.419  28.264  1.00  0.00     0.029 A 
ATOM     43  C   UNL A   1      39.637  29.897  29.642  1.00  0.00     0.049 A 
ATOM     44  H   UNL A   1      41.019  29.510  31.153  1.00  0.00     0.167 HD
ATOM     45  C   UNL A   1      43.949  28.526  34.254  1.00  0.00     0.037 A 
ATOM     46  C   UNL A   1      38.680  30.685  30.169  1.00  0.00     0.037 A 
ATOM     47  C   UNL A   1      42.994  29.394  34.895  1.00  0.00     0.049 A 
ATOM     48  C   UNL A   1      38.765  31.064  31.621  1.00  0.00     0.074 A 
ATOM     49  C   UNL A   1      43.002  29.877  36.191  1.00  0.00     0.029 A 
ATOM     50  N   UNL A   1      41.859  29.909  34.284  1.00  0.00    -0.354 N 
ATOM     51  N   UNL A   1      39.693  30.773  32.501  1.00  0.00    -0.248 NA
ATOM     52  C   UNL A   1      37.663  31.875  32.158  1.00  0.00     0.031 C 
ATOM     53  C   UNL A   1      41.844  30.638  36.383  1.00  0.00     0.029 A 
ATOM     54  C   UNL A   1      41.145  30.682  35.187  1.00  0.00     0.049 A 
ATOM     55  H   UNL A   1      41.598  29.750  33.349  1.00  0.00     0.167 HD
ATOM     56  C   UNL A   1      39.303  31.385  33.684  1.00  0.00     0.074 A 
ATOM     57  C   UNL A   1      38.061  32.078  33.406  1.00  0.00     0.031 C 
ATOM     58  C   UNL A   1      39.917  31.374  34.893  1.00  0.00     0.037 A 
BRANCH  45  59
ATOM     59  C   UNL A   1      45.096  28.007  35.072  1.00  0.00     0.057 A 
ATOM     60  C   UNL A   1      46.310  28.697  35.181  1.00  0.00     0.134 A 
ATOM     61  C   UNL A   1      44.969  26.810  35.791  1.00  0.00     0.134 A 
ATOM     62  F   UNL A   1      46.505  29.842  34.510  1.00  0.00    -0.206 F 
ATOM     63  C   UNL A   1      47.365  28.203  35.955  1.00  0.00     0.040 A 
ATOM     64  C   UNL A   1      46.004  26.322  36.589  1.00  0.00     0.040 A 
ATOM     65  F   UNL A   1      43.831  26.102  35.738  1.00  0.00    -0.206 F 
ATOM     66  C   UNL A   1      47.209  27.015  36.667  1.00  0.00     0.006 A 
ENDBRANCH  45  59
BRANCH  46  67
ATOM     67  C   UNL A   1      37.540  31.138  29.331  1.00  0.00     0.057 A 
ATOM     68  C   UNL A   1      37.484  32.440  28.819  1.00  0.00     0.134 A 
ATOM     69  C   UNL A   1      36.464  30.288  29.041  1.00  0.00     0.134 A 
ATOM     70  F   UNL A   1      38.470  33.310  29.081  1.00  0.00    -0.206 F 
ATOM     71  C   UNL A   1      36.395  32.885  28.067  1.00  0.00     0.040 A 
ATOM     72  C   UNL A   1      35.384  30.710  28.265  1.00  0.00     0.040 A 
ATOM     73  F   UNL A   1      36.452  29.028  29.500  1.00  0.00    -0.206 F 
ATOM     74  C   UNL A   1      35.344  32.016  27.783  1.00  0.00     0.006 A 
ENDBRANCH  46  67
BRANCH  58  75
ATOM     75  C   UNL A   1      39.279  32.173  35.993  1.00  0.00     0.057 A 
ATOM     76  C   UNL A   1      39.590  33.522  36.208  1.00  0.00     0.134 A 
ATOM     77  C   UNL A   1      38.315  31.591  36.827  1.00  0.00     0.134 A 
ATOM     78  F   UNL A   1      40.514  34.136  35.456  1.00  0.00    -0.206 F 
ATOM     79  C   UNL A   1      38.983  34.256  37.229  1.00  0.00     0.040 A 
ATOM     80  C   UNL A   1      37.680  32.322  37.830  1.00  0.00     0.040 A 
ATOM     81  F   UNL A   1      37.964  30.306  36.669  1.00  0.00    -0.206 F 
ATOM     82  C   UNL A   1      38.019  33.656  38.039  1.00  0.00     0.006 A 
ENDBRANCH  58  75
ENDBRANCH  32  33
ENDBRANCH  25  27
ENDBRANCH  24  25
ENDBRANCH  23  24
ENDBRANCH   1  23
TORSDOF 15
ENDMDL
MODEL 2
REMARK VINA RESULT:     -10.3      1.079      1.990
REMARK SMILES CC(C)c1nc(N(C)C[C@@H]2CC[N@@H+](C)C2)sc1C(=O)OCCOC(=O)c1ccc(-c2c3nc(c(-c4c(F)cccc4F)c4ccc([nH]4)c(-c4c(F)cccc4F)c4nc(c(-c5c(F)cccc5F)c5ccc2[nH]5)C=C4)C=C3)cc1
REMARK SMILES IDX 21 1 20 2 18 3 19 4 17 5 4 6 5 7 6 8 16 9 2 10 1 11 3 12
REMARK SMILES IDX 7 13 8 14 9 15 10 16 11 17 15 18 12 19 13 20 14 21 22 23
REMARK SMILES IDX 23 24 24 25 25 26 26 27 27 28 79 29 28 30 78 31 29 32 30 33
REMARK SMILES IDX 31 34 72 35 32 36 77 37 71 38 73 39 33 40 76 41 70 42 69 43
REMARK SMILES IDX 34 45 60 46 43 47 59 48 44 49 47 50 58 51 74 52 45 53 46 54
REMARK SMILES IDX 57 56 75 57 48 58 35 59 36 60 41 61 37 62 38 63 40 64 42 65
REMARK SMILES IDX 39 66 61 67 62 68 67 69 63 70 64 71 66 72 68 73 65 74 49 75
REMARK SMILES IDX 50 76 55 77 51 78 52 79 54 80 56 81 53 82
REMARK H PARENT 13 22 73 44 47 55
REMARK Flexibility Score: inf
ROOT
ATOM      1  C   UNL A   1      42.710  20.740  26.043  1.00  0.00     0.275 C 
ENDROOT
BRANCH   1   2
ATOM      2  O   UNL A   1      41.339  21.077  25.751  1.00  0.00    -0.458 OA
BRANCH   2   3
ATOM      3  C   UNL A   1      40.522  21.334  26.812  1.00  0.00     0.350 C 
ATOM      4  O   UNL A   1      40.773  20.981  27.955  1.00  0.00    -0.245 OA
BRANCH   3   5
ATOM      5  C   UNL A   1      39.397  22.162  26.411  1.00  0.00     0.137 A 
ATOM      6  C   UNL A   1      39.058  23.490  26.624  1.00  0.00     0.071 A 
ATOM      7  N   UNL A   1      37.768  23.815  26.203  1.00  0.00    -0.224 NA
ATOM      8  C   UNL A   1      37.125  22.780  25.712  1.00  0.00     0.186 A 
ATOM      9  S   UNL A   1      38.160  21.426  25.461  1.00  0.00    -0.089 S 
BRANCH   6  10
ATOM     10  C   UNL A   1      39.903  24.604  27.200  1.00  0.00     0.034 C 
ATOM     11  C   UNL A   1      40.309  25.625  26.126  1.00  0.00     0.014 C 
ATOM     12  C   UNL A   1      39.234  25.358  28.351  1.00  0.00     0.014 C 
ENDBRANCH   6  10
BRANCH   8  13
ATOM     13  N   UNL A   1      35.799  22.782  25.393  1.00  0.00    -0.351 N 
ATOM     14  C   UNL A   1      35.272  22.053  24.250  1.00  0.00     0.146 C 
BRANCH  13  15
ATOM     15  C   UNL A   1      34.880  23.688  26.084  1.00  0.00     0.128 C 
BRANCH  15  16
ATOM     16  C   UNL A   1      33.999  24.533  25.154  1.00  0.00     0.069 C 
ATOM     17  C   UNL A   1      34.028  26.035  25.469  1.00  0.00     0.072 C 
ATOM     18  C   UNL A   1      32.524  24.139  25.301  1.00  0.00     0.267 C 
ATOM     19  C   UNL A   1      32.570  26.428  25.648  1.00  0.00     0.262 C 
ATOM     20  N   UNL A   1      31.972  25.193  26.155  1.00  0.00    -0.337 N 
ATOM     21  C   UNL A   1      30.518  25.230  26.126  1.00  0.00     0.332 C 
ATOM     22  H   UNL A   1      32.193  25.037  27.140  1.00  0.00     0.347 HD
ENDBRANCH  15  16
ENDBRANCH  13  15
ENDBRANCH   8  13
ENDBRANCH   3   5
ENDBRANCH   2   3
ENDBRANCH   1   2
BRANCH   1  23
ATOM     23  C   UNL A   1      43.676  21.765  25.434  1.00  0.00     0.275 C 
BRANCH  23  24
ATOM     24  O   UNL A   1      43.217  23.114  25.649  1.00  0.00    -0.458 OA
BRANCH  24  25
ATOM     25  C   UNL A   1      44.191  24.046  25.766  1.00  0.00     0.338 C 
ATOM     26  O   UNL A   1      45.166  24.189  25.049  1.00  0.00    -0.246 OA
BRANCH  25  27
ATOM     27  C   UNL A   1      43.827  25.015  26.811  1.00  0.00     0.060 A 
ATOM     28  C   UNL A   1      43.323  24.495  28.000  1.00  0.00     0.016 A 
ATOM     29  C   UNL A   1      43.885  26.393  26.618  1.00  0.00     0.016 A 
ATOM     30  C   UNL A   1      42.866  25.334  29.007  1.00  0.00     0.010 A 
ATOM     31  C   UNL A   1      43.442  27.245  27.641  1.00  0.00     0.010 A 
ATOM     32  C   UNL A   1      42.923  26.721  28.841  1.00  0.00    -0.014 A 
BRANCH  32  33
ATOM     33  C   UNL A   1      42.395  27.600  29.916  1.00  0.00     0.031 A 
ATOM     34  C   UNL A   1      43.098  27.676  31.242  1.00  0.00     0.074 A 
ATOM     35  C   UNL A   1      41.315  28.370  29.682  1.00  0.00     0.049 A 
ATOM     36  N   UNL A   1      42.751  28.320  32.328  1.00  0.00    -0.248 NA
ATOM     37  C   UNL A   1      44.356  26.926  31.364  1.00  0.00     0.031 C 
ATOM     38  C   UNL A   1      40.582  28.436  28.415  1.00  0.00     0.029 A 
ATOM     39  N   UNL A   1      40.647  29.252  30.497  1.00  0.00    -0.354 N 
ATOM     40  C   UNL A   1      43.729  28.028  33.270  1.00  0.00     0.074 A 
ATOM     41  C   UNL A   1      44.675  27.138  32.633  1.00  0.00     0.031 C 
ATOM     42  C   UNL A   1      39.579  29.321  28.533  1.00  0.00     0.029 A 
ATOM     43  C   UNL A   1      39.555  29.833  29.899  1.00  0.00     0.049 A 
ATOM     44  H   UNL A   1      40.925  29.449  31.420  1.00  0.00     0.167 HD
ATOM     45  C   UNL A   1      43.827  28.467  34.548  1.00  0.00     0.037 A 
ATOM     46  C   UNL A   1      38.617  30.658  30.405  1.00  0.00     0.037 A 
ATOM     47  C   UNL A   1      42.895  29.374  35.166  1.00  0.00     0.049 A 
ATOM     48  C   UNL A   1      38.710  31.070  31.848  1.00  0.00     0.074 A 
ATOM     49  C   UNL A   1      42.914  29.888  36.451  1.00  0.00     0.029 A 
ATOM     50  N   UNL A   1      41.773  29.903  34.542  1.00  0.00    -0.354 N 
ATOM     51  N   UNL A   1      39.631  30.777  32.736  1.00  0.00    -0.248 NA
ATOM     52  C   UNL A   1      37.629  31.921  32.364  1.00  0.00     0.031 C 
ATOM     53  C   UNL A   1      41.775  30.683  36.623  1.00  0.00     0.029 A 
ATOM     54  C   UNL A   1      41.078  30.715  35.425  1.00  0.00     0.049 A 
ATOM     55  H   UNL A   1      41.509  29.727  33.610  1.00  0.00     0.167 HD
ATOM     56  C   UNL A   1      39.255  31.427  33.903  1.00  0.00     0.074 A 
ATOM     57  C   UNL A   1      38.032  32.144  33.607  1.00  0.00     0.031 C 
ATOM     58  C   UNL A   1      39.868  31.430  35.113  1.00  0.00     0.037 A 
BRANCH  45  59
ATOM     59  C   UNL A   1      44.961  27.940  35.380  1.00  0.00     0.057 A 
ATOM     60  C   UNL A   1      46.201  28.587  35.452  1.00  0.00     0.134 A 
ATOM     61  C   UNL A   1      44.795  26.780  36.149  1.00  0.00     0.134 A 
ATOM     62  F   UNL A   1      46.434  29.695  34.732  1.00  0.00    -0.206 F 
ATOM     63  C   UNL A   1      47.243  28.086  36.239  1.00  0.00     0.040 A 
ATOM     64  C   UNL A   1      45.818  26.287  36.961  1.00  0.00     0.040 A 
ATOM     65  F   UNL A   1      43.631  26.114  36.134  1.00  0.00    -0.206 F 
ATOM     66  C   UNL A   1      47.048  26.937  37.002  1.00  0.00     0.006 A 
ENDBRANCH  45  59
BRANCH  46  67
ATOM     67  C   UNL A   1      37.489  31.118  29.555  1.00  0.00     0.057 A 
ATOM     68  C   UNL A   1      36.383  30.296  29.305  1.00  0.00     0.134 A 
ATOM     69  C   UNL A   1      37.498  32.383  28.952  1.00  0.00     0.134 A 
ATOM     70  F   UNL A   1      36.324  29.066  29.834  1.00  0.00    -0.206 F 
ATOM     71  C   UNL A   1      35.339  30.707  28.473  1.00  0.00     0.040 A 
ATOM     72  C   UNL A   1      36.448  32.818  28.143  1.00  0.00     0.040 A 
ATOM     73  F   UNL A   1      38.527  33.221  29.148  1.00  0.00    -0.206 F 
ATOM     74  C   UNL A   1      35.368  31.974  27.894  1.00  0.00     0.006 A 
ENDBRANCH  46  67
BRANCH  58  75
ATOM     75  C   UNL A   1      39.250  32.272  36.192  1.00  0.00     0.057 A 
ATOM     76  C   UNL A   1      39.647  33.595  36.423  1.00  0.00     0.134 A 
ATOM     77  C   UNL A   1      38.218  31.759  36.989  1.00  0.00     0.134 A 
ATOM     78  F   UNL A   1      40.639  34.142  35.705  1.00  0.00    -0.206 F 
ATOM     79  C   UNL A   1      39.058  34.369  37.424  1.00  0.00     0.040 A 
ATOM     80  C   UNL A   1      37.601  32.533  37.972  1.00  0.00     0.040 A 
ATOM     81  F   UNL A   1      37.783  30.502  36.815  1.00  0.00    -0.206 F 
ATOM     82  C   UNL A   1      38.026  33.839  38.197  1.00  0.00     0.006 A 
ENDBRANCH  58  75
ENDBRANCH  32  33
ENDBRANCH  25  27
ENDBRANCH  24  25
ENDBRANCH  23  24
ENDBRANCH   1  23
TORSDOF 15
ENDMDL
MODEL 3
REMARK VINA RESULT:     -10.1      0.703      6.371
REMARK SMILES CC(C)c1nc(N(C)C[C@@H]2CC[N@@H+](C)C2)sc1C(=O)OCCOC(=O)c1ccc(-c2c3nc(c(-c4c(F)cccc4F)c4ccc([nH]4)c(-c4c(F)cccc4F)c4nc(c(-c5c(F)cccc5F)c5ccc2[nH]5)C=C4)C=C3)cc1
REMARK SMILES IDX 21 1 20 2 18 3 19 4 17 5 4 6 5 7 6 8 16 9 2 10 1 11 3 12
REMARK SMILES IDX 7 13 8 14 9 15 10 16 11 17 15 18 12 19 13 20 14 21 22 23
REMARK SMILES IDX 23 24 24 25 25 26 26 27 27 28 79 29 28 30 78 31 29 32 30 33
REMARK SMILES IDX 31 34 72 35 32 36 77 37 71 38 73 39 33 40 76 41 70 42 69 43
REMARK SMILES IDX 34 45 60 46 43 47 59 48 44 49 47 50 58 51 74 52 45 53 46 54
REMARK SMILES IDX 57 56 75 57 48 58 35 59 36 60 41 61 37 62 38 63 40 64 42 65
REMARK SMILES IDX 39 66 61 67 62 68 67 69 63 70 64 71 66 72 68 73 65 74 49 75
REMARK SMILES IDX 50 76 55 77 51 78 52 79 54 80 56 81 53 82
REMARK H PARENT 13 22 73 44 47 55
REMARK Flexibility Score: inf
ROOT
ATOM      1  C   UNL A   1      42.810  22.305  25.998  1.00  0.00     0.275 C 
ENDROOT
BRANCH   1   2
ATOM      2  O   UNL A   1      41.597  21.670  25.544  1.00  0.00    -0.458 OA
BRANCH   2   3
ATOM      3  C   UNL A   1      40.647  21.401  26.484  1.00  0.00     0.350 C 
ATOM      4  O   UNL A   1      40.831  20.650  27.430  1.00  0.00    -0.245 OA
BRANCH   3   5
ATOM      5  C   UNL A   1      39.457  22.203  26.261  1.00  0.00     0.137 A 
ATOM      6  C   UNL A   1      39.086  23.491  26.616  1.00  0.00     0.071 A 
ATOM      7  N   UNL A   1      37.749  23.787  26.345  1.00  0.00    -0.224 NA
ATOM      8  C   UNL A   1      37.104  22.765  25.830  1.00  0.00     0.186 A 
ATOM      9  S   UNL A   1      38.164  21.487  25.369  1.00  0.00    -0.089 S 
BRANCH   6  10
ATOM     10  C   UNL A   1      39.937  24.595  27.204  1.00  0.00     0.034 C 
ATOM     11  C   UNL A   1      40.401  25.591  26.130  1.00  0.00     0.014 C 
ATOM     12  C   UNL A   1      39.248  25.381  28.321  1.00  0.00     0.014 C 
ENDBRANCH   6  10
BRANCH   8  13
ATOM     13  N   UNL A   1      35.755  22.730  25.636  1.00  0.00    -0.351 N 
ATOM     14  C   UNL A   1      34.982  23.921  25.321  1.00  0.00     0.146 C 
BRANCH  13  15
ATOM     15  C   UNL A   1      35.003  21.510  25.936  1.00  0.00     0.128 C 
BRANCH  15  16
ATOM     16  C   UNL A   1      34.498  20.753  24.701  1.00  0.00     0.069 C 
ATOM     17  C   UNL A   1      33.063  21.117  24.295  1.00  0.00     0.072 C 
ATOM     18  C   UNL A   1      34.449  19.244  24.973  1.00  0.00     0.267 C 
ATOM     19  C   UNL A   1      32.323  19.790  24.237  1.00  0.00     0.262 C 
ATOM     20  N   UNL A   1      33.031  18.991  25.237  1.00  0.00    -0.337 N 
ATOM     21  C   UNL A   1      32.692  17.578  25.156  1.00  0.00     0.332 C 
ATOM     22  H   UNL A   1      32.770  19.251  26.189  1.00  0.00     0.347 HD
ENDBRANCH  15  16
ENDBRANCH  13  15
ENDBRANCH   8  13
ENDBRANCH   3   5
ENDBRANCH   2   3
ENDBRANCH   1   2
BRANCH   1  23
ATOM     23  C   UNL A   1      43.550  22.983  24.837  1.00  0.00     0.275 C 
BRANCH  23  24
ATOM     24  O   UNL A   1      43.646  24.407  25.034  1.00  0.00    -0.458 OA
BRANCH  24  25
ATOM     25  C   UNL A   1      44.553  24.805  25.956  1.00  0.00     0.338 C 
ATOM     26  O   UNL A   1      45.767  24.740  25.873  1.00  0.00    -0.246 OA
BRANCH  25  27
ATOM     27  C   UNL A   1      43.870  25.510  27.051  1.00  0.00     0.060 A 
ATOM     28  C   UNL A   1      43.853  26.901  26.986  1.00  0.00     0.016 A 
ATOM     29  C   UNL A   1      43.340  24.854  28.159  1.00  0.00     0.016 A 
ATOM     30  C   UNL A   1      43.315  27.656  28.019  1.00  0.00     0.010 A 
ATOM     31  C   UNL A   1      42.779  25.613  29.198  1.00  0.00     0.010 A 
ATOM     32  C   UNL A   1      42.768  27.020  29.138  1.00  0.00    -0.014 A 
BRANCH  32  33
ATOM     33  C   UNL A   1      42.231  27.848  30.248  1.00  0.00     0.031 A 
ATOM     34  C   UNL A   1      40.984  28.662  30.048  1.00  0.00     0.074 A 
ATOM     35  C   UNL A   1      42.834  27.825  31.453  1.00  0.00     0.049 A 
ATOM     36  N   UNL A   1      40.405  29.506  30.865  1.00  0.00    -0.248 NA
ATOM     37  C   UNL A   1      40.300  28.511  28.756  1.00  0.00     0.031 C 
ATOM     38  C   UNL A   1      44.012  27.025  31.794  1.00  0.00     0.029 A 
ATOM     39  N   UNL A   1      42.535  28.488  32.618  1.00  0.00    -0.354 N 
ATOM     40  C   UNL A   1      39.308  30.008  30.177  1.00  0.00     0.074 A 
ATOM     41  C   UNL A   1      39.311  29.386  28.870  1.00  0.00     0.031 C 
ATOM     42  C   UNL A   1      44.325  27.230  33.083  1.00  0.00     0.029 A 
ATOM     43  C   UNL A   1      43.416  28.226  33.641  1.00  0.00     0.049 A 
ATOM     44  H   UNL A   1      41.764  29.092  32.713  1.00  0.00     0.167 HD
ATOM     45  C   UNL A   1      38.384  30.904  30.600  1.00  0.00     0.037 A 
ATOM     46  C   UNL A   1      43.503  28.755  34.876  1.00  0.00     0.037 A 
ATOM     47  C   UNL A   1      38.375  31.498  31.912  1.00  0.00     0.049 A 
ATOM     48  C   UNL A   1      42.508  29.802  35.293  1.00  0.00     0.074 A 
ATOM     49  C   UNL A   1      37.474  32.406  32.442  1.00  0.00     0.029 A 
ATOM     50  N   UNL A   1      39.313  31.243  32.903  1.00  0.00    -0.354 N 
ATOM     51  N   UNL A   1      41.483  30.281  34.630  1.00  0.00    -0.248 NA
ATOM     52  C   UNL A   1      42.686  30.389  36.629  1.00  0.00     0.031 C 
ATOM     53  C   UNL A   1      37.898  32.743  33.731  1.00  0.00     0.029 A 
ATOM     54  C   UNL A   1      39.028  31.999  34.030  1.00  0.00     0.049 A 
ATOM     55  H   UNL A   1      40.069  30.619  32.818  1.00  0.00     0.167 HD
ATOM     56  C   UNL A   1      40.880  31.204  35.475  1.00  0.00     0.074 A 
ATOM     57  C   UNL A   1      41.644  31.204  36.706  1.00  0.00     0.031 C 
ATOM     58  C   UNL A   1      39.791  31.981  35.252  1.00  0.00     0.037 A 
BRANCH  45  59
ATOM     59  C   UNL A   1      37.327  31.329  29.621  1.00  0.00     0.057 A 
ATOM     60  C   UNL A   1      37.399  32.539  28.919  1.00  0.00     0.134 A 
ATOM     61  C   UNL A   1      36.235  30.493  29.352  1.00  0.00     0.134 A 
ATOM     62  F   UNL A   1      38.411  33.393  29.137  1.00  0.00    -0.206 F 
ATOM     63  C   UNL A   1      36.411  32.913  28.005  1.00  0.00     0.040 A 
ATOM     64  C   UNL A   1      35.257  30.843  28.420  1.00  0.00     0.040 A 
ATOM     65  F   UNL A   1      36.107  29.316  29.982  1.00  0.00    -0.206 F 
ATOM     66  C   UNL A   1      35.340  32.060  27.748  1.00  0.00     0.006 A 
ENDBRANCH  45  59
BRANCH  46  67
ATOM     67  C   UNL A   1      44.593  28.335  35.795  1.00  0.00     0.057 A 
ATOM     68  C   UNL A   1      44.403  27.306  36.726  1.00  0.00     0.134 A 
ATOM     69  C   UNL A   1      45.843  28.967  35.782  1.00  0.00     0.134 A 
ATOM     70  F   UNL A   1      43.222  26.678  36.806  1.00  0.00    -0.206 F 
ATOM     71  C   UNL A   1      45.409  26.935  37.621  1.00  0.00     0.040 A 
ATOM     72  C   UNL A   1      46.867  28.585  36.649  1.00  0.00     0.040 A 
ATOM     73  F   UNL A   1      46.092  29.960  34.915  1.00  0.00    -0.206 F 
ATOM     74  C   UNL A   1      46.648  27.572  37.579  1.00  0.00     0.006 A 
ENDBRANCH  46  67
BRANCH  58  75
ATOM     75  C   UNL A   1      39.334  32.861  36.379  1.00  0.00     0.057 A 
ATOM     76  C   UNL A   1      38.370  32.444  37.304  1.00  0.00     0.134 A 
ATOM     77  C   UNL A   1      39.895  34.132  36.559  1.00  0.00     0.134 A 
ATOM     78  F   UNL A   1      37.782  31.244  37.181  1.00  0.00    -0.206 F 
ATOM     79  C   UNL A   1      37.960  33.269  38.354  1.00  0.00     0.040 A 
ATOM     80  C   UNL A   1      39.516  34.954  37.621  1.00  0.00     0.040 A 
ATOM     81  F   UNL A   1      40.831  34.591  35.714  1.00  0.00    -0.206 F 
ATOM     82  C   UNL A   1      38.540  34.526  38.517  1.00  0.00     0.006 A 
ENDBRANCH  58  75
ENDBRANCH  32  33
ENDBRANCH  25  27
ENDBRANCH  24  25
ENDBRANCH  23  24
ENDBRANCH   1  23
TORSDOF 15
ENDMDL
