MODEL 1
REMARK VINA RESULT:     -12.3      0.000      0.000
REMARK SMILES CS(=O)(=O)c1ccc(/C=C(/C(=O)OCCOC(=O)c2ccc(-c3c4nc(c(-c5c(F)cccc5F)c5ccc([nH]5)c(-c5c(F)cccc5F)c5nc(c(-c6c(F)cccc6F)c6ccc3[nH]6)C=C5)C=C4)cc2)c2cccc(Br)c2)cc1
REMARK SMILES IDX 14 1 13 2 11 3 12 4 10 5 9 6 8 7 5 8 6 9 81 10 7 11 80 12
REMARK SMILES IDX 2 13 1 14 3 15 4 16 73 17 74 18 79 19 75 20 77 21 76 22
REMARK SMILES IDX 78 23 15 24 16 25 17 26 18 27 19 28 20 29 72 30 21 31 71 32
REMARK SMILES IDX 22 33 23 34 24 35 65 36 25 37 70 38 64 39 66 40 26 41 69 42
REMARK SMILES IDX 63 43 62 44 27 46 53 47 36 48 52 49 37 50 40 51 51 52 67 53
REMARK SMILES IDX 38 54 39 55 50 57 68 58 41 59 28 60 29 61 34 62 30 63 31 64
REMARK SMILES IDX 33 65 35 66 32 67 54 68 55 69 60 70 56 71 57 72 59 73 61 74
REMARK SMILES IDX 58 75 42 76 43 77 48 78 44 79 45 80 47 81 49 82 46 83
REMARK H PARENT 66 45 40 56
REMARK Flexibility Score: inf
ROOT
ATOM      1  C   UNL A   1      34.506  22.385  24.682  1.00  0.00     0.275 C 
ENDROOT
BRANCH   1   2
ATOM      2  O   UNL A   1      34.430  23.825  24.759  1.00  0.00    -0.458 OA
BRANCH   2   3
ATOM      3  C   UNL A   1      33.503  24.312  25.624  1.00  0.00     0.338 C 
ATOM      4  O   UNL A   1      33.249  23.852  26.729  1.00  0.00    -0.246 OA
BRANCH   3   5
ATOM      5  C   UNL A   1      32.829  25.535  25.092  1.00  0.00     0.067 C 
ATOM      6  C   UNL A   1      32.129  25.433  23.939  1.00  0.00     0.024 C 
BRANCH   6   7
ATOM      7  C   UNL A   1      31.134  26.390  23.403  1.00  0.00    -0.025 A 
ATOM      8  C   UNL A   1      29.199  28.335  22.808  1.00  0.00     0.067 A 
ATOM      9  C   UNL A   1      30.507  28.506  22.366  1.00  0.00     0.021 A 
ATOM     10  C   UNL A   1      28.826  27.172  23.479  1.00  0.00     0.021 A 
ATOM     11  C   UNL A   1      31.452  27.512  22.625  1.00  0.00     0.009 A 
ATOM     12  C   UNL A   1      29.793  26.205  23.773  1.00  0.00     0.009 A 
BRANCH   8  13
ATOM     13  S   UNL A   1      28.039  29.656  22.578  1.00  0.00     0.175 S 
ATOM     14  C   UNL A   1      28.744  30.985  23.511  1.00  0.00     0.163 C 
ATOM     15  O   UNL A   1      26.802  29.260  23.214  1.00  0.00    -0.224 OA
ATOM     16  O   UNL A   1      28.070  30.030  21.173  1.00  0.00    -0.224 OA
ENDBRANCH   8  13
ENDBRANCH   6   7
BRANCH   5  17
ATOM     17  C   UNL A   1      32.804  26.741  25.944  1.00  0.00    -0.010 A 
ATOM     18  C   UNL A   1      31.622  27.070  26.631  1.00  0.00     0.009 A 
ATOM     19  C   UNL A   1      33.955  27.508  26.153  1.00  0.00     0.024 A 
ATOM     20  C   UNL A   1      31.603  28.127  27.544  1.00  0.00     0.002 A 
ATOM     21  C   UNL A   1      33.924  28.568  27.060  1.00  0.00     0.018 A 
ATOM     22  C   UNL A   1      32.757  28.877  27.760  1.00  0.00     0.016 A 
ATOM     23  Br  UNL A   1      35.490  29.582  27.366  1.00  0.00    -0.051 Br
ENDBRANCH   5  17
ENDBRANCH   3   5
ENDBRANCH   2   3
ENDBRANCH   1   2
BRANCH   1  24
ATOM     24  C   UNL A   1      35.934  21.936  24.383  1.00  0.00     0.275 C 
BRANCH  24  25
ATOM     25  O   UNL A   1      36.574  21.506  25.597  1.00  0.00    -0.458 OA
BRANCH  25  26
ATOM     26  C   UNL A   1      37.918  21.368  25.542  1.00  0.00     0.338 C 
ATOM     27  O   UNL A   1      38.552  20.505  24.955  1.00  0.00    -0.246 OA
BRANCH  26  28
ATOM     28  C   UNL A   1      38.575  22.464  26.277  1.00  0.00     0.060 A 
ATOM     29  C   UNL A   1      38.065  23.754  26.192  1.00  0.00     0.016 A 
ATOM     30  C   UNL A   1      39.799  22.246  26.909  1.00  0.00     0.016 A 
ATOM     31  C   UNL A   1      38.841  24.833  26.608  1.00  0.00     0.010 A 
ATOM     32  C   UNL A   1      40.515  23.328  27.440  1.00  0.00     0.010 A 
ATOM     33  C   UNL A   1      40.078  24.650  27.246  1.00  0.00    -0.014 A 
BRANCH  33  34
ATOM     34  C   UNL A   1      40.913  25.826  27.652  1.00  0.00     0.031 A 
ATOM     35  C   UNL A   1      40.356  26.897  28.564  1.00  0.00     0.074 A 
ATOM     36  C   UNL A   1      42.195  25.940  27.244  1.00  0.00     0.049 A 
ATOM     37  N   UNL A   1      40.842  28.083  28.843  1.00  0.00    -0.248 NA
ATOM     38  C   UNL A   1      39.081  26.607  29.241  1.00  0.00     0.031 C 
ATOM     39  C   UNL A   1      42.913  24.979  26.406  1.00  0.00     0.029 A 
ATOM     40  N   UNL A   1      43.134  26.915  27.495  1.00  0.00    -0.354 N 
ATOM     41  C   UNL A   1      39.895  28.707  29.650  1.00  0.00     0.074 A 
ATOM     42  C   UNL A   1      38.814  27.763  29.832  1.00  0.00     0.031 C 
ATOM     43  C   UNL A   1      44.190  25.364  26.281  1.00  0.00     0.029 A 
ATOM     44  C   UNL A   1      44.353  26.668  26.910  1.00  0.00     0.049 A 
ATOM     45  H   UNL A   1      42.951  27.712  28.043  1.00  0.00     0.167 HD
ATOM     46  C   UNL A   1      39.923  29.955  30.181  1.00  0.00     0.037 A 
ATOM     47  C   UNL A   1      45.465  27.421  26.821  1.00  0.00     0.037 A 
ATOM     48  C   UNL A   1      41.037  30.864  30.078  1.00  0.00     0.049 A 
ATOM     49  C   UNL A   1      45.468  28.803  27.399  1.00  0.00     0.074 A 
ATOM     50  C   UNL A   1      41.164  32.137  30.611  1.00  0.00     0.029 A 
ATOM     51  N   UNL A   1      42.226  30.589  29.422  1.00  0.00    -0.354 N 
ATOM     52  N   UNL A   1      44.525  29.420  28.065  1.00  0.00    -0.248 NA
ATOM     53  C   UNL A   1      46.677  29.609  27.176  1.00  0.00     0.031 C 
ATOM     54  C   UNL A   1      42.417  32.643  30.249  1.00  0.00     0.029 A 
ATOM     55  C   UNL A   1      43.086  31.671  29.525  1.00  0.00     0.049 A 
ATOM     56  H   UNL A   1      42.430  29.748  28.951  1.00  0.00     0.167 HD
ATOM     57  C   UNL A   1      45.019  30.689  28.332  1.00  0.00     0.074 A 
ATOM     58  C   UNL A   1      46.360  30.743  27.786  1.00  0.00     0.031 C 
ATOM     59  C   UNL A   1      44.411  31.722  28.963  1.00  0.00     0.037 A 
BRANCH  46  60
ATOM     60  C   UNL A   1      38.694  30.440  30.898  1.00  0.00     0.057 A 
ATOM     61  C   UNL A   1      38.477  30.208  32.261  1.00  0.00     0.134 A 
ATOM     62  C   UNL A   1      37.744  31.215  30.216  1.00  0.00     0.134 A 
ATOM     63  F   UNL A   1      39.340  29.465  32.970  1.00  0.00    -0.206 F 
ATOM     64  C   UNL A   1      37.351  30.713  32.916  1.00  0.00     0.040 A 
ATOM     65  C   UNL A   1      36.629  31.746  30.864  1.00  0.00     0.040 A 
ATOM     66  F   UNL A   1      37.897  31.484  28.910  1.00  0.00    -0.206 F 
ATOM     67  C   UNL A   1      36.427  31.493  32.219  1.00  0.00     0.006 A 
ENDBRANCH  46  60
BRANCH  47  68
ATOM     68  C   UNL A   1      46.645  26.901  26.084  1.00  0.00     0.057 A 
ATOM     69  C   UNL A   1      46.870  27.238  24.746  1.00  0.00     0.134 A 
ATOM     70  C   UNL A   1      47.591  26.078  26.711  1.00  0.00     0.134 A 
ATOM     71  F   UNL A   1      45.985  27.997  24.083  1.00  0.00    -0.206 F 
ATOM     72  C   UNL A   1      47.995  26.781  24.057  1.00  0.00     0.040 A 
ATOM     73  C   UNL A   1      48.735  25.640  26.046  1.00  0.00     0.040 A 
ATOM     74  F   UNL A   1      47.430  25.718  27.993  1.00  0.00    -0.206 F 
ATOM     75  C   UNL A   1      48.937  25.989  24.713  1.00  0.00     0.006 A 
ENDBRANCH  47  68
BRANCH  59  76
ATOM     76  C   UNL A   1      45.194  32.991  29.098  1.00  0.00     0.057 A 
ATOM     77  C   UNL A   1      45.099  34.015  28.146  1.00  0.00     0.134 A 
ATOM     78  C   UNL A   1      46.046  33.197  30.190  1.00  0.00     0.134 A 
ATOM     79  F   UNL A   1      44.312  33.870  27.069  1.00  0.00    -0.206 F 
ATOM     80  C   UNL A   1      45.842  35.190  28.265  1.00  0.00     0.040 A 
ATOM     81  C   UNL A   1      46.778  34.377  30.330  1.00  0.00     0.040 A 
ATOM     82  F   UNL A   1      46.177  32.257  31.137  1.00  0.00    -0.206 F 
ATOM     83  C   UNL A   1      46.682  35.376  29.362  1.00  0.00     0.006 A 
ENDBRANCH  59  76
ENDBRANCH  33  34
ENDBRANCH  26  28
ENDBRANCH  25  26
ENDBRANCH  24  25
ENDBRANCH   1  24
TORSDOF 14
ENDMDL
MODEL 2
REMARK VINA RESULT:     -11.7      3.903      8.766
REMARK SMILES CS(=O)(=O)c1ccc(/C=C(/C(=O)OCCOC(=O)c2ccc(-c3c4nc(c(-c5c(F)cccc5F)c5ccc([nH]5)c(-c5c(F)cccc5F)c5nc(c(-c6c(F)cccc6F)c6ccc3[nH]6)C=C5)C=C4)cc2)c2cccc(Br)c2)cc1
REMARK SMILES IDX 14 1 13 2 11 3 12 4 10 5 9 6 8 7 5 8 6 9 81 10 7 11 80 12
REMARK SMILES IDX 2 13 1 14 3 15 4 16 73 17 74 18 79 19 75 20 77 21 76 22
REMARK SMILES IDX 78 23 15 24 16 25 17 26 18 27 19 28 20 29 72 30 21 31 71 32
REMARK SMILES IDX 22 33 23 34 24 35 65 36 25 37 70 38 64 39 66 40 26 41 69 42
REMARK SMILES IDX 63 43 62 44 27 46 53 47 36 48 52 49 37 50 40 51 51 52 67 53
REMARK SMILES IDX 38 54 39 55 50 57 68 58 41 59 28 60 29 61 34 62 30 63 31 64
REMARK SMILES IDX 33 65 35 66 32 67 54 68 55 69 60 70 56 71 57 72 59 73 61 74
REMARK SMILES IDX 58 75 42 76 43 77 48 78 44 79 45 80 47 81 49 82 46 83
REMARK H PARENT 66 45 40 56
REMARK Flexibility Score: inf
ROOT
ATOM      1  C   UNL A   1      31.691  27.472  25.151  1.00  0.00     0.275 C 
ENDROOT
BRANCH   1   2
ATOM      2  O   UNL A   1      32.990  26.842  25.146  1.00  0.00    -0.458 OA
BRANCH   2   3
ATOM      3  C   UNL A   1      33.277  26.111  24.038  1.00  0.00     0.338 C 
ATOM      4  O   UNL A   1      33.438  26.560  22.911  1.00  0.00    -0.246 OA
BRANCH   3   5
ATOM      5  C   UNL A   1      33.423  24.657  24.348  1.00  0.00     0.067 C 
ATOM      6  C   UNL A   1      32.304  23.898  24.413  1.00  0.00     0.024 C 
BRANCH   6   7
ATOM      7  C   UNL A   1      32.217  22.420  24.379  1.00  0.00    -0.025 A 
ATOM      8  C   UNL A   1      32.446  19.635  24.110  1.00  0.00     0.067 A 
ATOM      9  C   UNL A   1      32.498  20.212  25.375  1.00  0.00     0.021 A 
ATOM     10  C   UNL A   1      32.208  20.420  22.983  1.00  0.00     0.021 A 
ATOM     11  C   UNL A   1      32.336  21.592  25.504  1.00  0.00     0.009 A 
ATOM     12  C   UNL A   1      32.094  21.808  23.122  1.00  0.00     0.009 A 
BRANCH   8  13
ATOM     13  S   UNL A   1      32.772  17.900  23.947  1.00  0.00     0.175 S 
ATOM     14  C   UNL A   1      34.498  17.772  24.323  1.00  0.00     0.163 C 
ATOM     15  O   UNL A   1      32.582  17.553  22.557  1.00  0.00    -0.224 OA
ATOM     16  O   UNL A   1      32.035  17.213  24.997  1.00  0.00    -0.224 OA
ENDBRANCH   8  13
ENDBRANCH   6   7
BRANCH   5  17
ATOM     17  C   UNL A   1      34.785  24.087  24.383  1.00  0.00    -0.010 A 
ATOM     18  C   UNL A   1      35.266  23.392  23.259  1.00  0.00     0.009 A 
ATOM     19  C   UNL A   1      35.636  24.303  25.472  1.00  0.00     0.024 A 
ATOM     20  C   UNL A   1      36.591  22.954  23.210  1.00  0.00     0.002 A 
ATOM     21  C   UNL A   1      36.955  23.854  25.418  1.00  0.00     0.018 A 
ATOM     22  C   UNL A   1      37.439  23.187  24.291  1.00  0.00     0.016 A 
ATOM     23  Br  UNL A   1      38.114  24.177  26.877  1.00  0.00    -0.051 Br
ENDBRANCH   5  17
ENDBRANCH   3   5
ENDBRANCH   2   3
ENDBRANCH   1   2
BRANCH   1  24
ATOM     24  C   UNL A   1      31.811  28.955  24.808  1.00  0.00     0.275 C 
BRANCH  24  25
ATOM     25  O   UNL A   1      33.021  29.490  25.373  1.00  0.00    -0.458 OA
BRANCH  25  26
ATOM     26  C   UNL A   1      32.863  30.477  26.285  1.00  0.00     0.338 C 
ATOM     27  O   UNL A   1      31.965  31.302  26.338  1.00  0.00    -0.246 OA
BRANCH  26  28
ATOM     28  C   UNL A   1      33.938  30.417  27.293  1.00  0.00     0.060 A 
ATOM     29  C   UNL A   1      34.630  31.574  27.632  1.00  0.00     0.016 A 
ATOM     30  C   UNL A   1      34.380  29.184  27.771  1.00  0.00     0.016 A 
ATOM     31  C   UNL A   1      35.834  31.482  28.325  1.00  0.00     0.010 A 
ATOM     32  C   UNL A   1      35.525  29.115  28.577  1.00  0.00     0.010 A 
ATOM     33  C   UNL A   1      36.308  30.256  28.819  1.00  0.00    -0.014 A 
BRANCH  33  34
ATOM     34  C   UNL A   1      37.625  30.174  29.530  1.00  0.00     0.031 A 
ATOM     35  C   UNL A   1      38.823  29.520  28.877  1.00  0.00     0.074 A 
ATOM     36  C   UNL A   1      37.785  30.715  30.758  1.00  0.00     0.049 A 
ATOM     37  N   UNL A   1      39.965  29.161  29.411  1.00  0.00    -0.248 NA
ATOM     38  C   UNL A   1      38.721  29.216  27.440  1.00  0.00     0.031 C 
ATOM     39  C   UNL A   1      36.757  31.428  31.517  1.00  0.00     0.029 A 
ATOM     40  N   UNL A   1      38.887  30.763  31.581  1.00  0.00    -0.354 N 
ATOM     41  C   UNL A   1      40.676  28.515  28.404  1.00  0.00     0.074 A 
ATOM     42  C   UNL A   1      39.844  28.547  27.220  1.00  0.00     0.031 C 
ATOM     43  C   UNL A   1      37.292  31.910  32.647  1.00  0.00     0.029 A 
ATOM     44  C   UNL A   1      38.661  31.425  32.764  1.00  0.00     0.049 A 
ATOM     45  H   UNL A   1      39.754  30.362  31.345  1.00  0.00     0.167 HD
ATOM     46  C   UNL A   1      41.903  27.942  28.465  1.00  0.00     0.037 A 
ATOM     47  C   UNL A   1      39.430  31.578  33.858  1.00  0.00     0.037 A 
ATOM     48  C   UNL A   1      42.772  27.988  29.614  1.00  0.00     0.049 A 
ATOM     49  C   UNL A   1      40.776  30.922  33.911  1.00  0.00     0.074 A 
ATOM     50  C   UNL A   1      44.045  27.460  29.754  1.00  0.00     0.029 A 
ATOM     51  N   UNL A   1      42.471  28.619  30.810  1.00  0.00    -0.354 N 
ATOM     52  N   UNL A   1      41.388  30.221  32.990  1.00  0.00    -0.248 NA
ATOM     53  C   UNL A   1      41.519  31.042  35.173  1.00  0.00     0.031 C 
ATOM     54  C   UNL A   1      44.500  27.744  31.047  1.00  0.00     0.029 A 
ATOM     55  C   UNL A   1      43.528  28.484  31.697  1.00  0.00     0.049 A 
ATOM     56  H   UNL A   1      41.630  29.094  31.002  1.00  0.00     0.167 HD
ATOM     57  C   UNL A   1      42.583  29.808  33.562  1.00  0.00     0.074 A 
ATOM     58  C   UNL A   1      42.625  30.365  34.898  1.00  0.00     0.031 C 
ATOM     59  C   UNL A   1      43.553  29.026  33.030  1.00  0.00     0.037 A 
BRANCH  46  60
ATOM     60  C   UNL A   1      42.380  27.173  27.264  1.00  0.00     0.057 A 
ATOM     61  C   UNL A   1      43.134  27.764  26.244  1.00  0.00     0.134 A 
ATOM     62  C   UNL A   1      42.129  25.796  27.168  1.00  0.00     0.134 A 
ATOM     63  F   UNL A   1      43.400  29.078  26.268  1.00  0.00    -0.206 F 
ATOM     64  C   UNL A   1      43.609  27.016  25.163  1.00  0.00     0.040 A 
ATOM     65  C   UNL A   1      42.619  25.035  26.106  1.00  0.00     0.040 A 
ATOM     66  F   UNL A   1      41.421  25.166  28.117  1.00  0.00    -0.206 F 
ATOM     67  C   UNL A   1      43.359  25.645  25.096  1.00  0.00     0.006 A 
ENDBRANCH  46  60
BRANCH  47  68
ATOM     68  C   UNL A   1      38.903  32.331  35.025  1.00  0.00     0.057 A 
ATOM     69  C   UNL A   1      39.034  33.720  35.111  1.00  0.00     0.134 A 
ATOM     70  C   UNL A   1      38.230  31.679  36.068  1.00  0.00     0.134 A 
ATOM     71  F   UNL A   1      39.695  34.396  34.159  1.00  0.00    -0.206 F 
ATOM     72  C   UNL A   1      38.511  34.437  36.188  1.00  0.00     0.040 A 
ATOM     73  C   UNL A   1      37.675  32.385  37.134  1.00  0.00     0.040 A 
ATOM     74  F   UNL A   1      38.074  30.348  36.045  1.00  0.00    -0.206 F 
ATOM     75  C   UNL A   1      37.818  33.769  37.198  1.00  0.00     0.006 A 
ENDBRANCH  47  68
BRANCH  59  76
ATOM     76  C   UNL A   1      44.740  28.733  33.897  1.00  0.00     0.057 A 
ATOM     77  C   UNL A   1      45.851  29.585  33.928  1.00  0.00     0.134 A 
ATOM     78  C   UNL A   1      44.770  27.595  34.713  1.00  0.00     0.134 A 
ATOM     79  F   UNL A   1      45.888  30.682  33.158  1.00  0.00    -0.206 F 
ATOM     80  C   UNL A   1      46.962  29.302  34.724  1.00  0.00     0.040 A 
ATOM     81  C   UNL A   1      45.866  27.314  35.528  1.00  0.00     0.040 A 
ATOM     82  F   UNL A   1      43.734  26.743  34.730  1.00  0.00    -0.206 F 
ATOM     83  C   UNL A   1      46.970  28.165  35.531  1.00  0.00     0.006 A 
ENDBRANCH  59  76
ENDBRANCH  33  34
ENDBRANCH  26  28
ENDBRANCH  25  26
ENDBRANCH  24  25
ENDBRANCH   1  24
TORSDOF 14
ENDMDL
MODEL 3
REMARK VINA RESULT:     -11.7      0.585      6.250
REMARK SMILES CS(=O)(=O)c1ccc(/C=C(/C(=O)OCCOC(=O)c2ccc(-c3c4nc(c(-c5c(F)cccc5F)c5ccc([nH]5)c(-c5c(F)cccc5F)c5nc(c(-c6c(F)cccc6F)c6ccc3[nH]6)C=C5)C=C4)cc2)c2cccc(Br)c2)cc1
REMARK SMILES IDX 14 1 13 2 11 3 12 4 10 5 9 6 8 7 5 8 6 9 81 10 7 11 80 12
REMARK SMILES IDX 2 13 1 14 3 15 4 16 73 17 74 18 79 19 75 20 77 21 76 22
REMARK SMILES IDX 78 23 15 24 16 25 17 26 18 27 19 28 20 29 72 30 21 31 71 32
REMARK SMILES IDX 22 33 23 34 24 35 65 36 25 37 70 38 64 39 66 40 26 41 69 42
REMARK SMILES IDX 63 43 62 44 27 46 53 47 36 48 52 49 37 50 40 51 51 52 67 53
REMARK SMILES IDX 38 54 39 55 50 57 68 58 41 59 28 60 29 61 34 62 30 63 31 64
REMARK SMILES IDX 33 65 35 66 32 67 54 68 55 69 60 70 56 71 57 72 59 73 61 74
REMARK SMILES IDX 58 75 42 76 43 77 48 78 44 79 45 80 47 81 49 82 46 83
REMARK H PARENT 66 45 40 56
REMARK Flexibility Score: inf
ROOT
ATOM      1  C   UNL A   1      34.682  22.546  24.811  1.00  0.00     0.275 C 
ENDROOT
BRANCH   1   2
ATOM      2  O   UNL A   1      34.539  23.927  25.208  1.00  0.00    -0.458 OA
BRANCH   2   3
ATOM      3  C   UNL A   1      33.369  24.236  25.824  1.00  0.00     0.338 C 
ATOM      4  O   UNL A   1      32.879  23.630  26.767  1.00  0.00    -0.246 OA
BRANCH   3   5
ATOM      5  C   UNL A   1      32.736  25.457  25.242  1.00  0.00     0.067 C 
ATOM      6  C   UNL A   1      32.030  25.331  24.094  1.00  0.00     0.024 C 
BRANCH   6   7
ATOM      7  C   UNL A   1      31.067  26.298  23.519  1.00  0.00    -0.025 A 
ATOM      8  C   UNL A   1      29.196  28.279  22.844  1.00  0.00     0.067 A 
ATOM      9  C   UNL A   1      30.509  28.391  22.399  1.00  0.00     0.021 A 
ATOM     10  C   UNL A   1      28.785  27.156  23.560  1.00  0.00     0.021 A 
ATOM     11  C   UNL A   1      31.421  27.377  22.698  1.00  0.00     0.009 A 
ATOM     12  C   UNL A   1      29.720  26.171  23.893  1.00  0.00     0.009 A 
BRANCH   8  13
ATOM     13  S   UNL A   1      28.080  29.627  22.561  1.00  0.00     0.175 S 
ATOM     14  C   UNL A   1      28.828  30.969  23.440  1.00  0.00     0.163 C 
ATOM     15  O   UNL A   1      26.831  29.297  23.210  1.00  0.00    -0.224 OA
ATOM     16  O   UNL A   1      28.124  29.944  21.141  1.00  0.00    -0.224 OA
ENDBRANCH   8  13
ENDBRANCH   6   7
BRANCH   5  17
ATOM     17  C   UNL A   1      32.753  26.698  26.043  1.00  0.00    -0.010 A 
ATOM     18  C   UNL A   1      31.586  27.090  26.724  1.00  0.00     0.009 A 
ATOM     19  C   UNL A   1      33.927  27.439  26.210  1.00  0.00     0.024 A 
ATOM     20  C   UNL A   1      31.607  28.184  27.592  1.00  0.00     0.002 A 
ATOM     21  C   UNL A   1      33.935  28.537  27.072  1.00  0.00     0.018 A 
ATOM     22  C   UNL A   1      32.784  28.909  27.767  1.00  0.00     0.016 A 
ATOM     23  Br  UNL A   1      35.532  29.516  27.323  1.00  0.00    -0.051 Br
ENDBRANCH   5  17
ENDBRANCH   3   5
ENDBRANCH   2   3
ENDBRANCH   1   2
BRANCH   1  24
ATOM     24  C   UNL A   1      35.790  21.867  25.613  1.00  0.00     0.275 C 
BRANCH  24  25
ATOM     25  O   UNL A   1      37.008  21.856  24.848  1.00  0.00    -0.458 OA
BRANCH  25  26
ATOM     26  C   UNL A   1      38.125  21.490  25.517  1.00  0.00     0.338 C 
ATOM     27  O   UNL A   1      38.639  20.383  25.553  1.00  0.00    -0.246 OA
BRANCH  26  28
ATOM     28  C   UNL A   1      38.712  22.653  26.206  1.00  0.00     0.060 A 
ATOM     29  C   UNL A   1      38.108  23.899  26.092  1.00  0.00     0.016 A 
ATOM     30  C   UNL A   1      39.960  22.545  26.819  1.00  0.00     0.016 A 
ATOM     31  C   UNL A   1      38.809  25.045  26.460  1.00  0.00     0.010 A 
ATOM     32  C   UNL A   1      40.604  23.693  27.303  1.00  0.00     0.010 A 
ATOM     33  C   UNL A   1      40.067  24.972  27.078  1.00  0.00    -0.014 A 
BRANCH  33  34
ATOM     34  C   UNL A   1      40.821  26.218  27.432  1.00  0.00     0.031 A 
ATOM     35  C   UNL A   1      42.234  26.439  26.940  1.00  0.00     0.074 A 
ATOM     36  C   UNL A   1      40.243  27.192  28.169  1.00  0.00     0.049 A 
ATOM     37  N   UNL A   1      43.113  27.336  27.317  1.00  0.00    -0.248 NA
ATOM     38  C   UNL A   1      42.732  25.527  25.898  1.00  0.00     0.031 C 
ATOM     39  C   UNL A   1      38.874  27.174  28.684  1.00  0.00     0.029 A 
ATOM     40  N   UNL A   1      40.736  28.403  28.601  1.00  0.00    -0.354 N 
ATOM     41  C   UNL A   1      44.285  27.041  26.629  1.00  0.00     0.074 A 
ATOM     42  C   UNL A   1      44.002  25.893  25.795  1.00  0.00     0.031 C 
ATOM     43  C   UNL A   1      38.609  28.341  29.286  1.00  0.00     0.029 A 
ATOM     44  C   UNL A   1      39.828  29.138  29.325  1.00  0.00     0.049 A 
ATOM     45  H   UNL A   1      41.649  28.713  28.408  1.00  0.00     0.167 HD
ATOM     46  C   UNL A   1      45.488  27.665  26.693  1.00  0.00     0.037 A 
ATOM     47  C   UNL A   1      39.960  30.292  30.006  1.00  0.00     0.037 A 
ATOM     48  C   UNL A   1      45.749  28.863  27.452  1.00  0.00     0.049 A 
ATOM     49  C   UNL A   1      41.301  30.956  30.079  1.00  0.00     0.074 A 
ATOM     50  C   UNL A   1      46.930  29.581  27.552  1.00  0.00     0.029 A 
ATOM     51  N   UNL A   1      44.810  29.536  28.219  1.00  0.00    -0.354 N 
ATOM     52  N   UNL A   1      42.427  30.604  29.511  1.00  0.00    -0.248 NA
ATOM     53  C   UNL A   1      41.399  32.154  30.924  1.00  0.00     0.031 C 
ATOM     54  C   UNL A   1      46.713  30.669  28.405  1.00  0.00     0.029 A 
ATOM     55  C   UNL A   1      45.388  30.652  28.804  1.00  0.00     0.049 A 
ATOM     56  H   UNL A   1      43.871  29.261  28.331  1.00  0.00     0.167 HD
ATOM     57  C   UNL A   1      43.370  31.530  29.936  1.00  0.00     0.074 A 
ATOM     58  C   UNL A   1      42.677  32.478  30.783  1.00  0.00     0.031 C 
ATOM     59  C   UNL A   1      44.695  31.580  29.659  1.00  0.00     0.037 A 
BRANCH  46  60
ATOM     60  C   UNL A   1      46.640  27.048  25.952  1.00  0.00     0.057 A 
ATOM     61  C   UNL A   1      46.948  27.381  24.628  1.00  0.00     0.134 A 
ATOM     62  C   UNL A   1      47.496  26.151  26.608  1.00  0.00     0.134 A 
ATOM     63  F   UNL A   1      46.165  28.224  23.939  1.00  0.00    -0.206 F 
ATOM     64  C   UNL A   1      48.056  26.831  23.977  1.00  0.00     0.040 A 
ATOM     65  C   UNL A   1      48.619  25.614  25.976  1.00  0.00     0.040 A 
ATOM     66  F   UNL A   1      47.264  25.797  27.881  1.00  0.00    -0.206 F 
ATOM     67  C   UNL A   1      48.900  25.952  24.654  1.00  0.00     0.006 A 
ENDBRANCH  46  60
BRANCH  47  68
ATOM     68  C   UNL A   1      38.794  30.849  30.738  1.00  0.00     0.057 A 
ATOM     69  C   UNL A   1      38.559  30.528  32.078  1.00  0.00     0.134 A 
ATOM     70  C   UNL A   1      37.903  31.739  30.121  1.00  0.00     0.134 A 
ATOM     71  F   UNL A   1      39.358  29.658  32.714  1.00  0.00    -0.206 F 
ATOM     72  C   UNL A   1      37.484  31.074  32.782  1.00  0.00     0.040 A 
ATOM     73  C   UNL A   1      36.845  32.316  30.820  1.00  0.00     0.040 A 
ATOM     74  F   UNL A   1      38.074  32.084  28.837  1.00  0.00    -0.206 F 
ATOM     75  C   UNL A   1      36.631  31.981  32.155  1.00  0.00     0.006 A 
ENDBRANCH  47  68
BRANCH  59  76
ATOM     76  C   UNL A   1      45.475  32.701  30.275  1.00  0.00     0.057 A 
ATOM     77  C   UNL A   1      45.601  33.942  29.639  1.00  0.00     0.134 A 
ATOM     78  C   UNL A   1      46.099  32.542  31.519  1.00  0.00     0.134 A 
ATOM     79  F   UNL A   1      45.039  34.150  28.439  1.00  0.00    -0.206 F 
ATOM     80  C   UNL A   1      46.341  34.980  30.208  1.00  0.00     0.040 A 
ATOM     81  C   UNL A   1      46.824  33.579  32.106  1.00  0.00     0.040 A 
ATOM     82  F   UNL A   1      46.012  31.378  32.180  1.00  0.00    -0.206 F 
ATOM     83  C   UNL A   1      46.952  34.801  31.447  1.00  0.00     0.006 A 
ENDBRANCH  59  76
ENDBRANCH  33  34
ENDBRANCH  26  28
ENDBRANCH  25  26
ENDBRANCH  24  25
ENDBRANCH   1  24
TORSDOF 14
ENDMDL
