MODEL 1
REMARK VINA RESULT:     -12.4      0.000      0.000
REMARK SMILES Cc1ccc2[nH]c(C(=O)OCCOC(=O)c3ccc(-c4c5nc(c(-c6c(F)cccc6F)c6ccc([nH]6)c(-c6c(F)cccc6F)c6nc(c(-c7c(F)cccc7F)c7ccc4[nH]7)C=C6)C=C5)cc3)c(NC(=O)[C@H]3C[C@H]3c3ccccc3)c2c1
REMARK SMILES IDX 11 1 10 2 8 3 9 4 7 5 1 6 2 7 3 8 84 9 4 10 83 11 5 12 70 13
REMARK SMILES IDX 6 14 71 16 72 17 73 19 74 20 75 21 76 22 77 23 78 24 82 25
REMARK SMILES IDX 79 26 81 27 80 28 12 29 13 30 14 31 15 32 16 33 17 34 69 35
REMARK SMILES IDX 18 36 68 37 19 38 20 39 21 40 62 41 22 42 67 43 61 44 63 45
REMARK SMILES IDX 23 46 66 47 60 48 59 49 24 51 50 52 33 53 49 54 34 55 37 56
REMARK SMILES IDX 48 57 64 58 35 59 36 60 47 62 65 63 38 64 25 65 26 66 31 67
REMARK SMILES IDX 27 68 28 69 30 70 32 71 29 72 51 73 52 74 57 75 53 76 54 77
REMARK SMILES IDX 56 78 58 79 55 80 39 81 40 82 45 83 41 84 42 85 44 86 46 87
REMARK SMILES IDX 43 88
REMARK H PARENT 6 15 71 18 63 50 37 61
REMARK Flexibility Score: inf
ROOT
ATOM      1  C   UNL A   1      35.674  21.590  25.564  1.00  0.00     0.275 C 
ENDROOT
BRANCH   1   2
ATOM      2  O   UNL A   1      34.759  21.978  24.506  1.00  0.00    -0.457 OA
BRANCH   2   3
ATOM      3  C   UNL A   1      35.038  23.151  23.865  1.00  0.00     0.357 C 
ATOM      4  O   UNL A   1      35.575  23.205  22.765  1.00  0.00    -0.244 OA
BRANCH   3   5
ATOM      5  C   UNL A   1      34.416  24.295  24.502  1.00  0.00     0.149 A 
ATOM      6  C   UNL A   1      32.224  29.395  27.034  1.00  0.00     0.044 C 
ATOM      7  C   UNL A   1      32.799  28.372  26.097  1.00  0.00    -0.050 A 
ATOM      8  C   UNL A   1      33.260  28.767  24.839  1.00  0.00     0.005 A 
ATOM      9  C   UNL A   1      32.893  27.017  26.491  1.00  0.00     0.016 A 
ATOM     10  C   UNL A   1      33.846  27.851  23.972  1.00  0.00     0.027 A 
ATOM     11  C   UNL A   1      33.494  26.062  25.631  1.00  0.00     0.024 A 
ATOM     12  C   UNL A   1      33.961  26.530  24.412  1.00  0.00     0.048 A 
ATOM     13  C   UNL A   1      33.800  24.630  25.718  1.00  0.00     0.082 A 
ATOM     14  N   UNL A   1      34.572  25.479  23.809  1.00  0.00    -0.347 N 
ATOM     15  H   UNL A   1      35.073  25.553  22.965  1.00  0.00     0.167 HD
BRANCH  13  16
ATOM     16  N   UNL A   1      33.520  23.933  26.911  1.00  0.00    -0.323 N 
ATOM     17  C   UNL A   1      32.666  22.903  27.263  1.00  0.00     0.228 C 
ATOM     18  H   UNL A   1      34.057  24.254  27.671  1.00  0.00     0.170 HD
ATOM     19  O   UNL A   1      32.693  22.398  28.380  1.00  0.00    -0.274 OA
BRANCH  17  20
ATOM     20  C   UNL A   1      31.687  22.494  26.269  1.00  0.00     0.087 C 
ATOM     21  C   UNL A   1      30.289  22.969  26.538  1.00  0.00     0.023 C 
ATOM     22  C   UNL A   1      30.886  23.062  25.151  1.00  0.00     0.032 C 
BRANCH  22  23
ATOM     23  C   UNL A   1      30.463  24.306  24.445  1.00  0.00    -0.044 A 
ATOM     24  C   UNL A   1      30.994  24.528  23.149  1.00  0.00     0.004 A 
ATOM     25  C   UNL A   1      29.881  25.395  25.095  1.00  0.00     0.004 A 
ATOM     26  C   UNL A   1      31.003  25.784  22.553  1.00  0.00     0.000 A 
ATOM     27  C   UNL A   1      29.889  26.663  24.500  1.00  0.00     0.000 A 
ATOM     28  C   UNL A   1      30.464  26.860  23.241  1.00  0.00     0.000 A 
ENDBRANCH  22  23
ENDBRANCH  17  20
ENDBRANCH  13  16
ENDBRANCH   3   5
ENDBRANCH   2   3
ENDBRANCH   1   2
BRANCH   1  29
ATOM     29  C   UNL A   1      36.822  20.745  24.996  1.00  0.00     0.275 C 
BRANCH  29  30
ATOM     30  O   UNL A   1      38.014  21.544  25.008  1.00  0.00    -0.458 OA
BRANCH  30  31
ATOM     31  C   UNL A   1      38.964  21.063  25.839  1.00  0.00     0.338 C 
ATOM     32  O   UNL A   1      39.468  19.952  25.837  1.00  0.00    -0.246 OA
BRANCH  31  33
ATOM     33  C   UNL A   1      39.571  22.227  26.491  1.00  0.00     0.060 A 
ATOM     34  C   UNL A   1      39.097  23.479  26.089  1.00  0.00     0.016 A 
ATOM     35  C   UNL A   1      40.554  22.112  27.465  1.00  0.00     0.016 A 
ATOM     36  C   UNL A   1      39.635  24.640  26.612  1.00  0.00     0.010 A 
ATOM     37  C   UNL A   1      41.102  23.278  27.995  1.00  0.00     0.010 A 
ATOM     38  C   UNL A   1      40.671  24.542  27.541  1.00  0.00    -0.014 A 
BRANCH  38  39
ATOM     39  C   UNL A   1      41.444  25.748  27.899  1.00  0.00     0.031 A 
ATOM     40  C   UNL A   1      40.750  26.805  28.706  1.00  0.00     0.074 A 
ATOM     41  C   UNL A   1      42.728  25.879  27.528  1.00  0.00     0.049 A 
ATOM     42  N   UNL A   1      41.103  28.040  28.936  1.00  0.00    -0.248 NA
ATOM     43  C   UNL A   1      39.463  26.421  29.312  1.00  0.00     0.031 C 
ATOM     44  C   UNL A   1      43.519  24.864  26.831  1.00  0.00     0.029 A 
ATOM     45  N   UNL A   1      43.587  26.936  27.673  1.00  0.00    -0.354 N 
ATOM     46  C   UNL A   1      40.055  28.595  29.660  1.00  0.00     0.074 A 
ATOM     47  C   UNL A   1      39.050  27.571  29.821  1.00  0.00     0.031 C 
ATOM     48  C   UNL A   1      44.747  25.355  26.595  1.00  0.00     0.029 A 
ATOM     49  C   UNL A   1      44.797  26.739  27.054  1.00  0.00     0.049 A 
ATOM     50  H   UNL A   1      43.361  27.754  28.171  1.00  0.00     0.167 HD
ATOM     51  C   UNL A   1      39.952  29.857  30.139  1.00  0.00     0.037 A 
ATOM     52  C   UNL A   1      45.802  27.606  26.833  1.00  0.00     0.037 A 
ATOM     53  C   UNL A   1      40.990  30.841  29.987  1.00  0.00     0.049 A 
ATOM     54  C   UNL A   1      45.638  29.022  27.315  1.00  0.00     0.074 A 
ATOM     55  C   UNL A   1      41.015  32.149  30.430  1.00  0.00     0.029 A 
ATOM     56  N   UNL A   1      42.198  30.609  29.341  1.00  0.00    -0.354 N 
ATOM     57  N   UNL A   1      44.631  29.566  27.958  1.00  0.00    -0.248 NA
ATOM     58  C   UNL A   1      46.741  29.948  27.031  1.00  0.00     0.031 C 
ATOM     59  C   UNL A   1      42.219  32.725  30.007  1.00  0.00     0.029 A 
ATOM     60  C   UNL A   1      42.968  31.758  29.354  1.00  0.00     0.049 A 
ATOM     61  H   UNL A   1      42.466  29.754  28.933  1.00  0.00     0.167 HD
ATOM     62  C   UNL A   1      44.988  30.890  28.178  1.00  0.00     0.074 A 
ATOM     63  C   UNL A   1      46.312  31.059  27.613  1.00  0.00     0.031 C 
ATOM     64  C   UNL A   1      44.288  31.881  28.785  1.00  0.00     0.037 A 
BRANCH  51  65
ATOM     65  C   UNL A   1      38.665  30.243  30.812  1.00  0.00     0.057 A 
ATOM     66  C   UNL A   1      37.598  30.828  30.117  1.00  0.00     0.134 A 
ATOM     67  C   UNL A   1      38.496  30.029  32.187  1.00  0.00     0.134 A 
ATOM     68  F   UNL A   1      37.700  31.082  28.803  1.00  0.00    -0.206 F 
ATOM     69  C   UNL A   1      36.424  31.211  30.769  1.00  0.00     0.040 A 
ATOM     70  C   UNL A   1      37.314  30.379  32.843  1.00  0.00     0.040 A 
ATOM     71  F   UNL A   1      39.477  29.477  32.917  1.00  0.00    -0.206 F 
ATOM     72  C   UNL A   1      36.277  30.981  32.135  1.00  0.00     0.006 A 
ENDBRANCH  51  65
BRANCH  52  73
ATOM     73  C   UNL A   1      47.013  27.175  26.090  1.00  0.00     0.057 A 
ATOM     74  C   UNL A   1      48.104  26.603  26.755  1.00  0.00     0.134 A 
ATOM     75  C   UNL A   1      47.114  27.318  24.699  1.00  0.00     0.134 A 
ATOM     76  F   UNL A   1      48.079  26.455  28.087  1.00  0.00    -0.206 F 
ATOM     77  C   UNL A   1      49.253  26.204  26.069  1.00  0.00     0.040 A 
ATOM     78  C   UNL A   1      48.244  26.896  23.997  1.00  0.00     0.040 A 
ATOM     79  F   UNL A   1      46.103  27.854  23.998  1.00  0.00    -0.206 F 
ATOM     80  C   UNL A   1      49.322  26.343  24.685  1.00  0.00     0.006 A 
ENDBRANCH  52  73
BRANCH  64  81
ATOM     81  C   UNL A   1      44.966  33.213  28.903  1.00  0.00     0.057 A 
ATOM     82  C   UNL A   1      45.827  33.516  29.965  1.00  0.00     0.134 A 
ATOM     83  C   UNL A   1      44.781  34.191  27.918  1.00  0.00     0.134 A 
ATOM     84  F   UNL A   1      46.035  32.626  30.947  1.00  0.00    -0.206 F 
ATOM     85  C   UNL A   1      46.461  34.755  30.055  1.00  0.00     0.040 A 
ATOM     86  C   UNL A   1      45.435  35.421  27.980  1.00  0.00     0.040 A 
ATOM     87  F   UNL A   1      43.976  33.959  26.869  1.00  0.00    -0.206 F 
ATOM     88  C   UNL A   1      46.272  35.708  29.056  1.00  0.00     0.006 A 
ENDBRANCH  64  81
ENDBRANCH  38  39
ENDBRANCH  31  33
ENDBRANCH  30  31
ENDBRANCH  29  30
ENDBRANCH   1  29
TORSDOF 14
ENDMDL
MODEL 2
REMARK VINA RESULT:     -12.0      3.935      8.544
REMARK SMILES Cc1ccc2[nH]c(C(=O)OCCOC(=O)c3ccc(-c4c5nc(c(-c6c(F)cccc6F)c6ccc([nH]6)c(-c6c(F)cccc6F)c6nc(c(-c7c(F)cccc7F)c7ccc4[nH]7)C=C6)C=C5)cc3)c(NC(=O)[C@H]3C[C@H]3c3ccccc3)c2c1
REMARK SMILES IDX 11 1 10 2 8 3 9 4 7 5 1 6 2 7 3 8 84 9 4 10 83 11 5 12 70 13
REMARK SMILES IDX 6 14 71 16 72 17 73 19 74 20 75 21 76 22 77 23 78 24 82 25
REMARK SMILES IDX 79 26 81 27 80 28 12 29 13 30 14 31 15 32 16 33 17 34 69 35
REMARK SMILES IDX 18 36 68 37 19 38 20 39 21 40 62 41 22 42 67 43 61 44 63 45
REMARK SMILES IDX 23 46 66 47 60 48 59 49 24 51 50 52 33 53 49 54 34 55 37 56
REMARK SMILES IDX 48 57 64 58 35 59 36 60 47 62 65 63 38 64 25 65 26 66 31 67
REMARK SMILES IDX 27 68 28 69 30 70 32 71 29 72 51 73 52 74 57 75 53 76 54 77
REMARK SMILES IDX 56 78 58 79 55 80 39 81 40 82 45 83 41 84 42 85 44 86 46 87
REMARK SMILES IDX 43 88
REMARK H PARENT 6 15 71 18 63 50 37 61
REMARK Flexibility Score: inf
ROOT
ATOM      1  C   UNL A   1      31.636  28.562  27.218  1.00  0.00     0.275 C 
ENDROOT
BRANCH   1   2
ATOM      2  O   UNL A   1      31.034  27.790  26.145  1.00  0.00    -0.457 OA
BRANCH   2   3
ATOM      3  C   UNL A   1      30.941  26.443  26.347  1.00  0.00     0.357 C 
ATOM      4  O   UNL A   1      29.879  25.865  26.542  1.00  0.00    -0.244 OA
BRANCH   3   5
ATOM      5  C   UNL A   1      32.182  25.750  26.063  1.00  0.00     0.149 A 
ATOM      6  C   UNL A   1      37.409  22.678  25.379  1.00  0.00     0.044 C 
ATOM      7  C   UNL A   1      36.001  23.092  25.697  1.00  0.00    -0.050 A 
ATOM      8  C   UNL A   1      35.172  22.230  26.416  1.00  0.00     0.005 A 
ATOM      9  C   UNL A   1      35.521  24.358  25.288  1.00  0.00     0.016 A 
ATOM     10  C   UNL A   1      33.881  22.609  26.771  1.00  0.00     0.027 A 
ATOM     11  C   UNL A   1      34.212  24.775  25.643  1.00  0.00     0.024 A 
ATOM     12  C   UNL A   1      33.455  23.883  26.387  1.00  0.00     0.048 A 
ATOM     13  C   UNL A   1      33.418  25.993  25.445  1.00  0.00     0.082 A 
ATOM     14  N   UNL A   1      32.297  24.524  26.687  1.00  0.00    -0.347 N 
ATOM     15  H   UNL A   1      31.611  24.152  27.287  1.00  0.00     0.167 HD
BRANCH  13  16
ATOM     16  N   UNL A   1      34.003  27.104  24.802  1.00  0.00    -0.323 N 
ATOM     17  C   UNL A   1      33.703  27.851  23.676  1.00  0.00     0.228 C 
ATOM     18  H   UNL A   1      34.812  27.423  25.262  1.00  0.00     0.170 HD
ATOM     19  O   UNL A   1      34.335  28.860  23.387  1.00  0.00    -0.274 OA
BRANCH  17  20
ATOM     20  C   UNL A   1      32.649  27.342  22.814  1.00  0.00     0.087 C 
ATOM     21  C   UNL A   1      33.137  26.613  21.595  1.00  0.00     0.023 C 
ATOM     22  C   UNL A   1      32.005  26.056  22.431  1.00  0.00     0.032 C 
BRANCH  22  23
ATOM     23  C   UNL A   1      32.065  24.570  22.530  1.00  0.00    -0.044 A 
ATOM     24  C   UNL A   1      31.021  23.924  23.241  1.00  0.00     0.004 A 
ATOM     25  C   UNL A   1      33.223  23.832  22.282  1.00  0.00     0.004 A 
ATOM     26  C   UNL A   1      31.146  22.631  23.736  1.00  0.00     0.000 A 
ATOM     27  C   UNL A   1      33.354  22.529  22.781  1.00  0.00     0.000 A 
ATOM     28  C   UNL A   1      32.327  21.938  23.521  1.00  0.00     0.000 A 
ENDBRANCH  22  23
ENDBRANCH  17  20
ENDBRANCH  13  16
ENDBRANCH   3   5
ENDBRANCH   2   3
ENDBRANCH   1   2
BRANCH   1  29
ATOM     29  C   UNL A   1      31.782  30.031  26.803  1.00  0.00     0.275 C 
BRANCH  29  30
ATOM     30  O   UNL A   1      33.178  30.308  26.621  1.00  0.00    -0.458 OA
BRANCH  30  31
ATOM     31  C   UNL A   1      33.574  31.448  27.227  1.00  0.00     0.338 C 
ATOM     32  O   UNL A   1      32.881  32.389  27.579  1.00  0.00    -0.246 OA
BRANCH  31  33
ATOM     33  C   UNL A   1      34.920  31.193  27.750  1.00  0.00     0.060 A 
ATOM     34  C   UNL A   1      35.236  29.859  28.020  1.00  0.00     0.016 A 
ATOM     35  C   UNL A   1      35.847  32.206  27.959  1.00  0.00     0.016 A 
ATOM     36  C   UNL A   1      36.464  29.518  28.557  1.00  0.00     0.010 A 
ATOM     37  C   UNL A   1      37.085  31.870  28.500  1.00  0.00     0.010 A 
ATOM     38  C   UNL A   1      37.380  30.532  28.836  1.00  0.00    -0.014 A 
BRANCH  38  39
ATOM     39  C   UNL A   1      38.570  30.232  29.657  1.00  0.00     0.031 A 
ATOM     40  C   UNL A   1      39.606  29.317  29.072  1.00  0.00     0.074 A 
ATOM     41  C   UNL A   1      38.722  30.775  30.876  1.00  0.00     0.049 A 
ATOM     42  N   UNL A   1      40.597  28.703  29.658  1.00  0.00    -0.248 NA
ATOM     43  C   UNL A   1      39.487  29.036  27.631  1.00  0.00     0.031 C 
ATOM     44  C   UNL A   1      37.822  31.753  31.488  1.00  0.00     0.029 A 
ATOM     45  N   UNL A   1      39.686  30.564  31.825  1.00  0.00    -0.354 N 
ATOM     46  C   UNL A   1      41.180  27.917  28.671  1.00  0.00     0.074 A 
ATOM     47  C   UNL A   1      40.427  28.121  27.456  1.00  0.00     0.031 C 
ATOM     48  C   UNL A   1      38.270  32.046  32.720  1.00  0.00     0.029 A 
ATOM     49  C   UNL A   1      39.437  31.220  33.005  1.00  0.00     0.049 A 
ATOM     50  H   UNL A   1      40.479  29.999  31.676  1.00  0.00     0.167 HD
ATOM     51  C   UNL A   1      42.249  27.095  28.786  1.00  0.00     0.037 A 
ATOM     52  C   UNL A   1      40.053  31.110  34.197  1.00  0.00     0.037 A 
ATOM     53  C   UNL A   1      42.994  26.943  30.008  1.00  0.00     0.049 A 
ATOM     54  C   UNL A   1      41.196  30.140  34.320  1.00  0.00     0.074 A 
ATOM     55  C   UNL A   1      44.099  26.152  30.255  1.00  0.00     0.029 A 
ATOM     56  N   UNL A   1      42.703  27.614  31.188  1.00  0.00    -0.354 N 
ATOM     57  N   UNL A   1      41.722  29.360  33.404  1.00  0.00    -0.248 NA
ATOM     58  C   UNL A   1      41.825  30.025  35.642  1.00  0.00     0.031 C 
ATOM     59  C   UNL A   1      44.446  26.306  31.602  1.00  0.00     0.029 A 
ATOM     60  C   UNL A   1      43.596  27.239  32.176  1.00  0.00     0.049 A 
ATOM     61  H   UNL A   1      41.971  28.261  31.305  1.00  0.00     0.167 HD
ATOM     62  C   UNL A   1      42.757  28.679  34.031  1.00  0.00     0.074 A 
ATOM     63  C   UNL A   1      42.794  29.154  35.400  1.00  0.00     0.031 C 
ATOM     64  C   UNL A   1      43.601  27.743  33.528  1.00  0.00     0.037 A 
BRANCH  51  65
ATOM     65  C   UNL A   1      42.628  26.274  27.587  1.00  0.00     0.057 A 
ATOM     66  C   UNL A   1      43.530  26.731  26.617  1.00  0.00     0.134 A 
ATOM     67  C   UNL A   1      42.072  25.002  27.396  1.00  0.00     0.134 A 
ATOM     68  F   UNL A   1      44.083  27.949  26.723  1.00  0.00    -0.206 F 
ATOM     69  C   UNL A   1      43.842  25.967  25.490  1.00  0.00     0.040 A 
ATOM     70  C   UNL A   1      42.400  24.216  26.290  1.00  0.00     0.040 A 
ATOM     71  F   UNL A   1      41.197  24.501  28.282  1.00  0.00    -0.206 F 
ATOM     72  C   UNL A   1      43.282  24.702  25.328  1.00  0.00     0.006 A 
ENDBRANCH  51  65
BRANCH  52  73
ATOM     73  C   UNL A   1      39.573  31.896  35.362  1.00  0.00     0.057 A 
ATOM     74  C   UNL A   1      38.573  31.402  36.207  1.00  0.00     0.134 A 
ATOM     75  C   UNL A   1      40.101  33.160  35.665  1.00  0.00     0.134 A 
ATOM     76  F   UNL A   1      38.014  30.208  35.962  1.00  0.00    -0.206 F 
ATOM     77  C   UNL A   1      38.107  32.136  37.299  1.00  0.00     0.040 A 
ATOM     78  C   UNL A   1      39.666  33.892  36.770  1.00  0.00     0.040 A 
ATOM     79  F   UNL A   1      41.066  33.692  34.899  1.00  0.00    -0.206 F 
ATOM     80  C   UNL A   1      38.659  33.383  37.587  1.00  0.00     0.006 A 
ENDBRANCH  52  73
BRANCH  64  81
ATOM     81  C   UNL A   1      44.654  27.213  34.455  1.00  0.00     0.057 A 
ATOM     82  C   UNL A   1      44.455  26.058  35.220  1.00  0.00     0.134 A 
ATOM     83  C   UNL A   1      45.898  27.850  34.551  1.00  0.00     0.134 A 
ATOM     84  F   UNL A   1      43.280  25.411  35.182  1.00  0.00    -0.206 F 
ATOM     85  C   UNL A   1      45.447  25.568  36.069  1.00  0.00     0.040 A 
ATOM     86  C   UNL A   1      46.910  27.351  35.371  1.00  0.00     0.040 A 
ATOM     87  F   UNL A   1      46.155  28.955  33.835  1.00  0.00    -0.206 F 
ATOM     88  C   UNL A   1      46.682  26.211  36.139  1.00  0.00     0.006 A 
ENDBRANCH  64  81
ENDBRANCH  38  39
ENDBRANCH  31  33
ENDBRANCH  30  31
ENDBRANCH  29  30
ENDBRANCH   1  29
TORSDOF 14
ENDMDL
MODEL 3
REMARK VINA RESULT:     -11.8      1.776      3.336
REMARK SMILES Cc1ccc2[nH]c(C(=O)OCCOC(=O)c3ccc(-c4c5nc(c(-c6c(F)cccc6F)c6ccc([nH]6)c(-c6c(F)cccc6F)c6nc(c(-c7c(F)cccc7F)c7ccc4[nH]7)C=C6)C=C5)cc3)c(NC(=O)[C@H]3C[C@H]3c3ccccc3)c2c1
REMARK SMILES IDX 11 1 10 2 8 3 9 4 7 5 1 6 2 7 3 8 84 9 4 10 83 11 5 12 70 13
REMARK SMILES IDX 6 14 71 16 72 17 73 19 74 20 75 21 76 22 77 23 78 24 82 25
REMARK SMILES IDX 79 26 81 27 80 28 12 29 13 30 14 31 15 32 16 33 17 34 69 35
REMARK SMILES IDX 18 36 68 37 19 38 20 39 21 40 62 41 22 42 67 43 61 44 63 45
REMARK SMILES IDX 23 46 66 47 60 48 59 49 24 51 50 52 33 53 49 54 34 55 37 56
REMARK SMILES IDX 48 57 64 58 35 59 36 60 47 62 65 63 38 64 25 65 26 66 31 67
REMARK SMILES IDX 27 68 28 69 30 70 32 71 29 72 51 73 52 74 57 75 53 76 54 77
REMARK SMILES IDX 56 78 58 79 55 80 39 81 40 82 45 83 41 84 42 85 44 86 46 87
REMARK SMILES IDX 43 88
REMARK H PARENT 6 15 71 18 63 50 37 61
REMARK Flexibility Score: inf
ROOT
ATOM      1  C   UNL A   1      35.511  22.529  25.743  1.00  0.00     0.275 C 
ENDROOT
BRANCH   1   2
ATOM      2  O   UNL A   1      35.961  23.688  24.994  1.00  0.00    -0.457 OA
BRANCH   2   3
ATOM      3  C   UNL A   1      35.498  23.799  23.715  1.00  0.00     0.357 C 
ATOM      4  O   UNL A   1      36.071  23.311  22.748  1.00  0.00    -0.244 OA
BRANCH   3   5
ATOM      5  C   UNL A   1      34.153  24.335  23.653  1.00  0.00     0.149 A 
ATOM      6  C   UNL A   1      28.529  26.686  23.916  1.00  0.00     0.044 C 
ATOM      7  C   UNL A   1      30.007  26.445  24.027  1.00  0.00    -0.050 A 
ATOM      8  C   UNL A   1      30.800  27.336  24.753  1.00  0.00     0.005 A 
ATOM      9  C   UNL A   1      30.592  25.312  23.418  1.00  0.00     0.016 A 
ATOM     10  C   UNL A   1      32.163  27.109  24.918  1.00  0.00     0.027 A 
ATOM     11  C   UNL A   1      31.978  25.050  23.576  1.00  0.00     0.024 A 
ATOM     12  C   UNL A   1      32.699  25.957  24.337  1.00  0.00     0.048 A 
ATOM     13  C   UNL A   1      32.892  23.985  23.147  1.00  0.00     0.082 A 
ATOM     14  N   UNL A   1      33.958  25.460  24.430  1.00  0.00    -0.347 N 
ATOM     15  H   UNL A   1      34.659  25.859  24.993  1.00  0.00     0.167 HD
BRANCH  13  16
ATOM     16  N   UNL A   1      32.380  22.876  22.440  1.00  0.00    -0.323 N 
ATOM     17  C   UNL A   1      32.300  21.516  22.682  1.00  0.00     0.228 C 
ATOM     18  H   UNL A   1      31.990  23.129  21.573  1.00  0.00     0.170 HD
ATOM     19  O   UNL A   1      31.695  20.764  21.927  1.00  0.00    -0.274 OA
BRANCH  17  20
ATOM     20  C   UNL A   1      33.025  21.012  23.837  1.00  0.00     0.087 C 
ATOM     21  C   UNL A   1      32.156  20.429  24.914  1.00  0.00     0.023 C 
ATOM     22  C   UNL A   1      33.418  19.723  24.468  1.00  0.00     0.032 C 
BRANCH  22  23
ATOM     23  C   UNL A   1      33.251  18.242  24.452  1.00  0.00    -0.044 A 
ATOM     24  C   UNL A   1      32.576  17.654  25.553  1.00  0.00     0.004 A 
ATOM     25  C   UNL A   1      33.998  17.396  23.632  1.00  0.00     0.004 A 
ATOM     26  C   UNL A   1      32.689  16.302  25.859  1.00  0.00     0.000 A 
ATOM     27  C   UNL A   1      34.115  16.033  23.937  1.00  0.00     0.000 A 
ATOM     28  C   UNL A   1      33.478  15.492  25.057  1.00  0.00     0.000 A 
ENDBRANCH  22  23
ENDBRANCH  17  20
ENDBRANCH  13  16
ENDBRANCH   3   5
ENDBRANCH   2   3
ENDBRANCH   1   2
BRANCH   1  29
ATOM     29  C   UNL A   1      36.496  21.366  25.572  1.00  0.00     0.275 C 
BRANCH  29  30
ATOM     30  O   UNL A   1      37.761  21.907  25.163  1.00  0.00    -0.458 OA
BRANCH  30  31
ATOM     31  C   UNL A   1      38.800  21.412  25.869  1.00  0.00     0.338 C 
ATOM     32  O   UNL A   1      39.334  20.321  25.752  1.00  0.00    -0.246 OA
BRANCH  31  33
ATOM     33  C   UNL A   1      39.435  22.556  26.531  1.00  0.00     0.060 A 
ATOM     34  C   UNL A   1      38.995  23.822  26.134  1.00  0.00     0.016 A 
ATOM     35  C   UNL A   1      40.409  22.410  27.509  1.00  0.00     0.016 A 
ATOM     36  C   UNL A   1      39.561  24.966  26.665  1.00  0.00     0.010 A 
ATOM     37  C   UNL A   1      40.984  23.559  28.048  1.00  0.00     0.010 A 
ATOM     38  C   UNL A   1      40.588  24.836  27.599  1.00  0.00    -0.014 A 
BRANCH  38  39
ATOM     39  C   UNL A   1      41.391  26.019  27.967  1.00  0.00     0.031 A 
ATOM     40  C   UNL A   1      40.725  27.082  28.791  1.00  0.00     0.074 A 
ATOM     41  C   UNL A   1      42.675  26.127  27.590  1.00  0.00     0.049 A 
ATOM     42  N   UNL A   1      41.108  28.305  29.035  1.00  0.00    -0.248 NA
ATOM     43  C   UNL A   1      39.434  26.719  29.401  1.00  0.00     0.031 C 
ATOM     44  C   UNL A   1      43.439  25.103  26.876  1.00  0.00     0.029 A 
ATOM     45  N   UNL A   1      43.559  27.161  27.743  1.00  0.00    -0.354 N 
ATOM     46  C   UNL A   1      40.077  28.875  29.773  1.00  0.00     0.074 A 
ATOM     47  C   UNL A   1      39.049  27.872  29.926  1.00  0.00     0.031 C 
ATOM     48  C   UNL A   1      44.676  25.569  26.639  1.00  0.00     0.029 A 
ATOM     49  C   UNL A   1      44.760  26.945  27.115  1.00  0.00     0.049 A 
ATOM     50  H   UNL A   1      43.354  27.978  28.253  1.00  0.00     0.167 HD
ATOM     51  C   UNL A   1      40.005  30.133  30.267  1.00  0.00     0.037 A 
ATOM     52  C   UNL A   1      45.783  27.793  26.899  1.00  0.00     0.037 A 
ATOM     53  C   UNL A   1      41.065  31.095  30.121  1.00  0.00     0.049 A 
ATOM     54  C   UNL A   1      45.654  29.205  27.399  1.00  0.00     0.074 A 
ATOM     55  C   UNL A   1      41.122  32.396  30.581  1.00  0.00     0.029 A 
ATOM     56  N   UNL A   1      42.263  30.844  29.465  1.00  0.00    -0.354 N 
ATOM     57  N   UNL A   1      44.664  29.763  28.055  1.00  0.00    -0.248 NA
ATOM     58  C   UNL A   1      46.776  30.109  27.119  1.00  0.00     0.031 C 
ATOM     59  C   UNL A   1      42.335  32.950  30.158  1.00  0.00     0.029 A 
ATOM     60  C   UNL A   1      43.059  31.975  29.489  1.00  0.00     0.049 A 
ATOM     61  H   UNL A   1      42.509  29.988  29.045  1.00  0.00     0.167 HD
ATOM     62  C   UNL A   1      45.051  31.076  28.289  1.00  0.00     0.074 A 
ATOM     63  C   UNL A   1      46.376  31.222  27.718  1.00  0.00     0.031 C 
ATOM     64  C   UNL A   1      44.378  32.075  28.913  1.00  0.00     0.037 A 
BRANCH  51  65
ATOM     65  C   UNL A   1      38.732  30.539  30.953  1.00  0.00     0.057 A 
ATOM     66  C   UNL A   1      38.530  30.364  32.329  1.00  0.00     0.134 A 
ATOM     67  C   UNL A   1      37.684  31.111  30.219  1.00  0.00     0.134 A 
ATOM     68  F   UNL A   1      39.482  29.801  33.090  1.00  0.00    -0.206 F 
ATOM     69  C   UNL A   1      37.325  30.716  32.942  1.00  0.00     0.040 A 
ATOM     70  C   UNL A   1      36.487  31.496  30.826  1.00  0.00     0.040 A 
ATOM     71  F   UNL A   1      37.805  31.304  28.896  1.00  0.00    -0.206 F 
ATOM     72  C   UNL A   1      36.302  31.290  32.191  1.00  0.00     0.006 A 
ENDBRANCH  51  65
BRANCH  52  73
ATOM     73  C   UNL A   1      46.981  27.343  26.143  1.00  0.00     0.057 A 
ATOM     74  C   UNL A   1      48.092  26.806  26.802  1.00  0.00     0.134 A 
ATOM     75  C   UNL A   1      47.046  27.435  24.745  1.00  0.00     0.134 A 
ATOM     76  F   UNL A   1      48.100  26.706  28.138  1.00  0.00    -0.206 F 
ATOM     77  C   UNL A   1      49.227  26.390  26.104  1.00  0.00     0.040 A 
ATOM     78  C   UNL A   1      48.163  26.996  24.032  1.00  0.00     0.040 A 
ATOM     79  F   UNL A   1      46.015  27.937  24.050  1.00  0.00    -0.206 F 
ATOM     80  C   UNL A   1      49.262  26.478  24.713  1.00  0.00     0.006 A 
ENDBRANCH  52  73
BRANCH  64  81
ATOM     81  C   UNL A   1      45.086  33.390  29.044  1.00  0.00     0.057 A 
ATOM     82  C   UNL A   1      44.932  34.413  28.100  1.00  0.00     0.134 A 
ATOM     83  C   UNL A   1      45.905  33.646  30.151  1.00  0.00     0.134 A 
ATOM     84  F   UNL A   1      44.172  34.224  27.011  1.00  0.00    -0.206 F 
ATOM     85  C   UNL A   1      45.586  35.636  28.241  1.00  0.00     0.040 A 
ATOM     86  C   UNL A   1      46.538  34.878  30.320  1.00  0.00     0.040 A 
ATOM     87  F   UNL A   1      46.085  32.711  31.097  1.00  0.00    -0.206 F 
ATOM     88  C   UNL A   1      46.385  35.873  29.357  1.00  0.00     0.006 A 
ENDBRANCH  64  81
ENDBRANCH  38  39
ENDBRANCH  31  33
ENDBRANCH  30  31
ENDBRANCH  29  30
ENDBRANCH   1  29
TORSDOF 14
ENDMDL
