MODEL 1
REMARK VINA RESULT:     -10.4      0.000      0.000
REMARK SMILES O=C(COc1ccccc1/C=C1\C(=O)Nc2ccccc21)OCCOC(=O)c1ccc(-c2c3nc(c(-c4c(F)cccc4F)c4ccc([nH]4)c(-c4c(F)cccc4F)c4nc(c(-c5c(F)cccc5F)c5ccc2[nH]5)C=C4)C=C3)cc1
REMARK SMILES IDX 23 1 22 2 2 3 1 4 3 5 4 6 5 7 6 8 10 9 7 10 9 11 8 12 11 13
REMARK SMILES IDX 12 14 13 15 21 16 14 17 15 18 16 19 20 20 17 22 19 23 18 24
REMARK SMILES IDX 24 25 25 26 26 27 27 28 28 29 29 30 81 31 30 32 80 33 31 34
REMARK SMILES IDX 32 35 33 36 74 37 34 38 79 39 73 40 75 41 35 42 78 43 72 44
REMARK SMILES IDX 71 45 36 47 62 48 45 49 61 50 46 51 49 52 60 53 76 54 47 55
REMARK SMILES IDX 48 56 59 58 77 59 50 60 37 61 38 62 43 63 39 64 40 65 42 66
REMARK SMILES IDX 44 67 41 68 63 69 64 70 69 71 65 72 66 73 68 74 70 75 67 76
REMARK SMILES IDX 51 77 52 78 57 79 53 80 54 81 56 82 58 83 55 84
REMARK H PARENT 15 21 75 46 49 57
REMARK Flexibility Score: inf
ROOT
ATOM      1  C   UNL A   1      33.356  36.495  32.040  1.00  0.00     0.274 C 
ENDROOT
BRANCH   1   2
ATOM      2  O   UNL A   1      33.607  35.193  32.617  1.00  0.00    -0.460 OA
BRANCH   2   3
ATOM      3  C   UNL A   1      34.767  34.842  33.226  1.00  0.00     0.344 C 
ATOM      4  O   UNL A   1      35.700  35.641  33.285  1.00  0.00    -0.248 OA
BRANCH   3   5
ATOM      5  C   UNL A   1      34.865  33.473  33.873  1.00  0.00     0.352 C 
BRANCH   5   6
ATOM      6  O   UNL A   1      35.893  33.506  34.855  1.00  0.00    -0.481 OA
BRANCH   6   7
ATOM      7  C   UNL A   1      36.950  32.682  34.564  1.00  0.00     0.127 A 
ATOM      8  C   UNL A   1      36.716  31.691  33.604  1.00  0.00     0.047 A 
ATOM      9  C   UNL A   1      38.136  32.717  35.327  1.00  0.00     0.017 A 
ATOM     10  C   UNL A   1      37.655  30.684  33.410  1.00  0.00     0.004 A 
ATOM     11  C   UNL A   1      39.005  31.631  35.184  1.00  0.00     0.012 A 
ATOM     12  C   UNL A   1      38.782  30.638  34.223  1.00  0.00     0.001 A 
BRANCH   9  13
ATOM     13  C   UNL A   1      38.405  33.851  36.243  1.00  0.00     0.026 C 
ATOM     14  C   UNL A   1      38.470  33.900  37.588  1.00  0.00     0.050 C 
ATOM     15  C   UNL A   1      38.144  32.849  38.631  1.00  0.00     0.256 C 
ATOM     16  C   UNL A   1      38.928  35.087  38.343  1.00  0.00     0.011 A 
ATOM     17  O   UNL A   1      37.813  31.690  38.491  1.00  0.00    -0.269 OA
ATOM     18  N   UNL A   1      38.298  33.486  39.851  1.00  0.00    -0.321 N 
ATOM     19  C   UNL A   1      38.781  34.777  39.697  1.00  0.00     0.049 A 
ATOM     20  C   UNL A   1      39.516  36.286  37.977  1.00  0.00     0.011 A 
ATOM     21  H   UNL A   1      38.090  33.073  40.721  1.00  0.00     0.170 HD
ATOM     22  C   UNL A   1      39.147  35.638  40.714  1.00  0.00     0.027 A 
ATOM     23  C   UNL A   1      39.924  37.166  38.989  1.00  0.00     0.001 A 
ATOM     24  C   UNL A   1      39.730  36.849  40.345  1.00  0.00     0.002 A 
ENDBRANCH   9  13
ENDBRANCH   6   7
ENDBRANCH   5   6
ENDBRANCH   3   5
ENDBRANCH   2   3
ENDBRANCH   1   2
BRANCH   1  25
ATOM     25  C   UNL A   1      32.933  36.345  30.580  1.00  0.00     0.275 C 
BRANCH  25  26
ATOM     26  O   UNL A   1      32.704  34.950  30.305  1.00  0.00    -0.458 OA
BRANCH  26  27
ATOM     27  C   UNL A   1      33.143  34.513  29.098  1.00  0.00     0.338 C 
ATOM     28  O   UNL A   1      32.653  34.735  28.010  1.00  0.00    -0.246 OA
BRANCH  27  29
ATOM     29  C   UNL A   1      34.451  33.856  29.297  1.00  0.00     0.060 A 
ATOM     30  C   UNL A   1      34.527  32.797  30.209  1.00  0.00     0.016 A 
ATOM     31  C   UNL A   1      35.590  34.275  28.600  1.00  0.00     0.016 A 
ATOM     32  C   UNL A   1      35.749  32.170  30.445  1.00  0.00     0.010 A 
ATOM     33  C   UNL A   1      36.817  33.656  28.849  1.00  0.00     0.010 A 
ATOM     34  C   UNL A   1      36.906  32.619  29.792  1.00  0.00    -0.014 A 
BRANCH  34  35
ATOM     35  C   UNL A   1      38.227  32.115  30.225  1.00  0.00     0.031 A 
ATOM     36  C   UNL A   1      38.699  30.788  29.699  1.00  0.00     0.074 A 
ATOM     37  C   UNL A   1      39.008  32.832  31.050  1.00  0.00     0.049 A 
ATOM     38  N   UNL A   1      39.834  30.171  29.903  1.00  0.00    -0.248 NA
ATOM     39  C   UNL A   1      37.763  30.061  28.826  1.00  0.00     0.031 C 
ATOM     40  C   UNL A   1      38.668  34.134  31.623  1.00  0.00     0.029 A 
ATOM     41  N   UNL A   1      40.255  32.557  31.550  1.00  0.00    -0.354 N 
ATOM     42  C   UNL A   1      39.762  29.000  29.162  1.00  0.00     0.074 A 
ATOM     43  C   UNL A   1      38.454  28.966  28.543  1.00  0.00     0.031 C 
ATOM     44  C   UNL A   1      39.682  34.540  32.409  1.00  0.00     0.029 A 
ATOM     45  C   UNL A   1      40.735  33.525  32.397  1.00  0.00     0.049 A 
ATOM     46  H   UNL A   1      40.759  31.742  31.324  1.00  0.00     0.167 HD
ATOM     47  C   UNL A   1      40.707  28.047  28.992  1.00  0.00     0.037 A 
ATOM     48  C   UNL A   1      41.893  33.581  33.082  1.00  0.00     0.037 A 
ATOM     49  C   UNL A   1      41.997  28.058  29.626  1.00  0.00     0.049 A 
ATOM     50  C   UNL A   1      42.904  32.476  32.926  1.00  0.00     0.074 A 
ATOM     51  C   UNL A   1      43.018  27.129  29.524  1.00  0.00     0.029 A 
ATOM     52  N   UNL A   1      42.439  29.047  30.489  1.00  0.00    -0.354 N 
ATOM     53  N   UNL A   1      42.843  31.395  32.187  1.00  0.00    -0.248 NA
ATOM     54  C   UNL A   1      44.153  32.609  33.692  1.00  0.00     0.031 C 
ATOM     55  C   UNL A   1      44.067  27.541  30.354  1.00  0.00     0.029 A 
ATOM     56  C   UNL A   1      43.712  28.744  30.941  1.00  0.00     0.049 A 
ATOM     57  H   UNL A   1      41.925  29.846  30.744  1.00  0.00     0.167 HD
ATOM     58  C   UNL A   1      44.050  30.734  32.380  1.00  0.00     0.074 A 
ATOM     59  C   UNL A   1      44.830  31.542  33.292  1.00  0.00     0.031 C 
ATOM     60  C   UNL A   1      44.476  29.561  31.849  1.00  0.00     0.037 A 
BRANCH  47  61
ATOM     61  C   UNL A   1      40.368  26.907  28.079  1.00  0.00     0.057 A 
ATOM     62  C   UNL A   1      40.872  26.846  26.774  1.00  0.00     0.134 A 
ATOM     63  C   UNL A   1      39.550  25.857  28.511  1.00  0.00     0.134 A 
ATOM     64  F   UNL A   1      41.647  27.833  26.297  1.00  0.00    -0.206 F 
ATOM     65  C   UNL A   1      40.561  25.786  25.922  1.00  0.00     0.040 A 
ATOM     66  C   UNL A   1      39.247  24.782  27.674  1.00  0.00     0.040 A 
ATOM     67  F   UNL A   1      39.034  25.860  29.749  1.00  0.00    -0.206 F 
ATOM     68  C   UNL A   1      39.750  24.747  26.374  1.00  0.00     0.006 A 
ENDBRANCH  47  61
BRANCH  48  69
ATOM     69  C   UNL A   1      42.169  34.725  33.985  1.00  0.00     0.057 A 
ATOM     70  C   UNL A   1      42.663  35.937  33.492  1.00  0.00     0.134 A 
ATOM     71  C   UNL A   1      41.990  34.614  35.369  1.00  0.00     0.134 A 
ATOM     72  F   UNL A   1      42.881  36.092  32.178  1.00  0.00    -0.206 F 
ATOM     73  C   UNL A   1      42.992  36.992  34.344  1.00  0.00     0.040 A 
ATOM     74  C   UNL A   1      42.294  35.668  36.231  1.00  0.00     0.040 A 
ATOM     75  F   UNL A   1      41.519  33.476  35.902  1.00  0.00    -0.206 F 
ATOM     76  C   UNL A   1      42.806  36.859  35.719  1.00  0.00     0.006 A 
ENDBRANCH  48  69
BRANCH  60  77
ATOM     77  C   UNL A   1      45.850  29.097  32.227  1.00  0.00     0.057 A 
ATOM     78  C   UNL A   1      46.068  28.254  33.324  1.00  0.00     0.134 A 
ATOM     79  C   UNL A   1      46.966  29.479  31.472  1.00  0.00     0.134 A 
ATOM     80  F   UNL A   1      45.041  27.863  34.094  1.00  0.00    -0.206 F 
ATOM     81  C   UNL A   1      47.350  27.826  33.671  1.00  0.00     0.040 A 
ATOM     82  C   UNL A   1      48.250  29.038  31.795  1.00  0.00     0.040 A 
ATOM     83  F   UNL A   1      46.825  30.278  30.404  1.00  0.00    -0.206 F 
ATOM     84  C   UNL A   1      48.446  28.214  32.902  1.00  0.00     0.006 A 
ENDBRANCH  60  77
ENDBRANCH  34  35
ENDBRANCH  27  29
ENDBRANCH  26  27
ENDBRANCH  25  26
ENDBRANCH   1  25
TORSDOF 14
ENDMDL
MODEL 2
REMARK VINA RESULT:     -10.3      4.510     10.460
REMARK SMILES O=C(COc1ccccc1/C=C1\C(=O)Nc2ccccc21)OCCOC(=O)c1ccc(-c2c3nc(c(-c4c(F)cccc4F)c4ccc([nH]4)c(-c4c(F)cccc4F)c4nc(c(-c5c(F)cccc5F)c5ccc2[nH]5)C=C4)C=C3)cc1
REMARK SMILES IDX 23 1 22 2 2 3 1 4 3 5 4 6 5 7 6 8 10 9 7 10 9 11 8 12 11 13
REMARK SMILES IDX 12 14 13 15 21 16 14 17 15 18 16 19 20 20 17 22 19 23 18 24
REMARK SMILES IDX 24 25 25 26 26 27 27 28 28 29 29 30 81 31 30 32 80 33 31 34
REMARK SMILES IDX 32 35 33 36 74 37 34 38 79 39 73 40 75 41 35 42 78 43 72 44
REMARK SMILES IDX 71 45 36 47 62 48 45 49 61 50 46 51 49 52 60 53 76 54 47 55
REMARK SMILES IDX 48 56 59 58 77 59 50 60 37 61 38 62 43 63 39 64 40 65 42 66
REMARK SMILES IDX 44 67 41 68 63 69 64 70 69 71 65 72 66 73 68 74 70 75 67 76
REMARK SMILES IDX 51 77 52 78 57 79 53 80 54 81 56 82 58 83 55 84
REMARK H PARENT 15 21 75 46 49 57
REMARK Flexibility Score: inf
ROOT
ATOM      1  C   UNL A   1      31.401  31.178  25.975  1.00  0.00     0.274 C 
ENDROOT
BRANCH   1   2
ATOM      2  O   UNL A   1      32.561  30.324  26.099  1.00  0.00    -0.460 OA
BRANCH   2   3
ATOM      3  C   UNL A   1      32.541  29.088  26.658  1.00  0.00     0.344 C 
ATOM      4  O   UNL A   1      31.686  28.805  27.497  1.00  0.00    -0.248 OA
BRANCH   3   5
ATOM      5  C   UNL A   1      33.553  28.060  26.192  1.00  0.00     0.352 C 
BRANCH   5   6
ATOM      6  O   UNL A   1      33.023  26.761  26.423  1.00  0.00    -0.481 OA
BRANCH   6   7
ATOM      7  C   UNL A   1      33.324  25.866  25.429  1.00  0.00     0.127 A 
ATOM      8  C   UNL A   1      34.425  25.032  25.658  1.00  0.00     0.047 A 
ATOM      9  C   UNL A   1      32.677  25.919  24.176  1.00  0.00     0.017 A 
ATOM     10  C   UNL A   1      34.929  24.255  24.622  1.00  0.00     0.004 A 
ATOM     11  C   UNL A   1      33.277  25.211  23.131  1.00  0.00     0.012 A 
ATOM     12  C   UNL A   1      34.375  24.370  23.352  1.00  0.00     0.001 A 
BRANCH   9  13
ATOM     13  C   UNL A   1      31.440  26.718  24.005  1.00  0.00     0.026 C 
ATOM     14  C   UNL A   1      31.203  27.832  23.287  1.00  0.00     0.050 C 
ATOM     15  C   UNL A   1      32.153  28.738  22.528  1.00  0.00     0.256 C 
ATOM     16  C   UNL A   1      29.855  28.404  23.083  1.00  0.00     0.011 A 
ATOM     17  O   UNL A   1      33.347  28.627  22.334  1.00  0.00    -0.269 OA
ATOM     18  N   UNL A   1      31.372  29.784  22.067  1.00  0.00    -0.321 N 
ATOM     19  C   UNL A   1      30.030  29.586  22.358  1.00  0.00     0.049 A 
ATOM     20  C   UNL A   1      28.574  27.960  23.365  1.00  0.00     0.011 A 
ATOM     21  H   UNL A   1      31.724  30.570  21.590  1.00  0.00     0.170 HD
ATOM     22  C   UNL A   1      28.979  30.381  21.943  1.00  0.00     0.027 A 
ATOM     23  C   UNL A   1      27.488  28.733  22.931  1.00  0.00     0.001 A 
ATOM     24  C   UNL A   1      27.689  29.939  22.236  1.00  0.00     0.002 A 
ENDBRANCH   9  13
ENDBRANCH   6   7
ENDBRANCH   5   6
ENDBRANCH   3   5
ENDBRANCH   2   3
ENDBRANCH   1   2
BRANCH   1  25
ATOM     25  C   UNL A   1      31.489  32.326  26.979  1.00  0.00     0.275 C 
BRANCH  25  26
ATOM     26  O   UNL A   1      32.741  33.011  26.790  1.00  0.00    -0.458 OA
BRANCH  26  27
ATOM     27  C   UNL A   1      33.230  33.649  27.882  1.00  0.00     0.338 C 
ATOM     28  O   UNL A   1      32.686  34.519  28.533  1.00  0.00    -0.246 OA
BRANCH  27  29
ATOM     29  C   UNL A   1      34.483  32.978  28.283  1.00  0.00     0.060 A 
ATOM     30  C   UNL A   1      34.417  31.637  28.677  1.00  0.00     0.016 A 
ATOM     31  C   UNL A   1      35.707  33.656  28.273  1.00  0.00     0.016 A 
ATOM     32  C   UNL A   1      35.574  30.977  29.088  1.00  0.00     0.010 A 
ATOM     33  C   UNL A   1      36.862  32.998  28.700  1.00  0.00     0.010 A 
ATOM     34  C   UNL A   1      36.795  31.664  29.135  1.00  0.00    -0.014 A 
BRANCH  34  35
ATOM     35  C   UNL A   1      37.958  31.034  29.796  1.00  0.00     0.031 A 
ATOM     36  C   UNL A   1      38.243  31.376  31.232  1.00  0.00     0.074 A 
ATOM     37  C   UNL A   1      38.736  30.153  29.144  1.00  0.00     0.049 A 
ATOM     38  N   UNL A   1      39.174  30.914  32.026  1.00  0.00    -0.248 NA
ATOM     39  C   UNL A   1      37.356  32.373  31.854  1.00  0.00     0.031 C 
ATOM     40  C   UNL A   1      38.562  29.734  27.754  1.00  0.00     0.029 A 
ATOM     41  N   UNL A   1      39.834  29.454  29.573  1.00  0.00    -0.354 N 
ATOM     42  C   UNL A   1      38.968  31.540  33.247  1.00  0.00     0.074 A 
ATOM     43  C   UNL A   1      37.856  32.451  33.079  1.00  0.00     0.031 C 
ATOM     44  C   UNL A   1      39.532  28.856  27.441  1.00  0.00     0.029 A 
ATOM     45  C   UNL A   1      40.394  28.658  28.606  1.00  0.00     0.049 A 
ATOM     46  H   UNL A   1      40.190  29.518  30.490  1.00  0.00     0.167 HD
ATOM     47  C   UNL A   1      39.630  31.358  34.414  1.00  0.00     0.037 A 
ATOM     48  C   UNL A   1      41.479  27.862  28.658  1.00  0.00     0.037 A 
ATOM     49  C   UNL A   1      40.754  30.478  34.582  1.00  0.00     0.049 A 
ATOM     50  C   UNL A   1      42.238  27.724  29.951  1.00  0.00     0.074 A 
ATOM     51  C   UNL A   1      41.498  30.236  35.723  1.00  0.00     0.029 A 
ATOM     52  N   UNL A   1      41.301  29.700  33.574  1.00  0.00    -0.354 N 
ATOM     53  N   UNL A   1      42.007  28.287  31.112  1.00  0.00    -0.248 NA
ATOM     54  C   UNL A   1      43.403  26.826  29.941  1.00  0.00     0.031 C 
ATOM     55  C   UNL A   1      42.518  29.335  35.396  1.00  0.00     0.029 A 
ATOM     56  C   UNL A   1      42.384  28.989  34.062  1.00  0.00     0.049 A 
ATOM     57  H   UNL A   1      40.969  29.660  32.649  1.00  0.00     0.167 HD
ATOM     58  C   UNL A   1      42.980  27.795  31.974  1.00  0.00     0.074 A 
ATOM     59  C   UNL A   1      43.793  26.876  31.207  1.00  0.00     0.031 C 
ATOM     60  C   UNL A   1      43.183  28.077  33.284  1.00  0.00     0.037 A 
BRANCH  47  61
ATOM     61  C   UNL A   1      39.148  32.138  35.599  1.00  0.00     0.057 A 
ATOM     62  C   UNL A   1      38.256  31.578  36.524  1.00  0.00     0.134 A 
ATOM     63  C   UNL A   1      39.588  33.445  35.829  1.00  0.00     0.134 A 
ATOM     64  F   UNL A   1      37.784  30.335  36.346  1.00  0.00    -0.206 F 
ATOM     65  C   UNL A   1      37.806  32.300  37.629  1.00  0.00     0.040 A 
ATOM     66  C   UNL A   1      39.160  34.171  36.942  1.00  0.00     0.040 A 
ATOM     67  F   UNL A   1      40.440  34.037  34.978  1.00  0.00    -0.206 F 
ATOM     68  C   UNL A   1      38.263  33.599  37.844  1.00  0.00     0.006 A 
ENDBRANCH  47  61
BRANCH  48  69
ATOM     69  C   UNL A   1      41.922  27.126  27.449  1.00  0.00     0.057 A 
ATOM     70  C   UNL A   1      41.556  25.793  27.234  1.00  0.00     0.134 A 
ATOM     71  C   UNL A   1      42.761  27.727  26.503  1.00  0.00     0.134 A 
ATOM     72  F   UNL A   1      40.776  25.157  28.121  1.00  0.00    -0.206 F 
ATOM     73  C   UNL A   1      42.028  25.075  26.135  1.00  0.00     0.040 A 
ATOM     74  C   UNL A   1      43.223  27.027  25.388  1.00  0.00     0.040 A 
ATOM     75  F   UNL A   1      43.148  29.003  26.654  1.00  0.00    -0.206 F 
ATOM     76  C   UNL A   1      42.864  25.693  25.207  1.00  0.00     0.006 A 
ENDBRANCH  48  69
BRANCH  60  77
ATOM     77  C   UNL A   1      44.314  27.371  33.970  1.00  0.00     0.057 A 
ATOM     78  C   UNL A   1      45.598  27.926  34.036  1.00  0.00     0.134 A 
ATOM     79  C   UNL A   1      44.110  26.134  34.594  1.00  0.00     0.134 A 
ATOM     80  F   UNL A   1      45.860  29.104  33.448  1.00  0.00    -0.206 F 
ATOM     81  C   UNL A   1      46.646  27.265  34.676  1.00  0.00     0.040 A 
ATOM     82  C   UNL A   1      45.145  25.473  35.257  1.00  0.00     0.040 A 
ATOM     83  F   UNL A   1      42.902  25.552  34.575  1.00  0.00    -0.206 F 
ATOM     84  C   UNL A   1      46.420  26.035  35.293  1.00  0.00     0.006 A 
ENDBRANCH  60  77
ENDBRANCH  34  35
ENDBRANCH  27  29
ENDBRANCH  26  27
ENDBRANCH  25  26
ENDBRANCH   1  25
TORSDOF 14
ENDMDL
MODEL 3
REMARK VINA RESULT:     -10.2      6.600     12.311
REMARK SMILES O=C(COc1ccccc1/C=C1\C(=O)Nc2ccccc21)OCCOC(=O)c1ccc(-c2c3nc(c(-c4c(F)cccc4F)c4ccc([nH]4)c(-c4c(F)cccc4F)c4nc(c(-c5c(F)cccc5F)c5ccc2[nH]5)C=C4)C=C3)cc1
REMARK SMILES IDX 23 1 22 2 2 3 1 4 3 5 4 6 5 7 6 8 10 9 7 10 9 11 8 12 11 13
REMARK SMILES IDX 12 14 13 15 21 16 14 17 15 18 16 19 20 20 17 22 19 23 18 24
REMARK SMILES IDX 24 25 25 26 26 27 27 28 28 29 29 30 81 31 30 32 80 33 31 34
REMARK SMILES IDX 32 35 33 36 74 37 34 38 79 39 73 40 75 41 35 42 78 43 72 44
REMARK SMILES IDX 71 45 36 47 62 48 45 49 61 50 46 51 49 52 60 53 76 54 47 55
REMARK SMILES IDX 48 56 59 58 77 59 50 60 37 61 38 62 43 63 39 64 40 65 42 66
REMARK SMILES IDX 44 67 41 68 63 69 64 70 69 71 65 72 66 73 68 74 70 75 67 76
REMARK SMILES IDX 51 77 52 78 57 79 53 80 54 81 56 82 58 83 55 84
REMARK H PARENT 15 21 75 46 49 57
REMARK Flexibility Score: inf
ROOT
ATOM      1  C   UNL A   1      36.256  20.380  25.001  1.00  0.00     0.274 C 
ENDROOT
BRANCH   1   2
ATOM      2  O   UNL A   1      36.172  21.644  24.302  1.00  0.00    -0.460 OA
BRANCH   2   3
ATOM      3  C   UNL A   1      35.688  22.786  24.852  1.00  0.00     0.344 C 
ATOM      4  O   UNL A   1      35.601  22.894  26.074  1.00  0.00    -0.248 OA
BRANCH   3   5
ATOM      5  C   UNL A   1      35.311  23.933  23.934  1.00  0.00     0.352 C 
BRANCH   5   6
ATOM      6  O   UNL A   1      34.634  23.406  22.800  1.00  0.00    -0.481 OA
BRANCH   6   7
ATOM      7  C   UNL A   1      33.306  23.744  22.754  1.00  0.00     0.127 A 
ATOM      8  C   UNL A   1      33.018  25.097  22.546  1.00  0.00     0.047 A 
ATOM      9  C   UNL A   1      32.302  22.810  23.087  1.00  0.00     0.017 A 
ATOM     10  C   UNL A   1      31.715  25.557  22.703  1.00  0.00     0.004 A 
ATOM     11  C   UNL A   1      31.029  23.325  23.344  1.00  0.00     0.012 A 
ATOM     12  C   UNL A   1      30.729  24.676  23.134  1.00  0.00     0.001 A 
BRANCH   9  13
ATOM     13  C   UNL A   1      32.623  21.365  23.177  1.00  0.00     0.026 C 
ATOM     14  C   UNL A   1      32.710  20.547  24.244  1.00  0.00     0.050 C 
ATOM     15  C   UNL A   1      32.660  20.852  25.728  1.00  0.00     0.256 C 
ATOM     16  C   UNL A   1      32.867  19.080  24.140  1.00  0.00     0.011 A 
ATOM     17  O   UNL A   1      32.458  21.903  26.300  1.00  0.00    -0.269 OA
ATOM     18  N   UNL A   1      32.903  19.643  26.358  1.00  0.00    -0.321 N 
ATOM     19  C   UNL A   1      32.996  18.601  25.446  1.00  0.00     0.049 A 
ATOM     20  C   UNL A   1      32.806  18.183  23.087  1.00  0.00     0.011 A 
ATOM     21  H   UNL A   1      32.997  19.535  27.332  1.00  0.00     0.170 HD
ATOM     22  C   UNL A   1      33.123  17.260  25.751  1.00  0.00     0.027 A 
ATOM     23  C   UNL A   1      32.904  16.813  23.370  1.00  0.00     0.001 A 
ATOM     24  C   UNL A   1      33.071  16.356  24.689  1.00  0.00     0.002 A 
ENDBRANCH   9  13
ENDBRANCH   6   7
ENDBRANCH   5   6
ENDBRANCH   3   5
ENDBRANCH   2   3
ENDBRANCH   1   2
BRANCH   1  25
ATOM     25  C   UNL A   1      37.699  19.880  25.002  1.00  0.00     0.275 C 
BRANCH  25  26
ATOM     26  O   UNL A   1      38.575  20.998  25.238  1.00  0.00    -0.458 OA
BRANCH  26  27
ATOM     27  C   UNL A   1      39.579  20.777  26.124  1.00  0.00     0.338 C 
ATOM     28  O   UNL A   1      40.152  19.730  26.343  1.00  0.00    -0.246 OA
BRANCH  27  29
ATOM     29  C   UNL A   1      40.007  22.083  26.666  1.00  0.00     0.060 A 
ATOM     30  C   UNL A   1      39.371  23.236  26.191  1.00  0.00     0.016 A 
ATOM     31  C   UNL A   1      41.019  22.175  27.628  1.00  0.00     0.016 A 
ATOM     32  C   UNL A   1      39.766  24.489  26.658  1.00  0.00     0.010 A 
ATOM     33  C   UNL A   1      41.423  23.432  28.084  1.00  0.00     0.010 A 
ATOM     34  C   UNL A   1      40.817  24.594  27.580  1.00  0.00    -0.014 A 
BRANCH  34  35
ATOM     35  C   UNL A   1      41.386  25.925  27.883  1.00  0.00     0.031 A 
ATOM     36  C   UNL A   1      42.788  26.229  27.433  1.00  0.00     0.074 A 
ATOM     37  C   UNL A   1      40.664  26.860  28.524  1.00  0.00     0.049 A 
ATOM     38  N   UNL A   1      43.474  27.337  27.545  1.00  0.00    -0.248 NA
ATOM     39  C   UNL A   1      43.511  25.134  26.766  1.00  0.00     0.031 C 
ATOM     40  C   UNL A   1      39.294  26.692  29.006  1.00  0.00     0.029 A 
ATOM     41  N   UNL A   1      40.993  28.143  28.881  1.00  0.00    -0.354 N 
ATOM     42  C   UNL A   1      44.695  27.083  26.939  1.00  0.00     0.074 A 
ATOM     43  C   UNL A   1      44.679  25.703  26.503  1.00  0.00     0.031 C 
ATOM     44  C   UNL A   1      38.903  27.830  29.608  1.00  0.00     0.029 A 
ATOM     45  C   UNL A   1      39.996  28.800  29.557  1.00  0.00     0.049 A 
ATOM     46  H   UNL A   1      41.863  28.554  28.671  1.00  0.00     0.167 HD
ATOM     47  C   UNL A   1      45.734  27.929  26.740  1.00  0.00     0.037 A 
ATOM     48  C   UNL A   1      39.974  30.042  30.076  1.00  0.00     0.037 A 
ATOM     49  C   UNL A   1      45.771  29.292  27.195  1.00  0.00     0.049 A 
ATOM     50  C   UNL A   1      41.166  30.945  29.898  1.00  0.00     0.074 A 
ATOM     51  C   UNL A   1      46.784  30.223  27.053  1.00  0.00     0.029 A 
ATOM     52  N   UNL A   1      44.748  29.916  27.892  1.00  0.00    -0.354 N 
ATOM     53  N   UNL A   1      42.299  30.708  29.284  1.00  0.00    -0.248 NA
ATOM     54  C   UNL A   1      41.067  32.293  30.476  1.00  0.00     0.031 C 
ATOM     55  C   UNL A   1      46.386  31.403  27.693  1.00  0.00     0.029 A 
ATOM     56  C   UNL A   1      45.111  31.215  28.200  1.00  0.00     0.049 A 
ATOM     57  H   UNL A   1      43.890  29.497  28.132  1.00  0.00     0.167 HD
ATOM     58  C   UNL A   1      43.036  31.883  29.380  1.00  0.00     0.074 A 
ATOM     59  C   UNL A   1      42.216  32.835  30.097  1.00  0.00     0.031 C 
ATOM     60  C   UNL A   1      44.282  32.151  28.916  1.00  0.00     0.037 A 
BRANCH  47  61
ATOM     61  C   UNL A   1      46.918  27.390  25.997  1.00  0.00     0.057 A 
ATOM     62  C   UNL A   1      47.969  26.751  26.668  1.00  0.00     0.134 A 
ATOM     63  C   UNL A   1      47.002  27.492  24.604  1.00  0.00     0.134 A 
ATOM     64  F   UNL A   1      47.954  26.640  28.006  1.00  0.00    -0.206 F 
ATOM     65  C   UNL A   1      49.072  26.247  25.980  1.00  0.00     0.040 A 
ATOM     66  C   UNL A   1      48.091  26.974  23.903  1.00  0.00     0.040 A 
ATOM     67  F   UNL A   1      46.028  28.095  23.905  1.00  0.00    -0.206 F 
ATOM     68  C   UNL A   1      49.132  26.352  24.592  1.00  0.00     0.006 A 
ENDBRANCH  47  61
BRANCH  48  69
ATOM     69  C   UNL A   1      38.781  30.518  30.818  1.00  0.00     0.057 A 
ATOM     70  C   UNL A   1      38.617  30.248  32.182  1.00  0.00     0.134 A 
ATOM     71  C   UNL A   1      37.754  31.212  30.168  1.00  0.00     0.134 A 
ATOM     72  F   UNL A   1      39.555  29.562  32.850  1.00  0.00    -0.206 F 
ATOM     73  C   UNL A   1      37.464  30.632  32.868  1.00  0.00     0.040 A 
ATOM     74  C   UNL A   1      36.605  31.621  30.847  1.00  0.00     0.040 A 
ATOM     75  F   UNL A   1      37.852  31.500  28.861  1.00  0.00    -0.206 F 
ATOM     76  C   UNL A   1      36.454  31.322  32.199  1.00  0.00     0.006 A 
ENDBRANCH  48  69
BRANCH  60  77
ATOM     77  C   UNL A   1      44.820  33.530  29.154  1.00  0.00     0.057 A 
ATOM     78  C   UNL A   1      45.587  33.836  30.285  1.00  0.00     0.134 A 
ATOM     79  C   UNL A   1      44.588  34.556  28.230  1.00  0.00     0.134 A 
ATOM     80  F   UNL A   1      45.834  32.899  31.213  1.00  0.00    -0.206 F 
ATOM     81  C   UNL A   1      46.085  35.122  30.500  1.00  0.00     0.040 A 
ATOM     82  C   UNL A   1      45.101  35.840  28.424  1.00  0.00     0.040 A 
ATOM     83  F   UNL A   1      43.869  34.326  27.121  1.00  0.00    -0.206 F 
ATOM     84  C   UNL A   1      45.846  36.127  29.565  1.00  0.00     0.006 A 
ENDBRANCH  60  77
ENDBRANCH  34  35
ENDBRANCH  27  29
ENDBRANCH  26  27
ENDBRANCH  25  26
ENDBRANCH   1  25
TORSDOF 14
ENDMDL
