MODEL 1
REMARK VINA RESULT:     -11.9      0.000      0.000
REMARK SMILES NC(=O)CC[C@H](C(=O)OCCOC(=O)c1ccc(-c2c3nc(c(-c4c(F)cccc4F)c4ccc([nH]4)c(-c4c(F)cccc4F)c4nc(c(-c5c(F)cccc5F)c5ccc2[nH]5)C=C4)C=C3)cc1)N1C(=O)/C(=C/c2ccc(O)c(O)c2)SC1=S
REMARK SMILES IDX 10 1 9 2 7 3 8 4 6 5 5 6 4 7 2 8 1 9 3 12 69 13 70 14 83 15
REMARK SMILES IDX 71 16 72 17 82 18 84 19 73 20 74 21 75 22 81 23 76 24 79 25
REMARK SMILES IDX 77 26 80 27 78 29 11 31 12 32 13 33 14 34 15 35 16 36 68 37
REMARK SMILES IDX 17 38 67 39 18 40 19 41 20 42 61 43 21 44 66 45 60 46 62 47
REMARK SMILES IDX 22 48 65 49 59 50 58 51 23 53 49 54 32 55 48 56 33 57 36 58
REMARK SMILES IDX 47 59 63 60 34 61 35 62 46 64 64 65 37 66 24 67 25 68 30 69
REMARK SMILES IDX 26 70 27 71 29 72 31 73 28 74 50 75 51 76 56 77 52 78 53 79
REMARK SMILES IDX 55 80 57 81 54 82 38 83 39 84 44 85 40 86 41 87 43 88 45 89
REMARK SMILES IDX 42 90
REMARK H PARENT 1 10 1 11 80 28 78 30 62 52 36 63
REMARK Flexibility Score: inf
ROOT
ATOM      1  C   UNL A   1      36.036  20.268  25.042  1.00  0.00     0.274 C 
ENDROOT
BRANCH   1   2
ATOM      2  O   UNL A   1      35.684  21.282  26.002  1.00  0.00    -0.461 OA
BRANCH   2   3
ATOM      3  C   UNL A   1      34.368  21.391  26.313  1.00  0.00     0.329 C 
ATOM      4  O   UNL A   1      33.919  21.399  27.457  1.00  0.00    -0.250 OA
BRANCH   3   5
ATOM      5  C   UNL A   1      33.458  21.450  25.074  1.00  0.00     0.202 C 
BRANCH   5   6
ATOM      6  C   UNL A   1      32.326  20.415  24.912  1.00  0.00     0.047 C 
BRANCH   6   7
ATOM      7  C   UNL A   1      32.575  19.120  24.156  1.00  0.00     0.102 C 
BRANCH   7   8
ATOM      8  C   UNL A   1      33.258  18.072  24.992  1.00  0.00     0.217 C 
ATOM      9  N   UNL A   1      32.906  18.070  26.303  1.00  0.00    -0.370 N 
ATOM     10  H   UNL A   1      33.307  17.414  26.920  1.00  0.00     0.159 HD
ATOM     11  H   UNL A   1      32.251  18.723  26.638  1.00  0.00     0.159 HD
ATOM     12  O   UNL A   1      34.048  17.252  24.541  1.00  0.00    -0.275 OA
ENDBRANCH   7   8
ENDBRANCH   6   7
ENDBRANCH   5   6
BRANCH   5  13
ATOM     13  N   UNL A   1      33.143  22.845  24.712  1.00  0.00    -0.278 N 
ATOM     14  C   UNL A   1      32.025  23.450  25.255  1.00  0.00     0.266 C 
ATOM     15  C   UNL A   1      33.895  23.621  23.849  1.00  0.00     0.149 C 
ATOM     16  O   UNL A   1      31.217  22.935  26.019  1.00  0.00    -0.268 OA
ATOM     17  C   UNL A   1      31.904  24.848  24.777  1.00  0.00     0.081 C 
ATOM     18  S   UNL A   1      33.133  25.195  23.638  1.00  0.00    -0.054 SA
ATOM     19  S   UNL A   1      35.326  23.234  23.079  1.00  0.00    -0.052 S 
ATOM     20  C   UNL A   1      30.922  25.641  25.222  1.00  0.00     0.029 C 
BRANCH  20  21
ATOM     21  C   UNL A   1      30.576  26.963  24.698  1.00  0.00    -0.020 A 
ATOM     22  C   UNL A   1      29.654  27.099  23.650  1.00  0.00     0.012 A 
ATOM     23  C   UNL A   1      31.263  28.089  25.178  1.00  0.00     0.058 A 
ATOM     24  C   UNL A   1      29.423  28.353  23.079  1.00  0.00     0.051 A 
ATOM     25  C   UNL A   1      31.028  29.328  24.600  1.00  0.00     0.157 A 
ATOM     26  C   UNL A   1      30.119  29.455  23.555  1.00  0.00     0.157 A 
BRANCH  25  27
ATOM     27  O   UNL A   1      31.688  30.451  25.016  1.00  0.00    -0.504 OA
ATOM     28  H   UNL A   1      31.858  31.146  24.413  1.00  0.00     0.293 HD
ENDBRANCH  25  27
BRANCH  26  29
ATOM     29  O   UNL A   1      29.920  30.675  22.976  1.00  0.00    -0.504 OA
ATOM     30  H   UNL A   1      30.555  31.021  22.381  1.00  0.00     0.293 HD
ENDBRANCH  26  29
ENDBRANCH  20  21
ENDBRANCH   5  13
ENDBRANCH   3   5
ENDBRANCH   2   3
ENDBRANCH   1   2
BRANCH   1  31
ATOM     31  C   UNL A   1      37.550  20.039  24.996  1.00  0.00     0.275 C 
BRANCH  31  32
ATOM     32  O   UNL A   1      38.282  21.217  25.382  1.00  0.00    -0.458 OA
BRANCH  32  33
ATOM     33  C   UNL A   1      39.389  20.981  26.125  1.00  0.00     0.338 C 
ATOM     34  O   UNL A   1      40.031  19.945  26.175  1.00  0.00    -0.246 OA
BRANCH  33  35
ATOM     35  C   UNL A   1      39.863  22.229  26.743  1.00  0.00     0.060 A 
ATOM     36  C   UNL A   1      39.247  23.415  26.332  1.00  0.00     0.016 A 
ATOM     37  C   UNL A   1      40.927  22.263  27.645  1.00  0.00     0.016 A 
ATOM     38  C   UNL A   1      39.693  24.642  26.796  1.00  0.00     0.010 A 
ATOM     39  C   UNL A   1      41.395  23.502  28.098  1.00  0.00     0.010 A 
ATOM     40  C   UNL A   1      40.792  24.692  27.655  1.00  0.00    -0.014 A 
BRANCH  40  41
ATOM     41  C   UNL A   1      41.393  26.014  27.932  1.00  0.00     0.031 A 
ATOM     42  C   UNL A   1      42.772  26.298  27.410  1.00  0.00     0.074 A 
ATOM     43  C   UNL A   1      40.672  26.976  28.533  1.00  0.00     0.049 A 
ATOM     44  N   UNL A   1      43.517  27.359  27.571  1.00  0.00    -0.248 NA
ATOM     45  C   UNL A   1      43.390  25.246  26.586  1.00  0.00     0.031 C 
ATOM     46  C   UNL A   1      39.287  26.838  28.984  1.00  0.00     0.029 A 
ATOM     47  N   UNL A   1      41.003  28.267  28.850  1.00  0.00    -0.354 N 
ATOM     48  C   UNL A   1      44.694  27.098  26.881  1.00  0.00     0.074 A 
ATOM     49  C   UNL A   1      44.574  25.773  26.315  1.00  0.00     0.031 C 
ATOM     50  C   UNL A   1      38.887  28.002  29.523  1.00  0.00     0.029 A 
ATOM     51  C   UNL A   1      39.998  28.949  29.491  1.00  0.00     0.049 A 
ATOM     52  H   UNL A   1      41.877  28.667  28.639  1.00  0.00     0.167 HD
ATOM     53  C   UNL A   1      45.774  27.899  26.732  1.00  0.00     0.037 A 
ATOM     54  C   UNL A   1      39.994  30.189  30.014  1.00  0.00     0.037 A 
ATOM     55  C   UNL A   1      45.879  29.218  27.294  1.00  0.00     0.049 A 
ATOM     56  C   UNL A   1      41.236  31.031  29.894  1.00  0.00     0.074 A 
ATOM     57  C   UNL A   1      46.956  30.085  27.277  1.00  0.00     0.029 A 
ATOM     58  N   UNL A   1      44.852  29.866  27.964  1.00  0.00    -0.354 N 
ATOM     59  N   UNL A   1      42.376  30.747  29.310  1.00  0.00    -0.248 NA
ATOM     60  C   UNL A   1      41.191  32.367  30.505  1.00  0.00     0.031 C 
ATOM     61  C   UNL A   1      46.586  31.254  27.951  1.00  0.00     0.029 A 
ATOM     62  C   UNL A   1      45.266  31.127  28.355  1.00  0.00     0.049 A 
ATOM     63  H   UNL A   1      43.960  29.486  28.135  1.00  0.00     0.167 HD
ATOM     64  C   UNL A   1      43.170  31.876  29.456  1.00  0.00     0.074 A 
ATOM     65  C   UNL A   1      42.376  32.855  30.172  1.00  0.00     0.031 C 
ATOM     66  C   UNL A   1      44.443  32.088  29.041  1.00  0.00     0.037 A 
BRANCH  53  67
ATOM     67  C   UNL A   1      46.932  27.351  25.954  1.00  0.00     0.057 A 
ATOM     68  C   UNL A   1      47.046  27.539  24.571  1.00  0.00     0.134 A 
ATOM     69  C   UNL A   1      47.950  26.636  26.597  1.00  0.00     0.134 A 
ATOM     70  F   UNL A   1      46.092  28.194  23.893  1.00  0.00    -0.206 F 
ATOM     71  C   UNL A   1      48.127  27.023  23.853  1.00  0.00     0.040 A 
ATOM     72  C   UNL A   1      49.045  26.133  25.893  1.00  0.00     0.040 A 
ATOM     73  F   UNL A   1      47.897  26.417  27.920  1.00  0.00    -0.206 F 
ATOM     74  C   UNL A   1      49.134  26.323  24.515  1.00  0.00     0.006 A 
ENDBRANCH  53  67
BRANCH  54  75
ATOM     75  C   UNL A   1      38.796  30.702  30.726  1.00  0.00     0.057 A 
ATOM     76  C   UNL A   1      37.836  31.481  30.072  1.00  0.00     0.134 A 
ATOM     77  C   UNL A   1      38.608  30.461  32.093  1.00  0.00     0.134 A 
ATOM     78  F   UNL A   1      37.972  31.767  28.769  1.00  0.00    -0.206 F 
ATOM     79  C   UNL A   1      36.747  32.027  30.756  1.00  0.00     0.040 A 
ATOM     80  C   UNL A   1      37.512  30.977  32.783  1.00  0.00     0.040 A 
ATOM     81  F   UNL A   1      39.492  29.722  32.779  1.00  0.00    -0.206 F 
ATOM     82  C   UNL A   1      36.582  31.772  32.116  1.00  0.00     0.006 A 
ENDBRANCH  54  75
BRANCH  66  83
ATOM     83  C   UNL A   1      45.022  33.447  29.295  1.00  0.00     0.057 A 
ATOM     84  C   UNL A   1      45.740  33.740  30.460  1.00  0.00     0.134 A 
ATOM     85  C   UNL A   1      44.875  34.467  28.347  1.00  0.00     0.134 A 
ATOM     86  F   UNL A   1      45.903  32.807  31.411  1.00  0.00    -0.206 F 
ATOM     87  C   UNL A   1      46.268  35.011  30.687  1.00  0.00     0.040 A 
ATOM     88  C   UNL A   1      45.419  35.734  28.552  1.00  0.00     0.040 A 
ATOM     89  F   UNL A   1      44.206  34.245  27.205  1.00  0.00    -0.206 F 
ATOM     90  C   UNL A   1      46.111  36.012  29.729  1.00  0.00     0.006 A 
ENDBRANCH  66  83
ENDBRANCH  40  41
ENDBRANCH  33  35
ENDBRANCH  32  33
ENDBRANCH  31  32
ENDBRANCH   1  31
TORSDOF 18
ENDMDL
MODEL 2
REMARK VINA RESULT:     -11.8      3.927      9.798
REMARK SMILES NC(=O)CC[C@H](C(=O)OCCOC(=O)c1ccc(-c2c3nc(c(-c4c(F)cccc4F)c4ccc([nH]4)c(-c4c(F)cccc4F)c4nc(c(-c5c(F)cccc5F)c5ccc2[nH]5)C=C4)C=C3)cc1)N1C(=O)/C(=C/c2ccc(O)c(O)c2)SC1=S
REMARK SMILES IDX 10 1 9 2 7 3 8 4 6 5 5 6 4 7 2 8 1 9 3 12 69 13 70 14 83 15
REMARK SMILES IDX 71 16 72 17 82 18 84 19 73 20 74 21 75 22 81 23 76 24 79 25
REMARK SMILES IDX 77 26 80 27 78 29 11 31 12 32 13 33 14 34 15 35 16 36 68 37
REMARK SMILES IDX 17 38 67 39 18 40 19 41 20 42 61 43 21 44 66 45 60 46 62 47
REMARK SMILES IDX 22 48 65 49 59 50 58 51 23 53 49 54 32 55 48 56 33 57 36 58
REMARK SMILES IDX 47 59 63 60 34 61 35 62 46 64 64 65 37 66 24 67 25 68 30 69
REMARK SMILES IDX 26 70 27 71 29 72 31 73 28 74 50 75 51 76 56 77 52 78 53 79
REMARK SMILES IDX 55 80 57 81 54 82 38 83 39 84 44 85 40 86 41 87 43 88 45 89
REMARK SMILES IDX 42 90
REMARK H PARENT 1 10 1 11 80 28 78 30 62 52 36 63
REMARK Flexibility Score: inf
ROOT
ATOM      1  C   UNL A   1      31.398  31.754  26.844  1.00  0.00     0.274 C 
ENDROOT
BRANCH   1   2
ATOM      2  O   UNL A   1      31.794  30.914  25.744  1.00  0.00    -0.461 OA
BRANCH   2   3
ATOM      3  C   UNL A   1      31.769  29.575  25.963  1.00  0.00     0.329 C 
ATOM      4  O   UNL A   1      32.236  29.021  26.955  1.00  0.00    -0.250 OA
BRANCH   3   5
ATOM      5  C   UNL A   1      31.138  28.786  24.803  1.00  0.00     0.202 C 
BRANCH   5   6
ATOM      6  C   UNL A   1      30.651  29.538  23.548  1.00  0.00     0.047 C 
BRANCH   6   7
ATOM      7  C   UNL A   1      29.185  29.489  23.146  1.00  0.00     0.102 C 
BRANCH   7   8
ATOM      8  C   UNL A   1      28.867  30.370  21.970  1.00  0.00     0.217 C 
ATOM      9  N   UNL A   1      29.471  31.586  21.988  1.00  0.00    -0.370 N 
ATOM     10  H   UNL A   1      29.316  32.224  21.253  1.00  0.00     0.159 HD
ATOM     11  H   UNL A   1      30.063  31.831  22.734  1.00  0.00     0.159 HD
ATOM     12  O   UNL A   1      28.148  30.028  21.039  1.00  0.00    -0.275 OA
ENDBRANCH   7   8
ENDBRANCH   6   7
ENDBRANCH   5   6
BRANCH   5  13
ATOM     13  N   UNL A   1      31.845  27.510  24.582  1.00  0.00    -0.278 N 
ATOM     14  C   UNL A   1      31.306  26.340  25.085  1.00  0.00     0.266 C 
ATOM     15  C   UNL A   1      33.038  27.382  23.894  1.00  0.00     0.149 C 
ATOM     16  O   UNL A   1      30.276  26.236  25.740  1.00  0.00    -0.268 OA
ATOM     17  C   UNL A   1      32.161  25.181  24.737  1.00  0.00     0.081 C 
ATOM     18  S   UNL A   1      33.571  25.704  23.923  1.00  0.00    -0.054 SA
ATOM     19  S   UNL A   1      33.918  28.564  23.107  1.00  0.00    -0.052 S 
ATOM     20  C   UNL A   1      31.799  23.937  25.077  1.00  0.00     0.029 C 
BRANCH  20  21
ATOM     21  C   UNL A   1      32.627  22.736  24.966  1.00  0.00    -0.020 A 
ATOM     22  C   UNL A   1      32.222  21.659  24.165  1.00  0.00     0.012 A 
ATOM     23  C   UNL A   1      33.777  22.623  25.762  1.00  0.00     0.058 A 
ATOM     24  C   UNL A   1      32.959  20.471  24.163  1.00  0.00     0.051 A 
ATOM     25  C   UNL A   1      34.498  21.438  25.755  1.00  0.00     0.157 A 
ATOM     26  C   UNL A   1      34.087  20.371  24.965  1.00  0.00     0.157 A 
BRANCH  25  27
ATOM     27  O   UNL A   1      35.613  21.272  26.530  1.00  0.00    -0.504 OA
ATOM     28  H   UNL A   1      35.841  21.918  27.167  1.00  0.00     0.293 HD
ENDBRANCH  25  27
BRANCH  26  29
ATOM     29  O   UNL A   1      34.789  19.200  24.989  1.00  0.00    -0.504 OA
ATOM     30  H   UNL A   1      35.386  19.027  25.690  1.00  0.00     0.293 HD
ENDBRANCH  26  29
ENDBRANCH  20  21
ENDBRANCH   5  13
ENDBRANCH   3   5
ENDBRANCH   2   3
ENDBRANCH   1   2
BRANCH   1  31
ATOM     31  C   UNL A   1      32.182  33.070  26.858  1.00  0.00     0.275 C 
BRANCH  31  32
ATOM     32  O   UNL A   1      32.222  33.656  28.173  1.00  0.00    -0.458 OA
BRANCH  32  33
ATOM     33  C   UNL A   1      33.283  34.465  28.402  1.00  0.00     0.338 C 
ATOM     34  O   UNL A   1      33.266  35.679  28.522  1.00  0.00    -0.246 OA
BRANCH  33  35
ATOM     35  C   UNL A   1      34.481  33.663  28.696  1.00  0.00     0.060 A 
ATOM     36  C   UNL A   1      34.292  32.479  29.414  1.00  0.00     0.016 A 
ATOM     37  C   UNL A   1      35.767  34.082  28.350  1.00  0.00     0.016 A 
ATOM     38  C   UNL A   1      35.374  31.711  29.811  1.00  0.00     0.010 A 
ATOM     39  C   UNL A   1      36.864  33.320  28.769  1.00  0.00     0.010 A 
ATOM     40  C   UNL A   1      36.668  32.147  29.519  1.00  0.00    -0.014 A 
BRANCH  40  41
ATOM     41  C   UNL A   1      37.797  31.444  30.164  1.00  0.00     0.031 A 
ATOM     42  C   UNL A   1      38.050  31.684  31.624  1.00  0.00     0.074 A 
ATOM     43  C   UNL A   1      38.500  30.522  29.484  1.00  0.00     0.049 A 
ATOM     44  N   UNL A   1      39.006  31.221  32.387  1.00  0.00    -0.248 NA
ATOM     45  C   UNL A   1      37.091  32.556  32.321  1.00  0.00     0.031 C 
ATOM     46  C   UNL A   1      38.267  30.136  28.093  1.00  0.00     0.029 A 
ATOM     47  N   UNL A   1      39.545  29.730  29.883  1.00  0.00    -0.354 N 
ATOM     48  C   UNL A   1      38.771  31.755  33.647  1.00  0.00     0.074 A 
ATOM     49  C   UNL A   1      37.594  32.591  33.546  1.00  0.00     0.031 C 
ATOM     50  C   UNL A   1      39.147  29.179  27.753  1.00  0.00     0.029 A 
ATOM     51  C   UNL A   1      40.028  28.917  28.888  1.00  0.00     0.049 A 
ATOM     52  H   UNL A   1      39.914  29.743  30.796  1.00  0.00     0.167 HD
ATOM     53  C   UNL A   1      39.473  31.559  34.786  1.00  0.00     0.037 A 
ATOM     54  C   UNL A   1      41.081  28.079  28.893  1.00  0.00     0.037 A 
ATOM     55  C   UNL A   1      40.637  30.720  34.877  1.00  0.00     0.049 A 
ATOM     56  C   UNL A   1      41.886  27.934  30.156  1.00  0.00     0.074 A 
ATOM     57  C   UNL A   1      41.475  30.512  35.957  1.00  0.00     0.029 A 
ATOM     58  N   UNL A   1      41.116  29.934  33.839  1.00  0.00    -0.354 N 
ATOM     59  N   UNL A   1      41.706  28.505  31.323  1.00  0.00    -0.248 NA
ATOM     60  C   UNL A   1      43.042  27.027  30.103  1.00  0.00     0.031 C 
ATOM     61  C   UNL A   1      42.472  29.611  35.569  1.00  0.00     0.029 A 
ATOM     62  C   UNL A   1      42.232  29.230  34.257  1.00  0.00     0.049 A 
ATOM     63  H   UNL A   1      40.721  29.883  32.939  1.00  0.00     0.167 HD
ATOM     64  C   UNL A   1      42.704  28.005  32.150  1.00  0.00     0.074 A 
ATOM     65  C   UNL A   1      43.478  27.074  31.353  1.00  0.00     0.031 C 
ATOM     66  C   UNL A   1      42.963  28.289  33.449  1.00  0.00     0.037 A 
BRANCH  53  67
ATOM     67  C   UNL A   1      39.012  32.289  36.011  1.00  0.00     0.057 A 
ATOM     68  C   UNL A   1      39.410  33.605  36.278  1.00  0.00     0.134 A 
ATOM     69  C   UNL A   1      38.151  31.674  36.928  1.00  0.00     0.134 A 
ATOM     70  F   UNL A   1      40.253  34.241  35.452  1.00  0.00    -0.206 F 
ATOM     71  C   UNL A   1      38.978  34.278  37.423  1.00  0.00     0.040 A 
ATOM     72  C   UNL A   1      37.696  32.344  38.065  1.00  0.00     0.040 A 
ATOM     73  F   UNL A   1      37.737  30.412  36.732  1.00  0.00    -0.206 F 
ATOM     74  C   UNL A   1      38.113  33.649  38.317  1.00  0.00     0.006 A 
ENDBRANCH  53  67
BRANCH  54  75
ATOM     75  C   UNL A   1      41.458  27.337  27.663  1.00  0.00     0.057 A 
ATOM     76  C   UNL A   1      42.165  27.954  26.626  1.00  0.00     0.134 A 
ATOM     77  C   UNL A   1      41.079  26.001  27.479  1.00  0.00     0.134 A 
ATOM     78  F   UNL A   1      42.536  29.238  26.732  1.00  0.00    -0.206 F 
ATOM     79  C   UNL A   1      42.458  27.281  25.438  1.00  0.00     0.040 A 
ATOM     80  C   UNL A   1      41.387  25.307  26.309  1.00  0.00     0.040 A 
ATOM     81  F   UNL A   1      40.399  25.351  28.435  1.00  0.00    -0.206 F 
ATOM     82  C   UNL A   1      42.070  25.951  25.279  1.00  0.00     0.006 A 
ENDBRANCH  54  75
BRANCH  66  83
ATOM     83  C   UNL A   1      44.085  27.538  34.098  1.00  0.00     0.057 A 
ATOM     84  C   UNL A   1      43.888  26.293  34.708  1.00  0.00     0.134 A 
ATOM     85  C   UNL A   1      45.384  28.061  34.091  1.00  0.00     0.134 A 
ATOM     86  F   UNL A   1      42.664  25.746  34.757  1.00  0.00    -0.206 F 
ATOM     87  C   UNL A   1      44.941  25.608  35.315  1.00  0.00     0.040 A 
ATOM     88  C   UNL A   1      46.448  27.374  34.673  1.00  0.00     0.040 A 
ATOM     89  F   UNL A   1      45.638  29.245  33.514  1.00  0.00    -0.206 F 
ATOM     90  C   UNL A   1      46.227  26.146  35.295  1.00  0.00     0.006 A 
ENDBRANCH  66  83
ENDBRANCH  40  41
ENDBRANCH  33  35
ENDBRANCH  32  33
ENDBRANCH  31  32
ENDBRANCH   1  31
TORSDOF 18
ENDMDL
MODEL 3
REMARK VINA RESULT:     -11.7      3.572      7.469
REMARK SMILES NC(=O)CC[C@H](C(=O)OCCOC(=O)c1ccc(-c2c3nc(c(-c4c(F)cccc4F)c4ccc([nH]4)c(-c4c(F)cccc4F)c4nc(c(-c5c(F)cccc5F)c5ccc2[nH]5)C=C4)C=C3)cc1)N1C(=O)/C(=C/c2ccc(O)c(O)c2)SC1=S
REMARK SMILES IDX 10 1 9 2 7 3 8 4 6 5 5 6 4 7 2 8 1 9 3 12 69 13 70 14 83 15
REMARK SMILES IDX 71 16 72 17 82 18 84 19 73 20 74 21 75 22 81 23 76 24 79 25
REMARK SMILES IDX 77 26 80 27 78 29 11 31 12 32 13 33 14 34 15 35 16 36 68 37
REMARK SMILES IDX 17 38 67 39 18 40 19 41 20 42 61 43 21 44 66 45 60 46 62 47
REMARK SMILES IDX 22 48 65 49 59 50 58 51 23 53 49 54 32 55 48 56 33 57 36 58
REMARK SMILES IDX 47 59 63 60 34 61 35 62 46 64 64 65 37 66 24 67 25 68 30 69
REMARK SMILES IDX 26 70 27 71 29 72 31 73 28 74 50 75 51 76 56 77 52 78 53 79
REMARK SMILES IDX 55 80 57 81 54 82 38 83 39 84 44 85 40 86 41 87 43 88 45 89
REMARK SMILES IDX 42 90
REMARK H PARENT 1 10 1 11 80 28 78 30 62 52 36 63
REMARK Flexibility Score: inf
ROOT
ATOM      1  C   UNL A   1      33.373  29.085  24.737  1.00  0.00     0.274 C 
ENDROOT
BRANCH   1   2
ATOM      2  O   UNL A   1      32.829  27.978  23.993  1.00  0.00    -0.461 OA
BRANCH   2   3
ATOM      3  C   UNL A   1      32.524  26.862  24.702  1.00  0.00     0.329 C 
ATOM      4  O   UNL A   1      33.117  26.493  25.712  1.00  0.00    -0.250 OA
BRANCH   3   5
ATOM      5  C   UNL A   1      31.375  26.048  24.082  1.00  0.00     0.202 C 
BRANCH   5   6
ATOM      6  C   UNL A   1      30.340  26.757  23.184  1.00  0.00     0.047 C 
BRANCH   6   7
ATOM      7  C   UNL A   1      29.839  28.147  23.544  1.00  0.00     0.102 C 
BRANCH   7   8
ATOM      8  C   UNL A   1      29.803  29.083  22.367  1.00  0.00     0.217 C 
ATOM      9  N   UNL A   1      31.002  29.621  22.028  1.00  0.00    -0.370 N 
ATOM     10  H   UNL A   1      31.066  30.244  21.268  1.00  0.00     0.159 HD
ATOM     11  H   UNL A   1      31.809  29.390  22.542  1.00  0.00     0.159 HD
ATOM     12  O   UNL A   1      28.789  29.330  21.727  1.00  0.00    -0.275 OA
ENDBRANCH   7   8
ENDBRANCH   6   7
ENDBRANCH   5   6
BRANCH   5  13
ATOM     13  N   UNL A   1      31.843  24.722  23.639  1.00  0.00    -0.278 N 
ATOM     14  C   UNL A   1      31.622  23.620  24.446  1.00  0.00     0.266 C 
ATOM     15  C   UNL A   1      32.503  24.479  22.448  1.00  0.00     0.149 C 
ATOM     16  O   UNL A   1      31.079  23.621  25.544  1.00  0.00    -0.268 OA
ATOM     17  C   UNL A   1      32.152  22.392  23.809  1.00  0.00     0.081 C 
ATOM     18  S   UNL A   1      32.945  22.777  22.343  1.00  0.00    -0.054 SA
ATOM     19  S   UNL A   1      32.868  25.553  21.223  1.00  0.00    -0.052 S 
ATOM     20  C   UNL A   1      31.997  21.197  24.392  1.00  0.00     0.029 C 
BRANCH  20  21
ATOM     21  C   UNL A   1      32.627  19.944  23.974  1.00  0.00    -0.020 A 
ATOM     22  C   UNL A   1      32.038  19.141  22.987  1.00  0.00     0.012 A 
ATOM     23  C   UNL A   1      33.768  19.493  24.654  1.00  0.00     0.058 A 
ATOM     24  C   UNL A   1      32.583  17.891  22.683  1.00  0.00     0.051 A 
ATOM     25  C   UNL A   1      34.298  18.248  24.347  1.00  0.00     0.157 A 
ATOM     26  C   UNL A   1      33.705  17.453  23.373  1.00  0.00     0.157 A 
BRANCH  25  27
ATOM     27  O   UNL A   1      35.395  17.755  24.998  1.00  0.00    -0.504 OA
ATOM     28  H   UNL A   1      35.927  18.324  25.517  1.00  0.00     0.293 HD
ENDBRANCH  25  27
BRANCH  26  29
ATOM     29  O   UNL A   1      34.219  16.218  23.102  1.00  0.00    -0.504 OA
ATOM     30  H   UNL A   1      35.141  16.068  23.174  1.00  0.00     0.293 HD
ENDBRANCH  26  29
ENDBRANCH  20  21
ENDBRANCH   5  13
ENDBRANCH   3   5
ENDBRANCH   2   3
ENDBRANCH   1   2
BRANCH   1  31
ATOM     31  C   UNL A   1      32.271  29.896  25.424  1.00  0.00     0.275 C 
BRANCH  31  32
ATOM     32  O   UNL A   1      32.540  30.086  26.826  1.00  0.00    -0.458 OA
BRANCH  32  33
ATOM     33  C   UNL A   1      33.100  31.277  27.141  1.00  0.00     0.338 C 
ATOM     34  O   UNL A   1      32.549  32.366  27.155  1.00  0.00    -0.246 OA
BRANCH  33  35
ATOM     35  C   UNL A   1      34.456  31.077  27.678  1.00  0.00     0.060 A 
ATOM     36  C   UNL A   1      34.817  29.770  28.018  1.00  0.00     0.016 A 
ATOM     37  C   UNL A   1      35.331  32.137  27.917  1.00  0.00     0.016 A 
ATOM     38  C   UNL A   1      36.040  29.506  28.612  1.00  0.00     0.010 A 
ATOM     39  C   UNL A   1      36.558  31.877  28.539  1.00  0.00     0.010 A 
ATOM     40  C   UNL A   1      36.902  30.564  28.907  1.00  0.00    -0.014 A 
BRANCH  40  41
ATOM     41  C   UNL A   1      38.077  30.281  29.757  1.00  0.00     0.031 A 
ATOM     42  C   UNL A   1      39.216  29.500  29.169  1.00  0.00     0.074 A 
ATOM     43  C   UNL A   1      38.171  30.816  30.987  1.00  0.00     0.049 A 
ATOM     44  N   UNL A   1      40.321  29.090  29.735  1.00  0.00    -0.248 NA
ATOM     45  C   UNL A   1      39.098  29.139  27.746  1.00  0.00     0.031 C 
ATOM     46  C   UNL A   1      37.168  31.678  31.614  1.00  0.00     0.029 A 
ATOM     47  N   UNL A   1      39.168  30.726  31.922  1.00  0.00    -0.354 N 
ATOM     48  C   UNL A   1      41.021  28.415  28.745  1.00  0.00     0.074 A 
ATOM     49  C   UNL A   1      40.212  28.452  27.546  1.00  0.00     0.031 C 
ATOM     50  C   UNL A   1      37.603  32.037  32.833  1.00  0.00     0.029 A 
ATOM     51  C   UNL A   1      38.891  31.397  33.087  1.00  0.00     0.049 A 
ATOM     52  H   UNL A   1      40.004  30.227  31.772  1.00  0.00     0.167 HD
ATOM     53  C   UNL A   1      42.235  27.823  28.830  1.00  0.00     0.037 A 
ATOM     54  C   UNL A   1      39.591  31.461  34.234  1.00  0.00     0.037 A 
ATOM     55  C   UNL A   1      43.033  27.798  30.025  1.00  0.00     0.049 A 
ATOM     56  C   UNL A   1      40.906  30.733  34.323  1.00  0.00     0.074 A 
ATOM     57  C   UNL A   1      44.239  27.158  30.250  1.00  0.00     0.029 A 
ATOM     58  N   UNL A   1      42.706  28.464  31.197  1.00  0.00    -0.354 N 
ATOM     59  N   UNL A   1      41.525  30.027  33.406  1.00  0.00    -0.248 NA
ATOM     60  C   UNL A   1      41.620  30.810  35.605  1.00  0.00     0.031 C 
ATOM     61  C   UNL A   1      44.635  27.424  31.565  1.00  0.00     0.029 A 
ATOM     62  C   UNL A   1      43.693  28.261  32.146  1.00  0.00     0.049 A 
ATOM     63  H   UNL A   1      41.895  29.003  31.334  1.00  0.00     0.167 HD
ATOM     64  C   UNL A   1      42.712  29.603  33.989  1.00  0.00     0.074 A 
ATOM     65  C   UNL A   1      42.732  30.143  35.334  1.00  0.00     0.031 C 
ATOM     66  C   UNL A   1      43.698  28.835  33.465  1.00  0.00     0.037 A 
BRANCH  53  67
ATOM     67  C   UNL A   1      42.748  27.132  27.603  1.00  0.00     0.057 A 
ATOM     68  C   UNL A   1      42.462  25.785  27.342  1.00  0.00     0.134 A 
ATOM     69  C   UNL A   1      43.527  27.822  26.667  1.00  0.00     0.134 A 
ATOM     70  F   UNL A   1      41.742  25.062  28.211  1.00  0.00    -0.206 F 
ATOM     71  C   UNL A   1      42.946  25.147  26.198  1.00  0.00     0.040 A 
ATOM     72  C   UNL A   1      43.999  27.201  25.510  1.00  0.00     0.040 A 
ATOM     73  F   UNL A   1      43.840  29.113  26.862  1.00  0.00    -0.206 F 
ATOM     74  C   UNL A   1      43.712  25.858  25.274  1.00  0.00     0.006 A 
ENDBRANCH  53  67
BRANCH  54  75
ATOM     75  C   UNL A   1      39.059  32.209  35.401  1.00  0.00     0.057 A 
ATOM     76  C   UNL A   1      39.327  33.570  35.580  1.00  0.00     0.134 A 
ATOM     77  C   UNL A   1      38.306  31.565  36.391  1.00  0.00     0.134 A 
ATOM     78  F   UNL A   1      40.062  34.238  34.679  1.00  0.00    -0.206 F 
ATOM     79  C   UNL A   1      38.890  34.259  36.714  1.00  0.00     0.040 A 
ATOM     80  C   UNL A   1      37.841  32.246  37.516  1.00  0.00     0.040 A 
ATOM     81  F   UNL A   1      38.015  30.260  36.280  1.00  0.00    -0.206 F 
ATOM     82  C   UNL A   1      38.142  33.596  37.685  1.00  0.00     0.006 A 
ENDBRANCH  54  75
BRANCH  66  83
ATOM     83  C   UNL A   1      44.899  28.592  34.327  1.00  0.00     0.057 A 
ATOM     84  C   UNL A   1      46.005  29.451  34.316  1.00  0.00     0.134 A 
ATOM     85  C   UNL A   1      44.938  27.494  35.195  1.00  0.00     0.134 A 
ATOM     86  F   UNL A   1      46.032  30.513  33.496  1.00  0.00    -0.206 F 
ATOM     87  C   UNL A   1      47.121  29.209  35.117  1.00  0.00     0.040 A 
ATOM     88  C   UNL A   1      46.037  27.255  36.018  1.00  0.00     0.040 A 
ATOM     89  F   UNL A   1      43.904  26.640  35.258  1.00  0.00    -0.206 F 
ATOM     90  C   UNL A   1      47.137  28.110  35.975  1.00  0.00     0.006 A 
ENDBRANCH  66  83
ENDBRANCH  40  41
ENDBRANCH  33  35
ENDBRANCH  32  33
ENDBRANCH  31  32
ENDBRANCH   1  31
TORSDOF 18
ENDMDL
