MODEL 1
REMARK VINA RESULT:      -9.9      0.000      0.000
REMARK SMILES CCN1CC(=O)N(C[C@@H]([NH3+])C(=O)OCCOC(=O)c2ccc(-c3c4nc(c(-c5c(F)cccc5F)c5ccc([nH]5)c(-c5c(F)cccc5F)c5nc(c(-c6c(F)cccc6F)c6ccc3[nH]6)C=C5)C=C4)cc2)CC1=O
REMARK SMILES IDX 14 1 13 2 11 3 12 4 9 5 8 6 7 7 3 8 4 9 74 10 5 11 73 12
REMARK SMILES IDX 75 13 6 14 2 15 1 16 10 17 15 21 16 22 17 23 18 24 19 25
REMARK SMILES IDX 20 26 72 27 21 28 71 29 22 30 23 31 24 32 65 33 25 34 70 35
REMARK SMILES IDX 64 36 66 37 26 38 69 39 63 40 62 41 27 43 53 44 36 45 52 46
REMARK SMILES IDX 37 47 40 48 51 49 67 50 38 51 39 52 50 54 68 55 41 56 28 57
REMARK SMILES IDX 29 58 34 59 30 60 31 61 33 62 35 63 32 64 54 65 55 66 60 67
REMARK SMILES IDX 56 68 57 69 59 70 61 71 58 72 42 73 43 74 48 75 44 76 45 77
REMARK SMILES IDX 47 78 49 79 46 80
REMARK H PARENT 10 18 10 19 10 20 66 42 40 53
REMARK Flexibility Score: inf
ROOT
ATOM      1  C   UNL A   1      34.207  35.224  32.259  1.00  0.00     0.274 C 
ENDROOT
BRANCH   1   2
ATOM      2  O   UNL A   1      33.201  34.767  31.334  1.00  0.00    -0.458 OA
BRANCH   2   3
ATOM      3  C   UNL A   1      33.314  35.215  30.057  1.00  0.00     0.366 C 
ATOM      4  O   UNL A   1      32.780  36.235  29.624  1.00  0.00    -0.245 OA
BRANCH   3   5
ATOM      5  C   UNL A   1      34.135  34.290  29.142  1.00  0.00     0.311 C 
BRANCH   5   6
ATOM      6  C   UNL A   1      33.392  33.887  27.853  1.00  0.00     0.197 C 
BRANCH   6   7
ATOM      7  N   UNL A   1      33.275  32.438  27.647  1.00  0.00    -0.325 N 
ATOM      8  N   UNL A   1      33.655  29.935  26.551  1.00  0.00    -0.332 N 
ATOM      9  C   UNL A   1      32.269  30.368  26.769  1.00  0.00     0.219 C 
ATOM     10  C   UNL A   1      34.669  30.427  27.370  1.00  0.00     0.242 C 
ATOM     11  C   UNL A   1      32.163  31.884  27.023  1.00  0.00     0.242 C 
ATOM     12  C   UNL A   1      34.224  31.547  28.304  1.00  0.00     0.220 C 
ATOM     13  O   UNL A   1      35.784  29.919  27.454  1.00  0.00    -0.273 OA
ATOM     14  O   UNL A   1      31.132  32.518  26.808  1.00  0.00    -0.273 OA
BRANCH   8  15
ATOM     15  C   UNL A   1      33.925  28.785  25.696  1.00  0.00     0.116 C 
ATOM     16  C   UNL A   1      33.555  27.460  26.348  1.00  0.00     0.027 C 
ENDBRANCH   8  15
ENDBRANCH   6   7
ENDBRANCH   5   6
BRANCH   5  17
ATOM     17  N   UNL A   1      35.460  34.924  28.897  1.00  0.00    -0.344 N 
ATOM     18  H   UNL A   1      35.457  35.874  29.270  1.00  0.00     0.345 HD
ATOM     19  H   UNL A   1      35.643  34.954  27.894  1.00  0.00     0.345 HD
ATOM     20  H   UNL A   1      36.187  34.380  29.361  1.00  0.00     0.345 HD
ENDBRANCH   5  17
ENDBRANCH   3   5
ENDBRANCH   2   3
ENDBRANCH   1   2
BRANCH   1  21
ATOM     21  C   UNL A   1      34.687  34.097  33.179  1.00  0.00     0.275 C 
BRANCH  21  22
ATOM     22  O   UNL A   1      35.930  33.525  32.728  1.00  0.00    -0.458 OA
BRANCH  22  23
ATOM     23  C   UNL A   1      35.799  32.371  32.031  1.00  0.00     0.338 C 
ATOM     24  O   UNL A   1      34.763  31.800  31.742  1.00  0.00    -0.246 OA
BRANCH  23  25
ATOM     25  C   UNL A   1      37.111  31.951  31.515  1.00  0.00     0.060 A 
ATOM     26  C   UNL A   1      37.311  31.997  30.135  1.00  0.00     0.016 A 
ATOM     27  C   UNL A   1      38.100  31.440  32.358  1.00  0.00     0.016 A 
ATOM     28  C   UNL A   1      38.505  31.546  29.582  1.00  0.00     0.010 A 
ATOM     29  C   UNL A   1      39.296  30.972  31.801  1.00  0.00     0.010 A 
ATOM     30  C   UNL A   1      39.501  31.018  30.410  1.00  0.00    -0.014 A 
BRANCH  30  31
ATOM     31  C   UNL A   1      40.731  30.457  29.803  1.00  0.00     0.031 A 
ATOM     32  C   UNL A   1      41.937  31.330  29.620  1.00  0.00     0.074 A 
ATOM     33  C   UNL A   1      40.772  29.160  29.449  1.00  0.00     0.049 A 
ATOM     34  N   UNL A   1      43.073  31.058  29.030  1.00  0.00    -0.248 NA
ATOM     35  C   UNL A   1      41.856  32.691  30.174  1.00  0.00     0.031 C 
ATOM     36  C   UNL A   1      39.683  28.200  29.628  1.00  0.00     0.029 A 
ATOM     37  N   UNL A   1      41.772  28.428  28.859  1.00  0.00    -0.354 N 
ATOM     38  C   UNL A   1      43.831  32.219  29.119  1.00  0.00     0.074 A 
ATOM     39  C   UNL A   1      43.025  33.200  29.814  1.00  0.00     0.031 C 
ATOM     40  C   UNL A   1      40.071  27.006  29.150  1.00  0.00     0.029 A 
ATOM     41  C   UNL A   1      41.416  27.129  28.593  1.00  0.00     0.049 A 
ATOM     42  H   UNL A   1      42.659  28.799  28.647  1.00  0.00     0.167 HD
ATOM     43  C   UNL A   1      45.085  32.441  28.661  1.00  0.00     0.037 A 
ATOM     44  C   UNL A   1      42.086  26.158  27.944  1.00  0.00     0.037 A 
ATOM     45  C   UNL A   1      45.893  31.454  27.992  1.00  0.00     0.049 A 
ATOM     46  C   UNL A   1      43.458  26.449  27.401  1.00  0.00     0.074 A 
ATOM     47  C   UNL A   1      47.183  31.581  27.506  1.00  0.00     0.029 A 
ATOM     48  N   UNL A   1      45.489  30.157  27.721  1.00  0.00    -0.354 N 
ATOM     49  N   UNL A   1      44.162  27.552  27.481  1.00  0.00    -0.248 NA
ATOM     50  C   UNL A   1      44.126  25.361  26.672  1.00  0.00     0.031 C 
ATOM     51  C   UNL A   1      47.548  30.369  26.910  1.00  0.00     0.029 A 
ATOM     52  C   UNL A   1      46.498  29.477  27.059  1.00  0.00     0.049 A 
ATOM     53  H   UNL A   1      44.614  29.775  27.963  1.00  0.00     0.167 HD
ATOM     54  C   UNL A   1      45.359  27.286  26.829  1.00  0.00     0.074 A 
ATOM     55  C   UNL A   1      45.294  25.914  26.374  1.00  0.00     0.031 C 
ATOM     56  C   UNL A   1      46.418  28.107  26.623  1.00  0.00     0.037 A 
BRANCH  43  57
ATOM     57  C   UNL A   1      45.656  33.815  28.838  1.00  0.00     0.057 A 
ATOM     58  C   UNL A   1      46.431  34.156  29.953  1.00  0.00     0.134 A 
ATOM     59  C   UNL A   1      45.472  34.792  27.853  1.00  0.00     0.134 A 
ATOM     60  F   UNL A   1      46.634  33.267  30.938  1.00  0.00    -0.206 F 
ATOM     61  C   UNL A   1      46.994  35.427  30.087  1.00  0.00     0.040 A 
ATOM     62  C   UNL A   1      46.046  36.060  27.966  1.00  0.00     0.040 A 
ATOM     63  F   UNL A   1      44.744  34.526  26.757  1.00  0.00    -0.206 F 
ATOM     64  C   UNL A   1      46.808  36.380  29.087  1.00  0.00     0.006 A 
ENDBRANCH  43  57
BRANCH  44  65
ATOM     65  C   UNL A   1      41.456  24.832  27.733  1.00  0.00     0.057 A 
ATOM     66  C   UNL A   1      40.445  24.651  26.783  1.00  0.00     0.134 A 
ATOM     67  C   UNL A   1      41.832  23.720  28.497  1.00  0.00     0.134 A 
ATOM     68  F   UNL A   1      40.025  25.684  26.039  1.00  0.00    -0.206 F 
ATOM     69  C   UNL A   1      39.819  23.415  26.610  1.00  0.00     0.040 A 
ATOM     70  C   UNL A   1      41.232  22.474  28.319  1.00  0.00     0.040 A 
ATOM     71  F   UNL A   1      42.794  23.831  29.426  1.00  0.00    -0.206 F 
ATOM     72  C   UNL A   1      40.216  22.321  27.377  1.00  0.00     0.006 A 
ENDBRANCH  44  65
BRANCH  56  73
ATOM     73  C   UNL A   1      47.598  27.532  25.901  1.00  0.00     0.057 A 
ATOM     74  C   UNL A   1      48.661  26.936  26.590  1.00  0.00     0.134 A 
ATOM     75  C   UNL A   1      47.655  27.545  24.502  1.00  0.00     0.134 A 
ATOM     76  F   UNL A   1      48.672  26.905  27.931  1.00  0.00    -0.206 F 
ATOM     77  C   UNL A   1      49.751  26.387  25.911  1.00  0.00     0.040 A 
ATOM     78  C   UNL A   1      48.728  26.981  23.812  1.00  0.00     0.040 A 
ATOM     79  F   UNL A   1      46.664  28.096  23.785  1.00  0.00    -0.206 F 
ATOM     80  C   UNL A   1      49.783  26.405  24.518  1.00  0.00     0.006 A 
ENDBRANCH  56  73
ENDBRANCH  30  31
ENDBRANCH  23  25
ENDBRANCH  22  23
ENDBRANCH  21  22
ENDBRANCH   1  21
TORSDOF 15
ENDMDL
MODEL 2
REMARK VINA RESULT:      -9.8      4.391      8.451
REMARK SMILES CCN1CC(=O)N(C[C@@H]([NH3+])C(=O)OCCOC(=O)c2ccc(-c3c4nc(c(-c5c(F)cccc5F)c5ccc([nH]5)c(-c5c(F)cccc5F)c5nc(c(-c6c(F)cccc6F)c6ccc3[nH]6)C=C5)C=C4)cc2)CC1=O
REMARK SMILES IDX 14 1 13 2 11 3 12 4 9 5 8 6 7 7 3 8 4 9 74 10 5 11 73 12
REMARK SMILES IDX 75 13 6 14 2 15 1 16 10 17 15 21 16 22 17 23 18 24 19 25
REMARK SMILES IDX 20 26 72 27 21 28 71 29 22 30 23 31 24 32 65 33 25 34 70 35
REMARK SMILES IDX 64 36 66 37 26 38 69 39 63 40 62 41 27 43 53 44 36 45 52 46
REMARK SMILES IDX 37 47 40 48 51 49 67 50 38 51 39 52 50 54 68 55 41 56 28 57
REMARK SMILES IDX 29 58 34 59 30 60 31 61 33 62 35 63 32 64 54 65 55 66 60 67
REMARK SMILES IDX 56 68 57 69 59 70 61 71 58 72 42 73 43 74 48 75 44 76 45 77
REMARK SMILES IDX 47 78 49 79 46 80
REMARK H PARENT 10 18 10 19 10 20 66 42 40 53
REMARK Flexibility Score: inf
ROOT
ATOM      1  C   UNL A   1      30.705  30.949  25.034  1.00  0.00     0.274 C 
ENDROOT
BRANCH   1   2
ATOM      2  O   UNL A   1      29.515  31.324  24.312  1.00  0.00    -0.458 OA
BRANCH   2   3
ATOM      3  C   UNL A   1      29.210  30.568  23.226  1.00  0.00     0.366 C 
ATOM      4  O   UNL A   1      28.203  30.710  22.535  1.00  0.00    -0.245 OA
BRANCH   3   5
ATOM      5  C   UNL A   1      30.219  29.440  22.948  1.00  0.00     0.311 C 
BRANCH   5   6
ATOM      6  C   UNL A   1      29.581  28.037  22.937  1.00  0.00     0.197 C 
BRANCH   6   7
ATOM      7  N   UNL A   1      30.430  26.979  23.499  1.00  0.00    -0.325 N 
ATOM      8  N   UNL A   1      32.422  25.757  24.966  1.00  0.00    -0.332 N 
ATOM      9  C   UNL A   1      32.322  25.403  23.544  1.00  0.00     0.219 C 
ATOM     10  C   UNL A   1      31.280  26.156  25.659  1.00  0.00     0.242 C 
ATOM     11  C   UNL A   1      31.448  26.396  22.754  1.00  0.00     0.242 C 
ATOM     12  C   UNL A   1      30.059  26.371  24.772  1.00  0.00     0.220 C 
ATOM     13  O   UNL A   1      31.206  26.191  26.884  1.00  0.00    -0.273 OA
ATOM     14  O   UNL A   1      31.564  26.556  21.541  1.00  0.00    -0.273 OA
BRANCH   8  15
ATOM     15  C   UNL A   1      33.623  25.407  25.714  1.00  0.00     0.116 C 
ATOM     16  C   UNL A   1      34.705  24.783  24.844  1.00  0.00     0.027 C 
ENDBRANCH   8  15
ENDBRANCH   6   7
ENDBRANCH   5   6
BRANCH   5  17
ATOM     17  N   UNL A   1      30.964  29.770  21.702  1.00  0.00    -0.344 N 
ATOM     18  H   UNL A   1      31.368  28.918  21.312  1.00  0.00     0.345 HD
ATOM     19  H   UNL A   1      31.709  30.432  21.916  1.00  0.00     0.345 HD
ATOM     20  H   UNL A   1      30.324  30.184  21.024  1.00  0.00     0.345 HD
ENDBRANCH   5  17
ENDBRANCH   3   5
ENDBRANCH   2   3
ENDBRANCH   1   2
BRANCH   1  21
ATOM     21  C   UNL A   1      31.036  31.951  26.144  1.00  0.00     0.275 C 
BRANCH  21  22
ATOM     22  O   UNL A   1      32.280  31.638  26.800  1.00  0.00    -0.458 OA
BRANCH  22  23
ATOM     23  C   UNL A   1      32.883  32.693  27.398  1.00  0.00     0.338 C 
ATOM     24  O   UNL A   1      32.419  33.806  27.568  1.00  0.00    -0.246 OA
BRANCH  23  25
ATOM     25  C   UNL A   1      34.167  32.267  27.977  1.00  0.00     0.060 A 
ATOM     26  C   UNL A   1      34.297  30.930  28.356  1.00  0.00     0.016 A 
ATOM     27  C   UNL A   1      35.195  33.178  28.225  1.00  0.00     0.016 A 
ATOM     28  C   UNL A   1      35.460  30.485  28.974  1.00  0.00     0.010 A 
ATOM     29  C   UNL A   1      36.361  32.734  28.861  1.00  0.00     0.010 A 
ATOM     30  C   UNL A   1      36.496  31.387  29.243  1.00  0.00    -0.014 A 
BRANCH  30  31
ATOM     31  C   UNL A   1      37.692  30.921  29.983  1.00  0.00     0.031 A 
ATOM     32  C   UNL A   1      38.670  30.000  29.315  1.00  0.00     0.074 A 
ATOM     33  C   UNL A   1      37.914  31.352  31.238  1.00  0.00     0.049 A 
ATOM     34  N   UNL A   1      39.725  29.409  29.816  1.00  0.00    -0.248 NA
ATOM     35  C   UNL A   1      38.430  29.702  27.893  1.00  0.00     0.031 C 
ATOM     36  C   UNL A   1      37.066  32.290  31.971  1.00  0.00     0.029 A 
ATOM     37  N   UNL A   1      38.922  31.051  32.119  1.00  0.00    -0.354 N 
ATOM     38  C   UNL A   1      40.260  28.652  28.781  1.00  0.00     0.074 A 
ATOM     39  C   UNL A   1      39.411  28.852  27.626  1.00  0.00     0.031 C 
ATOM     40  C   UNL A   1      37.584  32.482  33.196  1.00  0.00     0.029 A 
ATOM     41  C   UNL A   1      38.774  31.647  33.346  1.00  0.00     0.049 A 
ATOM     42  H   UNL A   1      39.679  30.462  31.892  1.00  0.00     0.167 HD
ATOM     43  C   UNL A   1      41.360  27.863  28.799  1.00  0.00     0.037 A 
ATOM     44  C   UNL A   1      39.497  31.511  34.474  1.00  0.00     0.037 A 
ATOM     45  C   UNL A   1      42.216  27.687  29.943  1.00  0.00     0.049 A 
ATOM     46  C   UNL A   1      40.684  30.588  34.478  1.00  0.00     0.074 A 
ATOM     47  C   UNL A   1      43.363  26.920  30.052  1.00  0.00     0.029 A 
ATOM     48  N   UNL A   1      42.020  28.291  31.175  1.00  0.00    -0.354 N 
ATOM     49  N   UNL A   1      41.176  29.869  33.499  1.00  0.00    -0.248 NA
ATOM     50  C   UNL A   1      41.414  30.454  35.748  1.00  0.00     0.031 C 
ATOM     51  C   UNL A   1      43.843  27.034  31.361  1.00  0.00     0.029 A 
ATOM     52  C   UNL A   1      43.015  27.901  32.056  1.00  0.00     0.049 A 
ATOM     53  H   UNL A   1      41.282  28.906  31.392  1.00  0.00     0.167 HD
ATOM     54  C   UNL A   1      42.279  29.211  34.028  1.00  0.00     0.074 A 
ATOM     55  C   UNL A   1      42.395  29.630  35.408  1.00  0.00     0.031 C 
ATOM     56  C   UNL A   1      43.119  28.336  33.424  1.00  0.00     0.037 A 
BRANCH  43  57
ATOM     57  C   UNL A   1      41.688  27.102  27.550  1.00  0.00     0.057 A 
ATOM     58  C   UNL A   1      42.461  27.660  26.525  1.00  0.00     0.134 A 
ATOM     59  C   UNL A   1      41.270  25.775  27.398  1.00  0.00     0.134 A 
ATOM     60  F   UNL A   1      42.882  28.932  26.606  1.00  0.00    -0.206 F 
ATOM     61  C   UNL A   1      42.797  26.927  25.386  1.00  0.00     0.040 A 
ATOM     62  C   UNL A   1      41.616  25.025  26.273  1.00  0.00     0.040 A 
ATOM     63  F   UNL A   1      40.530  25.180  28.347  1.00  0.00    -0.206 F 
ATOM     64  C   UNL A   1      42.380  25.603  25.261  1.00  0.00     0.006 A 
ENDBRANCH  43  57
BRANCH  44  65
ATOM     65  C   UNL A   1      39.097  32.233  35.706  1.00  0.00     0.057 A 
ATOM     66  C   UNL A   1      38.254  31.642  36.653  1.00  0.00     0.134 A 
ATOM     67  C   UNL A   1      39.527  33.543  35.952  1.00  0.00     0.134 A 
ATOM     68  F   UNL A   1      37.789  30.399  36.461  1.00  0.00    -0.206 F 
ATOM     69  C   UNL A   1      37.840  32.333  37.794  1.00  0.00     0.040 A 
ATOM     70  C   UNL A   1      39.141  34.236  37.099  1.00  0.00     0.040 A 
ATOM     71  F   UNL A   1      40.335  34.165  35.080  1.00  0.00    -0.206 F 
ATOM     72  C   UNL A   1      38.288  33.632  38.021  1.00  0.00     0.006 A 
ENDBRANCH  44  65
BRANCH  56  73
ATOM     73  C   UNL A   1      44.252  27.799  34.245  1.00  0.00     0.057 A 
ATOM     74  C   UNL A   1      45.476  28.472  34.337  1.00  0.00     0.134 A 
ATOM     75  C   UNL A   1      44.104  26.614  34.977  1.00  0.00     0.134 A 
ATOM     76  F   UNL A   1      45.684  29.605  33.648  1.00  0.00    -0.206 F 
ATOM     77  C   UNL A   1      46.522  27.975  35.116  1.00  0.00     0.040 A 
ATOM     78  C   UNL A   1      45.135  26.119  35.776  1.00  0.00     0.040 A 
ATOM     79  F   UNL A   1      42.953  25.927  34.935  1.00  0.00    -0.206 F 
ATOM     80  C   UNL A   1      46.351  26.798  35.843  1.00  0.00     0.006 A 
ENDBRANCH  56  73
ENDBRANCH  30  31
ENDBRANCH  23  25
ENDBRANCH  22  23
ENDBRANCH  21  22
ENDBRANCH   1  21
TORSDOF 15
ENDMDL
MODEL 3
REMARK VINA RESULT:      -9.8      4.068      5.927
REMARK SMILES CCN1CC(=O)N(C[C@@H]([NH3+])C(=O)OCCOC(=O)c2ccc(-c3c4nc(c(-c5c(F)cccc5F)c5ccc([nH]5)c(-c5c(F)cccc5F)c5nc(c(-c6c(F)cccc6F)c6ccc3[nH]6)C=C5)C=C4)cc2)CC1=O
REMARK SMILES IDX 14 1 13 2 11 3 12 4 9 5 8 6 7 7 3 8 4 9 74 10 5 11 73 12
REMARK SMILES IDX 75 13 6 14 2 15 1 16 10 17 15 21 16 22 17 23 18 24 19 25
REMARK SMILES IDX 20 26 72 27 21 28 71 29 22 30 23 31 24 32 65 33 25 34 70 35
REMARK SMILES IDX 64 36 66 37 26 38 69 39 63 40 62 41 27 43 53 44 36 45 52 46
REMARK SMILES IDX 37 47 40 48 51 49 67 50 38 51 39 52 50 54 68 55 41 56 28 57
REMARK SMILES IDX 29 58 34 59 30 60 31 61 33 62 35 63 32 64 54 65 55 66 60 67
REMARK SMILES IDX 56 68 57 69 59 70 61 71 58 72 42 73 43 74 48 75 44 76 45 77
REMARK SMILES IDX 47 78 49 79 46 80
REMARK H PARENT 10 18 10 19 10 20 66 42 40 53
REMARK Flexibility Score: inf
ROOT
ATOM      1  C   UNL A   1      33.642  34.930  28.848  1.00  0.00     0.274 C 
ENDROOT
BRANCH   1   2
ATOM      2  O   UNL A   1      33.156  34.677  30.181  1.00  0.00    -0.458 OA
BRANCH   2   3
ATOM      3  C   UNL A   1      32.926  35.770  30.953  1.00  0.00     0.366 C 
ATOM      4  O   UNL A   1      32.528  36.854  30.529  1.00  0.00    -0.245 OA
BRANCH   3   5
ATOM      5  C   UNL A   1      33.272  35.568  32.438  1.00  0.00     0.311 C 
BRANCH   5   6
ATOM      6  C   UNL A   1      34.774  35.728  32.745  1.00  0.00     0.197 C 
BRANCH   6   7
ATOM      7  N   UNL A   1      35.413  34.525  33.294  1.00  0.00    -0.325 N 
ATOM      8  N   UNL A   1      37.230  32.931  34.625  1.00  0.00    -0.332 N 
ATOM      9  C   UNL A   1      36.869  32.539  33.257  1.00  0.00     0.219 C 
ATOM     10  C   UNL A   1      36.313  33.633  35.406  1.00  0.00     0.242 C 
ATOM     11  C   UNL A   1      36.161  33.672  32.491  1.00  0.00     0.242 C 
ATOM     12  C   UNL A   1      35.074  34.094  34.646  1.00  0.00     0.220 C 
ATOM     13  O   UNL A   1      36.406  33.750  36.625  1.00  0.00    -0.273 OA
ATOM     14  O   UNL A   1      36.155  33.735  31.264  1.00  0.00    -0.273 OA
BRANCH   8  15
ATOM     15  C   UNL A   1      38.399  32.338  35.261  1.00  0.00     0.116 C 
ATOM     16  C   UNL A   1      38.156  30.915  35.744  1.00  0.00     0.027 C 
ENDBRANCH   8  15
ENDBRANCH   6   7
ENDBRANCH   5   6
BRANCH   5  17
ATOM     17  N   UNL A   1      32.396  36.458  33.251  1.00  0.00    -0.344 N 
ATOM     18  H   UNL A   1      31.432  36.129  33.194  1.00  0.00     0.345 HD
ATOM     19  H   UNL A   1      32.452  37.411  32.892  1.00  0.00     0.345 HD
ATOM     20  H   UNL A   1      32.704  36.440  34.223  1.00  0.00     0.345 HD
ENDBRANCH   5  17
ENDBRANCH   3   5
ENDBRANCH   2   3
ENDBRANCH   1   2
BRANCH   1  21
ATOM     21  C   UNL A   1      33.558  33.681  27.965  1.00  0.00     0.275 C 
BRANCH  21  22
ATOM     22  O   UNL A   1      34.800  32.953  27.941  1.00  0.00    -0.458 OA
BRANCH  22  23
ATOM     23  C   UNL A   1      34.666  31.606  27.985  1.00  0.00     0.338 C 
ATOM     24  O   UNL A   1      33.691  30.953  27.657  1.00  0.00    -0.246 OA
BRANCH  23  25
ATOM     25  C   UNL A   1      35.950  30.990  28.352  1.00  0.00     0.060 A 
ATOM     26  C   UNL A   1      35.935  29.661  28.779  1.00  0.00     0.016 A 
ATOM     27  C   UNL A   1      37.138  31.724  28.362  1.00  0.00     0.016 A 
ATOM     28  C   UNL A   1      37.107  29.048  29.207  1.00  0.00     0.010 A 
ATOM     29  C   UNL A   1      38.315  31.112  28.807  1.00  0.00     0.010 A 
ATOM     30  C   UNL A   1      38.304  29.773  29.237  1.00  0.00    -0.014 A 
BRANCH  30  31
ATOM     31  C   UNL A   1      39.527  29.137  29.781  1.00  0.00     0.031 A 
ATOM     32  C   UNL A   1      40.164  29.688  31.023  1.00  0.00     0.074 A 
ATOM     33  C   UNL A   1      40.041  28.049  29.180  1.00  0.00     0.049 A 
ATOM     34  N   UNL A   1      41.281  29.336  31.604  1.00  0.00    -0.248 NA
ATOM     35  C   UNL A   1      39.450  30.782  31.700  1.00  0.00     0.031 C 
ATOM     36  C   UNL A   1      39.479  27.390  28.001  1.00  0.00     0.029 A 
ATOM     37  N   UNL A   1      41.158  27.310  29.478  1.00  0.00    -0.354 N 
ATOM     38  C   UNL A   1      41.418  30.179  32.700  1.00  0.00     0.074 A 
ATOM     39  C   UNL A   1      40.273  31.064  32.700  1.00  0.00     0.031 C 
ATOM     40  C   UNL A   1      40.260  26.348  27.670  1.00  0.00     0.029 A 
ATOM     41  C   UNL A   1      41.397  26.294  28.586  1.00  0.00     0.049 A 
ATOM     42  H   UNL A   1      41.733  27.491  30.257  1.00  0.00     0.167 HD
ATOM     43  C   UNL A   1      42.410  30.208  33.621  1.00  0.00     0.037 A 
ATOM     44  C   UNL A   1      42.432  25.438  28.499  1.00  0.00     0.037 A 
ATOM     45  C   UNL A   1      43.535  29.308  33.632  1.00  0.00     0.049 A 
ATOM     46  C   UNL A   1      43.546  25.526  29.506  1.00  0.00     0.074 A 
ATOM     47  C   UNL A   1      44.583  29.249  34.534  1.00  0.00     0.029 A 
ATOM     48  N   UNL A   1      43.752  28.307  32.699  1.00  0.00    -0.354 N 
ATOM     49  N   UNL A   1      43.671  26.332  30.531  1.00  0.00    -0.248 NA
ATOM     50  C   UNL A   1      44.666  24.588  29.338  1.00  0.00     0.031 C 
ATOM     51  C   UNL A   1      45.454  28.232  34.128  1.00  0.00     0.029 A 
ATOM     52  C   UNL A   1      44.928  27.635  32.994  1.00  0.00     0.049 A 
ATOM     53  H   UNL A   1      43.160  28.103  31.940  1.00  0.00     0.167 HD
ATOM     54  C   UNL A   1      44.872  25.989  31.140  1.00  0.00     0.074 A 
ATOM     55  C   UNL A   1      45.428  24.891  30.380  1.00  0.00     0.031 C 
ATOM     56  C   UNL A   1      45.461  26.538  32.230  1.00  0.00     0.037 A 
BRANCH  43  57
ATOM     57  C   UNL A   1      42.344  31.266  34.679  1.00  0.00     0.057 A 
ATOM     58  C   UNL A   1      42.741  32.585  34.432  1.00  0.00     0.134 A 
ATOM     59  C   UNL A   1      41.826  30.970  35.946  1.00  0.00     0.134 A 
ATOM     60  F   UNL A   1      43.258  32.929  33.243  1.00  0.00    -0.206 F 
ATOM     61  C   UNL A   1      42.635  33.573  35.414  1.00  0.00     0.040 A 
ATOM     62  C   UNL A   1      41.696  31.953  36.929  1.00  0.00     0.040 A 
ATOM     63  F   UNL A   1      41.422  29.726  36.243  1.00  0.00    -0.206 F 
ATOM     64  C   UNL A   1      42.103  33.259  36.664  1.00  0.00     0.006 A 
ENDBRANCH  43  57
BRANCH  44  65
ATOM     65  C   UNL A   1      42.489  24.448  27.395  1.00  0.00     0.057 A 
ATOM     66  C   UNL A   1      42.032  23.138  27.570  1.00  0.00     0.134 A 
ATOM     67  C   UNL A   1      43.027  24.784  26.146  1.00  0.00     0.134 A 
ATOM     68  F   UNL A   1      41.529  22.751  28.751  1.00  0.00    -0.206 F 
ATOM     69  C   UNL A   1      42.122  22.191  26.548  1.00  0.00     0.040 A 
ATOM     70  C   UNL A   1      43.102  23.855  25.109  1.00  0.00     0.040 A 
ATOM     71  F   UNL A   1      43.485  26.024  25.917  1.00  0.00    -0.206 F 
ATOM     72  C   UNL A   1      42.654  22.551  25.311  1.00  0.00     0.006 A 
ENDBRANCH  44  65
BRANCH  56  73
ATOM     73  C   UNL A   1      46.758  25.937  32.680  1.00  0.00     0.057 A 
ATOM     74  C   UNL A   1      46.803  24.918  33.639  1.00  0.00     0.134 A 
ATOM     75  C   UNL A   1      47.972  26.359  32.122  1.00  0.00     0.134 A 
ATOM     76  F   UNL A   1      45.676  24.481  34.221  1.00  0.00    -0.206 F 
ATOM     77  C   UNL A   1      48.013  24.352  34.042  1.00  0.00     0.040 A 
ATOM     78  C   UNL A   1      49.185  25.786  32.501  1.00  0.00     0.040 A 
ATOM     79  F   UNL A   1      47.994  27.327  31.193  1.00  0.00    -0.206 F 
ATOM     80  C   UNL A   1      49.209  24.782  33.468  1.00  0.00     0.006 A 
ENDBRANCH  56  73
ENDBRANCH  30  31
ENDBRANCH  23  25
ENDBRANCH  22  23
ENDBRANCH  21  22
ENDBRANCH   1  21
TORSDOF 15
ENDMDL
