MODEL 1
REMARK VINA RESULT:     -11.3      0.000      0.000
REMARK SMILES Cc1ccc(C)c([C@@H](C)[N@@H+](CC(=O)OCCOC(=O)c2ccc(-c3c4nc(c(-c5c(F)cccc5F)c5ccc([nH]5)c(-c5c(F)cccc5F)c5nc(c(-c6c(F)cccc6F)c6ccc3[nH]6)C=C5)C=C4)cc2)CC(F)(F)F)c1
REMARK SMILES IDX 15 1 14 2 12 3 13 4 11 5 10 6 8 8 9 9 7 10 1 11 2 12 3 13
REMARK SMILES IDX 79 14 4 15 5 16 6 17 74 18 75 19 76 20 77 21 78 22 16 23
REMARK SMILES IDX 17 24 18 25 19 26 20 27 21 28 73 29 22 30 72 31 23 32 24 33
REMARK SMILES IDX 25 34 66 35 26 36 71 37 65 38 67 39 27 40 70 41 64 42 63 43
REMARK SMILES IDX 28 45 54 46 37 47 53 48 38 49 41 50 52 51 68 52 39 53 40 54
REMARK SMILES IDX 51 56 69 57 42 58 29 59 30 60 35 61 31 62 32 63 34 64 36 65
REMARK SMILES IDX 33 66 55 67 56 68 61 69 57 70 58 71 60 72 62 73 59 74 43 75
REMARK SMILES IDX 44 76 49 77 45 78 46 79 48 80 50 81 47 82
REMARK H PARENT 10 7 67 44 41 55
REMARK Flexibility Score: inf
ROOT
ATOM      1  C   UNL A   1      32.521  29.407  26.652  1.00  0.00     0.274 C 
ENDROOT
BRANCH   1   2
ATOM      2  O   UNL A   1      31.821  28.410  27.417  1.00  0.00    -0.458 OA
BRANCH   2   3
ATOM      3  C   UNL A   1      31.679  27.192  26.869  1.00  0.00     0.361 C 
ATOM      4  O   UNL A   1      30.629  26.614  26.745  1.00  0.00    -0.245 OA
BRANCH   3   5
ATOM      5  C   UNL A   1      32.911  26.598  26.264  1.00  0.00     0.387 C 
BRANCH   5   6
ATOM      6  N   UNL A   1      32.530  25.715  25.147  1.00  0.00    -0.312 N 
ATOM      7  H   UNL A   1      31.532  25.511  25.111  1.00  0.00     0.349 HD
BRANCH   6   8
ATOM      8  C   UNL A   1      32.903  24.313  25.363  1.00  0.00     0.213 C 
ATOM      9  C   UNL A   1      32.569  23.672  26.722  1.00  0.00     0.081 C 
BRANCH   8  10
ATOM     10  C   UNL A   1      34.231  23.755  24.852  1.00  0.00     0.012 A 
ATOM     11  C   UNL A   1      37.793  24.067  26.220  1.00  0.00     0.044 C 
ATOM     12  C   UNL A   1      36.649  23.682  25.334  1.00  0.00    -0.051 A 
ATOM     13  C   UNL A   1      36.889  23.186  24.057  1.00  0.00     0.004 A 
ATOM     14  C   UNL A   1      35.328  23.894  25.739  1.00  0.00     0.013 A 
ATOM     15  C   UNL A   1      35.830  23.007  23.175  1.00  0.00     0.004 A 
ATOM     16  C   UNL A   1      34.516  23.363  23.530  1.00  0.00    -0.042 A 
ATOM     17  C   UNL A   1      33.524  23.340  22.413  1.00  0.00     0.045 C 
ENDBRANCH   8  10
ENDBRANCH   6   8
BRANCH   6  18
ATOM     18  C   UNL A   1      32.354  26.369  23.814  1.00  0.00     0.380 C 
BRANCH  18  19
ATOM     19  C   UNL A   1      33.367  27.285  23.017  1.00  0.00     0.438 C 
ATOM     20  F   UNL A   1      33.924  26.669  21.948  1.00  0.00    -0.165 F 
ATOM     21  F   UNL A   1      32.725  28.383  22.538  1.00  0.00    -0.165 F 
ATOM     22  F   UNL A   1      34.355  27.779  23.794  1.00  0.00    -0.165 F 
ENDBRANCH  18  19
ENDBRANCH   6  18
ENDBRANCH   5   6
ENDBRANCH   3   5
ENDBRANCH   2   3
ENDBRANCH   1   2
BRANCH   1  23
ATOM     23  C   UNL A   1      33.068  30.752  27.238  1.00  0.00     0.275 C 
BRANCH  23  24
ATOM     24  O   UNL A   1      34.307  30.999  28.024  1.00  0.00    -0.458 OA
BRANCH  24  25
ATOM     25  C   UNL A   1      35.338  31.895  27.926  1.00  0.00     0.338 C 
ATOM     26  O   UNL A   1      35.198  33.076  27.646  1.00  0.00    -0.246 OA
BRANCH  25  27
ATOM     27  C   UNL A   1      36.668  31.315  28.107  1.00  0.00     0.060 A 
ATOM     28  C   UNL A   1      37.691  31.874  28.894  1.00  0.00     0.016 A 
ATOM     29  C   UNL A   1      36.763  30.043  27.605  1.00  0.00     0.016 A 
ATOM     30  C   UNL A   1      38.768  31.059  29.271  1.00  0.00     0.010 A 
ATOM     31  C   UNL A   1      37.626  29.221  28.246  1.00  0.00     0.010 A 
ATOM     32  C   UNL A   1      38.706  29.692  28.966  1.00  0.00    -0.014 A 
BRANCH  32  33
ATOM     33  C   UNL A   1      39.655  28.653  29.366  1.00  0.00     0.031 A 
ATOM     34  C   UNL A   1      39.844  28.459  30.823  1.00  0.00     0.074 A 
ATOM     35  C   UNL A   1      40.286  27.854  28.461  1.00  0.00     0.049 A 
ATOM     36  N   UNL A   1      40.700  29.095  31.548  1.00  0.00    -0.248 NA
ATOM     37  C   UNL A   1      38.943  27.604  31.605  1.00  0.00     0.031 C 
ATOM     38  C   UNL A   1      40.129  27.762  26.991  1.00  0.00     0.029 A 
ATOM     39  N   UNL A   1      41.236  26.905  28.685  1.00  0.00    -0.354 N 
ATOM     40  C   UNL A   1      40.677  28.495  32.798  1.00  0.00     0.074 A 
ATOM     41  C   UNL A   1      39.442  27.755  32.841  1.00  0.00     0.031 C 
ATOM     42  C   UNL A   1      40.759  26.680  26.500  1.00  0.00     0.029 A 
ATOM     43  C   UNL A   1      41.589  26.162  27.561  1.00  0.00     0.049 A 
ATOM     44  H   UNL A   1      41.641  26.755  29.570  1.00  0.00     0.167 HD
ATOM     45  C   UNL A   1      41.821  28.452  33.542  1.00  0.00     0.037 A 
ATOM     46  C   UNL A   1      42.668  25.369  27.366  1.00  0.00     0.037 A 
ATOM     47  C   UNL A   1      42.832  29.316  32.961  1.00  0.00     0.049 A 
ATOM     48  C   UNL A   1      43.696  25.817  28.328  1.00  0.00     0.074 A 
ATOM     49  C   UNL A   1      42.894  30.660  32.642  1.00  0.00     0.029 A 
ATOM     50  N   UNL A   1      43.819  28.718  32.210  1.00  0.00    -0.354 N 
ATOM     51  N   UNL A   1      44.310  26.963  28.232  1.00  0.00    -0.248 NA
ATOM     52  C   UNL A   1      43.650  25.233  29.657  1.00  0.00     0.031 C 
ATOM     53  C   UNL A   1      43.532  30.704  31.363  1.00  0.00     0.029 A 
ATOM     54  C   UNL A   1      43.935  29.410  31.030  1.00  0.00     0.049 A 
ATOM     55  H   UNL A   1      44.350  27.932  32.473  1.00  0.00     0.167 HD
ATOM     56  C   UNL A   1      44.315  27.462  29.526  1.00  0.00     0.074 A 
ATOM     57  C   UNL A   1      43.962  26.318  30.372  1.00  0.00     0.031 C 
ATOM     58  C   UNL A   1      44.327  28.805  29.773  1.00  0.00     0.037 A 
BRANCH  45  59
ATOM     59  C   UNL A   1      42.201  27.367  34.522  1.00  0.00     0.057 A 
ATOM     60  C   UNL A   1      41.958  27.580  35.895  1.00  0.00     0.134 A 
ATOM     61  C   UNL A   1      43.045  26.280  34.230  1.00  0.00     0.134 A 
ATOM     62  F   UNL A   1      41.164  28.580  36.306  1.00  0.00    -0.206 F 
ATOM     63  C   UNL A   1      42.588  26.835  36.898  1.00  0.00     0.040 A 
ATOM     64  C   UNL A   1      43.646  25.500  35.225  1.00  0.00     0.040 A 
ATOM     65  F   UNL A   1      43.416  25.971  32.983  1.00  0.00    -0.206 F 
ATOM     66  C   UNL A   1      43.449  25.798  36.564  1.00  0.00     0.006 A 
ENDBRANCH  45  59
BRANCH  46  67
ATOM     67  C   UNL A   1      42.704  24.062  26.677  1.00  0.00     0.057 A 
ATOM     68  C   UNL A   1      43.416  23.913  25.480  1.00  0.00     0.134 A 
ATOM     69  C   UNL A   1      42.299  22.875  27.313  1.00  0.00     0.134 A 
ATOM     70  F   UNL A   1      43.846  24.990  24.807  1.00  0.00    -0.206 F 
ATOM     71  C   UNL A   1      43.774  22.656  24.980  1.00  0.00     0.040 A 
ATOM     72  C   UNL A   1      42.649  21.613  26.823  1.00  0.00     0.040 A 
ATOM     73  F   UNL A   1      41.629  22.904  28.475  1.00  0.00    -0.206 F 
ATOM     74  C   UNL A   1      43.411  21.502  25.666  1.00  0.00     0.006 A 
ENDBRANCH  46  67
BRANCH  58  75
ATOM     75  C   UNL A   1      44.590  29.740  28.616  1.00  0.00     0.057 A 
ATOM     76  C   UNL A   1      43.597  30.355  27.837  1.00  0.00     0.134 A 
ATOM     77  C   UNL A   1      45.907  30.143  28.370  1.00  0.00     0.134 A 
ATOM     78  F   UNL A   1      42.301  30.102  28.041  1.00  0.00    -0.206 F 
ATOM     79  C   UNL A   1      43.901  31.295  26.845  1.00  0.00     0.040 A 
ATOM     80  C   UNL A   1      46.224  31.100  27.402  1.00  0.00     0.040 A 
ATOM     81  F   UNL A   1      46.914  29.637  29.099  1.00  0.00    -0.206 F 
ATOM     82  C   UNL A   1      45.219  31.675  26.628  1.00  0.00     0.006 A 
ENDBRANCH  58  75
ENDBRANCH  32  33
ENDBRANCH  25  27
ENDBRANCH  24  25
ENDBRANCH  23  24
ENDBRANCH   1  23
TORSDOF 16
ENDMDL
MODEL 2
REMARK VINA RESULT:     -11.0      5.194      9.991
REMARK SMILES Cc1ccc(C)c([C@@H](C)[N@@H+](CC(=O)OCCOC(=O)c2ccc(-c3c4nc(c(-c5c(F)cccc5F)c5ccc([nH]5)c(-c5c(F)cccc5F)c5nc(c(-c6c(F)cccc6F)c6ccc3[nH]6)C=C5)C=C4)cc2)CC(F)(F)F)c1
REMARK SMILES IDX 15 1 14 2 12 3 13 4 11 5 10 6 8 8 9 9 7 10 1 11 2 12 3 13
REMARK SMILES IDX 79 14 4 15 5 16 6 17 74 18 75 19 76 20 77 21 78 22 16 23
REMARK SMILES IDX 17 24 18 25 19 26 20 27 21 28 73 29 22 30 72 31 23 32 24 33
REMARK SMILES IDX 25 34 66 35 26 36 71 37 65 38 67 39 27 40 70 41 64 42 63 43
REMARK SMILES IDX 28 45 54 46 37 47 53 48 38 49 41 50 52 51 68 52 39 53 40 54
REMARK SMILES IDX 51 56 69 57 42 58 29 59 30 60 35 61 31 62 32 63 34 64 36 65
REMARK SMILES IDX 33 66 55 67 56 68 61 69 57 70 58 71 60 72 62 73 59 74 43 75
REMARK SMILES IDX 44 76 49 77 45 78 46 79 48 80 50 81 47 82
REMARK H PARENT 10 7 67 44 41 55
REMARK Flexibility Score: inf
ROOT
ATOM      1  C   UNL A   1      48.051  31.871  27.403  1.00  0.00     0.274 C 
ENDROOT
BRANCH   1   2
ATOM      2  O   UNL A   1      47.800  30.631  26.720  1.00  0.00    -0.458 OA
BRANCH   2   3
ATOM      3  C   UNL A   1      46.522  30.321  26.445  1.00  0.00     0.361 C 
ATOM      4  O   UNL A   1      46.071  30.187  25.335  1.00  0.00    -0.245 OA
BRANCH   3   5
ATOM      5  C   UNL A   1      45.658  30.000  27.622  1.00  0.00     0.387 C 
BRANCH   5   6
ATOM      6  N   UNL A   1      44.972  28.716  27.390  1.00  0.00    -0.312 N 
ATOM      7  H   UNL A   1      44.614  28.612  26.441  1.00  0.00     0.349 HD
BRANCH   6   8
ATOM      8  C   UNL A   1      43.639  28.652  27.999  1.00  0.00     0.213 C 
ATOM      9  C   UNL A   1      43.517  28.903  29.513  1.00  0.00     0.081 C 
BRANCH   8  10
ATOM     10  C   UNL A   1      42.622  27.591  27.578  1.00  0.00     0.012 A 
ATOM     11  C   UNL A   1      42.266  23.907  28.556  1.00  0.00     0.044 C 
ATOM     12  C   UNL A   1      42.003  25.225  27.895  1.00  0.00    -0.051 A 
ATOM     13  C   UNL A   1      41.152  25.299  26.798  1.00  0.00     0.004 A 
ATOM     14  C   UNL A   1      42.671  26.380  28.313  1.00  0.00     0.013 A 
ATOM     15  C   UNL A   1      41.058  26.484  26.076  1.00  0.00     0.004 A 
ATOM     16  C   UNL A   1      41.844  27.604  26.404  1.00  0.00    -0.042 A 
ATOM     17  C   UNL A   1      41.815  28.718  25.409  1.00  0.00     0.045 C 
ENDBRANCH   8  10
ENDBRANCH   6   8
BRANCH   6  18
ATOM     18  C   UNL A   1      45.846  27.540  27.096  1.00  0.00     0.380 C 
BRANCH  18  19
ATOM     19  C   UNL A   1      45.856  26.605  25.821  1.00  0.00     0.438 C 
ATOM     20  F   UNL A   1      45.832  25.285  26.120  1.00  0.00    -0.165 F 
ATOM     21  F   UNL A   1      44.760  26.847  25.056  1.00  0.00    -0.165 F 
ATOM     22  F   UNL A   1      46.904  26.842  25.001  1.00  0.00    -0.165 F 
ENDBRANCH  18  19
ENDBRANCH   6  18
ENDBRANCH   5   6
ENDBRANCH   3   5
ENDBRANCH   2   3
ENDBRANCH   1   2
BRANCH   1  23
ATOM     23  C   UNL A   1      47.504  33.264  26.941  1.00  0.00     0.275 C 
BRANCH  23  24
ATOM     24  O   UNL A   1      46.262  33.971  27.357  1.00  0.00    -0.458 OA
BRANCH  24  25
ATOM     25  C   UNL A   1      44.926  33.686  27.266  1.00  0.00     0.338 C 
ATOM     26  O   UNL A   1      44.375  33.285  26.252  1.00  0.00    -0.246 OA
BRANCH  25  27
ATOM     27  C   UNL A   1      44.159  33.978  28.476  1.00  0.00     0.060 A 
ATOM     28  C   UNL A   1      43.610  35.233  28.799  1.00  0.00     0.016 A 
ATOM     29  C   UNL A   1      43.831  32.850  29.180  1.00  0.00     0.016 A 
ATOM     30  C   UNL A   1      42.612  35.295  29.782  1.00  0.00     0.010 A 
ATOM     31  C   UNL A   1      42.666  32.902  29.868  1.00  0.00     0.010 A 
ATOM     32  C   UNL A   1      42.109  34.092  30.296  1.00  0.00    -0.014 A 
BRANCH  32  33
ATOM     33  C   UNL A   1      40.997  33.926  31.232  1.00  0.00     0.031 A 
ATOM     34  C   UNL A   1      41.346  33.904  32.672  1.00  0.00     0.074 A 
ATOM     35  C   UNL A   1      39.700  33.864  30.821  1.00  0.00     0.049 A 
ATOM     36  N   UNL A   1      41.667  32.847  33.338  1.00  0.00    -0.248 NA
ATOM     37  C   UNL A   1      41.499  35.144  33.443  1.00  0.00     0.031 C 
ATOM     38  C   UNL A   1      39.115  34.025  29.469  1.00  0.00     0.029 A 
ATOM     39  N   UNL A   1      38.583  33.643  31.567  1.00  0.00    -0.354 N 
ATOM     40  C   UNL A   1      41.740  33.230  34.668  1.00  0.00     0.074 A 
ATOM     41  C   UNL A   1      41.853  34.666  34.645  1.00  0.00     0.031 C 
ATOM     42  C   UNL A   1      37.775  34.134  29.528  1.00  0.00     0.029 A 
ATOM     43  C   UNL A   1      37.385  33.771  30.869  1.00  0.00     0.049 A 
ATOM     44  H   UNL A   1      38.619  33.411  32.524  1.00  0.00     0.167 HD
ATOM     45  C   UNL A   1      41.410  32.333  35.643  1.00  0.00     0.037 A 
ATOM     46  C   UNL A   1      36.146  33.349  31.214  1.00  0.00     0.037 A 
ATOM     47  C   UNL A   1      41.289  31.000  35.080  1.00  0.00     0.049 A 
ATOM     48  C   UNL A   1      36.333  32.264  32.200  1.00  0.00     0.074 A 
ATOM     49  C   UNL A   1      42.131  30.166  34.367  1.00  0.00     0.029 A 
ATOM     50  N   UNL A   1      40.018  30.533  34.832  1.00  0.00    -0.354 N 
ATOM     51  N   UNL A   1      36.828  31.098  31.890  1.00  0.00    -0.248 NA
ATOM     52  C   UNL A   1      36.462  32.657  33.592  1.00  0.00     0.031 C 
ATOM     53  C   UNL A   1      41.308  29.605  33.342  1.00  0.00     0.029 A 
ATOM     54  C   UNL A   1      39.993  30.022  33.557  1.00  0.00     0.049 A 
ATOM     55  H   UNL A   1      39.259  30.559  35.458  1.00  0.00     0.167 HD
ATOM     56  C   UNL A   1      37.725  30.822  32.911  1.00  0.00     0.074 A 
ATOM     57  C   UNL A   1      37.400  31.784  33.969  1.00  0.00     0.031 C 
ATOM     58  C   UNL A   1      38.823  30.037  32.703  1.00  0.00     0.037 A 
BRANCH  45  59
ATOM     59  C   UNL A   1      40.799  32.665  36.985  1.00  0.00     0.057 A 
ATOM     60  C   UNL A   1      39.618  33.434  37.018  1.00  0.00     0.134 A 
ATOM     61  C   UNL A   1      41.455  32.529  38.222  1.00  0.00     0.134 A 
ATOM     62  F   UNL A   1      38.894  33.634  35.906  1.00  0.00    -0.206 F 
ATOM     63  C   UNL A   1      39.183  34.101  38.170  1.00  0.00     0.040 A 
ATOM     64  C   UNL A   1      41.005  33.155  39.389  1.00  0.00     0.040 A 
ATOM     65  F   UNL A   1      42.613  31.873  38.354  1.00  0.00    -0.206 F 
ATOM     66  C   UNL A   1      39.887  33.973  39.359  1.00  0.00     0.006 A 
ENDBRANCH  45  59
BRANCH  46  67
ATOM     67  C   UNL A   1      34.870  34.068  31.019  1.00  0.00     0.057 A 
ATOM     68  C   UNL A   1      34.518  35.126  31.866  1.00  0.00     0.134 A 
ATOM     69  C   UNL A   1      34.115  33.936  29.839  1.00  0.00     0.134 A 
ATOM     70  F   UNL A   1      35.186  35.331  33.011  1.00  0.00    -0.206 F 
ATOM     71  C   UNL A   1      33.522  36.050  31.527  1.00  0.00     0.040 A 
ATOM     72  C   UNL A   1      33.117  34.852  29.489  1.00  0.00     0.040 A 
ATOM     73  F   UNL A   1      34.383  32.969  28.948  1.00  0.00    -0.206 F 
ATOM     74  C   UNL A   1      32.836  35.927  30.324  1.00  0.00     0.006 A 
ENDBRANCH  46  67
BRANCH  58  75
ATOM     75  C   UNL A   1      38.913  29.265  31.407  1.00  0.00     0.057 A 
ATOM     76  C   UNL A   1      39.413  29.778  30.199  1.00  0.00     0.134 A 
ATOM     77  C   UNL A   1      38.606  27.901  31.421  1.00  0.00     0.134 A 
ATOM     78  F   UNL A   1      39.810  31.049  30.097  1.00  0.00    -0.206 F 
ATOM     79  C   UNL A   1      39.569  28.982  29.058  1.00  0.00     0.040 A 
ATOM     80  C   UNL A   1      38.781  27.087  30.297  1.00  0.00     0.040 A 
ATOM     81  F   UNL A   1      38.163  27.321  32.547  1.00  0.00    -0.206 F 
ATOM     82  C   UNL A   1      39.257  27.628  29.106  1.00  0.00     0.006 A 
ENDBRANCH  58  75
ENDBRANCH  32  33
ENDBRANCH  25  27
ENDBRANCH  24  25
ENDBRANCH  23  24
ENDBRANCH   1  23
TORSDOF 16
ENDMDL
MODEL 3
REMARK VINA RESULT:     -10.9      2.302      6.619
REMARK SMILES Cc1ccc(C)c([C@@H](C)[N@@H+](CC(=O)OCCOC(=O)c2ccc(-c3c4nc(c(-c5c(F)cccc5F)c5ccc([nH]5)c(-c5c(F)cccc5F)c5nc(c(-c6c(F)cccc6F)c6ccc3[nH]6)C=C5)C=C4)cc2)CC(F)(F)F)c1
REMARK SMILES IDX 15 1 14 2 12 3 13 4 11 5 10 6 8 8 9 9 7 10 1 11 2 12 3 13
REMARK SMILES IDX 79 14 4 15 5 16 6 17 74 18 75 19 76 20 77 21 78 22 16 23
REMARK SMILES IDX 17 24 18 25 19 26 20 27 21 28 73 29 22 30 72 31 23 32 24 33
REMARK SMILES IDX 25 34 66 35 26 36 71 37 65 38 67 39 27 40 70 41 64 42 63 43
REMARK SMILES IDX 28 45 54 46 37 47 53 48 38 49 41 50 52 51 68 52 39 53 40 54
REMARK SMILES IDX 51 56 69 57 42 58 29 59 30 60 35 61 31 62 32 63 34 64 36 65
REMARK SMILES IDX 33 66 55 67 56 68 61 69 57 70 58 71 60 72 62 73 59 74 43 75
REMARK SMILES IDX 44 76 49 77 45 78 46 79 48 80 50 81 47 82
REMARK H PARENT 10 7 67 44 41 55
REMARK Flexibility Score: inf
ROOT
ATOM      1  C   UNL A   1      34.347  29.207  27.032  1.00  0.00     0.274 C 
ENDROOT
BRANCH   1   2
ATOM      2  O   UNL A   1      32.973  29.484  27.356  1.00  0.00    -0.458 OA
BRANCH   2   3
ATOM      3  C   UNL A   1      32.077  28.506  27.146  1.00  0.00     0.361 C 
ATOM      4  O   UNL A   1      31.532  27.876  28.016  1.00  0.00    -0.245 OA
BRANCH   3   5
ATOM      5  C   UNL A   1      31.652  28.302  25.727  1.00  0.00     0.387 C 
BRANCH   5   6
ATOM      6  N   UNL A   1      31.965  26.921  25.317  1.00  0.00    -0.312 N 
ATOM      7  H   UNL A   1      32.212  26.311  26.096  1.00  0.00     0.349 HD
BRANCH   6   8
ATOM      8  C   UNL A   1      33.279  26.789  24.677  1.00  0.00     0.213 C 
ATOM      9  C   UNL A   1      33.636  27.764  23.541  1.00  0.00     0.081 C 
BRANCH   8  10
ATOM     10  C   UNL A   1      33.883  25.418  24.376  1.00  0.00     0.012 A 
ATOM     11  C   UNL A   1      36.860  23.575  25.926  1.00  0.00     0.044 C 
ATOM     12  C   UNL A   1      35.689  23.875  25.041  1.00  0.00    -0.051 A 
ATOM     13  C   UNL A   1      35.465  23.118  23.896  1.00  0.00     0.004 A 
ATOM     14  C   UNL A   1      34.858  24.968  25.302  1.00  0.00     0.013 A 
ATOM     15  C   UNL A   1      34.494  23.515  22.985  1.00  0.00     0.004 A 
ATOM     16  C   UNL A   1      33.758  24.700  23.171  1.00  0.00    -0.042 A 
ATOM     17  C   UNL A   1      32.925  25.124  22.006  1.00  0.00     0.045 C 
ENDBRANCH   8  10
ENDBRANCH   6   8
BRANCH   6  18
ATOM     18  C   UNL A   1      30.798  26.014  25.091  1.00  0.00     0.380 C 
BRANCH  18  19
ATOM     19  C   UNL A   1      29.849  25.912  23.831  1.00  0.00     0.438 C 
ATOM     20  F   UNL A   1      28.551  26.170  24.111  1.00  0.00    -0.165 F 
ATOM     21  F   UNL A   1      30.228  26.813  22.888  1.00  0.00    -0.165 F 
ATOM     22  F   UNL A   1      29.927  24.714  23.209  1.00  0.00    -0.165 F 
ENDBRANCH  18  19
ENDBRANCH   6  18
ENDBRANCH   5   6
ENDBRANCH   3   5
ENDBRANCH   2   3
ENDBRANCH   1   2
BRANCH   1  23
ATOM     23  C   UNL A   1      35.576  29.806  27.796  1.00  0.00     0.275 C 
BRANCH  23  24
ATOM     24  O   UNL A   1      36.205  29.353  29.066  1.00  0.00    -0.458 OA
BRANCH  24  25
ATOM     25  C   UNL A   1      37.456  29.475  29.608  1.00  0.00     0.338 C 
ATOM     26  O   UNL A   1      37.704  30.086  30.637  1.00  0.00    -0.246 OA
BRANCH  25  27
ATOM     27  C   UNL A   1      38.526  28.876  28.810  1.00  0.00     0.060 A 
ATOM     28  C   UNL A   1      39.063  29.434  27.636  1.00  0.00     0.016 A 
ATOM     29  C   UNL A   1      39.120  27.812  29.435  1.00  0.00     0.016 A 
ATOM     30  C   UNL A   1      40.300  28.962  27.175  1.00  0.00     0.010 A 
ATOM     31  C   UNL A   1      40.430  27.620  29.154  1.00  0.00     0.010 A 
ATOM     32  C   UNL A   1      41.010  28.060  27.980  1.00  0.00    -0.014 A 
BRANCH  32  33
ATOM     33  C   UNL A   1      42.357  27.539  27.748  1.00  0.00     0.031 A 
ATOM     34  C   UNL A   1      42.457  26.326  26.904  1.00  0.00     0.074 A 
ATOM     35  C   UNL A   1      43.472  28.164  28.219  1.00  0.00     0.049 A 
ATOM     36  N   UNL A   1      42.392  25.114  27.343  1.00  0.00    -0.248 NA
ATOM     37  C   UNL A   1      42.496  26.412  25.440  1.00  0.00     0.031 C 
ATOM     38  C   UNL A   1      43.618  29.454  28.935  1.00  0.00     0.029 A 
ATOM     39  N   UNL A   1      44.769  27.758  28.141  1.00  0.00    -0.354 N 
ATOM     40  C   UNL A   1      42.707  24.293  26.270  1.00  0.00     0.074 A 
ATOM     41  C   UNL A   1      42.538  25.115  25.100  1.00  0.00     0.031 C 
ATOM     42  C   UNL A   1      44.908  29.827  29.008  1.00  0.00     0.029 A 
ATOM     43  C   UNL A   1      45.697  28.688  28.604  1.00  0.00     0.049 A 
ATOM     44  H   UNL A   1      45.031  26.878  27.784  1.00  0.00     0.167 HD
ATOM     45  C   UNL A   1      43.348  23.109  26.499  1.00  0.00     0.037 A 
ATOM     46  C   UNL A   1      46.997  28.506  28.932  1.00  0.00     0.037 A 
ATOM     47  C   UNL A   1      43.345  22.801  27.918  1.00  0.00     0.049 A 
ATOM     48  C   UNL A   1      47.156  27.068  29.232  1.00  0.00     0.074 A 
ATOM     49  C   UNL A   1      42.361  22.642  28.875  1.00  0.00     0.029 A 
ATOM     50  N   UNL A   1      44.500  23.059  28.622  1.00  0.00    -0.354 N 
ATOM     51  N   UNL A   1      46.635  26.497  30.283  1.00  0.00    -0.248 NA
ATOM     52  C   UNL A   1      47.436  26.191  28.109  1.00  0.00     0.031 C 
ATOM     53  C   UNL A   1      42.858  23.324  30.029  1.00  0.00     0.029 A 
ATOM     54  C   UNL A   1      44.160  23.750  29.759  1.00  0.00     0.049 A 
ATOM     55  H   UNL A   1      45.410  22.793  28.358  1.00  0.00     0.167 HD
ATOM     56  C   UNL A   1      46.097  25.314  29.802  1.00  0.00     0.074 A 
ATOM     57  C   UNL A   1      46.688  25.144  28.471  1.00  0.00     0.031 C 
ATOM     58  C   UNL A   1      45.018  24.726  30.398  1.00  0.00     0.037 A 
BRANCH  45  59
ATOM     59  C   UNL A   1      44.321  22.432  25.561  1.00  0.00     0.057 A 
ATOM     60  C   UNL A   1      44.221  21.038  25.375  1.00  0.00     0.134 A 
ATOM     61  C   UNL A   1      45.508  23.012  25.079  1.00  0.00     0.134 A 
ATOM     62  F   UNL A   1      43.135  20.364  25.785  1.00  0.00    -0.206 F 
ATOM     63  C   UNL A   1      45.264  20.270  24.845  1.00  0.00     0.040 A 
ATOM     64  C   UNL A   1      46.539  22.260  24.506  1.00  0.00     0.040 A 
ATOM     65  F   UNL A   1      45.782  24.314  25.220  1.00  0.00    -0.206 F 
ATOM     66  C   UNL A   1      46.436  20.880  24.421  1.00  0.00     0.006 A 
ENDBRANCH  45  59
BRANCH  46  67
ATOM     67  C   UNL A   1      48.127  29.413  28.643  1.00  0.00     0.057 A 
ATOM     68  C   UNL A   1      48.511  29.664  27.319  1.00  0.00     0.134 A 
ATOM     69  C   UNL A   1      48.661  30.272  29.620  1.00  0.00     0.134 A 
ATOM     70  F   UNL A   1      48.048  28.899  26.321  1.00  0.00    -0.206 F 
ATOM     71  C   UNL A   1      49.318  30.755  26.974  1.00  0.00     0.040 A 
ATOM     72  C   UNL A   1      49.469  31.364  29.289  1.00  0.00     0.040 A 
ATOM     73  F   UNL A   1      48.342  30.132  30.916  1.00  0.00    -0.206 F 
ATOM     74  C   UNL A   1      49.779  31.622  27.959  1.00  0.00     0.006 A 
ENDBRANCH  46  67
BRANCH  58  75
ATOM     75  C   UNL A   1      44.573  25.251  31.743  1.00  0.00     0.057 A 
ATOM     76  C   UNL A   1      45.051  24.797  32.982  1.00  0.00     0.134 A 
ATOM     77  C   UNL A   1      43.723  26.361  31.777  1.00  0.00     0.134 A 
ATOM     78  F   UNL A   1      45.928  23.792  33.060  1.00  0.00    -0.206 F 
ATOM     79  C   UNL A   1      44.679  25.395  34.192  1.00  0.00     0.040 A 
ATOM     80  C   UNL A   1      43.363  26.987  32.975  1.00  0.00     0.040 A 
ATOM     81  F   UNL A   1      43.255  26.887  30.635  1.00  0.00    -0.206 F 
ATOM     82  C   UNL A   1      43.835  26.499  34.190  1.00  0.00     0.006 A 
ENDBRANCH  58  75
ENDBRANCH  32  33
ENDBRANCH  25  27
ENDBRANCH  24  25
ENDBRANCH  23  24
ENDBRANCH   1  23
TORSDOF 16
ENDMDL
