MODEL 1
REMARK VINA RESULT:      -9.5      0.000      0.000
REMARK SMILES C=CC[N@H+](CC(=O)OCCOC(=O)c1ccc(-c2c3nc(c(-c4c(F)cccc4F)c4ccc([nH]4)c(-c4c(F)cccc4F)c4nc(c(-c5c(F)cccc5F)c5ccc2[nH]5)C=C4)C=C3)cc1)C[C@H]1CNC(=O)O1
REMARK SMILES IDX 9 1 8 2 6 3 7 4 5 5 4 6 3 8 2 9 1 10 68 11 69 12 70 13 74 14
REMARK SMILES IDX 71 15 72 16 73 18 10 19 11 20 12 21 13 22 14 23 15 24 67 25
REMARK SMILES IDX 16 26 66 27 17 28 18 29 19 30 60 31 20 32 65 33 59 34 61 35
REMARK SMILES IDX 21 36 64 37 58 38 57 39 22 41 48 42 31 43 47 44 32 45 35 46
REMARK SMILES IDX 46 47 62 48 33 49 34 50 45 52 63 53 36 54 23 55 24 56 29 57
REMARK SMILES IDX 25 58 26 59 28 60 30 61 27 62 49 63 50 64 55 65 51 66 52 67
REMARK SMILES IDX 54 68 56 69 53 70 37 71 38 72 43 73 39 74 40 75 42 76 44 77
REMARK SMILES IDX 41 78
REMARK H PARENT 4 7 71 17 61 40 35 51
REMARK Flexibility Score: inf
ROOT
ATOM      1  C   UNL A   1      35.112  33.937  29.149  1.00  0.00     0.274 C 
ENDROOT
BRANCH   1   2
ATOM      2  O   UNL A   1      36.466  33.929  29.657  1.00  0.00    -0.458 OA
BRANCH   2   3
ATOM      3  C   UNL A   1      36.615  33.542  30.955  1.00  0.00     0.361 C 
ATOM      4  O   UNL A   1      37.698  33.456  31.530  1.00  0.00    -0.245 OA
BRANCH   3   5
ATOM      5  C   UNL A   1      35.317  33.099  31.635  1.00  0.00     0.386 C 
BRANCH   5   6
ATOM      6  N   UNL A   1      34.867  33.983  32.720  1.00  0.00    -0.319 N 
ATOM      7  H   UNL A   1      33.850  33.913  32.720  1.00  0.00     0.348 HD
BRANCH   6   8
ATOM      8  C   UNL A   1      35.160  33.475  34.061  1.00  0.00     0.290 C 
BRANCH   8   9
ATOM      9  C   UNL A   1      36.395  33.993  34.746  1.00  0.00     0.025 C 
ATOM     10  C   UNL A   1      36.897  33.511  35.889  1.00  0.00     0.010 C 
ENDBRANCH   8   9
ENDBRANCH   6   8
BRANCH   6  11
ATOM     11  C   UNL A   1      34.904  35.423  32.459  1.00  0.00     0.310 C 
BRANCH  11  12
ATOM     12  C   UNL A   1      33.505  36.091  32.404  1.00  0.00     0.252 C 
ATOM     13  C   UNL A   1      33.586  37.572  32.115  1.00  0.00     0.170 C 
ATOM     14  O   UNL A   1      32.700  35.575  31.332  1.00  0.00    -0.438 OA
ATOM     15  N   UNL A   1      33.318  37.627  30.727  1.00  0.00    -0.318 N 
ATOM     16  C   UNL A   1      32.795  36.450  30.289  1.00  0.00     0.407 C 
ATOM     17  H   UNL A   1      33.487  38.411  30.155  1.00  0.00     0.167 HD
ATOM     18  O   UNL A   1      32.438  36.226  29.141  1.00  0.00    -0.225 OA
ENDBRANCH  11  12
ENDBRANCH   6  11
ENDBRANCH   5   6
ENDBRANCH   3   5
ENDBRANCH   2   3
ENDBRANCH   1   2
BRANCH   1  19
ATOM     19  C   UNL A   1      34.894  32.910  28.034  1.00  0.00     0.275 C 
BRANCH  19  20
ATOM     20  O   UNL A   1      34.417  31.681  28.607  1.00  0.00    -0.458 OA
BRANCH  20  21
ATOM     21  C   UNL A   1      34.668  30.544  27.915  1.00  0.00     0.338 C 
ATOM     22  O   UNL A   1      33.930  30.031  27.093  1.00  0.00    -0.246 OA
BRANCH  21  23
ATOM     23  C   UNL A   1      36.048  30.065  28.223  1.00  0.00     0.060 A 
ATOM     24  C   UNL A   1      37.082  30.159  27.285  1.00  0.00     0.016 A 
ATOM     25  C   UNL A   1      36.306  29.450  29.452  1.00  0.00     0.016 A 
ATOM     26  C   UNL A   1      38.334  29.601  27.547  1.00  0.00     0.010 A 
ATOM     27  C   UNL A   1      37.594  28.979  29.752  1.00  0.00     0.010 A 
ATOM     28  C   UNL A   1      38.629  29.054  28.805  1.00  0.00    -0.014 A 
BRANCH  28  29
ATOM     29  C   UNL A   1      40.025  28.656  29.152  1.00  0.00     0.031 A 
ATOM     30  C   UNL A   1      40.956  29.592  29.880  1.00  0.00     0.074 A 
ATOM     31  C   UNL A   1      40.487  27.448  28.767  1.00  0.00     0.049 A 
ATOM     32  N   UNL A   1      42.248  29.486  30.077  1.00  0.00    -0.248 NA
ATOM     33  C   UNL A   1      40.361  30.807  30.453  1.00  0.00     0.031 C 
ATOM     34  C   UNL A   1      39.707  26.423  28.067  1.00  0.00     0.029 A 
ATOM     35  N   UNL A   1      41.730  26.876  28.901  1.00  0.00    -0.354 N 
ATOM     36  C   UNL A   1      42.631  30.641  30.749  1.00  0.00     0.074 A 
ATOM     37  C   UNL A   1      41.429  31.432  30.931  1.00  0.00     0.031 C 
ATOM     38  C   UNL A   1      40.474  25.344  27.863  1.00  0.00     0.029 A 
ATOM     39  C   UNL A   1      41.824  25.629  28.328  1.00  0.00     0.049 A 
ATOM     40  H   UNL A   1      42.479  27.316  29.363  1.00  0.00     0.167 HD
ATOM     41  C   UNL A   1      43.866  31.011  31.167  1.00  0.00     0.037 A 
ATOM     42  C   UNL A   1      42.882  24.819  28.141  1.00  0.00     0.037 A 
ATOM     43  C   UNL A   1      45.058  30.212  31.018  1.00  0.00     0.049 A 
ATOM     44  C   UNL A   1      44.242  25.262  28.589  1.00  0.00     0.074 A 
ATOM     45  C   UNL A   1      46.351  30.503  31.426  1.00  0.00     0.029 A 
ATOM     46  N   UNL A   1      45.106  28.960  30.423  1.00  0.00    -0.354 N 
ATOM     47  N   UNL A   1      44.594  26.375  29.184  1.00  0.00    -0.248 NA
ATOM     48  C   UNL A   1      45.356  24.342  28.323  1.00  0.00     0.031 C 
ATOM     49  C   UNL A   1      47.184  29.443  31.048  1.00  0.00     0.029 A 
ATOM     50  C   UNL A   1      46.404  28.472  30.445  1.00  0.00     0.049 A 
ATOM     51  H   UNL A   1      44.332  28.487  30.041  1.00  0.00     0.167 HD
ATOM     52  C   UNL A   1      45.965  26.284  29.374  1.00  0.00     0.074 A 
ATOM     53  C   UNL A   1      46.378  24.997  28.853  1.00  0.00     0.031 C 
ATOM     54  C   UNL A   1      46.808  27.192  29.925  1.00  0.00     0.037 A 
BRANCH  41  55
ATOM     55  C   UNL A   1      44.009  32.365  31.803  1.00  0.00     0.057 A 
ATOM     56  C   UNL A   1      43.923  32.552  33.189  1.00  0.00     0.134 A 
ATOM     57  C   UNL A   1      44.287  33.492  31.018  1.00  0.00     0.134 A 
ATOM     58  F   UNL A   1      43.651  31.516  33.998  1.00  0.00    -0.206 F 
ATOM     59  C   UNL A   1      44.086  33.813  33.767  1.00  0.00     0.040 A 
ATOM     60  C   UNL A   1      44.475  34.753  31.585  1.00  0.00     0.040 A 
ATOM     61  F   UNL A   1      44.393  33.383  29.684  1.00  0.00    -0.206 F 
ATOM     62  C   UNL A   1      44.370  34.917  32.965  1.00  0.00     0.006 A 
ENDBRANCH  41  55
BRANCH  42  63
ATOM     63  C   UNL A   1      42.700  23.516  27.453  1.00  0.00     0.057 A 
ATOM     64  C   UNL A   1      42.312  22.374  28.163  1.00  0.00     0.134 A 
ATOM     65  C   UNL A   1      42.906  23.382  26.074  1.00  0.00     0.134 A 
ATOM     66  F   UNL A   1      42.123  22.437  29.490  1.00  0.00    -0.206 F 
ATOM     67  C   UNL A   1      42.145  21.144  27.528  1.00  0.00     0.040 A 
ATOM     68  C   UNL A   1      42.714  22.165  25.423  1.00  0.00     0.040 A 
ATOM     69  F   UNL A   1      43.274  24.442  25.339  1.00  0.00    -0.206 F 
ATOM     70  C   UNL A   1      42.339  21.038  26.152  1.00  0.00     0.006 A 
ENDBRANCH  42  63
BRANCH  54  71
ATOM     71  C   UNL A   1      48.254  26.801  30.020  1.00  0.00     0.057 A 
ATOM     72  C   UNL A   1      48.744  26.035  31.086  1.00  0.00     0.134 A 
ATOM     73  C   UNL A   1      49.168  27.204  29.038  1.00  0.00     0.134 A 
ATOM     74  F   UNL A   1      47.924  25.634  32.069  1.00  0.00    -0.206 F 
ATOM     75  C   UNL A   1      50.098  25.709  31.188  1.00  0.00     0.040 A 
ATOM     76  C   UNL A   1      50.519  26.864  29.117  1.00  0.00     0.040 A 
ATOM     77  F   UNL A   1      48.763  27.936  27.990  1.00  0.00    -0.206 F 
ATOM     78  C   UNL A   1      50.989  26.122  30.199  1.00  0.00     0.006 A 
ENDBRANCH  54  71
ENDBRANCH  28  29
ENDBRANCH  21  23
ENDBRANCH  20  21
ENDBRANCH  19  20
ENDBRANCH   1  19
TORSDOF 16
ENDMDL
MODEL 2
REMARK VINA RESULT:      -9.5      1.677      3.341
REMARK SMILES C=CC[N@H+](CC(=O)OCCOC(=O)c1ccc(-c2c3nc(c(-c4c(F)cccc4F)c4ccc([nH]4)c(-c4c(F)cccc4F)c4nc(c(-c5c(F)cccc5F)c5ccc2[nH]5)C=C4)C=C3)cc1)C[C@H]1CNC(=O)O1
REMARK SMILES IDX 9 1 8 2 6 3 7 4 5 5 4 6 3 8 2 9 1 10 68 11 69 12 70 13 74 14
REMARK SMILES IDX 71 15 72 16 73 18 10 19 11 20 12 21 13 22 14 23 15 24 67 25
REMARK SMILES IDX 16 26 66 27 17 28 18 29 19 30 60 31 20 32 65 33 59 34 61 35
REMARK SMILES IDX 21 36 64 37 58 38 57 39 22 41 48 42 31 43 47 44 32 45 35 46
REMARK SMILES IDX 46 47 62 48 33 49 34 50 45 52 63 53 36 54 23 55 24 56 29 57
REMARK SMILES IDX 25 58 26 59 28 60 30 61 27 62 49 63 50 64 55 65 51 66 52 67
REMARK SMILES IDX 54 68 56 69 53 70 37 71 38 72 43 73 39 74 40 75 42 76 44 77
REMARK SMILES IDX 41 78
REMARK H PARENT 4 7 71 17 61 40 35 51
REMARK Flexibility Score: inf
ROOT
ATOM      1  C   UNL A   1      34.222  33.646  28.930  1.00  0.00     0.274 C 
ENDROOT
BRANCH   1   2
ATOM      2  O   UNL A   1      34.277  33.303  30.335  1.00  0.00    -0.458 OA
BRANCH   2   3
ATOM      3  C   UNL A   1      34.027  34.318  31.208  1.00  0.00     0.361 C 
ATOM      4  O   UNL A   1      33.035  35.042  31.161  1.00  0.00    -0.245 OA
BRANCH   3   5
ATOM      5  C   UNL A   1      35.154  34.578  32.212  1.00  0.00     0.386 C 
BRANCH   5   6
ATOM      6  N   UNL A   1      36.279  33.638  32.119  1.00  0.00    -0.319 N 
ATOM      7  H   UNL A   1      36.036  33.000  31.362  1.00  0.00     0.348 HD
BRANCH   6   8
ATOM      8  C   UNL A   1      37.504  34.228  31.575  1.00  0.00     0.290 C 
BRANCH   8   9
ATOM      9  C   UNL A   1      37.763  34.056  30.103  1.00  0.00     0.025 C 
ATOM     10  C   UNL A   1      38.023  32.889  29.501  1.00  0.00     0.010 C 
ENDBRANCH   8   9
ENDBRANCH   6   8
BRANCH   6  11
ATOM     11  C   UNL A   1      36.363  32.601  33.149  1.00  0.00     0.310 C 
BRANCH  11  12
ATOM     12  C   UNL A   1      37.760  31.933  33.260  1.00  0.00     0.252 C 
ATOM     13  C   UNL A   1      38.092  31.529  34.677  1.00  0.00     0.170 C 
ATOM     14  O   UNL A   1      37.831  30.701  32.524  1.00  0.00    -0.438 OA
ATOM     15  N   UNL A   1      37.781  30.148  34.681  1.00  0.00    -0.318 N 
ATOM     16  C   UNL A   1      37.639  29.681  33.411  1.00  0.00     0.407 C 
ATOM     17  H   UNL A   1      37.682  29.599  35.493  1.00  0.00     0.167 HD
ATOM     18  O   UNL A   1      37.402  28.519  33.114  1.00  0.00    -0.225 OA
ENDBRANCH  11  12
ENDBRANCH   6  11
ENDBRANCH   5   6
ENDBRANCH   3   5
ENDBRANCH   2   3
ENDBRANCH   1   2
BRANCH   1  19
ATOM     19  C   UNL A   1      34.567  32.464  28.020  1.00  0.00     0.275 C 
BRANCH  19  20
ATOM     20  O   UNL A   1      34.701  31.275  28.816  1.00  0.00    -0.458 OA
BRANCH  20  21
ATOM     21  C   UNL A   1      34.965  30.122  28.156  1.00  0.00     0.338 C 
ATOM     22  O   UNL A   1      34.182  29.504  27.457  1.00  0.00    -0.246 OA
BRANCH  21  23
ATOM     23  C   UNL A   1      36.407  29.772  28.317  1.00  0.00     0.060 A 
ATOM     24  C   UNL A   1      36.909  29.268  29.522  1.00  0.00     0.016 A 
ATOM     25  C   UNL A   1      37.296  30.010  27.263  1.00  0.00     0.016 A 
ATOM     26  C   UNL A   1      38.278  29.057  29.691  1.00  0.00     0.010 A 
ATOM     27  C   UNL A   1      38.659  29.702  27.403  1.00  0.00     0.010 A 
ATOM     28  C   UNL A   1      39.168  29.215  28.618  1.00  0.00    -0.014 A 
BRANCH  28  29
ATOM     29  C   UNL A   1      40.592  28.783  28.742  1.00  0.00     0.031 A 
ATOM     30  C   UNL A   1      41.675  29.742  29.162  1.00  0.00     0.074 A 
ATOM     31  C   UNL A   1      40.930  27.515  28.425  1.00  0.00     0.049 A 
ATOM     32  N   UNL A   1      42.977  29.588  29.124  1.00  0.00    -0.248 NA
ATOM     33  C   UNL A   1      41.241  31.044  29.687  1.00  0.00     0.031 C 
ATOM     34  C   UNL A   1      39.997  26.463  28.013  1.00  0.00     0.029 A 
ATOM     35  N   UNL A   1      42.157  26.895  28.390  1.00  0.00    -0.354 N 
ATOM     36  C   UNL A   1      43.519  30.789  29.568  1.00  0.00     0.074 A 
ATOM     37  C   UNL A   1      42.402  31.659  29.876  1.00  0.00     0.031 C 
ATOM     38  C   UNL A   1      40.675  25.327  27.800  1.00  0.00     0.029 A 
ATOM     39  C   UNL A   1      42.099  25.588  27.964  1.00  0.00     0.049 A 
ATOM     40  H   UNL A   1      42.996  27.342  28.646  1.00  0.00     0.167 HD
ATOM     41  C   UNL A   1      44.824  31.135  29.698  1.00  0.00     0.037 A 
ATOM     42  C   UNL A   1      43.073  24.705  27.680  1.00  0.00     0.037 A 
ATOM     43  C   UNL A   1      45.938  30.260  29.424  1.00  0.00     0.049 A 
ATOM     44  C   UNL A   1      44.508  25.121  27.807  1.00  0.00     0.074 A 
ATOM     45  C   UNL A   1      47.294  30.523  29.543  1.00  0.00     0.029 A 
ATOM     46  N   UNL A   1      45.829  28.948  28.986  1.00  0.00    -0.354 N 
ATOM     47  N   UNL A   1      45.004  26.273  28.187  1.00  0.00    -0.248 NA
ATOM     48  C   UNL A   1      45.519  24.117  27.449  1.00  0.00     0.031 C 
ATOM     49  C   UNL A   1      48.003  29.384  29.146  1.00  0.00     0.029 A 
ATOM     50  C   UNL A   1      47.091  28.396  28.822  1.00  0.00     0.049 A 
ATOM     51  H   UNL A   1      44.981  28.479  28.817  1.00  0.00     0.167 HD
ATOM     52  C   UNL A   1      46.383  26.129  28.125  1.00  0.00     0.074 A 
ATOM     53  C   UNL A   1      46.645  24.771  27.694  1.00  0.00     0.031 C 
ATOM     54  C   UNL A   1      47.345  27.045  28.393  1.00  0.00     0.037 A 
BRANCH  41  55
ATOM     55  C   UNL A   1      45.131  32.542  30.127  1.00  0.00     0.057 A 
ATOM     56  C   UNL A   1      45.261  33.591  29.208  1.00  0.00     0.134 A 
ATOM     57  C   UNL A   1      45.247  32.860  31.487  1.00  0.00     0.134 A 
ATOM     58  F   UNL A   1      45.171  33.354  27.890  1.00  0.00    -0.206 F 
ATOM     59  C   UNL A   1      45.519  34.899  29.624  1.00  0.00     0.040 A 
ATOM     60  C   UNL A   1      45.480  34.167  31.918  1.00  0.00     0.040 A 
ATOM     61  F   UNL A   1      45.122  31.905  32.422  1.00  0.00    -0.206 F 
ATOM     62  C   UNL A   1      45.622  35.191  30.983  1.00  0.00     0.006 A 
ENDBRANCH  41  55
BRANCH  42  63
ATOM     63  C   UNL A   1      42.720  23.346  27.201  1.00  0.00     0.057 A 
ATOM     64  C   UNL A   1      42.715  23.041  25.836  1.00  0.00     0.134 A 
ATOM     65  C   UNL A   1      42.383  22.321  28.095  1.00  0.00     0.134 A 
ATOM     66  F   UNL A   1      43.007  23.989  24.932  1.00  0.00    -0.206 F 
ATOM     67  C   UNL A   1      42.378  21.769  25.375  1.00  0.00     0.040 A 
ATOM     68  C   UNL A   1      42.072  21.038  27.649  1.00  0.00     0.040 A 
ATOM     69  F   UNL A   1      42.375  22.550  29.416  1.00  0.00    -0.206 F 
ATOM     70  C   UNL A   1      42.062  20.760  26.283  1.00  0.00     0.006 A 
ENDBRANCH  42  63
BRANCH  54  71
ATOM     71  C   UNL A   1      48.768  26.589  28.261  1.00  0.00     0.057 A 
ATOM     72  C   UNL A   1      49.445  25.963  29.316  1.00  0.00     0.134 A 
ATOM     73  C   UNL A   1      49.473  26.787  27.066  1.00  0.00     0.134 A 
ATOM     74  F   UNL A   1      48.833  25.762  30.492  1.00  0.00    -0.206 F 
ATOM     75  C   UNL A   1      50.782  25.578  29.197  1.00  0.00     0.040 A 
ATOM     76  C   UNL A   1      50.802  26.384  26.928  1.00  0.00     0.040 A 
ATOM     77  F   UNL A   1      48.882  27.377  26.016  1.00  0.00    -0.206 F 
ATOM     78  C   UNL A   1      51.463  25.785  27.999  1.00  0.00     0.006 A 
ENDBRANCH  54  71
ENDBRANCH  28  29
ENDBRANCH  21  23
ENDBRANCH  20  21
ENDBRANCH  19  20
ENDBRANCH   1  19
TORSDOF 16
ENDMDL
MODEL 3
REMARK VINA RESULT:      -9.3      4.747      8.535
REMARK SMILES C=CC[N@H+](CC(=O)OCCOC(=O)c1ccc(-c2c3nc(c(-c4c(F)cccc4F)c4ccc([nH]4)c(-c4c(F)cccc4F)c4nc(c(-c5c(F)cccc5F)c5ccc2[nH]5)C=C4)C=C3)cc1)C[C@H]1CNC(=O)O1
REMARK SMILES IDX 9 1 8 2 6 3 7 4 5 5 4 6 3 8 2 9 1 10 68 11 69 12 70 13 74 14
REMARK SMILES IDX 71 15 72 16 73 18 10 19 11 20 12 21 13 22 14 23 15 24 67 25
REMARK SMILES IDX 16 26 66 27 17 28 18 29 19 30 60 31 20 32 65 33 59 34 61 35
REMARK SMILES IDX 21 36 64 37 58 38 57 39 22 41 48 42 31 43 47 44 32 45 35 46
REMARK SMILES IDX 46 47 62 48 33 49 34 50 45 52 63 53 36 54 23 55 24 56 29 57
REMARK SMILES IDX 25 58 26 59 28 60 30 61 27 62 49 63 50 64 55 65 51 66 52 67
REMARK SMILES IDX 54 68 56 69 53 70 37 71 38 72 43 73 39 74 40 75 42 76 44 77
REMARK SMILES IDX 41 78
REMARK H PARENT 4 7 71 17 61 40 35 51
REMARK Flexibility Score: inf
ROOT
ATOM      1  C   UNL A   1      34.512  21.480  25.030  1.00  0.00     0.274 C 
ENDROOT
BRANCH   1   2
ATOM      2  O   UNL A   1      34.328  22.134  23.752  1.00  0.00    -0.458 OA
BRANCH   2   3
ATOM      3  C   UNL A   1      35.116  23.220  23.517  1.00  0.00     0.361 C 
ATOM      4  O   UNL A   1      36.082  23.222  22.757  1.00  0.00    -0.245 OA
BRANCH   3   5
ATOM      5  C   UNL A   1      34.777  24.442  24.375  1.00  0.00     0.386 C 
BRANCH   5   6
ATOM      6  N   UNL A   1      33.562  25.157  23.960  1.00  0.00    -0.319 N 
ATOM      7  H   UNL A   1      33.545  26.009  24.520  1.00  0.00     0.348 HD
BRANCH   6   8
ATOM      8  C   UNL A   1      33.638  25.734  22.617  1.00  0.00     0.290 C 
BRANCH   8   9
ATOM      9  C   UNL A   1      33.199  27.163  22.448  1.00  0.00     0.025 C 
ATOM     10  C   UNL A   1      34.009  28.227  22.512  1.00  0.00     0.010 C 
ENDBRANCH   8   9
ENDBRANCH   6   8
BRANCH   6  11
ATOM     11  C   UNL A   1      32.286  24.641  24.462  1.00  0.00     0.310 C 
BRANCH  11  12
ATOM     12  C   UNL A   1      31.850  25.250  25.820  1.00  0.00     0.252 C 
ATOM     13  C   UNL A   1      30.520  25.962  25.730  1.00  0.00     0.170 C 
ATOM     14  O   UNL A   1      31.633  24.242  26.821  1.00  0.00    -0.438 OA
ATOM     15  N   UNL A   1      29.620  24.993  26.234  1.00  0.00    -0.318 N 
ATOM     16  C   UNL A   1      30.291  23.998  26.874  1.00  0.00     0.407 C 
ATOM     17  H   UNL A   1      28.641  25.034  26.136  1.00  0.00     0.167 HD
ATOM     18  O   UNL A   1      29.766  23.047  27.436  1.00  0.00    -0.225 OA
ENDBRANCH  11  12
ENDBRANCH   6  11
ENDBRANCH   5   6
ENDBRANCH   3   5
ENDBRANCH   2   3
ENDBRANCH   1   2
BRANCH   1  19
ATOM     19  C   UNL A   1      35.823  20.693  25.108  1.00  0.00     0.275 C 
BRANCH  19  20
ATOM     20  O   UNL A   1      36.752  21.402  25.945  1.00  0.00    -0.458 OA
BRANCH  20  21
ATOM     21  C   UNL A   1      38.069  21.239  25.673  1.00  0.00     0.338 C 
ATOM     22  O   UNL A   1      38.556  20.335  25.017  1.00  0.00    -0.246 OA
BRANCH  21  23
ATOM     23  C   UNL A   1      38.838  22.403  26.203  1.00  0.00     0.060 A 
ATOM     24  C   UNL A   1      40.000  22.229  26.961  1.00  0.00     0.016 A 
ATOM     25  C   UNL A   1      38.356  23.700  25.994  1.00  0.00     0.016 A 
ATOM     26  C   UNL A   1      40.640  23.324  27.546  1.00  0.00     0.010 A 
ATOM     27  C   UNL A   1      39.057  24.806  26.499  1.00  0.00     0.010 A 
ATOM     28  C   UNL A   1      40.214  24.633  27.277  1.00  0.00    -0.014 A 
BRANCH  28  29
ATOM     29  C   UNL A   1      41.026  25.803  27.726  1.00  0.00     0.031 A 
ATOM     30  C   UNL A   1      40.427  26.908  28.558  1.00  0.00     0.074 A 
ATOM     31  C   UNL A   1      42.315  25.903  27.340  1.00  0.00     0.049 A 
ATOM     32  N   UNL A   1      40.928  28.082  28.858  1.00  0.00    -0.248 NA
ATOM     33  C   UNL A   1      39.092  26.666  29.120  1.00  0.00     0.031 C 
ATOM     34  C   UNL A   1      43.045  24.912  26.544  1.00  0.00     0.029 A 
ATOM     35  N   UNL A   1      43.245  26.894  27.558  1.00  0.00    -0.354 N 
ATOM     36  C   UNL A   1      39.952  28.740  29.597  1.00  0.00     0.074 A 
ATOM     37  C   UNL A   1      38.830  27.828  29.705  1.00  0.00     0.031 C 
ATOM     38  C   UNL A   1      44.307  25.325  26.369  1.00  0.00     0.029 A 
ATOM     39  C   UNL A   1      44.456  26.651  26.953  1.00  0.00     0.049 A 
ATOM     40  H   UNL A   1      43.060  27.698  28.094  1.00  0.00     0.167 HD
ATOM     41  C   UNL A   1      39.985  29.987  30.128  1.00  0.00     0.037 A 
ATOM     42  C   UNL A   1      45.552  27.421  26.828  1.00  0.00     0.037 A 
ATOM     43  C   UNL A   1      41.112  30.884  30.051  1.00  0.00     0.049 A 
ATOM     44  C   UNL A   1      45.553  28.806  27.401  1.00  0.00     0.074 A 
ATOM     45  C   UNL A   1      41.237  32.162  30.574  1.00  0.00     0.029 A 
ATOM     46  N   UNL A   1      42.314  30.597  29.421  1.00  0.00    -0.354 N 
ATOM     47  N   UNL A   1      44.607  29.428  28.060  1.00  0.00    -0.248 NA
ATOM     48  C   UNL A   1      46.771  29.602  27.198  1.00  0.00     0.031 C 
ATOM     49  C   UNL A   1      42.500  32.659  30.232  1.00  0.00     0.029 A 
ATOM     50  C   UNL A   1      43.180  31.676  29.535  1.00  0.00     0.049 A 
ATOM     51  H   UNL A   1      42.522  29.753  28.961  1.00  0.00     0.167 HD
ATOM     52  C   UNL A   1      45.118  30.683  28.359  1.00  0.00     0.074 A 
ATOM     53  C   UNL A   1      46.467  30.725  27.832  1.00  0.00     0.031 C 
ATOM     54  C   UNL A   1      44.518  31.712  29.007  1.00  0.00     0.037 A 
BRANCH  41  55
ATOM     55  C   UNL A   1      38.745  30.482  30.818  1.00  0.00     0.057 A 
ATOM     56  C   UNL A   1      38.528  30.293  32.189  1.00  0.00     0.134 A 
ATOM     57  C   UNL A   1      37.776  31.202  30.106  1.00  0.00     0.134 A 
ATOM     58  F   UNL A   1      39.411  29.603  32.928  1.00  0.00    -0.206 F 
ATOM     59  C   UNL A   1      37.383  30.783  32.821  1.00  0.00     0.040 A 
ATOM     60  C   UNL A   1      36.640  31.719  30.730  1.00  0.00     0.040 A 
ATOM     61  F   UNL A   1      37.927  31.429  28.792  1.00  0.00    -0.206 F 
ATOM     62  C   UNL A   1      36.438  31.505  32.093  1.00  0.00     0.006 A 
ENDBRANCH  41  55
BRANCH  42  63
ATOM     63  C   UNL A   1      46.731  26.909  26.085  1.00  0.00     0.057 A 
ATOM     64  C   UNL A   1      46.924  27.224  24.735  1.00  0.00     0.134 A 
ATOM     65  C   UNL A   1      47.691  26.100  26.705  1.00  0.00     0.134 A 
ATOM     66  F   UNL A   1      46.026  27.976  24.083  1.00  0.00    -0.206 F 
ATOM     67  C   UNL A   1      48.024  26.743  24.026  1.00  0.00     0.040 A 
ATOM     68  C   UNL A   1      48.810  25.636  26.015  1.00  0.00     0.040 A 
ATOM     69  F   UNL A   1      47.563  25.768  27.999  1.00  0.00    -0.206 F 
ATOM     70  C   UNL A   1      48.976  25.952  24.668  1.00  0.00     0.006 A 
ENDBRANCH  42  63
BRANCH  54  71
ATOM     71  C   UNL A   1      45.337  32.952  29.209  1.00  0.00     0.057 A 
ATOM     72  C   UNL A   1      46.164  33.119  30.328  1.00  0.00     0.134 A 
ATOM     73  C   UNL A   1      45.291  33.997  28.277  1.00  0.00     0.134 A 
ATOM     74  F   UNL A   1      46.238  32.165  31.267  1.00  0.00    -0.206 F 
ATOM     75  C   UNL A   1      46.892  34.294  30.528  1.00  0.00     0.040 A 
ATOM     76  C   UNL A   1      46.033  35.166  28.454  1.00  0.00     0.040 A 
ATOM     77  F   UNL A   1      44.522  33.900  27.182  1.00  0.00    -0.206 F 
ATOM     78  C   UNL A   1      46.829  35.321  29.587  1.00  0.00     0.006 A 
ENDBRANCH  54  71
ENDBRANCH  28  29
ENDBRANCH  21  23
ENDBRANCH  20  21
ENDBRANCH  19  20
ENDBRANCH   1  19
TORSDOF 16
ENDMDL
