MODEL 1
REMARK VINA RESULT:     -12.3      0.000      0.000
REMARK SMILES O=C(Cn1nc(-c2ccc(Br)cc2)ccc1=O)N[C@H](C(=O)OCCOC(=O)c1ccc(-c2c3nc(c(-c4c(F)cccc4F)c4ccc([nH]4)c(-c4c(F)cccc4F)c4nc(c(-c5c(F)cccc5F)c5ccc2[nH]5)C=C4)C=C3)cc1)c1ccccc1
REMARK SMILES IDX 23 1 22 2 20 3 21 4 19 5 18 6 1 7 2 8 3 10 4 11 5 12 16 13
REMARK SMILES IDX 6 14 15 15 17 16 14 17 7 18 8 19 13 20 9 21 12 22 10 23
REMARK SMILES IDX 11 24 82 25 83 26 87 27 84 28 86 29 85 30 24 31 25 32 26 33
REMARK SMILES IDX 27 34 28 35 29 36 81 37 30 38 80 39 31 40 32 41 33 42 74 43
REMARK SMILES IDX 34 44 79 45 73 46 75 47 35 48 78 49 72 50 71 51 36 53 62 54
REMARK SMILES IDX 45 55 61 56 46 57 49 58 60 59 76 60 47 61 48 62 59 64 77 65
REMARK SMILES IDX 50 66 37 67 38 68 43 69 39 70 40 71 42 72 44 73 41 74 63 75
REMARK SMILES IDX 64 76 69 77 65 78 66 79 68 80 70 81 67 82 51 83 52 84 57 85
REMARK SMILES IDX 53 86 54 87 56 88 58 89 55 90
REMARK H PARENT 18 9 75 52 49 63
REMARK Flexibility Score: inf
ROOT
ATOM      1  C   UNL A   1      31.771  29.260  27.002  1.00  0.00     0.274 C 
ENDROOT
BRANCH   1   2
ATOM      2  O   UNL A   1      32.314  28.593  25.851  1.00  0.00    -0.460 OA
BRANCH   2   3
ATOM      3  C   UNL A   1      31.486  27.677  25.258  1.00  0.00     0.333 C 
ATOM      4  O   UNL A   1      30.890  26.800  25.878  1.00  0.00    -0.249 OA
BRANCH   3   5
ATOM      5  C   UNL A   1      31.246  28.021  23.763  1.00  0.00     0.223 C 
BRANCH   5   6
ATOM      6  N   UNL A   1      31.446  26.964  22.773  1.00  0.00    -0.337 N 
ATOM      7  O   UNL A   1      33.732  27.165  22.677  1.00  0.00    -0.273 OA
ATOM      8  C   UNL A   1      32.709  26.524  22.440  1.00  0.00     0.242 C 
ATOM      9  H   UNL A   1      30.662  26.559  22.336  1.00  0.00     0.164 HD
BRANCH   8  10
ATOM     10  C   UNL A   1      32.768  25.210  21.670  1.00  0.00     0.248 C 
BRANCH  10  11
ATOM     11  N   UNL A   1      32.854  24.037  22.537  1.00  0.00    -0.220 N 
ATOM     12  N   UNL A   1      34.132  23.742  22.986  1.00  0.00    -0.169 NA
ATOM     13  C   UNL A   1      31.720  23.604  23.223  1.00  0.00     0.267 A 
ATOM     14  C   UNL A   1      34.242  22.856  23.924  1.00  0.00     0.091 A 
ATOM     15  C   UNL A   1      31.907  22.434  24.101  1.00  0.00     0.075 A 
ATOM     16  O   UNL A   1      30.596  24.084  23.128  1.00  0.00    -0.268 OA
ATOM     17  C   UNL A   1      33.130  22.045  24.456  1.00  0.00     0.036 A 
BRANCH  14  18
ATOM     18  C   UNL A   1      35.535  22.682  24.613  1.00  0.00     0.002 A 
ATOM     19  C   UNL A   1      36.116  21.407  24.579  1.00  0.00     0.011 A 
ATOM     20  C   UNL A   1      36.196  23.751  25.221  1.00  0.00     0.011 A 
ATOM     21  C   UNL A   1      37.376  21.204  25.141  1.00  0.00     0.016 A 
ATOM     22  C   UNL A   1      37.453  23.540  25.794  1.00  0.00     0.016 A 
ATOM     23  C   UNL A   1      38.038  22.272  25.745  1.00  0.00     0.018 A 
ATOM     24  Br  UNL A   1      39.749  21.999  26.500  1.00  0.00    -0.051 Br
ENDBRANCH  14  18
ENDBRANCH  10  11
ENDBRANCH   8  10
ENDBRANCH   5   6
BRANCH   5  25
ATOM     25  C   UNL A   1      29.961  28.800  23.500  1.00  0.00    -0.014 A 
ATOM     26  C   UNL A   1      28.777  28.150  23.123  1.00  0.00     0.006 A 
ATOM     27  C   UNL A   1      29.935  30.198  23.654  1.00  0.00     0.006 A 
ATOM     28  C   UNL A   1      27.588  28.868  22.964  1.00  0.00     0.000 A 
ATOM     29  C   UNL A   1      28.746  30.914  23.491  1.00  0.00     0.000 A 
ATOM     30  C   UNL A   1      27.571  30.247  23.157  1.00  0.00     0.000 A 
ENDBRANCH   5  25
ENDBRANCH   3   5
ENDBRANCH   2   3
ENDBRANCH   1   2
BRANCH   1  31
ATOM     31  C   UNL A   1      31.755  30.780  26.824  1.00  0.00     0.275 C 
BRANCH  31  32
ATOM     32  O   UNL A   1      33.061  31.297  26.508  1.00  0.00    -0.458 OA
BRANCH  32  33
ATOM     33  C   UNL A   1      33.517  32.274  27.334  1.00  0.00     0.338 C 
ATOM     34  O   UNL A   1      32.947  33.308  27.627  1.00  0.00    -0.246 OA
BRANCH  33  35
ATOM     35  C   UNL A   1      34.763  31.825  27.996  1.00  0.00     0.060 A 
ATOM     36  C   UNL A   1      35.868  32.666  28.149  1.00  0.00     0.016 A 
ATOM     37  C   UNL A   1      34.812  30.504  28.459  1.00  0.00     0.016 A 
ATOM     38  C   UNL A   1      37.021  32.180  28.770  1.00  0.00     0.010 A 
ATOM     39  C   UNL A   1      35.967  30.014  29.066  1.00  0.00     0.010 A 
ATOM     40  C   UNL A   1      37.075  30.853  29.232  1.00  0.00    -0.014 A 
BRANCH  40  41
ATOM     41  C   UNL A   1      38.260  30.374  29.975  1.00  0.00     0.031 A 
ATOM     42  C   UNL A   1      38.512  30.793  31.389  1.00  0.00     0.074 A 
ATOM     43  C   UNL A   1      39.126  29.565  29.338  1.00  0.00     0.049 A 
ATOM     44  N   UNL A   1      39.440  30.376  32.213  1.00  0.00    -0.248 NA
ATOM     45  C   UNL A   1      37.617  31.816  31.949  1.00  0.00     0.031 C 
ATOM     46  C   UNL A   1      39.006  29.139  27.942  1.00  0.00     0.029 A 
ATOM     47  N   UNL A   1      40.270  28.955  29.779  1.00  0.00    -0.354 N 
ATOM     48  C   UNL A   1      39.222  31.059  33.401  1.00  0.00     0.074 A 
ATOM     49  C   UNL A   1      38.109  31.958  33.173  1.00  0.00     0.031 C 
ATOM     50  C   UNL A   1      40.031  28.324  27.645  1.00  0.00     0.029 A 
ATOM     51  C   UNL A   1      40.875  28.175  28.825  1.00  0.00     0.049 A 
ATOM     52  H   UNL A   1      40.625  29.066  30.690  1.00  0.00     0.167 HD
ATOM     53  C   UNL A   1      39.880  30.926  34.579  1.00  0.00     0.037 A 
ATOM     54  C   UNL A   1      41.981  27.411  28.902  1.00  0.00     0.037 A 
ATOM     55  C   UNL A   1      41.004  30.048  34.788  1.00  0.00     0.049 A 
ATOM     56  C   UNL A   1      42.712  27.311  30.210  1.00  0.00     0.074 A 
ATOM     57  C   UNL A   1      41.707  29.805  35.955  1.00  0.00     0.029 A 
ATOM     58  N   UNL A   1      41.602  29.283  33.796  1.00  0.00    -0.354 N 
ATOM     59  N   UNL A   1      42.430  27.872  31.361  1.00  0.00    -0.248 NA
ATOM     60  C   UNL A   1      43.907  26.457  30.233  1.00  0.00     0.031 C 
ATOM     61  C   UNL A   1      42.758  28.927  35.660  1.00  0.00     0.029 A 
ATOM     62  C   UNL A   1      42.683  28.591  34.318  1.00  0.00     0.049 A 
ATOM     63  H   UNL A   1      41.302  29.238  32.860  1.00  0.00     0.167 HD
ATOM     64  C   UNL A   1      43.392  27.417  32.252  1.00  0.00     0.074 A 
ATOM     65  C   UNL A   1      44.260  26.526  31.510  1.00  0.00     0.031 C 
ATOM     66  C   UNL A   1      43.539  27.708  33.567  1.00  0.00     0.037 A 
BRANCH  53  67
ATOM     67  C   UNL A   1      39.392  31.743  35.738  1.00  0.00     0.057 A 
ATOM     68  C   UNL A   1      38.350  31.289  36.556  1.00  0.00     0.134 A 
ATOM     69  C   UNL A   1      39.926  33.009  36.016  1.00  0.00     0.134 A 
ATOM     70  F   UNL A   1      37.788  30.091  36.340  1.00  0.00    -0.206 F 
ATOM     71  C   UNL A   1      37.857  32.063  37.607  1.00  0.00     0.040 A 
ATOM     72  C   UNL A   1      39.455  33.784  37.077  1.00  0.00     0.040 A 
ATOM     73  F   UNL A   1      40.927  33.502  35.272  1.00  0.00    -0.206 F 
ATOM     74  C   UNL A   1      38.413  33.313  37.873  1.00  0.00     0.006 A 
ENDBRANCH  53  67
BRANCH  54  75
ATOM     75  C   UNL A   1      42.432  26.646  27.717  1.00  0.00     0.057 A 
ATOM     76  C   UNL A   1      42.014  25.328  27.498  1.00  0.00     0.134 A 
ATOM     77  C   UNL A   1      43.294  27.218  26.775  1.00  0.00     0.134 A 
ATOM     78  F   UNL A   1      41.195  24.723  28.369  1.00  0.00    -0.206 F 
ATOM     79  C   UNL A   1      42.441  24.605  26.383  1.00  0.00     0.040 A 
ATOM     80  C   UNL A   1      43.711  26.514  25.645  1.00  0.00     0.040 A 
ATOM     81  F   UNL A   1      43.716  28.482  26.927  1.00  0.00    -0.206 F 
ATOM     82  C   UNL A   1      43.287  25.201  25.449  1.00  0.00     0.006 A 
ENDBRANCH  54  75
BRANCH  66  83
ATOM     83  C   UNL A   1      44.665  27.034  34.290  1.00  0.00     0.057 A 
ATOM     84  C   UNL A   1      44.481  25.780  34.887  1.00  0.00     0.134 A 
ATOM     85  C   UNL A   1      45.925  27.632  34.415  1.00  0.00     0.134 A 
ATOM     86  F   UNL A   1      43.298  25.154  34.807  1.00  0.00    -0.206 F 
ATOM     87  C   UNL A   1      45.511  25.148  35.587  1.00  0.00     0.040 A 
ATOM     88  C   UNL A   1      46.968  27.000  35.092  1.00  0.00     0.040 A 
ATOM     89  F   UNL A   1      46.170  28.825  33.850  1.00  0.00    -0.206 F 
ATOM     90  C   UNL A   1      46.760  25.755  35.685  1.00  0.00     0.006 A 
ENDBRANCH  66  83
ENDBRANCH  40  41
ENDBRANCH  33  35
ENDBRANCH  32  33
ENDBRANCH  31  32
ENDBRANCH   1  31
TORSDOF 16
ENDMDL
MODEL 2
REMARK VINA RESULT:     -11.9      3.560      8.298
REMARK SMILES O=C(Cn1nc(-c2ccc(Br)cc2)ccc1=O)N[C@H](C(=O)OCCOC(=O)c1ccc(-c2c3nc(c(-c4c(F)cccc4F)c4ccc([nH]4)c(-c4c(F)cccc4F)c4nc(c(-c5c(F)cccc5F)c5ccc2[nH]5)C=C4)C=C3)cc1)c1ccccc1
REMARK SMILES IDX 23 1 22 2 20 3 21 4 19 5 18 6 1 7 2 8 3 10 4 11 5 12 16 13
REMARK SMILES IDX 6 14 15 15 17 16 14 17 7 18 8 19 13 20 9 21 12 22 10 23
REMARK SMILES IDX 11 24 82 25 83 26 87 27 84 28 86 29 85 30 24 31 25 32 26 33
REMARK SMILES IDX 27 34 28 35 29 36 81 37 30 38 80 39 31 40 32 41 33 42 74 43
REMARK SMILES IDX 34 44 79 45 73 46 75 47 35 48 78 49 72 50 71 51 36 53 62 54
REMARK SMILES IDX 45 55 61 56 46 57 49 58 60 59 76 60 47 61 48 62 59 64 77 65
REMARK SMILES IDX 50 66 37 67 38 68 43 69 39 70 40 71 42 72 44 73 41 74 63 75
REMARK SMILES IDX 64 76 69 77 65 78 66 79 68 80 70 81 67 82 51 83 52 84 57 85
REMARK SMILES IDX 53 86 54 87 56 88 58 89 55 90
REMARK H PARENT 18 9 75 52 49 63
REMARK Flexibility Score: inf
ROOT
ATOM      1  C   UNL A   1      36.257  21.933  25.731  1.00  0.00     0.274 C 
ENDROOT
BRANCH   1   2
ATOM      2  O   UNL A   1      35.884  21.821  24.349  1.00  0.00    -0.460 OA
BRANCH   2   3
ATOM      3  C   UNL A   1      34.558  22.031  24.079  1.00  0.00     0.333 C 
ATOM      4  O   UNL A   1      34.157  22.766  23.180  1.00  0.00    -0.249 OA
BRANCH   3   5
ATOM      5  C   UNL A   1      33.657  21.074  24.905  1.00  0.00     0.223 C 
BRANCH   5   6
ATOM      6  N   UNL A   1      32.349  21.561  25.337  1.00  0.00    -0.337 N 
ATOM      7  O   UNL A   1      33.114  22.658  27.205  1.00  0.00    -0.273 OA
ATOM      8  C   UNL A   1      32.226  22.456  26.378  1.00  0.00     0.242 C 
ATOM      9  H   UNL A   1      31.539  21.244  24.875  1.00  0.00     0.164 HD
BRANCH   8  10
ATOM     10  C   UNL A   1      30.869  23.140  26.503  1.00  0.00     0.248 C 
BRANCH  10  11
ATOM     11  N   UNL A   1      30.782  24.390  25.753  1.00  0.00    -0.220 N 
ATOM     12  N   UNL A   1      31.309  25.495  26.406  1.00  0.00    -0.169 NA
ATOM     13  C   UNL A   1      30.656  24.352  24.365  1.00  0.00     0.267 A 
ATOM     14  C   UNL A   1      31.459  26.578  25.711  1.00  0.00     0.091 A 
ATOM     15  C   UNL A   1      30.609  25.661  23.687  1.00  0.00     0.075 A 
ATOM     16  O   UNL A   1      30.547  23.340  23.681  1.00  0.00    -0.268 OA
ATOM     17  C   UNL A   1      30.994  26.766  24.324  1.00  0.00     0.036 A 
BRANCH  14  18
ATOM     18  C   UNL A   1      32.238  27.699  26.272  1.00  0.00     0.002 A 
ATOM     19  C   UNL A   1      33.634  27.626  26.171  1.00  0.00     0.011 A 
ATOM     20  C   UNL A   1      31.620  28.823  26.823  1.00  0.00     0.011 A 
ATOM     21  C   UNL A   1      34.417  28.693  26.609  1.00  0.00     0.016 A 
ATOM     22  C   UNL A   1      32.410  29.885  27.273  1.00  0.00     0.016 A 
ATOM     23  C   UNL A   1      33.801  29.818  27.157  1.00  0.00     0.018 A 
ATOM     24  Br  UNL A   1      34.862  31.269  27.742  1.00  0.00    -0.051 Br
ENDBRANCH  14  18
ENDBRANCH  10  11
ENDBRANCH   8  10
ENDBRANCH   5   6
BRANCH   5  25
ATOM     25  C   UNL A   1      33.571  19.658  24.344  1.00  0.00    -0.014 A 
ATOM     26  C   UNL A   1      32.519  19.269  23.501  1.00  0.00     0.006 A 
ATOM     27  C   UNL A   1      34.567  18.713  24.647  1.00  0.00     0.006 A 
ATOM     28  C   UNL A   1      32.496  17.994  22.931  1.00  0.00     0.000 A 
ATOM     29  C   UNL A   1      34.540  17.436  24.077  1.00  0.00     0.000 A 
ATOM     30  C   UNL A   1      33.511  17.082  23.211  1.00  0.00     0.000 A 
ENDBRANCH   5  25
ENDBRANCH   3   5
ENDBRANCH   2   3
ENDBRANCH   1   2
BRANCH   1  31
ATOM     31  C   UNL A   1      36.452  23.392  26.152  1.00  0.00     0.275 C 
BRANCH  31  32
ATOM     32  O   UNL A   1      37.641  23.962  25.577  1.00  0.00    -0.458 OA
BRANCH  32  33
ATOM     33  C   UNL A   1      38.806  23.616  26.183  1.00  0.00     0.338 C 
ATOM     34  O   UNL A   1      39.440  22.590  26.018  1.00  0.00    -0.246 OA
BRANCH  33  35
ATOM     35  C   UNL A   1      39.319  24.762  26.967  1.00  0.00     0.060 A 
ATOM     36  C   UNL A   1      40.127  25.750  26.400  1.00  0.00     0.016 A 
ATOM     37  C   UNL A   1      38.981  24.822  28.326  1.00  0.00     0.016 A 
ATOM     38  C   UNL A   1      40.592  26.799  27.196  1.00  0.00     0.010 A 
ATOM     39  C   UNL A   1      39.455  25.860  29.124  1.00  0.00     0.010 A 
ATOM     40  C   UNL A   1      40.257  26.859  28.561  1.00  0.00    -0.014 A 
BRANCH  40  41
ATOM     41  C   UNL A   1      40.671  28.022  29.375  1.00  0.00     0.031 A 
ATOM     42  C   UNL A   1      42.068  28.149  29.895  1.00  0.00     0.074 A 
ATOM     43  C   UNL A   1      39.749  28.960  29.660  1.00  0.00     0.049 A 
ATOM     44  N   UNL A   1      42.619  29.155  30.526  1.00  0.00    -0.248 NA
ATOM     45  C   UNL A   1      42.961  26.999  29.690  1.00  0.00     0.031 C 
ATOM     46  C   UNL A   1      38.344  28.907  29.252  1.00  0.00     0.029 A 
ATOM     47  N   UNL A   1      39.854  30.136  30.353  1.00  0.00    -0.354 N 
ATOM     48  C   UNL A   1      43.932  28.777  30.764  1.00  0.00     0.074 A 
ATOM     49  C   UNL A   1      44.080  27.426  30.261  1.00  0.00     0.031 C 
ATOM     50  C   UNL A   1      37.720  30.013  29.690  1.00  0.00     0.029 A 
ATOM     51  C   UNL A   1      38.679  30.844  30.410  1.00  0.00     0.049 A 
ATOM     52  H   UNL A   1      40.690  30.444  30.771  1.00  0.00     0.167 HD
ATOM     53  C   UNL A   1      44.926  29.503  31.333  1.00  0.00     0.037 A 
ATOM     54  C   UNL A   1      38.412  32.039  30.968  1.00  0.00     0.037 A 
ATOM     55  C   UNL A   1      44.761  30.836  31.856  1.00  0.00     0.049 A 
ATOM     56  C   UNL A   1      39.523  32.806  31.624  1.00  0.00     0.074 A 
ATOM     57  C   UNL A   1      45.716  31.674  32.405  1.00  0.00     0.029 A 
ATOM     58  N   UNL A   1      43.553  31.518  31.913  1.00  0.00    -0.354 N 
ATOM     59  N   UNL A   1      40.789  32.488  31.743  1.00  0.00    -0.248 NA
ATOM     60  C   UNL A   1      39.171  34.107  32.209  1.00  0.00     0.031 C 
ATOM     61  C   UNL A   1      45.078  32.845  32.835  1.00  0.00     0.029 A 
ATOM     62  C   UNL A   1      43.733  32.753  32.514  1.00  0.00     0.049 A 
ATOM     63  H   UNL A   1      42.695  31.174  31.574  1.00  0.00     0.167 HD
ATOM     64  C   UNL A   1      41.391  33.560  32.388  1.00  0.00     0.074 A 
ATOM     65  C   UNL A   1      40.352  34.541  32.626  1.00  0.00     0.031 C 
ATOM     66  C   UNL A   1      42.688  33.718  32.745  1.00  0.00     0.037 A 
BRANCH  53  67
ATOM     67  C   UNL A   1      46.285  28.874  31.408  1.00  0.00     0.057 A 
ATOM     68  C   UNL A   1      46.715  28.219  32.568  1.00  0.00     0.134 A 
ATOM     69  C   UNL A   1      47.190  28.960  30.341  1.00  0.00     0.134 A 
ATOM     70  F   UNL A   1      45.903  28.108  33.630  1.00  0.00    -0.206 F 
ATOM     71  C   UNL A   1      47.996  27.672  32.665  1.00  0.00     0.040 A 
ATOM     72  C   UNL A   1      48.466  28.399  30.419  1.00  0.00     0.040 A 
ATOM     73  F   UNL A   1      46.840  29.573  29.201  1.00  0.00    -0.206 F 
ATOM     74  C   UNL A   1      48.874  27.758  31.586  1.00  0.00     0.006 A 
ENDBRANCH  53  67
BRANCH  54  75
ATOM     75  C   UNL A   1      37.044  32.601  30.886  1.00  0.00     0.057 A 
ATOM     76  C   UNL A   1      36.699  33.541  29.909  1.00  0.00     0.134 A 
ATOM     77  C   UNL A   1      36.048  32.206  31.787  1.00  0.00     0.134 A 
ATOM     78  F   UNL A   1      37.612  33.964  29.023  1.00  0.00    -0.206 F 
ATOM     79  C   UNL A   1      35.411  34.073  29.833  1.00  0.00     0.040 A 
ATOM     80  C   UNL A   1      34.751  32.715  31.709  1.00  0.00     0.040 A 
ATOM     81  F   UNL A   1      36.318  31.298  32.736  1.00  0.00    -0.206 F 
ATOM     82  C   UNL A   1      34.431  33.654  30.732  1.00  0.00     0.006 A 
ENDBRANCH  54  75
BRANCH  66  83
ATOM     83  C   UNL A   1      43.057  35.011  33.407  1.00  0.00     0.057 A 
ATOM     84  C   UNL A   1      43.011  35.138  34.802  1.00  0.00     0.134 A 
ATOM     85  C   UNL A   1      43.437  36.138  32.667  1.00  0.00     0.134 A 
ATOM     86  F   UNL A   1      42.653  34.098  35.569  1.00  0.00    -0.206 F 
ATOM     87  C   UNL A   1      43.326  36.341  35.435  1.00  0.00     0.040 A 
ATOM     88  C   UNL A   1      43.777  37.339  33.290  1.00  0.00     0.040 A 
ATOM     89  F   UNL A   1      43.517  36.076  31.329  1.00  0.00    -0.206 F 
ATOM     90  C   UNL A   1      43.717  37.444  34.680  1.00  0.00     0.006 A 
ENDBRANCH  66  83
ENDBRANCH  40  41
ENDBRANCH  33  35
ENDBRANCH  32  33
ENDBRANCH  31  32
ENDBRANCH   1  31
TORSDOF 16
ENDMDL
MODEL 3
REMARK VINA RESULT:     -11.9      4.171      9.387
REMARK SMILES O=C(Cn1nc(-c2ccc(Br)cc2)ccc1=O)N[C@H](C(=O)OCCOC(=O)c1ccc(-c2c3nc(c(-c4c(F)cccc4F)c4ccc([nH]4)c(-c4c(F)cccc4F)c4nc(c(-c5c(F)cccc5F)c5ccc2[nH]5)C=C4)C=C3)cc1)c1ccccc1
REMARK SMILES IDX 23 1 22 2 20 3 21 4 19 5 18 6 1 7 2 8 3 10 4 11 5 12 16 13
REMARK SMILES IDX 6 14 15 15 17 16 14 17 7 18 8 19 13 20 9 21 12 22 10 23
REMARK SMILES IDX 11 24 82 25 83 26 87 27 84 28 86 29 85 30 24 31 25 32 26 33
REMARK SMILES IDX 27 34 28 35 29 36 81 37 30 38 80 39 31 40 32 41 33 42 74 43
REMARK SMILES IDX 34 44 79 45 73 46 75 47 35 48 78 49 72 50 71 51 36 53 62 54
REMARK SMILES IDX 45 55 61 56 46 57 49 58 60 59 76 60 47 61 48 62 59 64 77 65
REMARK SMILES IDX 50 66 37 67 38 68 43 69 39 70 40 71 42 72 44 73 41 74 63 75
REMARK SMILES IDX 64 76 69 77 65 78 66 79 68 80 70 81 67 82 51 83 52 84 57 85
REMARK SMILES IDX 53 86 54 87 56 88 58 89 55 90
REMARK H PARENT 18 9 75 52 49 63
REMARK Flexibility Score: inf
ROOT
ATOM      1  C   UNL A   1      36.435  21.471  24.882  1.00  0.00     0.274 C 
ENDROOT
BRANCH   1   2
ATOM      2  O   UNL A   1      35.306  21.395  25.767  1.00  0.00    -0.460 OA
BRANCH   2   3
ATOM      3  C   UNL A   1      34.151  21.963  25.298  1.00  0.00     0.333 C 
ATOM      4  O   UNL A   1      34.130  22.885  24.487  1.00  0.00    -0.249 OA
BRANCH   3   5
ATOM      5  C   UNL A   1      32.904  21.161  25.758  1.00  0.00     0.223 C 
BRANCH   5   6
ATOM      6  N   UNL A   1      31.634  21.874  25.879  1.00  0.00    -0.337 N 
ATOM      7  O   UNL A   1      32.245  23.126  27.705  1.00  0.00    -0.273 OA
ATOM      8  C   UNL A   1      31.483  22.922  26.761  1.00  0.00     0.242 C 
ATOM      9  H   UNL A   1      30.871  21.600  25.320  1.00  0.00     0.164 HD
BRANCH   8  10
ATOM     10  C   UNL A   1      30.246  23.788  26.551  1.00  0.00     0.248 C 
BRANCH  10  11
ATOM     11  N   UNL A   1      30.476  24.912  25.647  1.00  0.00    -0.220 N 
ATOM     12  N   UNL A   1      30.994  26.047  26.253  1.00  0.00    -0.169 NA
ATOM     13  C   UNL A   1      30.635  24.675  24.282  1.00  0.00     0.267 A 
ATOM     14  C   UNL A   1      31.422  26.992  25.477  1.00  0.00     0.091 A 
ATOM     15  C   UNL A   1      30.897  25.864  23.449  1.00  0.00     0.075 A 
ATOM     16  O   UNL A   1      30.540  23.587  23.726  1.00  0.00    -0.268 OA
ATOM     17  C   UNL A   1      31.280  27.010  24.009  1.00  0.00     0.036 A 
BRANCH  14  18
ATOM     18  C   UNL A   1      32.206  28.103  26.049  1.00  0.00     0.002 A 
ATOM     19  C   UNL A   1      31.654  29.389  25.969  1.00  0.00     0.011 A 
ATOM     20  C   UNL A   1      33.419  27.888  26.706  1.00  0.00     0.011 A 
ATOM     21  C   UNL A   1      32.311  30.464  26.565  1.00  0.00     0.016 A 
ATOM     22  C   UNL A   1      34.081  28.971  27.291  1.00  0.00     0.016 A 
ATOM     23  C   UNL A   1      33.521  30.249  27.224  1.00  0.00     0.018 A 
ATOM     24  Br  UNL A   1      34.408  31.706  28.040  1.00  0.00    -0.051 Br
ENDBRANCH  14  18
ENDBRANCH  10  11
ENDBRANCH   8  10
ENDBRANCH   5   6
BRANCH   5  25
ATOM     25  C   UNL A   1      32.728  19.819  25.052  1.00  0.00    -0.014 A 
ATOM     26  C   UNL A   1      32.471  19.747  23.675  1.00  0.00     0.006 A 
ATOM     27  C   UNL A   1      32.846  18.618  25.772  1.00  0.00     0.006 A 
ATOM     28  C   UNL A   1      32.392  18.511  23.027  1.00  0.00     0.000 A 
ATOM     29  C   UNL A   1      32.763  17.382  25.123  1.00  0.00     0.000 A 
ATOM     30  C   UNL A   1      32.548  17.330  23.749  1.00  0.00     0.000 A 
ENDBRANCH   5  25
ENDBRANCH   3   5
ENDBRANCH   2   3
ENDBRANCH   1   2
BRANCH   1  31
ATOM     31  C   UNL A   1      37.460  20.371  25.171  1.00  0.00     0.275 C 
BRANCH  31  32
ATOM     32  O   UNL A   1      38.808  20.870  25.132  1.00  0.00    -0.458 OA
BRANCH  32  33
ATOM     33  C   UNL A   1      39.529  20.694  26.270  1.00  0.00     0.338 C 
ATOM     34  O   UNL A   1      39.799  19.636  26.807  1.00  0.00    -0.246 OA
BRANCH  33  35
ATOM     35  C   UNL A   1      40.115  21.985  26.694  1.00  0.00     0.060 A 
ATOM     36  C   UNL A   1      41.263  22.057  27.486  1.00  0.00     0.016 A 
ATOM     37  C   UNL A   1      39.465  23.158  26.288  1.00  0.00     0.016 A 
ATOM     38  C   UNL A   1      41.759  23.305  27.867  1.00  0.00     0.010 A 
ATOM     39  C   UNL A   1      39.951  24.403  26.678  1.00  0.00     0.010 A 
ATOM     40  C   UNL A   1      41.107  24.484  27.463  1.00  0.00    -0.014 A 
BRANCH  40  41
ATOM     41  C   UNL A   1      41.691  25.803  27.786  1.00  0.00     0.031 A 
ATOM     42  C   UNL A   1      43.073  26.170  27.343  1.00  0.00     0.074 A 
ATOM     43  C   UNL A   1      40.956  26.663  28.514  1.00  0.00     0.049 A 
ATOM     44  N   UNL A   1      43.686  27.322  27.447  1.00  0.00    -0.248 NA
ATOM     45  C   UNL A   1      43.871  25.111  26.709  1.00  0.00     0.031 C 
ATOM     46  C   UNL A   1      39.621  26.386  29.046  1.00  0.00     0.029 A 
ATOM     47  N   UNL A   1      41.225  27.941  28.927  1.00  0.00    -0.354 N 
ATOM     48  C   UNL A   1      44.931  27.139  26.862  1.00  0.00     0.074 A 
ATOM     49  C   UNL A   1      45.006  25.750  26.457  1.00  0.00     0.031 C 
ATOM     50  C   UNL A   1      39.180  27.470  29.704  1.00  0.00     0.029 A 
ATOM     51  C   UNL A   1      40.200  28.511  29.642  1.00  0.00     0.049 A 
ATOM     52  H   UNL A   1      42.070  28.406  28.732  1.00  0.00     0.167 HD
ATOM     53  C   UNL A   1      45.910  28.056  26.666  1.00  0.00     0.037 A 
ATOM     54  C   UNL A   1      40.092  29.742  30.173  1.00  0.00     0.037 A 
ATOM     55  C   UNL A   1      45.836  29.429  27.099  1.00  0.00     0.049 A 
ATOM     56  C   UNL A   1      41.207  30.728  29.971  1.00  0.00     0.074 A 
ATOM     57  C   UNL A   1      46.752  30.448  26.903  1.00  0.00     0.029 A 
ATOM     58  N   UNL A   1      44.791  29.969  27.834  1.00  0.00    -0.354 N 
ATOM     59  N   UNL A   1      42.334  30.579  29.317  1.00  0.00    -0.248 NA
ATOM     60  C   UNL A   1      41.028  32.058  30.569  1.00  0.00     0.031 C 
ATOM     61  C   UNL A   1      46.282  31.593  27.558  1.00  0.00     0.029 A 
ATOM     62  C   UNL A   1      45.053  31.298  28.126  1.00  0.00     0.049 A 
ATOM     63  H   UNL A   1      43.981  29.480  28.107  1.00  0.00     0.167 HD
ATOM     64  C   UNL A   1      42.984  31.802  29.397  1.00  0.00     0.074 A 
ATOM     65  C   UNL A   1      42.121  32.685  30.156  1.00  0.00     0.031 C 
ATOM     66  C   UNL A   1      44.184  32.163  28.883  1.00  0.00     0.037 A 
BRANCH  53  67
ATOM     67  C   UNL A   1      47.143  27.605  25.939  1.00  0.00     0.057 A 
ATOM     68  C   UNL A   1      47.217  27.655  24.542  1.00  0.00     0.134 A 
ATOM     69  C   UNL A   1      48.243  27.074  26.626  1.00  0.00     0.134 A 
ATOM     70  F   UNL A   1      46.196  28.143  23.822  1.00  0.00    -0.206 F 
ATOM     71  C   UNL A   1      48.341  27.194  23.855  1.00  0.00     0.040 A 
ATOM     72  C   UNL A   1      49.380  26.629  25.952  1.00  0.00     0.040 A 
ATOM     73  F   UNL A   1      48.235  27.000  27.966  1.00  0.00    -0.206 F 
ATOM     74  C   UNL A   1      49.429  26.682  24.560  1.00  0.00     0.006 A 
ENDBRANCH  53  67
BRANCH  54  75
ATOM     75  C   UNL A   1      38.862  30.124  30.904  1.00  0.00     0.057 A 
ATOM     76  C   UNL A   1      37.798  30.763  30.256  1.00  0.00     0.134 A 
ATOM     77  C   UNL A   1      38.723  29.858  32.271  1.00  0.00     0.134 A 
ATOM     78  F   UNL A   1      37.874  31.052  28.950  1.00  0.00    -0.206 F 
ATOM     79  C   UNL A   1      36.639  31.125  30.944  1.00  0.00     0.040 A 
ATOM     80  C   UNL A   1      37.562  30.196  32.966  1.00  0.00     0.040 A 
ATOM     81  F   UNL A   1      39.705  29.236  32.940  1.00  0.00    -0.206 F 
ATOM     82  C   UNL A   1      36.517  30.836  32.303  1.00  0.00     0.006 A 
ENDBRANCH  54  75
BRANCH  66  83
ATOM     83  C   UNL A   1      44.620  33.580  29.105  1.00  0.00     0.057 A 
ATOM     84  C   UNL A   1      44.269  34.586  28.195  1.00  0.00     0.134 A 
ATOM     85  C   UNL A   1      45.405  33.947  30.205  1.00  0.00     0.134 A 
ATOM     86  F   UNL A   1      43.521  34.301  27.119  1.00  0.00    -0.206 F 
ATOM     87  C   UNL A   1      44.686  35.906  28.371  1.00  0.00     0.040 A 
ATOM     88  C   UNL A   1      45.809  35.268  30.403  1.00  0.00     0.040 A 
ATOM     89  F   UNL A   1      45.760  33.034  31.122  1.00  0.00    -0.206 F 
ATOM     90  C   UNL A   1      45.454  36.252  29.480  1.00  0.00     0.006 A 
ENDBRANCH  66  83
ENDBRANCH  40  41
ENDBRANCH  33  35
ENDBRANCH  32  33
ENDBRANCH  31  32
ENDBRANCH   1  31
TORSDOF 16
ENDMDL
