MODEL 1
REMARK VINA RESULT:     -12.4      0.000      0.000
REMARK SMILES Cc1nn(C)c(C)c1[C@@H](C(=O)OCCOC(=O)c1ccc(-c2c3nc(c(-c4c(F)cccc4F)c4ccc([nH]4)c(-c4c(F)cccc4F)c4nc(c(-c5c(F)cccc5F)c5ccc2[nH]5)C=C4)C=C3)cc1)[NH+]1CCN(c2ccccc2F)CC1
REMARK SMILES IDX 13 1 12 2 10 3 11 4 9 5 8 6 1 7 2 8 3 9 4 10 6 11 5 12 7 13
REMARK SMILES IDX 72 14 73 15 84 16 74 18 83 19 75 20 76 21 77 22 81 23 78 24
REMARK SMILES IDX 80 25 82 26 79 27 14 28 15 29 16 30 17 31 18 32 19 33 71 34
REMARK SMILES IDX 20 35 70 36 21 37 22 38 23 39 64 40 24 41 69 42 63 43 65 44
REMARK SMILES IDX 25 45 68 46 62 47 61 48 26 50 52 51 35 52 51 53 36 54 39 55
REMARK SMILES IDX 50 56 66 57 37 58 38 59 49 61 67 62 40 63 27 64 28 65 33 66
REMARK SMILES IDX 29 67 30 68 32 69 34 70 31 71 53 72 54 73 59 74 55 75 56 76
REMARK SMILES IDX 58 77 60 78 57 79 41 80 42 81 47 82 43 83 44 84 46 85 48 86
REMARK SMILES IDX 45 87
REMARK H PARENT 72 17 65 49 39 60
REMARK Flexibility Score: inf
ROOT
ATOM      1  C   UNL A   1      31.722  28.095  26.786  1.00  0.00     0.274 C 
ENDROOT
BRANCH   1   2
ATOM      2  O   UNL A   1      32.494  26.909  26.503  1.00  0.00    -0.457 OA
BRANCH   2   3
ATOM      3  C   UNL A   1      31.779  25.753  26.377  1.00  0.00     0.370 C 
ATOM      4  O   UNL A   1      30.573  25.681  26.610  1.00  0.00    -0.245 OA
BRANCH   3   5
ATOM      5  C   UNL A   1      32.647  24.515  26.056  1.00  0.00     0.330 C 
BRANCH   5   6
ATOM      6  C   UNL A   1      33.141  24.348  24.643  1.00  0.00     0.065 A 
ATOM      7  C   UNL A   1      35.702  23.955  25.163  1.00  0.00     0.069 C 
ATOM      8  C   UNL A   1      34.502  24.069  24.291  1.00  0.00     0.069 A 
ATOM      9  N   UNL A   1      34.648  23.867  22.981  1.00  0.00    -0.178 NA
ATOM     10  N   UNL A   1      33.421  24.043  22.475  1.00  0.00    -0.272 N 
ATOM     11  C   UNL A   1      32.497  24.446  23.409  1.00  0.00     0.045 A 
ATOM     12  C   UNL A   1      33.234  23.774  21.070  1.00  0.00     0.174 C 
ATOM     13  C   UNL A   1      31.125  24.876  23.026  1.00  0.00     0.067 C 
ENDBRANCH   5   6
BRANCH   5  14
ATOM     14  N   UNL A   1      32.084  23.277  26.640  1.00  0.00    -0.316 N 
ATOM     15  C   UNL A   1      31.232  22.432  25.805  1.00  0.00     0.284 C 
ATOM     16  C   UNL A   1      32.976  22.471  27.487  1.00  0.00     0.284 C 
ATOM     17  H   UNL A   1      31.432  23.745  27.270  1.00  0.00     0.349 HD
ATOM     18  C   UNL A   1      31.885  21.225  25.106  1.00  0.00     0.178 C 
ATOM     19  C   UNL A   1      33.700  21.288  26.798  1.00  0.00     0.178 C 
ATOM     20  N   UNL A   1      32.756  20.481  26.013  1.00  0.00    -0.358 N 
BRANCH  20  21
ATOM     21  C   UNL A   1      33.253  19.271  25.522  1.00  0.00     0.073 A 
ATOM     22  C   UNL A   1      32.633  18.046  25.813  1.00  0.00     0.029 A 
ATOM     23  C   UNL A   1      34.416  19.239  24.736  1.00  0.00     0.146 A 
ATOM     24  C   UNL A   1      33.178  16.836  25.373  1.00  0.00     0.002 A 
ATOM     25  C   UNL A   1      34.969  18.036  24.297  1.00  0.00     0.041 A 
ATOM     26  F   UNL A   1      35.040  20.382  24.412  1.00  0.00    -0.205 F 
ATOM     27  C   UNL A   1      34.351  16.830  24.624  1.00  0.00     0.003 A 
ENDBRANCH  20  21
ENDBRANCH   5  14
ENDBRANCH   3   5
ENDBRANCH   2   3
ENDBRANCH   1   2
BRANCH   1  28
ATOM     28  C   UNL A   1      31.796  29.110  25.648  1.00  0.00     0.275 C 
BRANCH  28  29
ATOM     29  O   UNL A   1      32.999  29.889  25.759  1.00  0.00    -0.458 OA
BRANCH  29  30
ATOM     30  C   UNL A   1      33.002  30.849  26.707  1.00  0.00     0.338 C 
ATOM     31  O   UNL A   1      32.104  31.651  26.937  1.00  0.00    -0.246 OA
BRANCH  30  32
ATOM     32  C   UNL A   1      34.247  30.803  27.509  1.00  0.00     0.060 A 
ATOM     33  C   UNL A   1      35.007  31.948  27.759  1.00  0.00     0.016 A 
ATOM     34  C   UNL A   1      34.725  29.559  27.928  1.00  0.00     0.016 A 
ATOM     35  C   UNL A   1      36.277  31.839  28.331  1.00  0.00     0.010 A 
ATOM     36  C   UNL A   1      35.950  29.468  28.595  1.00  0.00     0.010 A 
ATOM     37  C   UNL A   1      36.754  30.604  28.786  1.00  0.00    -0.014 A 
BRANCH  37  38
ATOM     38  C   UNL A   1      38.063  30.465  29.486  1.00  0.00     0.031 A 
ATOM     39  C   UNL A   1      39.154  29.617  28.890  1.00  0.00     0.074 A 
ATOM     40  C   UNL A   1      38.257  31.028  30.695  1.00  0.00     0.049 A 
ATOM     41  N   UNL A   1      40.174  29.046  29.478  1.00  0.00    -0.248 NA
ATOM     42  C   UNL A   1      39.072  29.361  27.444  1.00  0.00     0.031 C 
ATOM     43  C   UNL A   1      37.332  31.937  31.375  1.00  0.00     0.029 A 
ATOM     44  N   UNL A   1      39.297  30.890  31.582  1.00  0.00    -0.354 N 
ATOM     45  C   UNL A   1      40.818  28.311  28.491  1.00  0.00     0.074 A 
ATOM     46  C   UNL A   1      40.084  28.522  27.260  1.00  0.00     0.031 C 
ATOM     47  C   UNL A   1      37.846  32.280  32.565  1.00  0.00     0.029 A 
ATOM     48  C   UNL A   1      39.076  31.530  32.779  1.00  0.00     0.049 A 
ATOM     49  H   UNL A   1      40.118  30.385  31.382  1.00  0.00     0.167 HD
ATOM     50  C   UNL A   1      41.913  27.522  28.611  1.00  0.00     0.037 A 
ATOM     51  C   UNL A   1      39.735  31.462  33.950  1.00  0.00     0.037 A 
ATOM     52  C   UNL A   1      42.671  27.367  29.827  1.00  0.00     0.049 A 
ATOM     53  C   UNL A   1      40.911  30.542  34.082  1.00  0.00     0.074 A 
ATOM     54  C   UNL A   1      43.793  26.588  30.055  1.00  0.00     0.029 A 
ATOM     55  N   UNL A   1      42.396  28.028  31.014  1.00  0.00    -0.354 N 
ATOM     56  N   UNL A   1      41.443  29.752  33.183  1.00  0.00    -0.248 NA
ATOM     57  C   UNL A   1      41.556  30.480  35.400  1.00  0.00     0.031 C 
ATOM     58  C   UNL A   1      44.185  26.762  31.387  1.00  0.00     0.029 A 
ATOM     59  C   UNL A   1      43.326  27.674  31.978  1.00  0.00     0.049 A 
ATOM     60  H   UNL A   1      41.651  28.656  31.153  1.00  0.00     0.167 HD
ATOM     61  C   UNL A   1      42.493  29.107  33.821  1.00  0.00     0.074 A 
ATOM     62  C   UNL A   1      42.528  29.604  35.181  1.00  0.00     0.031 C 
ATOM     63  C   UNL A   1      43.349  28.184  33.323  1.00  0.00     0.037 A 
BRANCH  50  64
ATOM     64  C   UNL A   1      42.346  26.731  27.412  1.00  0.00     0.057 A 
ATOM     65  C   UNL A   1      43.247  27.238  26.470  1.00  0.00     0.134 A 
ATOM     66  C   UNL A   1      41.905  25.411  27.240  1.00  0.00     0.134 A 
ATOM     67  F   UNL A   1      43.700  28.497  26.571  1.00  0.00    -0.206 F 
ATOM     68  C   UNL A   1      43.688  26.464  25.394  1.00  0.00     0.040 A 
ATOM     69  C   UNL A   1      42.355  24.622  26.182  1.00  0.00     0.040 A 
ATOM     70  F   UNL A   1      41.045  24.862  28.112  1.00  0.00    -0.206 F 
ATOM     71  C   UNL A   1      43.249  25.148  25.253  1.00  0.00     0.006 A 
ENDBRANCH  50  64
BRANCH  51  72
ATOM     72  C   UNL A   1      39.238  32.242  35.109  1.00  0.00     0.057 A 
ATOM     73  C   UNL A   1      38.387  31.661  36.055  1.00  0.00     0.134 A 
ATOM     74  C   UNL A   1      39.637  33.568  35.322  1.00  0.00     0.134 A 
ATOM     75  F   UNL A   1      37.954  30.403  35.891  1.00  0.00    -0.206 F 
ATOM     76  C   UNL A   1      37.957  32.369  37.178  1.00  0.00     0.040 A 
ATOM     77  C   UNL A   1      39.234  34.279  36.451  1.00  0.00     0.040 A 
ATOM     78  F   UNL A   1      40.454  34.176  34.450  1.00  0.00    -0.206 F 
ATOM     79  C   UNL A   1      38.390  33.679  37.384  1.00  0.00     0.006 A 
ENDBRANCH  51  72
BRANCH  63  80
ATOM     80  C   UNL A   1      44.419  27.685  34.244  1.00  0.00     0.057 A 
ATOM     81  C   UNL A   1      45.642  28.350  34.376  1.00  0.00     0.134 A 
ATOM     82  C   UNL A   1      44.208  26.541  35.023  1.00  0.00     0.134 A 
ATOM     83  F   UNL A   1      45.906  29.443  33.645  1.00  0.00    -0.206 F 
ATOM     84  C   UNL A   1      46.630  27.885  35.246  1.00  0.00     0.040 A 
ATOM     85  C   UNL A   1      45.181  26.076  35.907  1.00  0.00     0.040 A 
ATOM     86  F   UNL A   1      43.054  25.863  34.939  1.00  0.00    -0.206 F 
ATOM     87  C   UNL A   1      46.398  26.747  36.018  1.00  0.00     0.006 A 
ENDBRANCH  63  80
ENDBRANCH  37  38
ENDBRANCH  30  32
ENDBRANCH  29  30
ENDBRANCH  28  29
ENDBRANCH   1  28
TORSDOF 14
ENDMDL
MODEL 2
REMARK VINA RESULT:     -12.3      4.053      7.586
REMARK SMILES Cc1nn(C)c(C)c1[C@@H](C(=O)OCCOC(=O)c1ccc(-c2c3nc(c(-c4c(F)cccc4F)c4ccc([nH]4)c(-c4c(F)cccc4F)c4nc(c(-c5c(F)cccc5F)c5ccc2[nH]5)C=C4)C=C3)cc1)[NH+]1CCN(c2ccccc2F)CC1
REMARK SMILES IDX 13 1 12 2 10 3 11 4 9 5 8 6 1 7 2 8 3 9 4 10 6 11 5 12 7 13
REMARK SMILES IDX 72 14 73 15 84 16 74 18 83 19 75 20 76 21 77 22 81 23 78 24
REMARK SMILES IDX 80 25 82 26 79 27 14 28 15 29 16 30 17 31 18 32 19 33 71 34
REMARK SMILES IDX 20 35 70 36 21 37 22 38 23 39 64 40 24 41 69 42 63 43 65 44
REMARK SMILES IDX 25 45 68 46 62 47 61 48 26 50 52 51 35 52 51 53 36 54 39 55
REMARK SMILES IDX 50 56 66 57 37 58 38 59 49 61 67 62 40 63 27 64 28 65 33 66
REMARK SMILES IDX 29 67 30 68 32 69 34 70 31 71 53 72 54 73 59 74 55 75 56 76
REMARK SMILES IDX 58 77 60 78 57 79 41 80 42 81 47 82 43 83 44 84 46 85 48 86
REMARK SMILES IDX 45 87
REMARK H PARENT 72 17 65 49 39 60
REMARK Flexibility Score: inf
ROOT
ATOM      1  C   UNL A   1      33.714  27.869  26.319  1.00  0.00     0.274 C 
ENDROOT
BRANCH   1   2
ATOM      2  O   UNL A   1      32.573  27.439  27.091  1.00  0.00    -0.457 OA
BRANCH   2   3
ATOM      3  C   UNL A   1      31.556  26.870  26.380  1.00  0.00     0.370 C 
ATOM      4  O   UNL A   1      30.528  26.443  26.905  1.00  0.00    -0.245 OA
BRANCH   3   5
ATOM      5  C   UNL A   1      31.874  26.679  24.880  1.00  0.00     0.330 C 
BRANCH   5   6
ATOM      6  C   UNL A   1      31.066  27.467  23.882  1.00  0.00     0.065 A 
ATOM      7  C   UNL A   1      28.760  26.208  24.156  1.00  0.00     0.069 C 
ATOM      8  C   UNL A   1      29.677  27.245  23.613  1.00  0.00     0.069 A 
ATOM      9  N   UNL A   1      29.182  28.147  22.764  1.00  0.00    -0.178 NA
ATOM     10  N   UNL A   1      30.228  28.923  22.452  1.00  0.00    -0.272 N 
ATOM     11  C   UNL A   1      31.411  28.495  23.003  1.00  0.00     0.045 A 
ATOM     12  C   UNL A   1      29.977  30.080  21.625  1.00  0.00     0.174 C 
ATOM     13  C   UNL A   1      32.719  29.102  22.634  1.00  0.00     0.067 C 
ENDBRANCH   5   6
BRANCH   5  14
ATOM     14  N   UNL A   1      32.032  25.251  24.523  1.00  0.00    -0.316 N 
ATOM     15  C   UNL A   1      32.904  24.901  23.403  1.00  0.00     0.284 C 
ATOM     16  C   UNL A   1      32.170  24.295  25.632  1.00  0.00     0.284 C 
ATOM     17  H   UNL A   1      31.089  25.130  24.154  1.00  0.00     0.349 HD
ATOM     18  C   UNL A   1      34.348  24.476  23.726  1.00  0.00     0.178 C 
ATOM     19  C   UNL A   1      33.614  23.898  26.025  1.00  0.00     0.178 C 
ATOM     20  N   UNL A   1      34.399  23.531  24.839  1.00  0.00    -0.358 N 
BRANCH  20  21
ATOM     21  C   UNL A   1      35.646  22.953  25.090  1.00  0.00     0.073 A 
ATOM     22  C   UNL A   1      36.720  23.703  25.594  1.00  0.00     0.029 A 
ATOM     23  C   UNL A   1      35.874  21.594  24.819  1.00  0.00     0.146 A 
ATOM     24  C   UNL A   1      37.981  23.129  25.778  1.00  0.00     0.002 A 
ATOM     25  C   UNL A   1      37.131  21.015  24.995  1.00  0.00     0.041 A 
ATOM     26  F   UNL A   1      34.878  20.825  24.354  1.00  0.00    -0.205 F 
ATOM     27  C   UNL A   1      38.190  21.787  25.469  1.00  0.00     0.003 A 
ENDBRANCH  20  21
ENDBRANCH   5  14
ENDBRANCH   3   5
ENDBRANCH   2   3
ENDBRANCH   1   2
BRANCH   1  28
ATOM     28  C   UNL A   1      33.979  29.365  26.475  1.00  0.00     0.275 C 
BRANCH  28  29
ATOM     29  O   UNL A   1      34.198  29.684  27.859  1.00  0.00    -0.458 OA
BRANCH  29  30
ATOM     30  C   UNL A   1      35.165  30.590  28.117  1.00  0.00     0.338 C 
ATOM     31  O   UNL A   1      35.014  31.799  28.252  1.00  0.00    -0.246 OA
BRANCH  30  32
ATOM     32  C   UNL A   1      36.484  29.935  28.271  1.00  0.00     0.060 A 
ATOM     33  C   UNL A   1      36.868  29.320  29.466  1.00  0.00     0.016 A 
ATOM     34  C   UNL A   1      37.406  30.037  27.227  1.00  0.00     0.016 A 
ATOM     35  C   UNL A   1      38.188  28.903  29.650  1.00  0.00     0.010 A 
ATOM     36  C   UNL A   1      38.697  29.523  27.379  1.00  0.00     0.010 A 
ATOM     37  C   UNL A   1      39.114  28.968  28.601  1.00  0.00    -0.014 A 
BRANCH  37  38
ATOM     38  C   UNL A   1      40.503  28.446  28.732  1.00  0.00     0.031 A 
ATOM     39  C   UNL A   1      41.637  29.381  29.056  1.00  0.00     0.074 A 
ATOM     40  C   UNL A   1      40.775  27.149  28.483  1.00  0.00     0.049 A 
ATOM     41  N   UNL A   1      42.918  29.240  28.832  1.00  0.00    -0.248 NA
ATOM     42  C   UNL A   1      41.275  30.654  29.699  1.00  0.00     0.031 C 
ATOM     43  C   UNL A   1      39.786  26.101  28.228  1.00  0.00     0.029 A 
ATOM     44  N   UNL A   1      41.980  26.499  28.374  1.00  0.00    -0.354 N 
ATOM     45  C   UNL A   1      43.508  30.428  29.245  1.00  0.00     0.074 A 
ATOM     46  C   UNL A   1      42.447  31.274  29.749  1.00  0.00     0.031 C 
ATOM     47  C   UNL A   1      40.419  24.942  28.001  1.00  0.00     0.029 A 
ATOM     48  C   UNL A   1      41.856  25.188  27.982  1.00  0.00     0.049 A 
ATOM     49  H   UNL A   1      42.847  26.928  28.560  1.00  0.00     0.167 HD
ATOM     50  C   UNL A   1      44.816  30.779  29.189  1.00  0.00     0.037 A 
ATOM     51  C   UNL A   1      42.777  24.299  27.569  1.00  0.00     0.037 A 
ATOM     52  C   UNL A   1      45.871  29.906  28.741  1.00  0.00     0.049 A 
ATOM     53  C   UNL A   1      44.211  24.720  27.461  1.00  0.00     0.074 A 
ATOM     54  C   UNL A   1      47.228  30.167  28.642  1.00  0.00     0.029 A 
ATOM     55  N   UNL A   1      45.688  28.591  28.342  1.00  0.00    -0.354 N 
ATOM     56  N   UNL A   1      44.750  25.883  27.731  1.00  0.00    -0.248 NA
ATOM     57  C   UNL A   1      45.158  23.716  26.959  1.00  0.00     0.031 C 
ATOM     58  C   UNL A   1      47.862  29.015  28.163  1.00  0.00     0.029 A 
ATOM     59  C   UNL A   1      46.905  28.028  27.995  1.00  0.00     0.049 A 
ATOM     60  H   UNL A   1      44.821  28.125  28.310  1.00  0.00     0.167 HD
ATOM     61  C   UNL A   1      46.101  25.749  27.444  1.00  0.00     0.074 A 
ATOM     62  C   UNL A   1      46.301  24.389  26.986  1.00  0.00     0.031 C 
ATOM     63  C   UNL A   1      47.086  26.672  27.549  1.00  0.00     0.037 A 
BRANCH  50  64
ATOM     64  C   UNL A   1      45.187  32.177  29.587  1.00  0.00     0.057 A 
ATOM     65  C   UNL A   1      45.619  32.495  30.879  1.00  0.00     0.134 A 
ATOM     66  C   UNL A   1      45.178  33.207  28.636  1.00  0.00     0.134 A 
ATOM     67  F   UNL A   1      45.643  31.557  31.838  1.00  0.00    -0.206 F 
ATOM     68  C   UNL A   1      46.022  33.790  31.213  1.00  0.00     0.040 A 
ATOM     69  C   UNL A   1      45.597  34.500  28.953  1.00  0.00     0.040 A 
ATOM     70  F   UNL A   1      44.779  32.967  27.377  1.00  0.00    -0.206 F 
ATOM     71  C   UNL A   1      46.020  34.795  30.247  1.00  0.00     0.006 A 
ENDBRANCH  50  64
BRANCH  51  72
ATOM     72  C   UNL A   1      42.343  22.942  27.156  1.00  0.00     0.057 A 
ATOM     73  C   UNL A   1      42.324  22.572  25.808  1.00  0.00     0.134 A 
ATOM     74  C   UNL A   1      41.983  21.973  28.101  1.00  0.00     0.134 A 
ATOM     75  F   UNL A   1      42.636  23.466  24.858  1.00  0.00    -0.206 F 
ATOM     76  C   UNL A   1      41.969  21.282  25.412  1.00  0.00     0.040 A 
ATOM     77  C   UNL A   1      41.650  20.673  27.722  1.00  0.00     0.040 A 
ATOM     78  F   UNL A   1      41.986  22.268  29.409  1.00  0.00    -0.206 F 
ATOM     79  C   UNL A   1      41.642  20.324  26.372  1.00  0.00     0.006 A 
ENDBRANCH  51  72
BRANCH  63  80
ATOM     80  C   UNL A   1      48.472  26.228  27.201  1.00  0.00     0.057 A 
ATOM     81  C   UNL A   1      49.309  25.626  28.146  1.00  0.00     0.134 A 
ATOM     82  C   UNL A   1      48.961  26.382  25.898  1.00  0.00     0.134 A 
ATOM     83  F   UNL A   1      48.900  25.464  29.414  1.00  0.00    -0.206 F 
ATOM     84  C   UNL A   1      50.596  25.203  27.810  1.00  0.00     0.040 A 
ATOM     85  C   UNL A   1      50.239  25.949  25.546  1.00  0.00     0.040 A 
ATOM     86  F   UNL A   1      48.203  26.951  24.949  1.00  0.00    -0.206 F 
ATOM     87  C   UNL A   1      51.062  25.360  26.505  1.00  0.00     0.006 A 
ENDBRANCH  63  80
ENDBRANCH  37  38
ENDBRANCH  30  32
ENDBRANCH  29  30
ENDBRANCH  28  29
ENDBRANCH   1  28
TORSDOF 14
ENDMDL
MODEL 3
REMARK VINA RESULT:     -12.3      0.608      1.513
REMARK SMILES Cc1nn(C)c(C)c1[C@@H](C(=O)OCCOC(=O)c1ccc(-c2c3nc(c(-c4c(F)cccc4F)c4ccc([nH]4)c(-c4c(F)cccc4F)c4nc(c(-c5c(F)cccc5F)c5ccc2[nH]5)C=C4)C=C3)cc1)[NH+]1CCN(c2ccccc2F)CC1
REMARK SMILES IDX 13 1 12 2 10 3 11 4 9 5 8 6 1 7 2 8 3 9 4 10 6 11 5 12 7 13
REMARK SMILES IDX 72 14 73 15 84 16 74 18 83 19 75 20 76 21 77 22 81 23 78 24
REMARK SMILES IDX 80 25 82 26 79 27 14 28 15 29 16 30 17 31 18 32 19 33 71 34
REMARK SMILES IDX 20 35 70 36 21 37 22 38 23 39 64 40 24 41 69 42 63 43 65 44
REMARK SMILES IDX 25 45 68 46 62 47 61 48 26 50 52 51 35 52 51 53 36 54 39 55
REMARK SMILES IDX 50 56 66 57 37 58 38 59 49 61 67 62 40 63 27 64 28 65 33 66
REMARK SMILES IDX 29 67 30 68 32 69 34 70 31 71 53 72 54 73 59 74 55 75 56 76
REMARK SMILES IDX 58 77 60 78 57 79 41 80 42 81 47 82 43 83 44 84 46 85 48 86
REMARK SMILES IDX 45 87
REMARK H PARENT 72 17 65 49 39 60
REMARK Flexibility Score: inf
ROOT
ATOM      1  C   UNL A   1      31.778  28.399  27.058  1.00  0.00     0.274 C 
ENDROOT
BRANCH   1   2
ATOM      2  O   UNL A   1      32.394  27.150  26.681  1.00  0.00    -0.457 OA
BRANCH   2   3
ATOM      3  C   UNL A   1      31.537  26.150  26.323  1.00  0.00     0.370 C 
ATOM      4  O   UNL A   1      30.343  26.151  26.623  1.00  0.00    -0.245 OA
BRANCH   3   5
ATOM      5  C   UNL A   1      32.228  24.952  25.634  1.00  0.00     0.330 C 
BRANCH   5   6
ATOM      6  C   UNL A   1      32.660  25.116  24.200  1.00  0.00     0.065 A 
ATOM      7  C   UNL A   1      35.119  24.176  24.416  1.00  0.00     0.069 C 
ATOM      8  C   UNL A   1      33.943  24.730  23.694  1.00  0.00     0.069 A 
ATOM      9  N   UNL A   1      34.027  24.888  22.372  1.00  0.00    -0.178 NA
ATOM     10  N   UNL A   1      32.841  25.401  22.020  1.00  0.00    -0.272 N 
ATOM     11  C   UNL A   1      32.021  25.666  23.088  1.00  0.00     0.045 A 
ATOM     12  C   UNL A   1      32.584  25.578  20.610  1.00  0.00     0.174 C 
ATOM     13  C   UNL A   1      30.739  26.408  22.934  1.00  0.00     0.067 C 
ENDBRANCH   5   6
BRANCH   5  14
ATOM     14  N   UNL A   1      31.525  23.677  25.903  1.00  0.00    -0.316 N 
ATOM     15  C   UNL A   1      31.086  22.867  24.768  1.00  0.00     0.284 C 
ATOM     16  C   UNL A   1      32.051  22.839  26.990  1.00  0.00     0.284 C 
ATOM     17  H   UNL A   1      30.667  24.102  26.254  1.00  0.00     0.349 HD
ATOM     18  C   UNL A   1      31.995  21.708  24.320  1.00  0.00     0.178 C 
ATOM     19  C   UNL A   1      33.022  21.704  26.580  1.00  0.00     0.178 C 
ATOM     20  N   UNL A   1      32.478  20.928  25.458  1.00  0.00    -0.358 N 
BRANCH  20  21
ATOM     21  C   UNL A   1      33.164  19.752  25.143  1.00  0.00     0.073 A 
ATOM     22  C   UNL A   1      32.528  18.501  25.152  1.00  0.00     0.029 A 
ATOM     23  C   UNL A   1      34.532  19.782  24.831  1.00  0.00     0.146 A 
ATOM     24  C   UNL A   1      33.240  17.325  24.900  1.00  0.00     0.002 A 
ATOM     25  C   UNL A   1      35.252  18.613  24.584  1.00  0.00     0.041 A 
ATOM     26  F   UNL A   1      35.187  20.953  24.790  1.00  0.00    -0.205 F 
ATOM     27  C   UNL A   1      34.604  17.379  24.627  1.00  0.00     0.003 A 
ENDBRANCH  20  21
ENDBRANCH   5  14
ENDBRANCH   3   5
ENDBRANCH   2   3
ENDBRANCH   1   2
BRANCH   1  28
ATOM     28  C   UNL A   1      31.760  29.398  25.904  1.00  0.00     0.275 C 
BRANCH  28  29
ATOM     29  O   UNL A   1      33.008  30.109  25.848  1.00  0.00    -0.458 OA
BRANCH  29  30
ATOM     30  C   UNL A   1      33.239  30.990  26.843  1.00  0.00     0.338 C 
ATOM     31  O   UNL A   1      32.470  31.858  27.242  1.00  0.00    -0.246 OA
BRANCH  30  32
ATOM     32  C   UNL A   1      34.564  30.760  27.464  1.00  0.00     0.060 A 
ATOM     33  C   UNL A   1      34.992  29.484  27.839  1.00  0.00     0.016 A 
ATOM     34  C   UNL A   1      35.354  31.867  27.781  1.00  0.00     0.016 A 
ATOM     35  C   UNL A   1      36.146  29.328  28.611  1.00  0.00     0.010 A 
ATOM     36  C   UNL A   1      36.562  31.695  28.463  1.00  0.00     0.010 A 
ATOM     37  C   UNL A   1      36.964  30.424  28.907  1.00  0.00    -0.014 A 
BRANCH  37  38
ATOM     38  C   UNL A   1      38.250  30.280  29.646  1.00  0.00     0.031 A 
ATOM     39  C   UNL A   1      39.356  29.428  29.085  1.00  0.00     0.074 A 
ATOM     40  C   UNL A   1      38.410  30.843  30.861  1.00  0.00     0.049 A 
ATOM     41  N   UNL A   1      40.355  28.853  29.703  1.00  0.00    -0.248 NA
ATOM     42  C   UNL A   1      39.317  29.173  27.636  1.00  0.00     0.031 C 
ATOM     43  C   UNL A   1      37.468  31.755  31.513  1.00  0.00     0.029 A 
ATOM     44  N   UNL A   1      39.421  30.701  31.780  1.00  0.00    -0.354 N 
ATOM     45  C   UNL A   1      41.026  28.116  28.736  1.00  0.00     0.074 A 
ATOM     46  C   UNL A   1      40.331  28.330  27.484  1.00  0.00     0.031 C 
ATOM     47  C   UNL A   1      37.946  32.095  32.718  1.00  0.00     0.029 A 
ATOM     48  C   UNL A   1      39.167  31.341  32.970  1.00  0.00     0.049 A 
ATOM     49  H   UNL A   1      40.246  30.192  31.605  1.00  0.00     0.167 HD
ATOM     50  C   UNL A   1      42.113  27.322  28.889  1.00  0.00     0.037 A 
ATOM     51  C   UNL A   1      39.789  31.270  34.161  1.00  0.00     0.037 A 
ATOM     52  C   UNL A   1      42.833  27.164  30.128  1.00  0.00     0.049 A 
ATOM     53  C   UNL A   1      40.957  30.345  34.328  1.00  0.00     0.074 A 
ATOM     54  C   UNL A   1      43.945  26.381  30.389  1.00  0.00     0.029 A 
ATOM     55  N   UNL A   1      42.525  27.826  31.306  1.00  0.00    -0.354 N 
ATOM     56  N   UNL A   1      41.513  29.554  33.445  1.00  0.00    -0.248 NA
ATOM     57  C   UNL A   1      41.561  30.281  35.665  1.00  0.00     0.031 C 
ATOM     58  C   UNL A   1      44.297  26.553  31.733  1.00  0.00     0.029 A 
ATOM     59  C   UNL A   1      43.423  27.468  32.297  1.00  0.00     0.049 A 
ATOM     60  H   UNL A   1      41.779  28.457  31.422  1.00  0.00     0.167 HD
ATOM     61  C   UNL A   1      42.540  28.905  34.115  1.00  0.00     0.074 A 
ATOM     62  C   UNL A   1      42.535  29.401  35.476  1.00  0.00     0.031 C 
ATOM     63  C   UNL A   1      43.408  27.977  33.643  1.00  0.00     0.037 A 
BRANCH  50  64
ATOM     64  C   UNL A   1      42.580  26.530  27.704  1.00  0.00     0.057 A 
ATOM     65  C   UNL A   1      42.091  25.250  27.422  1.00  0.00     0.134 A 
ATOM     66  C   UNL A   1      43.482  27.093  26.790  1.00  0.00     0.134 A 
ATOM     67  F   UNL A   1      41.233  24.650  28.261  1.00  0.00    -0.206 F 
ATOM     68  C   UNL A   1      42.490  24.554  26.279  1.00  0.00     0.040 A 
ATOM     69  C   UNL A   1      43.871  26.415  25.634  1.00  0.00     0.040 A 
ATOM     70  F   UNL A   1      43.984  28.320  26.998  1.00  0.00    -0.206 F 
ATOM     71  C   UNL A   1      43.375  25.140  25.376  1.00  0.00     0.006 A 
ENDBRANCH  50  64
BRANCH  51  72
ATOM     72  C   UNL A   1      39.259  32.052  35.304  1.00  0.00     0.057 A 
ATOM     73  C   UNL A   1      39.626  33.387  35.493  1.00  0.00     0.134 A 
ATOM     74  C   UNL A   1      38.342  31.496  36.205  1.00  0.00     0.134 A 
ATOM     75  F   UNL A   1      40.518  33.965  34.675  1.00  0.00    -0.206 F 
ATOM     76  C   UNL A   1      39.093  34.148  36.534  1.00  0.00     0.040 A 
ATOM     77  C   UNL A   1      37.783  32.251  37.235  1.00  0.00     0.040 A 
ATOM     78  F   UNL A   1      37.951  30.220  36.072  1.00  0.00    -0.206 F 
ATOM     79  C   UNL A   1      38.159  33.582  37.402  1.00  0.00     0.006 A 
ENDBRANCH  51  72
BRANCH  63  80
ATOM     80  C   UNL A   1      44.446  27.474  34.596  1.00  0.00     0.057 A 
ATOM     81  C   UNL A   1      45.669  28.133  34.764  1.00  0.00     0.134 A 
ATOM     82  C   UNL A   1      44.207  26.333  35.371  1.00  0.00     0.134 A 
ATOM     83  F   UNL A   1      45.961  29.223  34.038  1.00  0.00    -0.206 F 
ATOM     84  C   UNL A   1      46.628  27.663  35.663  1.00  0.00     0.040 A 
ATOM     85  C   UNL A   1      45.150  25.864  36.284  1.00  0.00     0.040 A 
ATOM     86  F   UNL A   1      43.052  25.661  35.254  1.00  0.00    -0.206 F 
ATOM     87  C   UNL A   1      46.367  26.528  36.430  1.00  0.00     0.006 A 
ENDBRANCH  63  80
ENDBRANCH  37  38
ENDBRANCH  30  32
ENDBRANCH  29  30
ENDBRANCH  28  29
ENDBRANCH   1  28
TORSDOF 14
ENDMDL
