MODEL 1
REMARK VINA RESULT:     -10.9      0.000      0.000
REMARK SMILES Cc1cc(CS(=O)(=O)N[C@@H]2C=C[C@H](C(=O)OCCOC(=O)c3ccc(-c4c5nc(c(-c6c(F)cccc6F)c6ccc([nH]6)c(-c6c(F)cccc6F)c6nc(c(-c7c(F)cccc7F)c7ccc4[nH]7)C=C6)C=C5)cc3)C2)no1
REMARK SMILES IDX 17 1 16 2 14 3 15 4 13 5 10 6 11 7 76 8 12 9 9 10 6 12 7 13
REMARK SMILES IDX 8 14 5 15 4 16 1 17 2 18 3 19 78 20 77 21 18 22 19 23 20 24
REMARK SMILES IDX 21 25 22 26 23 27 75 28 24 29 74 30 25 31 26 32 27 33 68 34
REMARK SMILES IDX 28 35 73 36 67 37 69 38 29 39 72 40 66 41 65 42 30 44 56 45
REMARK SMILES IDX 39 46 55 47 40 48 43 49 54 50 70 51 41 52 42 53 53 55 71 56
REMARK SMILES IDX 44 57 31 58 32 59 37 60 33 61 34 62 36 63 38 64 35 65 57 66
REMARK SMILES IDX 58 67 63 68 59 69 60 70 62 71 64 72 61 73 45 74 46 75 51 76
REMARK SMILES IDX 47 77 48 78 50 79 52 80 49 81
REMARK H PARENT 9 11 69 43 43 54
REMARK Flexibility Score: inf
ROOT
ATOM      1  C   UNL A   1      31.351  31.984  26.638  1.00  0.00     0.274 C 
ENDROOT
BRANCH   1   2
ATOM      2  O   UNL A   1      32.225  30.849  26.726  1.00  0.00    -0.462 OA
BRANCH   2   3
ATOM      3  C   UNL A   1      32.148  29.954  25.701  1.00  0.00     0.312 C 
ATOM      4  O   UNL A   1      31.155  29.770  25.008  1.00  0.00    -0.252 OA
BRANCH   3   5
ATOM      5  C   UNL A   1      33.505  29.317  25.447  1.00  0.00     0.123 C 
ATOM      6  C   UNL A   1      33.715  27.125  24.351  1.00  0.00     0.093 C 
ATOM      7  C   UNL A   1      33.966  27.056  25.821  1.00  0.00    -0.011 C 
ATOM      8  C   UNL A   1      33.575  28.619  24.077  1.00  0.00     0.043 C 
ATOM      9  C   UNL A   1      33.843  28.240  26.422  1.00  0.00    -0.015 C 
BRANCH   6  10
ATOM     10  N   UNL A   1      32.491  26.367  24.136  1.00  0.00    -0.208 NA
ATOM     11  H   UNL A   1      32.159  26.073  25.054  1.00  0.00     0.141 HD
BRANCH  10  12
ATOM     12  S   UNL A   1      32.531  24.999  23.170  1.00  0.00     0.218 S 
ATOM     13  O   UNL A   1      33.502  25.238  22.127  1.00  0.00    -0.212 OA
ATOM     14  O   UNL A   1      31.142  24.771  22.822  1.00  0.00    -0.212 OA
BRANCH  12  15
ATOM     15  C   UNL A   1      33.039  23.645  24.271  1.00  0.00     0.213 C 
BRANCH  15  16
ATOM     16  C   UNL A   1      32.149  23.457  25.443  1.00  0.00     0.100 A 
ATOM     17  C   UNL A   1      29.149  22.609  27.364  1.00  0.00     0.091 C 
ATOM     18  C   UNL A   1      30.436  22.950  26.731  1.00  0.00     0.133 A 
ATOM     19  C   UNL A   1      31.114  22.504  25.622  1.00  0.00     0.073 A 
ATOM     20  O   UNL A   1      31.122  23.986  27.283  1.00  0.00    -0.361 OA
ATOM     21  N   UNL A   1      32.220  24.280  26.497  1.00  0.00    -0.084 NA
ENDBRANCH  15  16
ENDBRANCH  12  15
ENDBRANCH  10  12
ENDBRANCH   6  10
ENDBRANCH   3   5
ENDBRANCH   2   3
ENDBRANCH   1   2
BRANCH   1  22
ATOM     22  C   UNL A   1      32.154  33.284  26.745  1.00  0.00     0.275 C 
BRANCH  22  23
ATOM     23  O   UNL A   1      32.173  33.803  28.091  1.00  0.00    -0.458 OA
BRANCH  23  24
ATOM     24  C   UNL A   1      33.213  34.619  28.386  1.00  0.00     0.338 C 
ATOM     25  O   UNL A   1      33.208  35.839  28.404  1.00  0.00    -0.246 OA
BRANCH  24  26
ATOM     26  C   UNL A   1      34.377  33.828  28.830  1.00  0.00     0.060 A 
ATOM     27  C   UNL A   1      34.139  32.662  29.566  1.00  0.00     0.016 A 
ATOM     28  C   UNL A   1      35.685  34.258  28.602  1.00  0.00     0.016 A 
ATOM     29  C   UNL A   1      35.200  31.915  30.067  1.00  0.00     0.010 A 
ATOM     30  C   UNL A   1      36.753  33.514  29.117  1.00  0.00     0.010 A 
ATOM     31  C   UNL A   1      36.514  32.343  29.859  1.00  0.00    -0.014 A 
BRANCH  31  32
ATOM     32  C   UNL A   1      37.628  31.586  30.472  1.00  0.00     0.031 A 
ATOM     33  C   UNL A   1      37.977  31.814  31.914  1.00  0.00     0.074 A 
ATOM     34  C   UNL A   1      38.295  30.670  29.749  1.00  0.00     0.049 A 
ATOM     35  N   UNL A   1      38.949  31.298  32.621  1.00  0.00    -0.248 NA
ATOM     36  C   UNL A   1      37.113  32.741  32.660  1.00  0.00     0.031 C 
ATOM     37  C   UNL A   1      38.004  30.317  28.360  1.00  0.00     0.029 A 
ATOM     38  N   UNL A   1      39.355  29.868  30.085  1.00  0.00    -0.354 N 
ATOM     39  C   UNL A   1      38.824  31.846  33.890  1.00  0.00     0.074 A 
ATOM     40  C   UNL A   1      37.690  32.746  33.853  1.00  0.00     0.031 C 
ATOM     41  C   UNL A   1      38.868  29.370  27.960  1.00  0.00     0.029 A 
ATOM     42  C   UNL A   1      39.798  29.084  29.049  1.00  0.00     0.049 A 
ATOM     43  H   UNL A   1      39.759  29.856  30.983  1.00  0.00     0.167 HD
ATOM     44  C   UNL A   1      39.585  31.616  34.986  1.00  0.00     0.037 A 
ATOM     45  C   UNL A   1      40.853  28.250  28.981  1.00  0.00     0.037 A 
ATOM     46  C   UNL A   1      40.707  30.714  35.020  1.00  0.00     0.049 A 
ATOM     47  C   UNL A   1      41.729  28.071  30.190  1.00  0.00     0.074 A 
ATOM     48  C   UNL A   1      41.540  30.412  36.083  1.00  0.00     0.029 A 
ATOM     49  N   UNL A   1      41.155  29.972  33.938  1.00  0.00    -0.354 N 
ATOM     50  N   UNL A   1      41.611  28.602  31.382  1.00  0.00    -0.248 NA
ATOM     51  C   UNL A   1      42.891  27.183  30.040  1.00  0.00     0.031 C 
ATOM     52  C   UNL A   1      42.518  29.518  35.633  1.00  0.00     0.029 A 
ATOM     53  C   UNL A   1      42.268  29.230  34.301  1.00  0.00     0.049 A 
ATOM     54  H   UNL A   1      40.744  29.972  33.043  1.00  0.00     0.167 HD
ATOM     55  C   UNL A   1      42.665  28.097  32.132  1.00  0.00     0.074 A 
ATOM     56  C   UNL A   1      43.407  27.207  31.261  1.00  0.00     0.031 C 
ATOM     57  C   UNL A   1      42.990  28.346  33.423  1.00  0.00     0.037 A 
BRANCH  44  58
ATOM     58  C   UNL A   1      39.248  32.380  36.231  1.00  0.00     0.057 A 
ATOM     59  C   UNL A   1      38.355  31.882  37.188  1.00  0.00     0.134 A 
ATOM     60  C   UNL A   1      39.848  33.620  36.487  1.00  0.00     0.134 A 
ATOM     61  F   UNL A   1      37.736  30.708  36.994  1.00  0.00    -0.206 F 
ATOM     62  C   UNL A   1      38.056  32.600  38.347  1.00  0.00     0.040 A 
ATOM     63  C   UNL A   1      39.572  34.336  37.652  1.00  0.00     0.040 A 
ATOM     64  F   UNL A   1      40.714  34.152  35.612  1.00  0.00    -0.206 F 
ATOM     65  C   UNL A   1      38.669  33.829  38.585  1.00  0.00     0.006 A 
ENDBRANCH  44  58
BRANCH  45  66
ATOM     66  C   UNL A   1      41.155  27.540  27.714  1.00  0.00     0.057 A 
ATOM     67  C   UNL A   1      40.617  26.278  27.441  1.00  0.00     0.134 A 
ATOM     68  C   UNL A   1      42.004  28.103  26.751  1.00  0.00     0.134 A 
ATOM     69  F   UNL A   1      39.820  25.677  28.336  1.00  0.00    -0.206 F 
ATOM     70  C   UNL A   1      40.919  25.594  26.262  1.00  0.00     0.040 A 
ATOM     71  C   UNL A   1      42.295  27.441  25.558  1.00  0.00     0.040 A 
ATOM     72  F   UNL A   1      42.555  29.308  26.955  1.00  0.00    -0.206 F 
ATOM     73  C   UNL A   1      41.756  26.179  25.314  1.00  0.00     0.006 A 
ENDBRANCH  45  66
BRANCH  57  74
ATOM     74  C   UNL A   1      44.182  27.625  33.980  1.00  0.00     0.057 A 
ATOM     75  C   UNL A   1      45.462  28.192  33.962  1.00  0.00     0.134 A 
ATOM     76  C   UNL A   1      44.039  26.364  34.573  1.00  0.00     0.134 A 
ATOM     77  F   UNL A   1      45.667  29.391  33.397  1.00  0.00    -0.206 F 
ATOM     78  C   UNL A   1      46.563  27.522  34.498  1.00  0.00     0.040 A 
ATOM     79  C   UNL A   1      45.128  25.694  35.132  1.00  0.00     0.040 A 
ATOM     80  F   UNL A   1      42.837  25.770  34.629  1.00  0.00    -0.206 F 
ATOM     81  C   UNL A   1      46.395  26.271  35.090  1.00  0.00     0.006 A 
ENDBRANCH  57  74
ENDBRANCH  31  32
ENDBRANCH  24  26
ENDBRANCH  23  24
ENDBRANCH  22  23
ENDBRANCH   1  22
TORSDOF 15
ENDMDL
MODEL 2
REMARK VINA RESULT:     -10.9      1.712      3.073
REMARK SMILES Cc1cc(CS(=O)(=O)N[C@@H]2C=C[C@H](C(=O)OCCOC(=O)c3ccc(-c4c5nc(c(-c6c(F)cccc6F)c6ccc([nH]6)c(-c6c(F)cccc6F)c6nc(c(-c7c(F)cccc7F)c7ccc4[nH]7)C=C6)C=C5)cc3)C2)no1
REMARK SMILES IDX 17 1 16 2 14 3 15 4 13 5 10 6 11 7 76 8 12 9 9 10 6 12 7 13
REMARK SMILES IDX 8 14 5 15 4 16 1 17 2 18 3 19 78 20 77 21 18 22 19 23 20 24
REMARK SMILES IDX 21 25 22 26 23 27 75 28 24 29 74 30 25 31 26 32 27 33 68 34
REMARK SMILES IDX 28 35 73 36 67 37 69 38 29 39 72 40 66 41 65 42 30 44 56 45
REMARK SMILES IDX 39 46 55 47 40 48 43 49 54 50 70 51 41 52 42 53 53 55 71 56
REMARK SMILES IDX 44 57 31 58 32 59 37 60 33 61 34 62 36 63 38 64 35 65 57 66
REMARK SMILES IDX 58 67 63 68 59 69 60 70 62 71 64 72 61 73 45 74 46 75 51 76
REMARK SMILES IDX 47 77 48 78 50 79 52 80 49 81
REMARK H PARENT 9 11 69 43 43 54
REMARK Flexibility Score: inf
ROOT
ATOM      1  C   UNL A   1      31.582  31.499  26.344  1.00  0.00     0.274 C 
ENDROOT
BRANCH   1   2
ATOM      2  O   UNL A   1      32.080  30.517  27.266  1.00  0.00    -0.462 OA
BRANCH   2   3
ATOM      3  C   UNL A   1      33.253  29.915  26.923  1.00  0.00     0.312 C 
ATOM      4  O   UNL A   1      34.307  30.503  26.723  1.00  0.00    -0.252 OA
BRANCH   3   5
ATOM      5  C   UNL A   1      33.104  28.402  26.958  1.00  0.00     0.123 C 
ATOM      6  C   UNL A   1      31.781  27.198  25.269  1.00  0.00     0.093 C 
ATOM      7  C   UNL A   1      31.081  27.291  26.585  1.00  0.00    -0.011 C 
ATOM      8  C   UNL A   1      33.163  27.777  25.552  1.00  0.00     0.043 C 
ATOM      9  C   UNL A   1      31.790  27.951  27.500  1.00  0.00    -0.015 C 
BRANCH   6  10
ATOM     10  N   UNL A   1      30.980  27.999  24.354  1.00  0.00    -0.208 NA
ATOM     11  H   UNL A   1      30.346  28.558  24.925  1.00  0.00     0.141 HD
BRANCH  10  12
ATOM     12  S   UNL A   1      30.045  27.233  23.194  1.00  0.00     0.218 S 
ATOM     13  O   UNL A   1      29.797  25.889  23.662  1.00  0.00    -0.212 OA
ATOM     14  O   UNL A   1      30.772  27.444  21.957  1.00  0.00    -0.212 OA
BRANCH  12  15
ATOM     15  C   UNL A   1      28.514  28.207  23.090  1.00  0.00     0.213 C 
BRANCH  15  16
ATOM     16  C   UNL A   1      28.723  29.615  22.671  1.00  0.00     0.100 A 
ATOM     17  C   UNL A   1      28.702  33.273  22.829  1.00  0.00     0.091 C 
ATOM     18  C   UNL A   1      28.811  31.815  22.641  1.00  0.00     0.133 A 
ATOM     19  C   UNL A   1      29.000  30.745  23.482  1.00  0.00     0.073 A 
ATOM     20  O   UNL A   1      28.616  31.356  21.377  1.00  0.00    -0.361 OA
ATOM     21  N   UNL A   1      28.600  29.974  21.387  1.00  0.00    -0.084 NA
ENDBRANCH  15  16
ENDBRANCH  12  15
ENDBRANCH  10  12
ENDBRANCH   6  10
ENDBRANCH   3   5
ENDBRANCH   2   3
ENDBRANCH   1   2
BRANCH   1  22
ATOM     22  C   UNL A   1      31.505  32.872  27.018  1.00  0.00     0.275 C 
BRANCH  22  23
ATOM     23  O   UNL A   1      32.755  33.589  26.939  1.00  0.00    -0.458 OA
BRANCH  23  24
ATOM     24  C   UNL A   1      33.198  34.117  28.106  1.00  0.00     0.338 C 
ATOM     25  O   UNL A   1      32.674  35.006  28.756  1.00  0.00    -0.246 OA
BRANCH  24  26
ATOM     26  C   UNL A   1      34.375  33.372  28.592  1.00  0.00     0.060 A 
ATOM     27  C   UNL A   1      34.163  32.309  29.477  1.00  0.00     0.016 A 
ATOM     28  C   UNL A   1      35.674  33.754  28.254  1.00  0.00     0.016 A 
ATOM     29  C   UNL A   1      35.240  31.616  30.019  1.00  0.00     0.010 A 
ATOM     30  C   UNL A   1      36.759  33.065  28.809  1.00  0.00     0.010 A 
ATOM     31  C   UNL A   1      36.546  31.998  29.700  1.00  0.00    -0.014 A 
BRANCH  31  32
ATOM     32  C   UNL A   1      37.683  31.309  30.352  1.00  0.00     0.031 A 
ATOM     33  C   UNL A   1      38.015  31.613  31.784  1.00  0.00     0.074 A 
ATOM     34  C   UNL A   1      38.385  30.385  29.674  1.00  0.00     0.049 A 
ATOM     35  N   UNL A   1      39.000  31.164  32.518  1.00  0.00    -0.248 NA
ATOM     36  C   UNL A   1      37.115  32.543  32.483  1.00  0.00     0.031 C 
ATOM     37  C   UNL A   1      38.114  29.959  28.301  1.00  0.00     0.029 A 
ATOM     38  N   UNL A   1      39.470  29.636  30.051  1.00  0.00    -0.354 N 
ATOM     39  C   UNL A   1      38.848  31.764  33.761  1.00  0.00     0.074 A 
ATOM     40  C   UNL A   1      37.684  32.621  33.678  1.00  0.00     0.031 C 
ATOM     41  C   UNL A   1      39.014  29.026  27.949  1.00  0.00     0.029 A 
ATOM     42  C   UNL A   1      39.946  28.822  29.054  1.00  0.00     0.049 A 
ATOM     43  H   UNL A   1      39.869  29.679  30.951  1.00  0.00     0.167 HD
ATOM     44  C   UNL A   1      39.610  31.610  34.869  1.00  0.00     0.037 A 
ATOM     45  C   UNL A   1      41.030  28.023  29.028  1.00  0.00     0.037 A 
ATOM     46  C   UNL A   1      40.762  30.751  34.948  1.00  0.00     0.049 A 
ATOM     47  C   UNL A   1      41.904  27.929  30.248  1.00  0.00     0.074 A 
ATOM     48  C   UNL A   1      41.598  30.526  36.028  1.00  0.00     0.029 A 
ATOM     49  N   UNL A   1      41.242  29.976  33.903  1.00  0.00    -0.354 N 
ATOM     50  N   UNL A   1      41.760  28.509  31.414  1.00  0.00    -0.248 NA
ATOM     51  C   UNL A   1      43.097  27.076  30.144  1.00  0.00     0.031 C 
ATOM     52  C   UNL A   1      42.609  29.647  35.623  1.00  0.00     0.029 A 
ATOM     53  C   UNL A   1      42.377  29.290  34.305  1.00  0.00     0.049 A 
ATOM     54  H   UNL A   1      40.837  29.921  33.007  1.00  0.00     0.167 HD
ATOM     55  C   UNL A   1      42.827  28.075  32.191  1.00  0.00     0.074 A 
ATOM     56  C   UNL A   1      43.605  27.174  31.365  1.00  0.00     0.031 C 
ATOM     57  C   UNL A   1      43.135  28.394  33.470  1.00  0.00     0.037 A 
BRANCH  44  58
ATOM     58  C   UNL A   1      39.239  32.417  36.077  1.00  0.00     0.057 A 
ATOM     59  C   UNL A   1      38.367  31.928  37.057  1.00  0.00     0.134 A 
ATOM     60  C   UNL A   1      39.785  33.692  36.273  1.00  0.00     0.134 A 
ATOM     61  F   UNL A   1      37.799  30.720  36.920  1.00  0.00    -0.206 F 
ATOM     62  C   UNL A   1      38.036  32.686  38.181  1.00  0.00     0.040 A 
ATOM     63  C   UNL A   1      39.477  34.451  37.403  1.00  0.00     0.040 A 
ATOM     64  F   UNL A   1      40.628  34.219  35.373  1.00  0.00    -0.206 F 
ATOM     65  C   UNL A   1      38.596  33.950  38.360  1.00  0.00     0.006 A 
ENDBRANCH  44  58
BRANCH  45  66
ATOM     66  C   UNL A   1      41.364  27.268  27.796  1.00  0.00     0.057 A 
ATOM     67  C   UNL A   1      40.961  25.939  27.625  1.00  0.00     0.134 A 
ATOM     68  C   UNL A   1      42.110  27.854  26.765  1.00  0.00     0.134 A 
ATOM     69  F   UNL A   1      40.268  25.316  28.590  1.00  0.00    -0.206 F 
ATOM     70  C   UNL A   1      41.295  25.216  26.479  1.00  0.00     0.040 A 
ATOM     71  C   UNL A   1      42.430  27.150  25.603  1.00  0.00     0.040 A 
ATOM     72  F   UNL A   1      42.529  29.124  26.870  1.00  0.00    -0.206 F 
ATOM     73  C   UNL A   1      42.028  25.824  25.461  1.00  0.00     0.006 A 
ENDBRANCH  45  66
BRANCH  57  74
ATOM     74  C   UNL A   1      44.348  27.740  34.065  1.00  0.00     0.057 A 
ATOM     75  C   UNL A   1      44.281  26.484  34.680  1.00  0.00     0.134 A 
ATOM     76  C   UNL A   1      45.602  28.359  33.988  1.00  0.00     0.134 A 
ATOM     77  F   UNL A   1      43.107  25.845  34.797  1.00  0.00    -0.206 F 
ATOM     78  C   UNL A   1      45.417  25.874  35.215  1.00  0.00     0.040 A 
ATOM     79  C   UNL A   1      46.748  27.749  34.499  1.00  0.00     0.040 A 
ATOM     80  F   UNL A   1      45.734  29.559  33.403  1.00  0.00    -0.206 F 
ATOM     81  C   UNL A   1      46.656  26.506  35.120  1.00  0.00     0.006 A 
ENDBRANCH  57  74
ENDBRANCH  31  32
ENDBRANCH  24  26
ENDBRANCH  23  24
ENDBRANCH  22  23
ENDBRANCH   1  22
TORSDOF 15
ENDMDL
MODEL 3
REMARK VINA RESULT:     -10.9      1.384      6.554
REMARK SMILES Cc1cc(CS(=O)(=O)N[C@@H]2C=C[C@H](C(=O)OCCOC(=O)c3ccc(-c4c5nc(c(-c6c(F)cccc6F)c6ccc([nH]6)c(-c6c(F)cccc6F)c6nc(c(-c7c(F)cccc7F)c7ccc4[nH]7)C=C6)C=C5)cc3)C2)no1
REMARK SMILES IDX 17 1 16 2 14 3 15 4 13 5 10 6 11 7 76 8 12 9 9 10 6 12 7 13
REMARK SMILES IDX 8 14 5 15 4 16 1 17 2 18 3 19 78 20 77 21 18 22 19 23 20 24
REMARK SMILES IDX 21 25 22 26 23 27 75 28 24 29 74 30 25 31 26 32 27 33 68 34
REMARK SMILES IDX 28 35 73 36 67 37 69 38 29 39 72 40 66 41 65 42 30 44 56 45
REMARK SMILES IDX 39 46 55 47 40 48 43 49 54 50 70 51 41 52 42 53 53 55 71 56
REMARK SMILES IDX 44 57 31 58 32 59 37 60 33 61 34 62 36 63 38 64 35 65 57 66
REMARK SMILES IDX 58 67 63 68 59 69 60 70 62 71 64 72 61 73 45 74 46 75 51 76
REMARK SMILES IDX 47 77 48 78 50 79 52 80 49 81
REMARK H PARENT 9 11 69 43 43 54
REMARK Flexibility Score: inf
ROOT
ATOM      1  C   UNL A   1      31.364  32.174  26.540  1.00  0.00     0.274 C 
ENDROOT
BRANCH   1   2
ATOM      2  O   UNL A   1      32.101  31.016  26.961  1.00  0.00    -0.462 OA
BRANCH   2   3
ATOM      3  C   UNL A   1      31.937  29.896  26.203  1.00  0.00     0.312 C 
ATOM      4  O   UNL A   1      31.397  29.869  25.105  1.00  0.00    -0.252 OA
BRANCH   3   5
ATOM      5  C   UNL A   1      32.639  28.711  26.847  1.00  0.00     0.123 C 
ATOM      6  C   UNL A   1      33.651  26.922  25.494  1.00  0.00     0.093 C 
ATOM      7  C   UNL A   1      32.369  26.500  26.133  1.00  0.00    -0.011 C 
ATOM      8  C   UNL A   1      33.914  28.304  26.085  1.00  0.00     0.043 C 
ATOM      9  C   UNL A   1      31.812  27.469  26.860  1.00  0.00    -0.015 C 
BRANCH   6  10
ATOM     10  N   UNL A   1      33.379  26.933  24.064  1.00  0.00    -0.208 NA
ATOM     11  H   UNL A   1      32.495  27.425  23.933  1.00  0.00     0.141 HD
BRANCH  10  12
ATOM     12  S   UNL A   1      33.255  25.479  23.240  1.00  0.00     0.218 S 
ATOM     13  O   UNL A   1      33.748  24.444  24.119  1.00  0.00    -0.212 OA
ATOM     14  O   UNL A   1      33.921  25.731  21.977  1.00  0.00    -0.212 OA
BRANCH  12  15
ATOM     15  C   UNL A   1      31.484  25.277  22.884  1.00  0.00     0.213 C 
BRANCH  15  16
ATOM     16  C   UNL A   1      30.728  26.554  22.847  1.00  0.00     0.100 A 
ATOM     17  C   UNL A   1      27.904  28.869  23.111  1.00  0.00     0.091 C 
ATOM     18  C   UNL A   1      29.136  28.067  23.003  1.00  0.00     0.133 A 
ATOM     19  C   UNL A   1      29.613  26.942  23.632  1.00  0.00     0.073 A 
ATOM     20  O   UNL A   1      30.006  28.431  22.025  1.00  0.00    -0.361 OA
ATOM     21  N   UNL A   1      31.028  27.503  21.952  1.00  0.00    -0.084 NA
ENDBRANCH  15  16
ENDBRANCH  12  15
ENDBRANCH  10  12
ENDBRANCH   6  10
ENDBRANCH   3   5
ENDBRANCH   2   3
ENDBRANCH   1   2
BRANCH   1  22
ATOM     22  C   UNL A   1      32.151  33.450  26.856  1.00  0.00     0.275 C 
BRANCH  22  23
ATOM     23  O   UNL A   1      32.291  33.667  28.276  1.00  0.00    -0.458 OA
BRANCH  23  24
ATOM     24  C   UNL A   1      33.246  34.557  28.638  1.00  0.00     0.338 C 
ATOM     25  O   UNL A   1      33.140  35.772  28.681  1.00  0.00    -0.246 OA
BRANCH  24  26
ATOM     26  C   UNL A   1      34.448  33.852  29.121  1.00  0.00     0.060 A 
ATOM     27  C   UNL A   1      34.272  32.754  29.971  1.00  0.00     0.016 A 
ATOM     28  C   UNL A   1      35.733  34.302  28.816  1.00  0.00     0.016 A 
ATOM     29  C   UNL A   1      35.371  32.096  30.511  1.00  0.00     0.010 A 
ATOM     30  C   UNL A   1      36.840  33.647  29.369  1.00  0.00     0.010 A 
ATOM     31  C   UNL A   1      36.663  32.546  30.225  1.00  0.00    -0.014 A 
BRANCH  31  32
ATOM     32  C   UNL A   1      37.820  31.890  30.876  1.00  0.00     0.031 A 
ATOM     33  C   UNL A   1      38.579  30.823  30.143  1.00  0.00     0.074 A 
ATOM     34  C   UNL A   1      38.210  32.281  32.102  1.00  0.00     0.049 A 
ATOM     35  N   UNL A   1      39.581  30.089  30.555  1.00  0.00    -0.248 NA
ATOM     36  C   UNL A   1      38.158  30.550  28.760  1.00  0.00     0.031 C 
ATOM     37  C   UNL A   1      37.590  33.350  32.883  1.00  0.00     0.029 A 
ATOM     38  N   UNL A   1      39.225  31.822  32.902  1.00  0.00    -0.354 N 
ATOM     39  C   UNL A   1      39.903  29.259  29.490  1.00  0.00     0.074 A 
ATOM     40  C   UNL A   1      38.980  29.569  28.417  1.00  0.00     0.031 C 
ATOM     41  C   UNL A   1      38.236  33.464  34.055  1.00  0.00     0.029 A 
ATOM     42  C   UNL A   1      39.283  32.448  34.122  1.00  0.00     0.049 A 
ATOM     43  H   UNL A   1      39.850  31.113  32.628  1.00  0.00     0.167 HD
ATOM     44  C   UNL A   1      40.880  28.325  29.415  1.00  0.00     0.037 A 
ATOM     45  C   UNL A   1      40.076  32.208  35.184  1.00  0.00     0.037 A 
ATOM     46  C   UNL A   1      41.799  28.026  30.483  1.00  0.00     0.049 A 
ATOM     47  C   UNL A   1      41.103  31.113  35.103  1.00  0.00     0.074 A 
ATOM     48  C   UNL A   1      42.825  27.098  30.503  1.00  0.00     0.029 A 
ATOM     49  N   UNL A   1      41.798  28.648  31.722  1.00  0.00    -0.354 N 
ATOM     50  N   UNL A   1      41.393  30.324  34.097  1.00  0.00    -0.248 NA
ATOM     51  C   UNL A   1      41.907  30.869  36.309  1.00  0.00     0.031 C 
ATOM     52  C   UNL A   1      43.420  27.130  31.769  1.00  0.00     0.029 A 
ATOM     53  C   UNL A   1      42.792  28.108  32.523  1.00  0.00     0.049 A 
ATOM     54  H   UNL A   1      41.183  29.368  31.993  1.00  0.00     0.167 HD
ATOM     55  C   UNL A   1      42.426  29.508  34.537  1.00  0.00     0.074 A 
ATOM     56  C   UNL A   1      42.720  29.905  35.899  1.00  0.00     0.031 C 
ATOM     57  C   UNL A   1      43.073  28.519  33.875  1.00  0.00     0.037 A 
BRANCH  44  58
ATOM     58  C   UNL A   1      40.983  27.535  28.146  1.00  0.00     0.057 A 
ATOM     59  C   UNL A   1      40.268  26.346  27.951  1.00  0.00     0.134 A 
ATOM     60  C   UNL A   1      41.789  27.986  27.093  1.00  0.00     0.134 A 
ATOM     61  F   UNL A   1      39.491  25.853  28.927  1.00  0.00    -0.206 F 
ATOM     62  C   UNL A   1      40.367  25.624  26.761  1.00  0.00     0.040 A 
ATOM     63  C   UNL A   1      41.879  27.283  25.891  1.00  0.00     0.040 A 
ATOM     64  F   UNL A   1      42.498  29.118  27.214  1.00  0.00    -0.206 F 
ATOM     65  C   UNL A   1      41.170  26.094  25.724  1.00  0.00     0.006 A 
ENDBRANCH  44  58
BRANCH  45  66
ATOM     66  C   UNL A   1      39.912  33.003  36.425  1.00  0.00     0.057 A 
ATOM     67  C   UNL A   1      38.955  32.661  37.387  1.00  0.00     0.134 A 
ATOM     68  C   UNL A   1      40.701  34.135  36.673  1.00  0.00     0.134 A 
ATOM     69  F   UNL A   1      38.152  31.605  37.193  1.00  0.00    -0.206 F 
ATOM     70  C   UNL A   1      38.778  33.421  38.545  1.00  0.00     0.040 A 
ATOM     71  C   UNL A   1      40.551  34.889  37.837  1.00  0.00     0.040 A 
ATOM     72  F   UNL A   1      41.633  34.517  35.788  1.00  0.00    -0.206 F 
ATOM     73  C   UNL A   1      39.583  34.535  38.775  1.00  0.00     0.006 A 
ENDBRANCH  45  66
BRANCH  57  74
ATOM     74  C   UNL A   1      44.182  27.819  34.604  1.00  0.00     0.057 A 
ATOM     75  C   UNL A   1      43.959  26.643  35.330  1.00  0.00     0.134 A 
ATOM     76  C   UNL A   1      45.493  28.308  34.546  1.00  0.00     0.134 A 
ATOM     77  F   UNL A   1      42.723  26.131  35.434  1.00  0.00    -0.206 F 
ATOM     78  C   UNL A   1      44.999  25.988  35.991  1.00  0.00     0.040 A 
ATOM     79  C   UNL A   1      46.545  27.649  35.184  1.00  0.00     0.040 A 
ATOM     80  F   UNL A   1      45.774  29.426  33.859  1.00  0.00    -0.206 F 
ATOM     81  C   UNL A   1      46.298  26.489  35.914  1.00  0.00     0.006 A 
ENDBRANCH  57  74
ENDBRANCH  31  32
ENDBRANCH  24  26
ENDBRANCH  23  24
ENDBRANCH  22  23
ENDBRANCH   1  22
TORSDOF 15
ENDMDL
