MODEL 1
REMARK VINA RESULT:     -12.2      0.000      0.000
REMARK SMILES CC[C@@](C)(NC(=O)Nc1c(C)cccc1Cl)C(=O)OCCOC(=O)c1ccc(-c2c3nc(c(-c4c(F)cccc4F)c4ccc([nH]4)c(-c4c(F)cccc4F)c4nc(c(-c5c(F)cccc5F)c5ccc2[nH]5)C=C4)C=C3)cc1
REMARK SMILES IDX 20 1 19 2 17 3 18 4 3 5 4 6 2 7 1 8 5 9 6 10 7 12 8 13 9 15
REMARK SMILES IDX 10 16 15 17 11 18 12 19 14 20 16 21 13 22 21 23 22 24 23 25
REMARK SMILES IDX 24 26 25 27 26 28 78 29 27 30 77 31 28 32 29 33 30 34 71 35
REMARK SMILES IDX 31 36 76 37 70 38 72 39 32 40 75 41 69 42 68 43 33 45 59 46
REMARK SMILES IDX 42 47 58 48 43 49 46 50 57 51 73 52 44 53 45 54 56 56 74 57
REMARK SMILES IDX 47 58 34 59 35 60 40 61 36 62 37 63 39 64 41 65 38 66 60 67
REMARK SMILES IDX 61 68 66 69 62 70 63 71 65 72 67 73 64 74 48 75 49 76 54 77
REMARK SMILES IDX 50 78 51 79 53 80 55 81 52 82
REMARK H PARENT 5 11 8 14 72 44 46 55
REMARK Flexibility Score: inf
ROOT
ATOM      1  C   UNL A   1      30.962  29.546  24.384  1.00  0.00     0.274 C 
ENDROOT
BRANCH   1   2
ATOM      2  O   UNL A   1      31.285  27.987  24.571  1.00  0.00    -0.460 OA
BRANCH   2   3
ATOM      3  C   UNL A   1      32.330  27.190  25.224  1.00  0.00     0.331 C 
ATOM      4  O   UNL A   1      33.291  27.673  25.826  1.00  0.00    -0.249 OA
BRANCH   3   5
ATOM      5  C   UNL A   1      32.435  25.684  24.733  1.00  0.00     0.136 C 
ATOM      6  C   UNL A   1      33.675  25.137  25.453  1.00  0.00     0.047 C 
BRANCH   5   7
ATOM      7  C   UNL A   1      31.467  24.472  24.512  1.00  0.00     0.037 C 
ATOM      8  C   UNL A   1      30.944  23.629  25.638  1.00  0.00     0.007 C 
ENDBRANCH   5   7
BRANCH   5   9
ATOM      9  N   UNL A   1      32.654  26.064  23.411  1.00  0.00    -0.322 N 
ATOM     10  C   UNL A   1      33.365  25.303  22.593  1.00  0.00     0.320 C 
ATOM     11  H   UNL A   1      32.275  26.910  23.080  1.00  0.00     0.166 HD
ATOM     12  O   UNL A   1      33.619  26.002  21.604  1.00  0.00    -0.248 OA
ATOM     13  N   UNL A   1      33.804  23.980  22.770  1.00  0.00    -0.306 N 
ATOM     14  H   UNL A   1      34.531  23.919  22.107  1.00  0.00     0.171 HD
BRANCH  13  15
ATOM     15  C   UNL A   1      33.820  22.610  23.371  1.00  0.00     0.064 A 
ATOM     16  C   UNL A   1      32.879  21.543  23.497  1.00  0.00    -0.026 A 
ATOM     17  C   UNL A   1      35.100  22.227  23.909  1.00  0.00     0.064 A 
ATOM     18  C   UNL A   1      32.076  20.832  22.375  1.00  0.00     0.046 C 
ATOM     19  C   UNL A   1      33.069  20.539  24.509  1.00  0.00     0.005 A 
ATOM     20  C   UNL A   1      35.316  21.157  24.791  1.00  0.00     0.023 A 
ATOM     21  Cl  UNL A   1      36.604  22.920  23.419  1.00  0.00    -0.082 Cl
ATOM     22  C   UNL A   1      34.268  20.363  25.170  1.00  0.00     0.002 A 
ENDBRANCH  13  15
ENDBRANCH   5   9
ENDBRANCH   3   5
ENDBRANCH   2   3
ENDBRANCH   1   2
BRANCH   1  23
ATOM     23  C   UNL A   1      31.129  30.815  25.507  1.00  0.00     0.275 C 
BRANCH  23  24
ATOM     24  O   UNL A   1      32.127  30.686  26.664  1.00  0.00    -0.458 OA
BRANCH  24  25
ATOM     25  C   UNL A   1      32.856  31.750  27.213  1.00  0.00     0.338 C 
ATOM     26  O   UNL A   1      32.396  32.867  27.372  1.00  0.00    -0.246 OA
BRANCH  25  27
ATOM     27  C   UNL A   1      34.344  31.405  27.635  1.00  0.00     0.060 A 
ATOM     28  C   UNL A   1      34.806  30.098  27.912  1.00  0.00     0.016 A 
ATOM     29  C   UNL A   1      35.314  32.390  27.847  1.00  0.00     0.016 A 
ATOM     30  C   UNL A   1      36.090  29.737  28.334  1.00  0.00     0.010 A 
ATOM     31  C   UNL A   1      36.627  32.051  28.323  1.00  0.00     0.010 A 
ATOM     32  C   UNL A   1      37.010  30.719  28.619  1.00  0.00    -0.014 A 
BRANCH  32  33
ATOM     33  C   UNL A   1      38.105  30.348  29.576  1.00  0.00     0.031 A 
ATOM     34  C   UNL A   1      39.223  29.493  29.024  1.00  0.00     0.074 A 
ATOM     35  C   UNL A   1      38.278  30.883  30.806  1.00  0.00     0.049 A 
ATOM     36  N   UNL A   1      40.209  28.892  29.638  1.00  0.00    -0.248 NA
ATOM     37  C   UNL A   1      39.219  29.298  27.564  1.00  0.00     0.031 C 
ATOM     38  C   UNL A   1      37.438  31.904  31.432  1.00  0.00     0.029 A 
ATOM     39  N   UNL A   1      39.252  30.638  31.754  1.00  0.00    -0.354 N 
ATOM     40  C   UNL A   1      40.881  28.177  28.653  1.00  0.00     0.074 A 
ATOM     41  C   UNL A   1      40.197  28.425  27.404  1.00  0.00     0.031 C 
ATOM     42  C   UNL A   1      37.919  32.179  32.661  1.00  0.00     0.029 A 
ATOM     43  C   UNL A   1      39.067  31.317  32.938  1.00  0.00     0.049 A 
ATOM     44  H   UNL A   1      40.012  30.032  31.597  1.00  0.00     0.167 HD
ATOM     45  C   UNL A   1      41.967  27.378  28.770  1.00  0.00     0.037 A 
ATOM     46  C   UNL A   1      39.720  31.222  34.118  1.00  0.00     0.037 A 
ATOM     47  C   UNL A   1      42.701  27.185  29.989  1.00  0.00     0.049 A 
ATOM     48  C   UNL A   1      40.865  30.245  34.266  1.00  0.00     0.074 A 
ATOM     49  C   UNL A   1      43.802  26.377  30.213  1.00  0.00     0.029 A 
ATOM     50  N   UNL A   1      42.423  27.826  31.185  1.00  0.00    -0.354 N 
ATOM     51  N   UNL A   1      41.423  29.474  33.364  1.00  0.00    -0.248 NA
ATOM     52  C   UNL A   1      41.464  30.118  35.605  1.00  0.00     0.031 C 
ATOM     53  C   UNL A   1      44.160  26.491  31.559  1.00  0.00     0.029 A 
ATOM     54  C   UNL A   1      43.322  27.419  32.157  1.00  0.00     0.049 A 
ATOM     55  H   UNL A   1      41.695  28.474  31.325  1.00  0.00     0.167 HD
ATOM     56  C   UNL A   1      42.460  28.810  34.012  1.00  0.00     0.074 A 
ATOM     57  C   UNL A   1      42.459  29.269  35.383  1.00  0.00     0.031 C 
ATOM     58  C   UNL A   1      43.337  27.904  33.513  1.00  0.00     0.037 A 
BRANCH  45  59
ATOM     59  C   UNL A   1      42.368  26.592  27.556  1.00  0.00     0.057 A 
ATOM     60  C   UNL A   1      43.212  27.105  26.564  1.00  0.00     0.134 A 
ATOM     61  C   UNL A   1      41.874  25.294  27.377  1.00  0.00     0.134 A 
ATOM     62  F   UNL A   1      43.696  28.353  26.659  1.00  0.00    -0.206 F 
ATOM     63  C   UNL A   1      43.521  26.367  25.419  1.00  0.00     0.040 A 
ATOM     64  C   UNL A   1      42.205  24.533  26.257  1.00  0.00     0.040 A 
ATOM     65  F   UNL A   1      41.060  24.742  28.291  1.00  0.00    -0.206 F 
ATOM     66  C   UNL A   1      43.023  25.074  25.268  1.00  0.00     0.006 A 
ENDBRANCH  45  59
BRANCH  46  67
ATOM     67  C   UNL A   1      39.287  32.026  35.300  1.00  0.00     0.057 A 
ATOM     68  C   UNL A   1      38.397  31.507  36.250  1.00  0.00     0.134 A 
ATOM     69  C   UNL A   1      39.688  33.358  35.464  1.00  0.00     0.134 A 
ATOM     70  F   UNL A   1      37.936  30.254  36.132  1.00  0.00    -0.206 F 
ATOM     71  C   UNL A   1      37.911  32.286  37.306  1.00  0.00     0.040 A 
ATOM     72  C   UNL A   1      39.235  34.138  36.530  1.00  0.00     0.040 A 
ATOM     73  F   UNL A   1      40.522  33.927  34.581  1.00  0.00    -0.206 F 
ATOM     74  C   UNL A   1      38.336  33.604  37.450  1.00  0.00     0.006 A 
ENDBRANCH  46  67
BRANCH  58  75
ATOM     75  C   UNL A   1      44.426  27.407  34.423  1.00  0.00     0.057 A 
ATOM     76  C   UNL A   1      44.300  26.235  35.177  1.00  0.00     0.134 A 
ATOM     77  C   UNL A   1      45.641  28.102  34.512  1.00  0.00     0.134 A 
ATOM     78  F   UNL A   1      43.162  25.524  35.145  1.00  0.00    -0.206 F 
ATOM     79  C   UNL A   1      45.327  25.790  36.012  1.00  0.00     0.040 A 
ATOM     80  C   UNL A   1      46.687  27.650  35.318  1.00  0.00     0.040 A 
ATOM     81  F   UNL A   1      45.838  29.225  33.805  1.00  0.00    -0.206 F 
ATOM     82  C   UNL A   1      46.528  26.495  36.079  1.00  0.00     0.006 A 
ENDBRANCH  58  75
ENDBRANCH  32  33
ENDBRANCH  25  27
ENDBRANCH  24  25
ENDBRANCH  23  24
ENDBRANCH   1  23
TORSDOF 14
ENDMDL
MODEL 2
REMARK VINA RESULT:     -12.2      1.389      2.370
REMARK SMILES CC[C@@](C)(NC(=O)Nc1c(C)cccc1Cl)C(=O)OCCOC(=O)c1ccc(-c2c3nc(c(-c4c(F)cccc4F)c4ccc([nH]4)c(-c4c(F)cccc4F)c4nc(c(-c5c(F)cccc5F)c5ccc2[nH]5)C=C4)C=C3)cc1
REMARK SMILES IDX 20 1 19 2 17 3 18 4 3 5 4 6 2 7 1 8 5 9 6 10 7 12 8 13 9 15
REMARK SMILES IDX 10 16 15 17 11 18 12 19 14 20 16 21 13 22 21 23 22 24 23 25
REMARK SMILES IDX 24 26 25 27 26 28 78 29 27 30 77 31 28 32 29 33 30 34 71 35
REMARK SMILES IDX 31 36 76 37 70 38 72 39 32 40 75 41 69 42 68 43 33 45 59 46
REMARK SMILES IDX 42 47 58 48 43 49 46 50 57 51 73 52 44 53 45 54 56 56 74 57
REMARK SMILES IDX 47 58 34 59 35 60 40 61 36 62 37 63 39 64 41 65 38 66 60 67
REMARK SMILES IDX 61 68 66 69 62 70 63 71 65 72 67 73 64 74 48 75 49 76 54 77
REMARK SMILES IDX 50 78 51 79 53 80 55 81 52 82
REMARK H PARENT 5 11 8 14 72 44 46 55
REMARK Flexibility Score: inf
ROOT
ATOM      1  C   UNL A   1      31.201  29.473  25.070  1.00  0.00     0.274 C 
ENDROOT
BRANCH   1   2
ATOM      2  O   UNL A   1      31.103  29.285  23.481  1.00  0.00    -0.460 OA
BRANCH   2   3
ATOM      3  C   UNL A   1      31.534  28.279  22.503  1.00  0.00     0.331 C 
ATOM      4  O   UNL A   1      30.763  27.646  21.778  1.00  0.00    -0.249 OA
BRANCH   3   5
ATOM      5  C   UNL A   1      32.992  27.695  22.734  1.00  0.00     0.136 C 
ATOM      6  C   UNL A   1      33.895  28.936  22.765  1.00  0.00     0.047 C 
BRANCH   5   7
ATOM      7  C   UNL A   1      33.672  26.616  23.643  1.00  0.00     0.037 C 
ATOM      8  C   UNL A   1      33.859  26.793  25.122  1.00  0.00     0.007 C 
ENDBRANCH   5   7
BRANCH   5   9
ATOM      9  N   UNL A   1      32.982  27.017  21.518  1.00  0.00    -0.322 N 
ATOM     10  C   UNL A   1      32.643  25.739  21.455  1.00  0.00     0.320 C 
ATOM     11  H   UNL A   1      33.229  27.495  20.694  1.00  0.00     0.166 HD
ATOM     12  O   UNL A   1      32.983  25.345  20.332  1.00  0.00    -0.248 OA
ATOM     13  N   UNL A   1      32.049  24.929  22.438  1.00  0.00    -0.306 N 
ATOM     14  H   UNL A   1      32.261  24.025  22.109  1.00  0.00     0.171 HD
BRANCH  13  15
ATOM     15  C   UNL A   1      31.286  24.630  23.690  1.00  0.00     0.064 A 
ATOM     16  C   UNL A   1      30.395  25.357  24.537  1.00  0.00    -0.026 A 
ATOM     17  C   UNL A   1      31.419  23.267  24.139  1.00  0.00     0.064 A 
ATOM     18  C   UNL A   1      29.090  26.099  24.148  1.00  0.00     0.046 C 
ATOM     19  C   UNL A   1      30.184  24.922  25.892  1.00  0.00     0.005 A 
ATOM     20  C   UNL A   1      31.082  22.805  25.420  1.00  0.00     0.023 A 
ATOM     21  Cl  UNL A   1      31.854  21.948  23.114  1.00  0.00    -0.082 Cl
ATOM     22  C   UNL A   1      30.547  23.667  26.339  1.00  0.00     0.002 A 
ENDBRANCH  13  15
ENDBRANCH   5   9
ENDBRANCH   3   5
ENDBRANCH   2   3
ENDBRANCH   1   2
BRANCH   1  23
ATOM     23  C   UNL A   1      32.468  30.139  25.993  1.00  0.00     0.275 C 
BRANCH  23  24
ATOM     24  O   UNL A   1      32.161  31.192  27.065  1.00  0.00    -0.458 OA
BRANCH  24  25
ATOM     25  C   UNL A   1      33.043  32.206  27.465  1.00  0.00     0.338 C 
ATOM     26  O   UNL A   1      32.725  33.380  27.535  1.00  0.00    -0.246 OA
BRANCH  25  27
ATOM     27  C   UNL A   1      34.505  31.723  27.840  1.00  0.00     0.060 A 
ATOM     28  C   UNL A   1      34.829  30.402  28.222  1.00  0.00     0.016 A 
ATOM     29  C   UNL A   1      35.593  32.598  27.900  1.00  0.00     0.016 A 
ATOM     30  C   UNL A   1      36.087  29.928  28.609  1.00  0.00     0.010 A 
ATOM     31  C   UNL A   1      36.886  32.149  28.338  1.00  0.00     0.010 A 
ATOM     32  C   UNL A   1      37.130  30.814  28.745  1.00  0.00    -0.014 A 
BRANCH  32  33
ATOM     33  C   UNL A   1      38.235  30.403  29.676  1.00  0.00     0.031 A 
ATOM     34  C   UNL A   1      39.321  29.530  29.090  1.00  0.00     0.074 A 
ATOM     35  C   UNL A   1      38.444  30.917  30.909  1.00  0.00     0.049 A 
ATOM     36  N   UNL A   1      40.303  28.897  29.677  1.00  0.00    -0.248 NA
ATOM     37  C   UNL A   1      39.284  29.354  27.629  1.00  0.00     0.031 C 
ATOM     38  C   UNL A   1      37.643  31.950  31.565  1.00  0.00     0.029 A 
ATOM     39  N   UNL A   1      39.431  30.636  31.834  1.00  0.00    -0.354 N 
ATOM     40  C   UNL A   1      40.938  28.179  28.669  1.00  0.00     0.074 A 
ATOM     41  C   UNL A   1      40.237  28.460  27.438  1.00  0.00     0.031 C 
ATOM     42  C   UNL A   1      38.154  32.196  32.787  1.00  0.00     0.029 A 
ATOM     43  C   UNL A   1      39.286  31.303  33.031  1.00  0.00     0.049 A 
ATOM     44  H   UNL A   1      40.173  30.014  31.654  1.00  0.00     0.167 HD
ATOM     45  C   UNL A   1      42.007  27.353  28.755  1.00  0.00     0.037 A 
ATOM     46  C   UNL A   1      39.959  31.177  34.196  1.00  0.00     0.037 A 
ATOM     47  C   UNL A   1      42.760  27.125  29.956  1.00  0.00     0.049 A 
ATOM     48  C   UNL A   1      41.082  30.170  34.308  1.00  0.00     0.074 A 
ATOM     49  C   UNL A   1      43.845  26.288  30.147  1.00  0.00     0.029 A 
ATOM     50  N   UNL A   1      42.521  27.757  31.166  1.00  0.00    -0.354 N 
ATOM     51  N   UNL A   1      41.603  29.398  33.385  1.00  0.00    -0.248 NA
ATOM     52  C   UNL A   1      41.704  30.010  35.634  1.00  0.00     0.031 C 
ATOM     53  C   UNL A   1      44.232  26.375  31.488  1.00  0.00     0.029 A 
ATOM     54  C   UNL A   1      43.429  27.315  32.114  1.00  0.00     0.049 A 
ATOM     55  H   UNL A   1      41.811  28.420  31.328  1.00  0.00     0.167 HD
ATOM     56  C   UNL A   1      42.637  28.701  34.004  1.00  0.00     0.074 A 
ATOM     57  C   UNL A   1      42.674  29.141  35.381  1.00  0.00     0.031 C 
ATOM     58  C   UNL A   1      43.482  27.781  33.476  1.00  0.00     0.037 A 
BRANCH  45  59
ATOM     59  C   UNL A   1      42.365  26.574  27.522  1.00  0.00     0.057 A 
ATOM     60  C   UNL A   1      41.859  25.296  27.258  1.00  0.00     0.134 A 
ATOM     61  C   UNL A   1      43.257  27.122  26.592  1.00  0.00     0.134 A 
ATOM     62  F   UNL A   1      41.023  24.702  28.123  1.00  0.00    -0.206 F 
ATOM     63  C   UNL A   1      42.256  24.576  26.129  1.00  0.00     0.040 A 
ATOM     64  C   UNL A   1      43.632  26.428  25.442  1.00  0.00     0.040 A 
ATOM     65  F   UNL A   1      43.779  28.344  26.785  1.00  0.00    -0.206 F 
ATOM     66  C   UNL A   1      43.139  25.146  25.214  1.00  0.00     0.006 A 
ENDBRANCH  45  59
BRANCH  46  67
ATOM     67  C   UNL A   1      39.569  31.974  35.397  1.00  0.00     0.057 A 
ATOM     68  C   UNL A   1      38.583  31.523  36.286  1.00  0.00     0.134 A 
ATOM     69  C   UNL A   1      40.113  33.242  35.639  1.00  0.00     0.134 A 
ATOM     70  F   UNL A   1      37.987  30.338  36.089  1.00  0.00    -0.206 F 
ATOM     71  C   UNL A   1      38.144  32.307  37.357  1.00  0.00     0.040 A 
ATOM     72  C   UNL A   1      39.705  34.023  36.723  1.00  0.00     0.040 A 
ATOM     73  F   UNL A   1      41.045  33.747  34.818  1.00  0.00    -0.206 F 
ATOM     74  C   UNL A   1      38.711  33.559  37.581  1.00  0.00     0.006 A 
ENDBRANCH  46  67
BRANCH  58  75
ATOM     75  C   UNL A   1      44.576  27.245  34.358  1.00  0.00     0.057 A 
ATOM     76  C   UNL A   1      45.829  27.861  34.460  1.00  0.00     0.134 A 
ATOM     77  C   UNL A   1      44.351  26.110  35.149  1.00  0.00     0.134 A 
ATOM     78  F   UNL A   1      46.116  28.948  33.726  1.00  0.00    -0.206 F 
ATOM     79  C   UNL A   1      46.829  27.349  35.290  1.00  0.00     0.040 A 
ATOM     80  C   UNL A   1      45.331  25.607  36.007  1.00  0.00     0.040 A 
ATOM     81  F   UNL A   1      43.168  25.477  35.114  1.00  0.00    -0.206 F 
ATOM     82  C   UNL A   1      46.578  26.223  36.071  1.00  0.00     0.006 A 
ENDBRANCH  58  75
ENDBRANCH  32  33
ENDBRANCH  25  27
ENDBRANCH  24  25
ENDBRANCH  23  24
ENDBRANCH   1  23
TORSDOF 14
ENDMDL
MODEL 3
REMARK VINA RESULT:     -12.1      1.329      1.964
REMARK SMILES CC[C@@](C)(NC(=O)Nc1c(C)cccc1Cl)C(=O)OCCOC(=O)c1ccc(-c2c3nc(c(-c4c(F)cccc4F)c4ccc([nH]4)c(-c4c(F)cccc4F)c4nc(c(-c5c(F)cccc5F)c5ccc2[nH]5)C=C4)C=C3)cc1
REMARK SMILES IDX 20 1 19 2 17 3 18 4 3 5 4 6 2 7 1 8 5 9 6 10 7 12 8 13 9 15
REMARK SMILES IDX 10 16 15 17 11 18 12 19 14 20 16 21 13 22 21 23 22 24 23 25
REMARK SMILES IDX 24 26 25 27 26 28 78 29 27 30 77 31 28 32 29 33 30 34 71 35
REMARK SMILES IDX 31 36 76 37 70 38 72 39 32 40 75 41 69 42 68 43 33 45 59 46
REMARK SMILES IDX 42 47 58 48 43 49 46 50 57 51 73 52 44 53 45 54 56 56 74 57
REMARK SMILES IDX 47 58 34 59 35 60 40 61 36 62 37 63 39 64 41 65 38 66 60 67
REMARK SMILES IDX 61 68 66 69 62 70 63 71 65 72 67 73 64 74 48 75 49 76 54 77
REMARK SMILES IDX 50 78 51 79 53 80 55 81 52 82
REMARK H PARENT 5 11 8 14 72 44 46 55
REMARK Flexibility Score: inf
ROOT
ATOM      1  C   UNL A   1      31.246  28.849  24.355  1.00  0.00     0.274 C 
ENDROOT
BRANCH   1   2
ATOM      2  O   UNL A   1      30.830  27.369  24.807  1.00  0.00    -0.460 OA
BRANCH   2   3
ATOM      3  C   UNL A   1      30.927  26.566  26.032  1.00  0.00     0.331 C 
ATOM      4  O   UNL A   1      30.938  27.042  27.169  1.00  0.00    -0.249 OA
BRANCH   3   5
ATOM      5  C   UNL A   1      31.485  25.094  25.831  1.00  0.00     0.136 C 
ATOM      6  C   UNL A   1      31.039  24.711  24.412  1.00  0.00     0.047 C 
BRANCH   5   7
ATOM      7  C   UNL A   1      32.815  24.315  26.114  1.00  0.00     0.037 C 
ATOM      8  C   UNL A   1      34.129  24.691  25.494  1.00  0.00     0.007 C 
ENDBRANCH   5   7
BRANCH   5   9
ATOM      9  N   UNL A   1      30.683  24.583  26.847  1.00  0.00    -0.322 N 
ATOM     10  C   UNL A   1      30.381  23.294  26.892  1.00  0.00     0.320 C 
ATOM     11  H   UNL A   1      30.335  25.187  27.541  1.00  0.00     0.166 HD
ATOM     12  O   UNL A   1      29.460  23.183  27.713  1.00  0.00    -0.248 OA
ATOM     13  N   UNL A   1      30.931  22.228  26.161  1.00  0.00    -0.306 N 
ATOM     14  H   UNL A   1      30.236  21.537  26.259  1.00  0.00     0.171 HD
BRANCH  13  15
ATOM     15  C   UNL A   1      31.949  21.524  25.319  1.00  0.00     0.064 A 
ATOM     16  C   UNL A   1      32.128  21.289  23.923  1.00  0.00    -0.026 A 
ATOM     17  C   UNL A   1      33.057  20.995  26.073  1.00  0.00     0.064 A 
ATOM     18  C   UNL A   1      32.179  22.329  22.772  1.00  0.00     0.046 C 
ATOM     19  C   UNL A   1      32.969  20.208  23.483  1.00  0.00     0.005 A 
ATOM     20  C   UNL A   1      33.970  20.040  25.599  1.00  0.00     0.023 A 
ATOM     21  Cl  UNL A   1      33.543  21.580  27.622  1.00  0.00    -0.082 Cl
ATOM     22  C   UNL A   1      33.864  19.570  24.318  1.00  0.00     0.002 A 
ENDBRANCH  13  15
ENDBRANCH   5   9
ENDBRANCH   3   5
ENDBRANCH   2   3
ENDBRANCH   1   2
BRANCH   1  23
ATOM     23  C   UNL A   1      31.250  30.286  25.270  1.00  0.00     0.275 C 
BRANCH  23  24
ATOM     24  O   UNL A   1      31.993  30.336  26.611  1.00  0.00    -0.458 OA
BRANCH  24  25
ATOM     25  C   UNL A   1      32.682  31.454  27.103  1.00  0.00     0.338 C 
ATOM     26  O   UNL A   1      32.180  32.559  27.202  1.00  0.00    -0.246 OA
BRANCH  25  27
ATOM     27  C   UNL A   1      34.181  31.186  27.541  1.00  0.00     0.060 A 
ATOM     28  C   UNL A   1      34.715  29.903  27.793  1.00  0.00     0.016 A 
ATOM     29  C   UNL A   1      35.087  32.221  27.793  1.00  0.00     0.016 A 
ATOM     30  C   UNL A   1      36.012  29.607  28.228  1.00  0.00     0.010 A 
ATOM     31  C   UNL A   1      36.410  31.949  28.282  1.00  0.00     0.010 A 
ATOM     32  C   UNL A   1      36.867  30.634  28.552  1.00  0.00    -0.014 A 
BRANCH  32  33
ATOM     33  C   UNL A   1      37.968  30.304  29.518  1.00  0.00     0.031 A 
ATOM     34  C   UNL A   1      39.109  29.471  28.982  1.00  0.00     0.074 A 
ATOM     35  C   UNL A   1      38.122  30.860  30.741  1.00  0.00     0.049 A 
ATOM     36  N   UNL A   1      40.107  28.904  29.609  1.00  0.00    -0.248 NA
ATOM     37  C   UNL A   1      39.116  29.255  27.526  1.00  0.00     0.031 C 
ATOM     38  C   UNL A   1      37.254  31.869  31.350  1.00  0.00     0.029 A 
ATOM     39  N   UNL A   1      39.098  30.654  31.697  1.00  0.00    -0.354 N 
ATOM     40  C   UNL A   1      40.801  28.192  28.636  1.00  0.00     0.074 A 
ATOM     41  C   UNL A   1      40.116  28.405  27.381  1.00  0.00     0.031 C 
ATOM     42  C   UNL A   1      37.723  32.173  32.577  1.00  0.00     0.029 A 
ATOM     43  C   UNL A   1      38.892  31.344  32.870  1.00  0.00     0.049 A 
ATOM     44  H   UNL A   1      39.874  30.065  31.551  1.00  0.00     0.167 HD
ATOM     45  C   UNL A   1      41.906  27.423  28.768  1.00  0.00     0.037 A 
ATOM     46  C   UNL A   1      39.542  31.282  34.054  1.00  0.00     0.037 A 
ATOM     47  C   UNL A   1      42.640  27.265  29.992  1.00  0.00     0.049 A 
ATOM     48  C   UNL A   1      40.711  30.337  34.219  1.00  0.00     0.074 A 
ATOM     49  C   UNL A   1      43.760  26.489  30.231  1.00  0.00     0.029 A 
ATOM     50  N   UNL A   1      42.341  27.916  31.179  1.00  0.00    -0.354 N 
ATOM     51  N   UNL A   1      41.291  29.568  33.330  1.00  0.00    -0.248 NA
ATOM     52  C   UNL A   1      41.308  30.243  35.563  1.00  0.00     0.031 C 
ATOM     53  C   UNL A   1      44.110  26.630  31.577  1.00  0.00     0.029 A 
ATOM     54  C   UNL A   1      43.247  27.545  32.159  1.00  0.00     0.049 A 
ATOM     55  H   UNL A   1      41.597  28.546  31.306  1.00  0.00     0.167 HD
ATOM     56  C   UNL A   1      42.342  28.939  33.991  1.00  0.00     0.074 A 
ATOM     57  C   UNL A   1      42.324  29.417  35.356  1.00  0.00     0.031 C 
ATOM     58  C   UNL A   1      43.244  28.049  33.508  1.00  0.00     0.037 A 
BRANCH  45  59
ATOM     59  C   UNL A   1      42.332  26.630  27.566  1.00  0.00     0.057 A 
ATOM     60  C   UNL A   1      43.179  27.145  26.578  1.00  0.00     0.134 A 
ATOM     61  C   UNL A   1      41.859  25.323  27.396  1.00  0.00     0.134 A 
ATOM     62  F   UNL A   1      43.644  28.401  26.666  1.00  0.00    -0.206 F 
ATOM     63  C   UNL A   1      43.511  26.401  25.445  1.00  0.00     0.040 A 
ATOM     64  C   UNL A   1      42.214  24.555  26.287  1.00  0.00     0.040 A 
ATOM     65  F   UNL A   1      41.044  24.768  28.307  1.00  0.00    -0.206 F 
ATOM     66  C   UNL A   1      43.034  25.099  25.302  1.00  0.00     0.006 A 
ENDBRANCH  45  59
BRANCH  46  67
ATOM     67  C   UNL A   1      39.084  32.091  35.223  1.00  0.00     0.057 A 
ATOM     68  C   UNL A   1      39.498  33.418  35.401  1.00  0.00     0.134 A 
ATOM     69  C   UNL A   1      38.290  31.531  36.231  1.00  0.00     0.134 A 
ATOM     70  F   UNL A   1      40.297  34.005  34.498  1.00  0.00    -0.206 F 
ATOM     71  C   UNL A   1      39.153  34.149  36.542  1.00  0.00     0.040 A 
ATOM     72  C   UNL A   1      37.913  32.259  37.362  1.00  0.00     0.040 A 
ATOM     73  F   UNL A   1      37.875  30.259  36.139  1.00  0.00    -0.206 F 
ATOM     74  C   UNL A   1      38.353  33.571  37.524  1.00  0.00     0.006 A 
ENDBRANCH  46  67
BRANCH  58  75
ATOM     75  C   UNL A   1      44.342  27.593  34.429  1.00  0.00     0.057 A 
ATOM     76  C   UNL A   1      44.241  26.430  35.202  1.00  0.00     0.134 A 
ATOM     77  C   UNL A   1      45.540  28.317  34.510  1.00  0.00     0.134 A 
ATOM     78  F   UNL A   1      43.120  25.692  35.179  1.00  0.00    -0.206 F 
ATOM     79  C   UNL A   1      45.276  26.023  36.047  1.00  0.00     0.040 A 
ATOM     80  C   UNL A   1      46.594  27.903  35.326  1.00  0.00     0.040 A 
ATOM     81  F   UNL A   1      45.713  29.433  33.786  1.00  0.00    -0.206 F 
ATOM     82  C   UNL A   1      46.459  26.757  36.105  1.00  0.00     0.006 A 
ENDBRANCH  58  75
ENDBRANCH  32  33
ENDBRANCH  25  27
ENDBRANCH  24  25
ENDBRANCH  23  24
ENDBRANCH   1  23
TORSDOF 14
ENDMDL
