MODEL 1
REMARK VINA RESULT:     -12.8      0.000      0.000
REMARK SMILES O=C(OCCOC(=O)c1nnn(-c2cccc(C(F)(F)F)c2)c1[C@@H]1COc2ccccc2O1)c1ccc(-c2c3nc(c(-c4c(F)cccc4F)c4ccc([nH]4)c(-c4c(F)cccc4F)c4nc(c(-c5c(F)cccc5F)c5ccc2[nH]5)C=C4)C=C3)cc1
REMARK SMILES IDX 4 1 3 2 2 3 1 4 34 5 35 6 87 7 36 8 86 9 37 10 38 11 39 12
REMARK SMILES IDX 80 13 40 14 85 15 79 16 81 17 41 18 84 19 78 20 77 21 42 23
REMARK SMILES IDX 68 24 51 25 67 26 52 27 55 28 66 29 82 30 53 31 54 32 65 34
REMARK SMILES IDX 83 35 56 36 43 37 44 38 49 39 45 40 46 41 48 42 50 43 47 44
REMARK SMILES IDX 69 45 70 46 75 47 71 48 72 49 74 50 76 51 73 52 57 53 58 54
REMARK SMILES IDX 63 55 59 56 60 57 62 58 64 59 61 60 5 61 6 62 7 63 8 64 9 65
REMARK SMILES IDX 10 66 23 67 11 68 12 69 24 70 25 71 33 72 26 73 32 74 27 75
REMARK SMILES IDX 31 76 28 77 30 78 29 79 13 80 14 81 22 82 15 83 17 84 16 85
REMARK SMILES IDX 18 86 19 87 20 88 21 89
REMARK H PARENT 81 22 55 33
REMARK Flexibility Score: inf
ROOT
ATOM      1  C   UNL A   1      34.273  29.184  26.806  1.00  0.00     0.275 C 
ENDROOT
BRANCH   1   2
ATOM      2  O   UNL A   1      35.370  29.041  27.731  1.00  0.00    -0.458 OA
BRANCH   2   3
ATOM      3  C   UNL A   1      36.334  29.987  27.752  1.00  0.00     0.338 C 
ATOM      4  O   UNL A   1      36.103  31.183  27.683  1.00  0.00    -0.246 OA
BRANCH   3   5
ATOM      5  C   UNL A   1      37.686  29.442  28.033  1.00  0.00     0.060 A 
ATOM      6  C   UNL A   1      38.763  29.626  27.154  1.00  0.00     0.016 A 
ATOM      7  C   UNL A   1      37.855  28.684  29.200  1.00  0.00     0.016 A 
ATOM      8  C   UNL A   1      39.977  29.008  27.401  1.00  0.00     0.010 A 
ATOM      9  C   UNL A   1      39.067  28.052  29.441  1.00  0.00     0.010 A 
ATOM     10  C   UNL A   1      40.105  28.180  28.513  1.00  0.00    -0.014 A 
BRANCH  10  11
ATOM     11  C   UNL A   1      41.325  27.389  28.629  1.00  0.00     0.031 A 
ATOM     12  C   UNL A   1      42.168  27.595  29.845  1.00  0.00     0.074 A 
ATOM     13  C   UNL A   1      41.576  26.423  27.723  1.00  0.00     0.049 A 
ATOM     14  N   UNL A   1      43.453  27.752  29.933  1.00  0.00    -0.248 NA
ATOM     15  C   UNL A   1      41.473  27.665  31.142  1.00  0.00     0.031 C 
ATOM     16  C   UNL A   1      40.684  25.949  26.656  1.00  0.00     0.029 A 
ATOM     17  N   UNL A   1      42.627  25.564  27.648  1.00  0.00    -0.354 N 
ATOM     18  C   UNL A   1      43.749  27.765  31.298  1.00  0.00     0.074 A 
ATOM     19  C   UNL A   1      42.489  27.804  31.992  1.00  0.00     0.031 C 
ATOM     20  C   UNL A   1      41.120  24.750  26.216  1.00  0.00     0.029 A 
ATOM     21  C   UNL A   1      42.374  24.439  26.878  1.00  0.00     0.049 A 
ATOM     22  H   UNL A   1      43.489  25.726  28.098  1.00  0.00     0.167 HD
ATOM     23  C   UNL A   1      45.007  27.555  31.779  1.00  0.00     0.037 A 
ATOM     24  C   UNL A   1      43.086  23.289  26.869  1.00  0.00     0.037 A 
ATOM     25  C   UNL A   1      46.017  27.868  30.807  1.00  0.00     0.049 A 
ATOM     26  C   UNL A   1      44.416  23.568  27.461  1.00  0.00     0.074 A 
ATOM     27  C   UNL A   1      46.395  29.009  30.127  1.00  0.00     0.029 A 
ATOM     28  N   UNL A   1      46.676  26.841  30.180  1.00  0.00    -0.354 N 
ATOM     29  N   UNL A   1      45.327  24.316  26.903  1.00  0.00    -0.248 NA
ATOM     30  C   UNL A   1      44.577  23.349  28.891  1.00  0.00     0.031 C 
ATOM     31  C   UNL A   1      46.833  28.552  28.851  1.00  0.00     0.029 A 
ATOM     32  C   UNL A   1      46.713  27.162  28.849  1.00  0.00     0.049 A 
ATOM     33  H   UNL A   1      47.048  26.033  30.603  1.00  0.00     0.167 HD
ATOM     34  C   UNL A   1      45.936  24.982  27.957  1.00  0.00     0.074 A 
ATOM     35  C   UNL A   1      45.500  24.276  29.158  1.00  0.00     0.031 C 
ATOM     36  C   UNL A   1      46.511  26.209  27.786  1.00  0.00     0.037 A 
BRANCH  23  37
ATOM     37  C   UNL A   1      45.309  26.765  33.031  1.00  0.00     0.057 A 
ATOM     38  C   UNL A   1      46.130  27.321  34.030  1.00  0.00     0.134 A 
ATOM     39  C   UNL A   1      45.075  25.380  33.154  1.00  0.00     0.134 A 
ATOM     40  F   UNL A   1      46.441  28.626  34.019  1.00  0.00    -0.206 F 
ATOM     41  C   UNL A   1      46.733  26.544  35.028  1.00  0.00     0.040 A 
ATOM     42  C   UNL A   1      45.634  24.603  34.174  1.00  0.00     0.040 A 
ATOM     43  F   UNL A   1      44.374  24.690  32.245  1.00  0.00    -0.206 F 
ATOM     44  C   UNL A   1      46.493  25.178  35.097  1.00  0.00     0.006 A 
ENDBRANCH  23  37
BRANCH  24  45
ATOM     45  C   UNL A   1      42.547  21.920  26.706  1.00  0.00     0.057 A 
ATOM     46  C   UNL A   1      43.117  21.010  25.810  1.00  0.00     0.134 A 
ATOM     47  C   UNL A   1      41.593  21.395  27.599  1.00  0.00     0.134 A 
ATOM     48  F   UNL A   1      44.075  21.403  24.958  1.00  0.00    -0.206 F 
ATOM     49  C   UNL A   1      42.755  19.655  25.797  1.00  0.00     0.040 A 
ATOM     50  C   UNL A   1      41.213  20.051  27.589  1.00  0.00     0.040 A 
ATOM     51  F   UNL A   1      41.058  22.152  28.568  1.00  0.00    -0.206 F 
ATOM     52  C   UNL A   1      41.802  19.172  26.691  1.00  0.00     0.006 A 
ENDBRANCH  24  45
BRANCH  36  53
ATOM     53  C   UNL A   1      46.656  26.728  26.384  1.00  0.00     0.057 A 
ATOM     54  C   UNL A   1      45.667  27.491  25.744  1.00  0.00     0.134 A 
ATOM     55  C   UNL A   1      47.885  26.611  25.729  1.00  0.00     0.134 A 
ATOM     56  F   UNL A   1      44.503  27.756  26.347  1.00  0.00    -0.206 F 
ATOM     57  C   UNL A   1      45.874  28.070  24.490  1.00  0.00     0.040 A 
ATOM     58  C   UNL A   1      48.118  27.213  24.489  1.00  0.00     0.040 A 
ATOM     59  F   UNL A   1      48.902  25.957  26.312  1.00  0.00    -0.206 F 
ATOM     60  C   UNL A   1      47.107  27.937  23.860  1.00  0.00     0.006 A 
ENDBRANCH  36  53
ENDBRANCH  10  11
ENDBRANCH   3   5
ENDBRANCH   2   3
ENDBRANCH   1   2
BRANCH   1  61
ATOM     61  C   UNL A   1      32.936  29.650  27.383  1.00  0.00     0.275 C 
BRANCH  61  62
ATOM     62  O   UNL A   1      31.962  28.587  27.369  1.00  0.00    -0.457 OA
BRANCH  62  63
ATOM     63  C   UNL A   1      31.528  28.193  26.130  1.00  0.00     0.361 C 
ATOM     64  O   UNL A   1      31.186  28.960  25.238  1.00  0.00    -0.244 OA
BRANCH  63  65
ATOM     65  C   UNL A   1      31.469  26.747  25.991  1.00  0.00     0.198 A 
ATOM     66  N   UNL A   1      30.319  26.037  26.217  1.00  0.00    -0.122 NA
ATOM     67  C   UNL A   1      32.480  25.869  25.621  1.00  0.00     0.123 A 
ATOM     68  N   UNL A   1      30.574  24.755  25.997  1.00  0.00    -0.061 NA
ATOM     69  N   UNL A   1      31.908  24.624  25.822  1.00  0.00    -0.213 N 
BRANCH  67  70
ATOM     70  C   UNL A   1      33.821  26.141  25.011  1.00  0.00     0.262 C 
ATOM     71  C   UNL A   1      33.834  25.890  23.498  1.00  0.00     0.281 C 
ATOM     72  O   UNL A   1      34.864  25.475  25.727  1.00  0.00    -0.477 OA
ATOM     73  O   UNL A   1      33.875  24.495  23.192  1.00  0.00    -0.485 OA
ATOM     74  C   UNL A   1      35.434  24.427  25.052  1.00  0.00     0.162 A 
ATOM     75  C   UNL A   1      34.929  23.916  23.852  1.00  0.00     0.161 A 
ATOM     76  C   UNL A   1      36.520  23.807  25.667  1.00  0.00     0.050 A 
ATOM     77  C   UNL A   1      35.455  22.748  23.308  1.00  0.00     0.050 A 
ATOM     78  C   UNL A   1      37.071  22.653  25.105  1.00  0.00     0.004 A 
ATOM     79  C   UNL A   1      36.528  22.115  23.936  1.00  0.00     0.004 A 
ENDBRANCH  67  70
BRANCH  69  80
ATOM     80  C   UNL A   1      32.513  23.403  26.165  1.00  0.00     0.067 A 
ATOM     81  C   UNL A   1      33.220  23.295  27.364  1.00  0.00     0.028 A 
ATOM     82  C   UNL A   1      32.431  22.324  25.273  1.00  0.00     0.041 A 
ATOM     83  C   UNL A   1      33.767  22.062  27.717  1.00  0.00     0.003 A 
ATOM     84  C   UNL A   1      33.032  21.101  25.601  1.00  0.00     0.058 A 
ATOM     85  C   UNL A   1      33.670  20.972  26.846  1.00  0.00     0.013 A 
BRANCH  84  86
ATOM     86  C   UNL A   1      32.975  19.933  24.649  1.00  0.00     0.416 C 
ATOM     87  F   UNL A   1      32.437  20.261  23.441  1.00  0.00    -0.166 F 
ATOM     88  F   UNL A   1      34.207  19.416  24.382  1.00  0.00    -0.166 F 
ATOM     89  F   UNL A   1      32.227  18.893  25.114  1.00  0.00    -0.166 F 
ENDBRANCH  84  86
ENDBRANCH  69  80
ENDBRANCH  63  65
ENDBRANCH  62  63
ENDBRANCH  61  62
ENDBRANCH   1  61
TORSDOF 14
ENDMDL
MODEL 2
REMARK VINA RESULT:     -12.8      2.159      3.020
REMARK SMILES O=C(OCCOC(=O)c1nnn(-c2cccc(C(F)(F)F)c2)c1[C@@H]1COc2ccccc2O1)c1ccc(-c2c3nc(c(-c4c(F)cccc4F)c4ccc([nH]4)c(-c4c(F)cccc4F)c4nc(c(-c5c(F)cccc5F)c5ccc2[nH]5)C=C4)C=C3)cc1
REMARK SMILES IDX 4 1 3 2 2 3 1 4 34 5 35 6 87 7 36 8 86 9 37 10 38 11 39 12
REMARK SMILES IDX 80 13 40 14 85 15 79 16 81 17 41 18 84 19 78 20 77 21 42 23
REMARK SMILES IDX 68 24 51 25 67 26 52 27 55 28 66 29 82 30 53 31 54 32 65 34
REMARK SMILES IDX 83 35 56 36 43 37 44 38 49 39 45 40 46 41 48 42 50 43 47 44
REMARK SMILES IDX 69 45 70 46 75 47 71 48 72 49 74 50 76 51 73 52 57 53 58 54
REMARK SMILES IDX 63 55 59 56 60 57 62 58 64 59 61 60 5 61 6 62 7 63 8 64 9 65
REMARK SMILES IDX 10 66 23 67 11 68 12 69 24 70 25 71 33 72 26 73 32 74 27 75
REMARK SMILES IDX 31 76 28 77 30 78 29 79 13 80 14 81 22 82 15 83 17 84 16 85
REMARK SMILES IDX 18 86 19 87 20 88 21 89
REMARK H PARENT 81 22 55 33
REMARK Flexibility Score: inf
ROOT
ATOM      1  C   UNL A   1      32.841  30.827  26.877  1.00  0.00     0.275 C 
ENDROOT
BRANCH   1   2
ATOM      2  O   UNL A   1      33.849  30.688  27.900  1.00  0.00    -0.458 OA
BRANCH   2   3
ATOM      3  C   UNL A   1      34.889  31.549  27.914  1.00  0.00     0.338 C 
ATOM      4  O   UNL A   1      34.788  32.730  27.626  1.00  0.00    -0.246 OA
BRANCH   3   5
ATOM      5  C   UNL A   1      36.133  30.958  28.469  1.00  0.00     0.060 A 
ATOM      6  C   UNL A   1      37.233  31.745  28.838  1.00  0.00     0.016 A 
ATOM      7  C   UNL A   1      36.202  29.562  28.576  1.00  0.00     0.016 A 
ATOM      8  C   UNL A   1      38.412  31.145  29.248  1.00  0.00     0.010 A 
ATOM      9  C   UNL A   1      37.387  28.960  28.972  1.00  0.00     0.010 A 
ATOM     10  C   UNL A   1      38.500  29.756  29.258  1.00  0.00    -0.014 A 
BRANCH  10  11
ATOM     11  C   UNL A   1      39.813  29.165  29.497  1.00  0.00     0.031 A 
ATOM     12  C   UNL A   1      40.288  29.087  30.911  1.00  0.00     0.074 A 
ATOM     13  C   UNL A   1      40.479  28.598  28.471  1.00  0.00     0.049 A 
ATOM     14  N   UNL A   1      41.446  29.399  31.403  1.00  0.00    -0.248 NA
ATOM     15  C   UNL A   1      39.321  28.623  31.921  1.00  0.00     0.031 C 
ATOM     16  C   UNL A   1      39.986  28.370  27.106  1.00  0.00     0.029 A 
ATOM     17  N   UNL A   1      41.690  27.980  28.467  1.00  0.00    -0.354 N 
ATOM     18  C   UNL A   1      41.416  29.009  32.745  1.00  0.00     0.074 A 
ATOM     19  C   UNL A   1      40.058  28.629  33.031  1.00  0.00     0.031 C 
ATOM     20  C   UNL A   1      40.777  27.461  26.497  1.00  0.00     0.029 A 
ATOM     21  C   UNL A   1      41.886  27.144  27.379  1.00  0.00     0.049 A 
ATOM     22  H   UNL A   1      42.366  28.114  29.171  1.00  0.00     0.167 HD
ATOM     23  C   UNL A   1      42.546  28.847  33.488  1.00  0.00     0.037 A 
ATOM     24  C   UNL A   1      42.829  26.182  27.258  1.00  0.00     0.037 A 
ATOM     25  C   UNL A   1      43.648  29.609  32.972  1.00  0.00     0.049 A 
ATOM     26  C   UNL A   1      43.888  26.450  28.259  1.00  0.00     0.074 A 
ATOM     27  C   UNL A   1      43.894  30.953  32.771  1.00  0.00     0.029 A 
ATOM     28  N   UNL A   1      44.652  28.955  32.303  1.00  0.00    -0.354 N 
ATOM     29  N   UNL A   1      44.702  27.467  28.214  1.00  0.00    -0.248 NA
ATOM     30  C   UNL A   1      43.769  25.802  29.557  1.00  0.00     0.031 C 
ATOM     31  C   UNL A   1      44.702  31.010  31.599  1.00  0.00     0.029 A 
ATOM     32  C   UNL A   1      44.913  29.696  31.181  1.00  0.00     0.049 A 
ATOM     33  H   UNL A   1      45.097  28.120  32.575  1.00  0.00     0.167 HD
ATOM     34  C   UNL A   1      44.886  27.837  29.539  1.00  0.00     0.074 A 
ATOM     35  C   UNL A   1      44.366  26.719  30.322  1.00  0.00     0.031 C 
ATOM     36  C   UNL A   1      45.183  29.124  29.885  1.00  0.00     0.037 A 
BRANCH  23  37
ATOM     37  C   UNL A   1      42.733  27.745  34.506  1.00  0.00     0.057 A 
ATOM     38  C   UNL A   1      43.027  26.438  34.076  1.00  0.00     0.134 A 
ATOM     39  C   UNL A   1      42.340  27.855  35.855  1.00  0.00     0.134 A 
ATOM     40  F   UNL A   1      43.400  26.195  32.811  1.00  0.00    -0.206 F 
ATOM     41  C   UNL A   1      42.868  25.319  34.905  1.00  0.00     0.040 A 
ATOM     42  C   UNL A   1      42.222  26.750  36.705  1.00  0.00     0.040 A 
ATOM     43  F   UNL A   1      41.957  29.019  36.395  1.00  0.00    -0.206 F 
ATOM     44  C   UNL A   1      42.455  25.473  36.222  1.00  0.00     0.006 A 
ENDBRANCH  23  37
BRANCH  24  45
ATOM     45  C   UNL A   1      42.674  24.877  26.577  1.00  0.00     0.057 A 
ATOM     46  C   UNL A   1      43.458  24.529  25.472  1.00  0.00     0.134 A 
ATOM     47  C   UNL A   1      41.904  23.841  27.140  1.00  0.00     0.134 A 
ATOM     48  F   UNL A   1      44.268  25.432  24.901  1.00  0.00    -0.206 F 
ATOM     49  C   UNL A   1      43.471  23.226  24.952  1.00  0.00     0.040 A 
ATOM     50  C   UNL A   1      41.897  22.543  26.625  1.00  0.00     0.040 A 
ATOM     51  F   UNL A   1      41.195  24.034  28.263  1.00  0.00    -0.206 F 
ATOM     52  C   UNL A   1      42.691  22.229  25.531  1.00  0.00     0.006 A 
ENDBRANCH  24  45
BRANCH  36  53
ATOM     53  C   UNL A   1      45.516  30.088  28.782  1.00  0.00     0.057 A 
ATOM     54  C   UNL A   1      46.809  30.235  28.259  1.00  0.00     0.134 A 
ATOM     55  C   UNL A   1      44.484  30.752  28.112  1.00  0.00     0.134 A 
ATOM     56  F   UNL A   1      47.839  29.546  28.760  1.00  0.00    -0.206 F 
ATOM     57  C   UNL A   1      47.072  31.044  27.150  1.00  0.00     0.040 A 
ATOM     58  C   UNL A   1      44.728  31.537  26.982  1.00  0.00     0.040 A 
ATOM     59  F   UNL A   1      43.211  30.602  28.511  1.00  0.00    -0.206 F 
ATOM     60  C   UNL A   1      46.027  31.694  26.503  1.00  0.00     0.006 A 
ENDBRANCH  36  53
ENDBRANCH  10  11
ENDBRANCH   3   5
ENDBRANCH   2   3
ENDBRANCH   1   2
BRANCH   1  61
ATOM     61  C   UNL A   1      32.775  29.730  25.815  1.00  0.00     0.275 C 
BRANCH  61  62
ATOM     62  O   UNL A   1      31.546  28.982  25.914  1.00  0.00    -0.457 OA
BRANCH  62  63
ATOM     63  C   UNL A   1      31.079  28.445  24.742  1.00  0.00     0.361 C 
ATOM     64  O   UNL A   1      30.685  29.102  23.786  1.00  0.00    -0.244 OA
BRANCH  63  65
ATOM     65  C   UNL A   1      31.056  26.992  24.762  1.00  0.00     0.198 A 
ATOM     66  N   UNL A   1      29.886  26.279  24.824  1.00  0.00    -0.122 NA
ATOM     67  C   UNL A   1      32.125  26.106  24.715  1.00  0.00     0.123 A 
ATOM     68  N   UNL A   1      30.187  24.989  24.812  1.00  0.00    -0.061 NA
ATOM     69  N   UNL A   1      31.529  24.876  24.935  1.00  0.00    -0.213 N 
BRANCH  67  70
ATOM     70  C   UNL A   1      33.563  26.345  24.370  1.00  0.00     0.262 C 
ATOM     71  C   UNL A   1      33.867  26.042  22.897  1.00  0.00     0.281 C 
ATOM     72  O   UNL A   1      34.436  25.695  25.296  1.00  0.00    -0.477 OA
ATOM     73  O   UNL A   1      33.946  24.637  22.650  1.00  0.00    -0.485 OA
ATOM     74  C   UNL A   1      35.110  24.619  24.779  1.00  0.00     0.162 A 
ATOM     75  C   UNL A   1      34.841  24.072  23.521  1.00  0.00     0.161 A 
ATOM     76  C   UNL A   1      36.046  24.010  25.614  1.00  0.00     0.050 A 
ATOM     77  C   UNL A   1      35.445  22.881  23.128  1.00  0.00     0.050 A 
ATOM     78  C   UNL A   1      36.678  22.833  25.208  1.00  0.00     0.004 A 
ATOM     79  C   UNL A   1      36.365  22.260  23.973  1.00  0.00     0.004 A 
ENDBRANCH  67  70
BRANCH  69  80
ATOM     80  C   UNL A   1      32.052  23.718  25.535  1.00  0.00     0.067 A 
ATOM     81  C   UNL A   1      32.449  23.753  26.873  1.00  0.00     0.028 A 
ATOM     82  C   UNL A   1      32.206  22.558  24.764  1.00  0.00     0.041 A 
ATOM     83  C   UNL A   1      32.915  22.582  27.470  1.00  0.00     0.003 A 
ATOM     84  C   UNL A   1      32.730  21.396  25.348  1.00  0.00     0.058 A 
ATOM     85  C   UNL A   1      33.049  21.412  26.716  1.00  0.00     0.013 A 
BRANCH  84  86
ATOM     86  C   UNL A   1      32.924  20.141  24.534  1.00  0.00     0.416 C 
ATOM     87  F   UNL A   1      32.154  19.105  24.968  1.00  0.00    -0.166 F 
ATOM     88  F   UNL A   1      32.609  20.318  23.220  1.00  0.00    -0.166 F 
ATOM     89  F   UNL A   1      34.207  19.680  24.551  1.00  0.00    -0.166 F 
ENDBRANCH  84  86
ENDBRANCH  69  80
ENDBRANCH  63  65
ENDBRANCH  62  63
ENDBRANCH  61  62
ENDBRANCH   1  61
TORSDOF 14
ENDMDL
MODEL 3
REMARK VINA RESULT:     -12.6      3.779      8.146
REMARK SMILES O=C(OCCOC(=O)c1nnn(-c2cccc(C(F)(F)F)c2)c1[C@@H]1COc2ccccc2O1)c1ccc(-c2c3nc(c(-c4c(F)cccc4F)c4ccc([nH]4)c(-c4c(F)cccc4F)c4nc(c(-c5c(F)cccc5F)c5ccc2[nH]5)C=C4)C=C3)cc1
REMARK SMILES IDX 4 1 3 2 2 3 1 4 34 5 35 6 87 7 36 8 86 9 37 10 38 11 39 12
REMARK SMILES IDX 80 13 40 14 85 15 79 16 81 17 41 18 84 19 78 20 77 21 42 23
REMARK SMILES IDX 68 24 51 25 67 26 52 27 55 28 66 29 82 30 53 31 54 32 65 34
REMARK SMILES IDX 83 35 56 36 43 37 44 38 49 39 45 40 46 41 48 42 50 43 47 44
REMARK SMILES IDX 69 45 70 46 75 47 71 48 72 49 74 50 76 51 73 52 57 53 58 54
REMARK SMILES IDX 63 55 59 56 60 57 62 58 64 59 61 60 5 61 6 62 7 63 8 64 9 65
REMARK SMILES IDX 10 66 23 67 11 68 12 69 24 70 25 71 33 72 26 73 32 74 27 75
REMARK SMILES IDX 31 76 28 77 30 78 29 79 13 80 14 81 22 82 15 83 17 84 16 85
REMARK SMILES IDX 18 86 19 87 20 88 21 89
REMARK H PARENT 81 22 55 33
REMARK Flexibility Score: inf
ROOT
ATOM      1  C   UNL A   1      37.791  21.410  25.387  1.00  0.00     0.275 C 
ENDROOT
BRANCH   1   2
ATOM      2  O   UNL A   1      38.539  22.587  25.755  1.00  0.00    -0.458 OA
BRANCH   2   3
ATOM      3  C   UNL A   1      39.520  22.477  26.676  1.00  0.00     0.338 C 
ATOM      4  O   UNL A   1      40.032  21.414  26.988  1.00  0.00    -0.246 OA
BRANCH   3   5
ATOM      5  C   UNL A   1      40.028  23.788  27.154  1.00  0.00     0.060 A 
ATOM      6  C   UNL A   1      41.146  23.895  27.992  1.00  0.00     0.016 A 
ATOM      7  C   UNL A   1      39.321  24.938  26.777  1.00  0.00     0.016 A 
ATOM      8  C   UNL A   1      41.519  25.127  28.502  1.00  0.00     0.010 A 
ATOM      9  C   UNL A   1      39.685  26.171  27.299  1.00  0.00     0.010 A 
ATOM     10  C   UNL A   1      40.752  26.249  28.198  1.00  0.00    -0.014 A 
BRANCH  10  11
ATOM     11  C   UNL A   1      41.052  27.485  28.913  1.00  0.00     0.031 A 
ATOM     12  C   UNL A   1      42.316  28.198  28.558  1.00  0.00     0.074 A 
ATOM     13  C   UNL A   1      40.133  28.003  29.753  1.00  0.00     0.049 A 
ATOM     14  N   UNL A   1      43.218  28.703  29.342  1.00  0.00    -0.248 NA
ATOM     15  C   UNL A   1      42.630  28.340  27.126  1.00  0.00     0.031 C 
ATOM     16  C   UNL A   1      38.755  27.539  29.961  1.00  0.00     0.029 A 
ATOM     17  N   UNL A   1      40.191  29.138  30.498  1.00  0.00    -0.354 N 
ATOM     18  C   UNL A   1      44.120  29.376  28.514  1.00  0.00     0.074 A 
ATOM     19  C   UNL A   1      43.763  29.040  27.160  1.00  0.00     0.031 C 
ATOM     20  C   UNL A   1      38.049  28.513  30.573  1.00  0.00     0.029 A 
ATOM     21  C   UNL A   1      38.949  29.603  30.902  1.00  0.00     0.049 A 
ATOM     22  H   UNL A   1      41.036  29.588  30.731  1.00  0.00     0.167 HD
ATOM     23  C   UNL A   1      44.988  30.315  28.983  1.00  0.00     0.037 A 
ATOM     24  C   UNL A   1      38.662  30.839  31.372  1.00  0.00     0.037 A 
ATOM     25  C   UNL A   1      45.266  30.145  30.381  1.00  0.00     0.049 A 
ATOM     26  C   UNL A   1      39.930  31.469  31.808  1.00  0.00     0.074 A 
ATOM     27  C   UNL A   1      45.830  29.145  31.148  1.00  0.00     0.029 A 
ATOM     28  N   UNL A   1      44.698  31.012  31.281  1.00  0.00    -0.354 N 
ATOM     29  N   UNL A   1      40.633  31.075  32.833  1.00  0.00    -0.248 NA
ATOM     30  C   UNL A   1      40.644  32.290  30.841  1.00  0.00     0.031 C 
ATOM     31  C   UNL A   1      45.138  29.198  32.393  1.00  0.00     0.029 A 
ATOM     32  C   UNL A   1      44.217  30.242  32.307  1.00  0.00     0.049 A 
ATOM     33  H   UNL A   1      44.647  31.992  31.205  1.00  0.00     0.167 HD
ATOM     34  C   UNL A   1      41.955  31.251  32.449  1.00  0.00     0.074 A 
ATOM     35  C   UNL A   1      41.897  32.090  31.255  1.00  0.00     0.031 C 
ATOM     36  C   UNL A   1      42.955  30.477  32.965  1.00  0.00     0.037 A 
BRANCH  23  37
ATOM     37  C   UNL A   1      45.341  31.581  28.237  1.00  0.00     0.057 A 
ATOM     38  C   UNL A   1      44.338  32.525  27.946  1.00  0.00     0.134 A 
ATOM     39  C   UNL A   1      46.552  31.764  27.540  1.00  0.00     0.134 A 
ATOM     40  F   UNL A   1      43.134  32.456  28.533  1.00  0.00    -0.206 F 
ATOM     41  C   UNL A   1      44.504  33.525  26.978  1.00  0.00     0.040 A 
ATOM     42  C   UNL A   1      46.744  32.787  26.606  1.00  0.00     0.040 A 
ATOM     43  F   UNL A   1      47.577  30.909  27.652  1.00  0.00    -0.206 F 
ATOM     44  C   UNL A   1      45.708  33.653  26.298  1.00  0.00     0.006 A 
ENDBRANCH  23  37
BRANCH  24  45
ATOM     45  C   UNL A   1      37.421  31.608  31.130  1.00  0.00     0.057 A 
ATOM     46  C   UNL A   1      37.071  32.051  29.851  1.00  0.00     0.134 A 
ATOM     47  C   UNL A   1      36.427  31.729  32.121  1.00  0.00     0.134 A 
ATOM     48  F   UNL A   1      37.930  31.926  28.829  1.00  0.00    -0.206 F 
ATOM     49  C   UNL A   1      35.806  32.591  29.572  1.00  0.00     0.040 A 
ATOM     50  C   UNL A   1      35.168  32.276  31.861  1.00  0.00     0.040 A 
ATOM     51  F   UNL A   1      36.615  31.243  33.357  1.00  0.00    -0.206 F 
ATOM     52  C   UNL A   1      34.850  32.702  30.578  1.00  0.00     0.006 A 
ENDBRANCH  24  45
BRANCH  36  53
ATOM     53  C   UNL A   1      42.621  29.572  34.116  1.00  0.00     0.057 A 
ATOM     54  C   UNL A   1      42.128  28.269  33.947  1.00  0.00     0.134 A 
ATOM     55  C   UNL A   1      42.969  29.952  35.416  1.00  0.00     0.134 A 
ATOM     56  F   UNL A   1      41.880  27.778  32.728  1.00  0.00    -0.206 F 
ATOM     57  C   UNL A   1      41.945  27.401  35.027  1.00  0.00     0.040 A 
ATOM     58  C   UNL A   1      42.822  29.083  36.500  1.00  0.00     0.040 A 
ATOM     59  F   UNL A   1      43.514  31.157  35.645  1.00  0.00    -0.206 F 
ATOM     60  C   UNL A   1      42.299  27.805  36.309  1.00  0.00     0.006 A 
ENDBRANCH  36  53
ENDBRANCH  10  11
ENDBRANCH   3   5
ENDBRANCH   2   3
ENDBRANCH   1   2
BRANCH   1  61
ATOM     61  C   UNL A   1      36.290  21.424  25.673  1.00  0.00     0.275 C 
BRANCH  61  62
ATOM     62  O   UNL A   1      35.530  21.598  24.460  1.00  0.00    -0.457 OA
BRANCH  62  63
ATOM     63  C   UNL A   1      34.182  21.366  24.563  1.00  0.00     0.361 C 
ATOM     64  O   UNL A   1      33.687  20.343  25.019  1.00  0.00    -0.244 OA
BRANCH  63  65
ATOM     65  C   UNL A   1      33.384  22.457  24.027  1.00  0.00     0.198 A 
ATOM     66  N   UNL A   1      32.662  22.334  22.869  1.00  0.00    -0.122 NA
ATOM     67  C   UNL A   1      33.199  23.733  24.545  1.00  0.00     0.123 A 
ATOM     68  N   UNL A   1      32.034  23.480  22.650  1.00  0.00    -0.061 NA
ATOM     69  N   UNL A   1      32.495  24.382  23.546  1.00  0.00    -0.213 N 
BRANCH  67  70
ATOM     70  C   UNL A   1      33.527  24.282  25.900  1.00  0.00     0.262 C 
ATOM     71  C   UNL A   1      32.334  24.213  26.860  1.00  0.00     0.281 C 
ATOM     72  O   UNL A   1      34.132  25.574  25.805  1.00  0.00    -0.477 OA
ATOM     73  O   UNL A   1      31.368  25.229  26.580  1.00  0.00    -0.485 OA
ATOM     74  C   UNL A   1      33.338  26.604  26.237  1.00  0.00     0.162 A 
ATOM     75  C   UNL A   1      31.987  26.452  26.563  1.00  0.00     0.161 A 
ATOM     76  C   UNL A   1      33.917  27.872  26.255  1.00  0.00     0.050 A 
ATOM     77  C   UNL A   1      31.199  27.567  26.833  1.00  0.00     0.050 A 
ATOM     78  C   UNL A   1      33.136  28.989  26.558  1.00  0.00     0.004 A 
ATOM     79  C   UNL A   1      31.775  28.838  26.830  1.00  0.00     0.004 A 
ENDBRANCH  67  70
BRANCH  69  80
ATOM     80  C   UNL A   1      32.481  25.743  23.195  1.00  0.00     0.067 A 
ATOM     81  C   UNL A   1      33.661  26.360  22.776  1.00  0.00     0.028 A 
ATOM     82  C   UNL A   1      31.287  26.468  23.314  1.00  0.00     0.041 A 
ATOM     83  C   UNL A   1      33.621  27.696  22.380  1.00  0.00     0.003 A 
ATOM     84  C   UNL A   1      31.259  27.827  22.971  1.00  0.00     0.058 A 
ATOM     85  C   UNL A   1      32.429  28.422  22.470  1.00  0.00     0.013 A 
BRANCH  84  86
ATOM     86  C   UNL A   1      29.992  28.633  23.110  1.00  0.00     0.416 C 
ATOM     87  F   UNL A   1      30.076  29.587  24.079  1.00  0.00    -0.166 F 
ATOM     88  F   UNL A   1      29.665  29.292  21.963  1.00  0.00    -0.166 F 
ATOM     89  F   UNL A   1      28.904  27.877  23.429  1.00  0.00    -0.166 F 
ENDBRANCH  84  86
ENDBRANCH  69  80
ENDBRANCH  63  65
ENDBRANCH  62  63
ENDBRANCH  61  62
ENDBRANCH   1  61
TORSDOF 14
ENDMDL
