MODEL 1
REMARK VINA RESULT:     -10.1      0.000      0.000
REMARK SMILES Cc1cc(Br)cc2c1O[C@H](C(F)(F)F)C(C(=O)OCCOC(=O)c1ccc(-c3c4nc(c(-c5c(F)cccc5F)c5ccc([nH]5)c(-c5c(F)cccc5F)c5nc(c(-c6c(F)cccc6F)c6ccc3[nH]6)C=C5)C=C4)cc1)=C2
REMARK SMILES IDX 20 1 19 2 18 3 16 4 17 5 15 6 1 7 2 8 3 9 8 10 4 11 7 12
REMARK SMILES IDX 9 13 5 14 6 15 78 16 10 17 11 18 12 19 13 20 14 21 21 22
REMARK SMILES IDX 22 23 23 24 24 25 25 26 77 27 26 28 76 29 27 30 28 31 29 32
REMARK SMILES IDX 70 33 30 34 75 35 69 36 71 37 31 38 74 39 68 40 67 41 32 43
REMARK SMILES IDX 58 44 41 45 57 46 42 47 45 48 56 49 72 50 43 51 44 52 55 54
REMARK SMILES IDX 73 55 46 56 33 57 34 58 39 59 35 60 36 61 38 62 40 63 37 64
REMARK SMILES IDX 59 65 60 66 65 67 61 68 62 69 64 70 66 71 63 72 47 73 48 74
REMARK SMILES IDX 53 75 49 76 50 77 52 78 54 79 51 80
REMARK H PARENT 71 42 45 53
REMARK Flexibility Score: inf
ROOT
ATOM      1  C   UNL A   1      33.831  33.410  28.264  1.00  0.00     0.275 C 
ENDROOT
BRANCH   1   2
ATOM      2  C   UNL A   1      34.422  34.596  29.028  1.00  0.00     0.275 C 
BRANCH   2   3
ATOM      3  O   UNL A   1      34.143  34.505  30.442  1.00  0.00    -0.459 OA
BRANCH   3   4
ATOM      4  C   UNL A   1      34.782  33.509  31.097  1.00  0.00     0.338 C 
ATOM      5  O   UNL A   1      34.402  32.353  31.213  1.00  0.00    -0.246 OA
BRANCH   4   6
ATOM      6  C   UNL A   1      36.056  33.987  31.664  1.00  0.00     0.087 C 
ATOM      7  C   UNL A   1      39.820  35.327  34.875  1.00  0.00     0.048 C 
ATOM      8  C   UNL A   1      39.742  34.792  33.474  1.00  0.00    -0.007 A 
ATOM      9  C   UNL A   1      40.920  34.473  32.779  1.00  0.00     0.023 A 
ATOM     10  C   UNL A   1      38.499  34.591  32.852  1.00  0.00     0.130 A 
ATOM     11  C   UNL A   1      40.858  33.969  31.482  1.00  0.00     0.019 A 
ATOM     12  C   UNL A   1      38.450  34.067  31.559  1.00  0.00     0.019 A 
ATOM     13  O   UNL A   1      37.377  34.941  33.553  1.00  0.00    -0.475 OA
ATOM     14  Br  UNL A   1      42.449  33.534  30.558  1.00  0.00    -0.051 Br
ATOM     15  C   UNL A   1      39.629  33.765  30.866  1.00  0.00     0.027 A 
ATOM     16  C   UNL A   1      37.167  33.783  30.950  1.00  0.00     0.027 C 
ATOM     17  C   UNL A   1      36.071  34.521  33.064  1.00  0.00     0.316 C 
BRANCH  17  18
ATOM     18  C   UNL A   1      35.473  33.511  34.058  1.00  0.00     0.430 C 
ATOM     19  F   UNL A   1      35.949  32.262  33.839  1.00  0.00    -0.167 F 
ATOM     20  F   UNL A   1      35.790  33.826  35.338  1.00  0.00    -0.167 F 
ATOM     21  F   UNL A   1      34.125  33.454  33.977  1.00  0.00    -0.167 F 
ENDBRANCH  17  18
ENDBRANCH   4   6
ENDBRANCH   3   4
ENDBRANCH   2   3
ENDBRANCH   1   2
BRANCH   1  22
ATOM     22  O   UNL A   1      34.868  32.676  27.586  1.00  0.00    -0.458 OA
BRANCH  22  23
ATOM     23  C   UNL A   1      34.850  31.341  27.794  1.00  0.00     0.338 C 
ATOM     24  O   UNL A   1      34.079  30.525  27.318  1.00  0.00    -0.246 OA
BRANCH  23  25
ATOM     25  C   UNL A   1      35.984  30.935  28.635  1.00  0.00     0.060 A 
ATOM     26  C   UNL A   1      37.211  31.550  28.422  1.00  0.00     0.016 A 
ATOM     27  C   UNL A   1      35.903  29.807  29.444  1.00  0.00     0.016 A 
ATOM     28  C   UNL A   1      38.380  30.931  28.849  1.00  0.00     0.010 A 
ATOM     29  C   UNL A   1      37.070  29.286  30.018  1.00  0.00     0.010 A 
ATOM     30  C   UNL A   1      38.334  29.803  29.678  1.00  0.00    -0.014 A 
BRANCH  30  31
ATOM     31  C   UNL A   1      39.596  29.163  30.155  1.00  0.00     0.031 A 
ATOM     32  C   UNL A   1      40.268  29.644  31.419  1.00  0.00     0.074 A 
ATOM     33  C   UNL A   1      40.138  28.129  29.477  1.00  0.00     0.049 A 
ATOM     34  N   UNL A   1      41.459  29.357  31.885  1.00  0.00    -0.248 NA
ATOM     35  C   UNL A   1      39.510  30.580  32.265  1.00  0.00     0.031 C 
ATOM     36  C   UNL A   1      39.573  27.511  28.275  1.00  0.00     0.029 A 
ATOM     37  N   UNL A   1      41.278  27.399  29.709  1.00  0.00    -0.354 N 
ATOM     38  C   UNL A   1      41.612  30.118  33.039  1.00  0.00     0.074 A 
ATOM     39  C   UNL A   1      40.400  30.890  33.199  1.00  0.00     0.031 C 
ATOM     40  C   UNL A   1      40.326  26.463  27.916  1.00  0.00     0.029 A 
ATOM     41  C   UNL A   1      41.497  26.409  28.780  1.00  0.00     0.049 A 
ATOM     42  H   UNL A   1      41.882  27.569  30.468  1.00  0.00     0.167 HD
ATOM     43  C   UNL A   1      42.669  30.164  33.887  1.00  0.00     0.037 A 
ATOM     44  C   UNL A   1      42.543  25.581  28.598  1.00  0.00     0.037 A 
ATOM     45  C   UNL A   1      43.848  29.348  33.754  1.00  0.00     0.049 A 
ATOM     46  C   UNL A   1      43.729  25.698  29.509  1.00  0.00     0.074 A 
ATOM     47  C   UNL A   1      44.971  29.319  34.563  1.00  0.00     0.029 A 
ATOM     48  N   UNL A   1      44.048  28.401  32.760  1.00  0.00    -0.354 N 
ATOM     49  N   UNL A   1      43.895  26.479  30.549  1.00  0.00    -0.248 NA
ATOM     50  C   UNL A   1      44.883  24.843  29.206  1.00  0.00     0.031 C 
ATOM     51  C   UNL A   1      45.868  28.387  34.034  1.00  0.00     0.029 A 
ATOM     52  C   UNL A   1      45.283  27.797  32.926  1.00  0.00     0.049 A 
ATOM     53  H   UNL A   1      43.407  28.191  32.043  1.00  0.00     0.167 HD
ATOM     54  C   UNL A   1      45.166  26.201  31.031  1.00  0.00     0.074 A 
ATOM     55  C   UNL A   1      45.719  25.165  30.183  1.00  0.00     0.031 C 
ATOM     56  C   UNL A   1      45.818  26.762  32.077  1.00  0.00     0.037 A 
BRANCH  43  57
ATOM     57  C   UNL A   1      42.617  31.142  35.027  1.00  0.00     0.057 A 
ATOM     58  C   UNL A   1      43.061  32.464  34.899  1.00  0.00     0.134 A 
ATOM     59  C   UNL A   1      42.048  30.772  36.255  1.00  0.00     0.134 A 
ATOM     60  F   UNL A   1      43.626  32.883  33.756  1.00  0.00    -0.206 F 
ATOM     61  C   UNL A   1      42.954  33.378  35.951  1.00  0.00     0.040 A 
ATOM     62  C   UNL A   1      41.910  31.683  37.303  1.00  0.00     0.040 A 
ATOM     63  F   UNL A   1      41.594  29.524  36.446  1.00  0.00    -0.206 F 
ATOM     64  C   UNL A   1      42.367  32.990  37.154  1.00  0.00     0.006 A 
ENDBRANCH  43  57
BRANCH  44  65
ATOM     65  C   UNL A   1      42.526  24.603  27.480  1.00  0.00     0.057 A 
ATOM     66  C   UNL A   1      43.023  24.941  26.217  1.00  0.00     0.134 A 
ATOM     67  C   UNL A   1      42.043  23.297  27.653  1.00  0.00     0.134 A 
ATOM     68  F   UNL A   1      43.477  26.180  25.981  1.00  0.00    -0.206 F 
ATOM     69  C   UNL A   1      43.043  24.019  25.168  1.00  0.00     0.040 A 
ATOM     70  C   UNL A   1      42.087  22.357  26.622  1.00  0.00     0.040 A 
ATOM     71  F   UNL A   1      41.554  22.907  28.839  1.00  0.00    -0.206 F 
ATOM     72  C   UNL A   1      42.585  22.719  25.374  1.00  0.00     0.006 A 
ENDBRANCH  44  65
BRANCH  56  73
ATOM     73  C   UNL A   1      47.194  26.252  32.384  1.00  0.00     0.057 A 
ATOM     74  C   UNL A   1      48.337  26.838  31.828  1.00  0.00     0.134 A 
ATOM     75  C   UNL A   1      47.380  25.203  33.295  1.00  0.00     0.134 A 
ATOM     76  F   UNL A   1      48.226  27.837  30.940  1.00  0.00    -0.206 F 
ATOM     77  C   UNL A   1      49.618  26.389  32.155  1.00  0.00     0.040 A 
ATOM     78  C   UNL A   1      48.655  24.764  33.650  1.00  0.00     0.040 A 
ATOM     79  F   UNL A   1      46.325  24.605  33.869  1.00  0.00    -0.206 F 
ATOM     80  C   UNL A   1      49.779  25.355  33.076  1.00  0.00     0.006 A 
ENDBRANCH  56  73
ENDBRANCH  30  31
ENDBRANCH  23  25
ENDBRANCH  22  23
ENDBRANCH   1  22
TORSDOF 12
ENDMDL
MODEL 2
REMARK VINA RESULT:     -10.1      4.759      9.568
REMARK SMILES Cc1cc(Br)cc2c1O[C@H](C(F)(F)F)C(C(=O)OCCOC(=O)c1ccc(-c3c4nc(c(-c5c(F)cccc5F)c5ccc([nH]5)c(-c5c(F)cccc5F)c5nc(c(-c6c(F)cccc6F)c6ccc3[nH]6)C=C5)C=C4)cc1)=C2
REMARK SMILES IDX 20 1 19 2 18 3 16 4 17 5 15 6 1 7 2 8 3 9 8 10 4 11 7 12
REMARK SMILES IDX 9 13 5 14 6 15 78 16 10 17 11 18 12 19 13 20 14 21 21 22
REMARK SMILES IDX 22 23 23 24 24 25 25 26 77 27 26 28 76 29 27 30 28 31 29 32
REMARK SMILES IDX 70 33 30 34 75 35 69 36 71 37 31 38 74 39 68 40 67 41 32 43
REMARK SMILES IDX 58 44 41 45 57 46 42 47 45 48 56 49 72 50 43 51 44 52 55 54
REMARK SMILES IDX 73 55 46 56 33 57 34 58 39 59 35 60 36 61 38 62 40 63 37 64
REMARK SMILES IDX 59 65 60 66 65 67 61 68 62 69 64 70 66 71 63 72 47 73 48 74
REMARK SMILES IDX 53 75 49 76 50 77 52 78 54 79 51 80
REMARK H PARENT 71 42 45 53
REMARK Flexibility Score: inf
ROOT
ATOM      1  C   UNL A   1      31.709  30.094  25.398  1.00  0.00     0.275 C 
ENDROOT
BRANCH   1   2
ATOM      2  C   UNL A   1      31.448  28.694  24.838  1.00  0.00     0.275 C 
BRANCH   2   3
ATOM      3  O   UNL A   1      32.249  27.698  25.512  1.00  0.00    -0.459 OA
BRANCH   3   4
ATOM      4  C   UNL A   1      31.556  26.785  26.229  1.00  0.00     0.338 C 
ATOM      5  O   UNL A   1      30.655  27.012  27.021  1.00  0.00    -0.246 OA
BRANCH   4   6
ATOM      6  C   UNL A   1      32.016  25.418  25.920  1.00  0.00     0.087 C 
ATOM      7  C   UNL A   1      32.588  20.771  23.836  1.00  0.00     0.048 C 
ATOM      8  C   UNL A   1      33.487  21.759  24.520  1.00  0.00    -0.007 A 
ATOM      9  C   UNL A   1      34.864  21.500  24.624  1.00  0.00     0.023 A 
ATOM     10  C   UNL A   1      32.970  22.954  25.048  1.00  0.00     0.130 A 
ATOM     11  C   UNL A   1      35.707  22.415  25.250  1.00  0.00     0.019 A 
ATOM     12  C   UNL A   1      33.828  23.871  25.655  1.00  0.00     0.019 A 
ATOM     13  O   UNL A   1      31.619  23.154  24.950  1.00  0.00    -0.475 OA
ATOM     14  Br  UNL A   1      37.560  22.062  25.376  1.00  0.00    -0.051 Br
ATOM     15  C   UNL A   1      35.197  23.599  25.769  1.00  0.00     0.027 A 
ATOM     16  C   UNL A   1      33.307  25.137  26.126  1.00  0.00     0.027 C 
ATOM     17  C   UNL A   1      31.071  24.471  25.246  1.00  0.00     0.316 C 
BRANCH  17  18
ATOM     18  C   UNL A   1      30.502  25.071  23.950  1.00  0.00     0.430 C 
ATOM     19  F   UNL A   1      31.457  25.729  23.250  1.00  0.00    -0.167 F 
ATOM     20  F   UNL A   1      30.016  24.109  23.128  1.00  0.00    -0.167 F 
ATOM     21  F   UNL A   1      29.497  25.944  24.190  1.00  0.00    -0.167 F 
ENDBRANCH  17  18
ENDBRANCH   4   6
ENDBRANCH   3   4
ENDBRANCH   2   3
ENDBRANCH   1   2
BRANCH   1  22
ATOM     22  O   UNL A   1      32.353  30.014  26.683  1.00  0.00    -0.458 OA
BRANCH  22  23
ATOM     23  C   UNL A   1      32.920  31.164  27.109  1.00  0.00     0.338 C 
ATOM     24  O   UNL A   1      32.382  32.249  27.251  1.00  0.00    -0.246 OA
BRANCH  23  25
ATOM     25  C   UNL A   1      34.319  30.936  27.496  1.00  0.00     0.060 A 
ATOM     26  C   UNL A   1      34.747  29.626  27.668  1.00  0.00     0.016 A 
ATOM     27  C   UNL A   1      35.121  31.991  27.919  1.00  0.00     0.016 A 
ATOM     28  C   UNL A   1      35.876  29.360  28.433  1.00  0.00     0.010 A 
ATOM     29  C   UNL A   1      36.348  31.717  28.538  1.00  0.00     0.010 A 
ATOM     30  C   UNL A   1      36.714  30.397  28.861  1.00  0.00    -0.014 A 
BRANCH  30  31
ATOM     31  C   UNL A   1      37.941  30.098  29.659  1.00  0.00     0.031 A 
ATOM     32  C   UNL A   1      39.045  29.249  29.076  1.00  0.00     0.074 A 
ATOM     33  C   UNL A   1      38.089  30.606  30.901  1.00  0.00     0.049 A 
ATOM     34  N   UNL A   1      40.084  28.718  29.672  1.00  0.00    -0.248 NA
ATOM     35  C   UNL A   1      38.967  28.945  27.638  1.00  0.00     0.031 C 
ATOM     36  C   UNL A   1      37.140  31.493  31.577  1.00  0.00     0.029 A 
ATOM     37  N   UNL A   1      39.105  30.464  31.816  1.00  0.00    -0.354 N 
ATOM     38  C   UNL A   1      40.744  27.974  28.700  1.00  0.00     0.074 A 
ATOM     39  C   UNL A   1      39.986  28.111  27.477  1.00  0.00     0.031 C 
ATOM     40  C   UNL A   1      37.642  31.867  32.760  1.00  0.00     0.029 A 
ATOM     41  C   UNL A   1      38.888  31.147  32.989  1.00  0.00     0.049 A 
ATOM     42  H   UNL A   1      39.910  29.923  31.647  1.00  0.00     0.167 HD
ATOM     43  C   UNL A   1      41.883  27.248  28.820  1.00  0.00     0.037 A 
ATOM     44  C   UNL A   1      39.576  31.159  34.147  1.00  0.00     0.037 A 
ATOM     45  C   UNL A   1      42.666  27.165  30.026  1.00  0.00     0.049 A 
ATOM     46  C   UNL A   1      40.794  30.293  34.277  1.00  0.00     0.074 A 
ATOM     47  C   UNL A   1      43.835  26.458  30.247  1.00  0.00     0.029 A 
ATOM     48  N   UNL A   1      42.372  27.829  31.208  1.00  0.00    -0.354 N 
ATOM     49  N   UNL A   1      41.363  29.531  33.375  1.00  0.00    -0.248 NA
ATOM     50  C   UNL A   1      41.449  30.265  35.591  1.00  0.00     0.031 C 
ATOM     51  C   UNL A   1      44.224  26.659  31.574  1.00  0.00     0.029 A 
ATOM     52  C   UNL A   1      43.327  27.533  32.166  1.00  0.00     0.049 A 
ATOM     53  H   UNL A   1      41.598  28.423  31.345  1.00  0.00     0.167 HD
ATOM     54  C   UNL A   1      42.449  28.942  34.007  1.00  0.00     0.074 A 
ATOM     55  C   UNL A   1      42.471  29.452  35.363  1.00  0.00     0.031 C 
ATOM     56  C   UNL A   1      43.340  28.053  33.510  1.00  0.00     0.037 A 
BRANCH  43  57
ATOM     57  C   UNL A   1      42.348  26.461  27.626  1.00  0.00     0.057 A 
ATOM     58  C   UNL A   1      41.937  25.142  27.394  1.00  0.00     0.134 A 
ATOM     59  C   UNL A   1      43.165  27.059  26.656  1.00  0.00     0.134 A 
ATOM     60  F   UNL A   1      41.163  24.505  28.285  1.00  0.00    -0.206 F 
ATOM     61  C   UNL A   1      42.332  24.443  26.250  1.00  0.00     0.040 A 
ATOM     62  C   UNL A   1      43.544  26.381  25.497  1.00  0.00     0.040 A 
ATOM     63  F   UNL A   1      43.590  28.323  26.810  1.00  0.00    -0.206 F 
ATOM     64  C   UNL A   1      43.130  25.068  25.293  1.00  0.00     0.006 A 
ENDBRANCH  43  57
BRANCH  44  65
ATOM     65  C   UNL A   1      39.096  31.987  35.283  1.00  0.00     0.057 A 
ATOM     66  C   UNL A   1      39.414  33.346  35.370  1.00  0.00     0.134 A 
ATOM     67  C   UNL A   1      38.281  31.451  36.292  1.00  0.00     0.134 A 
ATOM     68  F   UNL A   1      40.208  33.913  34.451  1.00  0.00    -0.206 F 
ATOM     69  C   UNL A   1      38.941  34.142  36.416  1.00  0.00     0.040 A 
ATOM     70  C   UNL A   1      37.775  32.242  37.324  1.00  0.00     0.040 A 
ATOM     71  F   UNL A   1      37.936  30.155  36.266  1.00  0.00    -0.206 F 
ATOM     72  C   UNL A   1      38.109  33.592  37.389  1.00  0.00     0.006 A 
ENDBRANCH  44  65
BRANCH  56  73
ATOM     73  C   UNL A   1      44.433  27.589  34.425  1.00  0.00     0.057 A 
ATOM     74  C   UNL A   1      44.308  26.422  35.189  1.00  0.00     0.134 A 
ATOM     75  C   UNL A   1      45.648  28.284  34.497  1.00  0.00     0.134 A 
ATOM     76  F   UNL A   1      43.166  25.718  35.175  1.00  0.00    -0.206 F 
ATOM     77  C   UNL A   1      45.349  25.970  36.002  1.00  0.00     0.040 A 
ATOM     78  C   UNL A   1      46.704  27.828  35.285  1.00  0.00     0.040 A 
ATOM     79  F   UNL A   1      45.833  29.405  33.783  1.00  0.00    -0.206 F 
ATOM     80  C   UNL A   1      46.554  26.668  36.045  1.00  0.00     0.006 A 
ENDBRANCH  56  73
ENDBRANCH  30  31
ENDBRANCH  23  25
ENDBRANCH  22  23
ENDBRANCH   1  22
TORSDOF 12
ENDMDL
MODEL 3
REMARK VINA RESULT:     -10.0      5.562      9.290
REMARK SMILES Cc1cc(Br)cc2c1O[C@H](C(F)(F)F)C(C(=O)OCCOC(=O)c1ccc(-c3c4nc(c(-c5c(F)cccc5F)c5ccc([nH]5)c(-c5c(F)cccc5F)c5nc(c(-c6c(F)cccc6F)c6ccc3[nH]6)C=C5)C=C4)cc1)=C2
REMARK SMILES IDX 20 1 19 2 18 3 16 4 17 5 15 6 1 7 2 8 3 9 8 10 4 11 7 12
REMARK SMILES IDX 9 13 5 14 6 15 78 16 10 17 11 18 12 19 13 20 14 21 21 22
REMARK SMILES IDX 22 23 23 24 24 25 25 26 77 27 26 28 76 29 27 30 28 31 29 32
REMARK SMILES IDX 70 33 30 34 75 35 69 36 71 37 31 38 74 39 68 40 67 41 32 43
REMARK SMILES IDX 58 44 41 45 57 46 42 47 45 48 56 49 72 50 43 51 44 52 55 54
REMARK SMILES IDX 73 55 46 56 33 57 34 58 39 59 35 60 36 61 38 62 40 63 37 64
REMARK SMILES IDX 59 65 60 66 65 67 61 68 62 69 64 70 66 71 63 72 47 73 48 74
REMARK SMILES IDX 53 75 49 76 50 77 52 78 54 79 51 80
REMARK H PARENT 71 42 45 53
REMARK Flexibility Score: inf
ROOT
ATOM      1  C   UNL A   1      36.334  20.707  25.137  1.00  0.00     0.275 C 
ENDROOT
BRANCH   1   2
ATOM      2  C   UNL A   1      35.002  21.443  24.984  1.00  0.00     0.275 C 
BRANCH   2   3
ATOM      3  O   UNL A   1      35.197  22.868  24.861  1.00  0.00    -0.459 OA
BRANCH   3   4
ATOM      4  C   UNL A   1      34.999  23.377  23.623  1.00  0.00     0.338 C 
ATOM      5  O   UNL A   1      35.504  22.980  22.584  1.00  0.00    -0.246 OA
BRANCH   4   6
ATOM      6  C   UNL A   1      34.046  24.501  23.665  1.00  0.00     0.087 C 
ATOM      7  C   UNL A   1      29.791  27.355  23.523  1.00  0.00     0.048 C 
ATOM      8  C   UNL A   1      31.103  27.418  24.249  1.00  0.00    -0.007 A 
ATOM      9  C   UNL A   1      31.326  28.421  25.208  1.00  0.00     0.023 A 
ATOM     10  C   UNL A   1      32.110  26.473  23.994  1.00  0.00     0.130 A 
ATOM     11  C   UNL A   1      32.537  28.483  25.893  1.00  0.00     0.019 A 
ATOM     12  C   UNL A   1      33.311  26.535  24.702  1.00  0.00     0.019 A 
ATOM     13  O   UNL A   1      31.863  25.530  23.034  1.00  0.00    -0.475 OA
ATOM     14  Br  UNL A   1      32.825  29.831  27.187  1.00  0.00    -0.051 Br
ATOM     15  C   UNL A   1      33.534  27.546  25.644  1.00  0.00     0.027 A 
ATOM     16  C   UNL A   1      34.316  25.512  24.497  1.00  0.00     0.027 C 
ATOM     17  C   UNL A   1      32.756  24.386  22.911  1.00  0.00     0.316 C 
BRANCH  17  18
ATOM     18  C   UNL A   1      31.987  23.114  23.302  1.00  0.00     0.430 C 
ATOM     19  F   UNL A   1      32.080  22.870  24.632  1.00  0.00    -0.167 F 
ATOM     20  F   UNL A   1      30.666  23.226  23.022  1.00  0.00    -0.167 F 
ATOM     21  F   UNL A   1      32.447  22.020  22.654  1.00  0.00    -0.167 F 
ENDBRANCH  17  18
ENDBRANCH   4   6
ENDBRANCH   3   4
ENDBRANCH   2   3
ENDBRANCH   1   2
BRANCH   1  22
ATOM     22  O   UNL A   1      37.437  21.626  25.020  1.00  0.00    -0.458 OA
BRANCH  22  23
ATOM     23  C   UNL A   1      38.553  21.264  25.689  1.00  0.00     0.338 C 
ATOM     24  O   UNL A   1      39.127  20.188  25.651  1.00  0.00    -0.246 OA
BRANCH  23  25
ATOM     25  C   UNL A   1      39.093  22.403  26.445  1.00  0.00     0.060 A 
ATOM     26  C   UNL A   1      38.587  23.668  26.175  1.00  0.00     0.016 A 
ATOM     27  C   UNL A   1      40.238  22.263  27.222  1.00  0.00     0.016 A 
ATOM     28  C   UNL A   1      39.326  24.797  26.509  1.00  0.00     0.010 A 
ATOM     29  C   UNL A   1      40.885  23.408  27.706  1.00  0.00     0.010 A 
ATOM     30  C   UNL A   1      40.475  24.693  27.304  1.00  0.00    -0.014 A 
BRANCH  30  31
ATOM     31  C   UNL A   1      41.245  25.915  27.682  1.00  0.00     0.031 A 
ATOM     32  C   UNL A   1      40.618  26.977  28.553  1.00  0.00     0.074 A 
ATOM     33  C   UNL A   1      42.522  26.073  27.271  1.00  0.00     0.049 A 
ATOM     34  N   UNL A   1      41.046  28.186  28.822  1.00  0.00    -0.248 NA
ATOM     35  C   UNL A   1      39.336  26.644  29.196  1.00  0.00     0.031 C 
ATOM     36  C   UNL A   1      43.286  25.107  26.478  1.00  0.00     0.029 A 
ATOM     37  N   UNL A   1      43.414  27.097  27.477  1.00  0.00    -0.354 N 
ATOM     38  C   UNL A   1      40.062  28.773  29.612  1.00  0.00     0.074 A 
ATOM     39  C   UNL A   1      39.010  27.794  29.770  1.00  0.00     0.031 C 
ATOM     40  C   UNL A   1      44.540  25.550  26.322  1.00  0.00     0.029 A 
ATOM     41  C   UNL A   1      44.639  26.887  26.889  1.00  0.00     0.049 A 
ATOM     42  H   UNL A   1      43.195  27.906  27.996  1.00  0.00     0.167 HD
ATOM     43  C   UNL A   1      40.045  30.014  30.157  1.00  0.00     0.037 A 
ATOM     44  C   UNL A   1      45.711  27.693  26.764  1.00  0.00     0.037 A 
ATOM     45  C   UNL A   1      41.124  30.961  30.045  1.00  0.00     0.049 A 
ATOM     46  C   UNL A   1      45.640  29.086  27.317  1.00  0.00     0.074 A 
ATOM     47  C   UNL A   1      41.203  32.242  30.563  1.00  0.00     0.029 A 
ATOM     48  N   UNL A   1      42.322  30.723  29.387  1.00  0.00    -0.354 N 
ATOM     49  N   UNL A   1      44.673  29.656  27.992  1.00  0.00    -0.248 NA
ATOM     50  C   UNL A   1      46.796  29.957  27.066  1.00  0.00     0.031 C 
ATOM     51  C   UNL A   1      42.429  32.795  30.182  1.00  0.00     0.029 A 
ATOM     52  C   UNL A   1      43.137  31.840  29.472  1.00  0.00     0.049 A 
ATOM     53  H   UNL A   1      42.558  29.884  28.929  1.00  0.00     0.167 HD
ATOM     54  C   UNL A   1      45.106  30.948  28.257  1.00  0.00     0.074 A 
ATOM     55  C   UNL A   1      46.433  31.069  27.689  1.00  0.00     0.031 C 
ATOM     56  C   UNL A   1      44.458  31.944  28.906  1.00  0.00     0.037 A 
BRANCH  43  57
ATOM     57  C   UNL A   1      38.814  30.438  30.908  1.00  0.00     0.057 A 
ATOM     58  C   UNL A   1      37.740  31.081  30.281  1.00  0.00     0.134 A 
ATOM     59  C   UNL A   1      38.673  30.133  32.270  1.00  0.00     0.134 A 
ATOM     60  F   UNL A   1      37.811  31.413  28.983  1.00  0.00    -0.206 F 
ATOM     61  C   UNL A   1      36.578  31.418  30.981  1.00  0.00     0.040 A 
ATOM     62  C   UNL A   1      37.507  30.440  32.974  1.00  0.00     0.040 A 
ATOM     63  F   UNL A   1      39.660  29.510  32.933  1.00  0.00    -0.206 F 
ATOM     64  C   UNL A   1      36.457  31.088  32.330  1.00  0.00     0.006 A 
ENDBRANCH  43  57
BRANCH  44  65
ATOM     65  C   UNL A   1      46.919  27.210  26.048  1.00  0.00     0.057 A 
ATOM     66  C   UNL A   1      47.939  26.535  26.727  1.00  0.00     0.134 A 
ATOM     67  C   UNL A   1      47.071  27.380  24.664  1.00  0.00     0.134 A 
ATOM     68  F   UNL A   1      47.865  26.361  28.054  1.00  0.00    -0.206 F 
ATOM     69  C   UNL A   1      49.064  26.047  26.059  1.00  0.00     0.040 A 
ATOM     70  C   UNL A   1      48.174  26.868  23.979  1.00  0.00     0.040 A 
ATOM     71  F   UNL A   1      46.129  28.016  23.953  1.00  0.00    -0.206 F 
ATOM     72  C   UNL A   1      49.176  26.202  24.679  1.00  0.00     0.006 A 
ENDBRANCH  44  65
BRANCH  56  73
ATOM     73  C   UNL A   1      45.181  33.249  29.061  1.00  0.00     0.057 A 
ATOM     74  C   UNL A   1      46.054  33.485  30.129  1.00  0.00     0.134 A 
ATOM     75  C   UNL A   1      45.048  34.256  28.096  1.00  0.00     0.134 A 
ATOM     76  F   UNL A   1      46.215  32.565  31.092  1.00  0.00    -0.206 F 
ATOM     77  C   UNL A   1      46.760  34.684  30.240  1.00  0.00     0.040 A 
ATOM     78  C   UNL A   1      45.769  35.447  28.182  1.00  0.00     0.040 A 
ATOM     79  F   UNL A   1      44.233  34.089  27.044  1.00  0.00    -0.206 F 
ATOM     80  C   UNL A   1      46.626  35.665  29.260  1.00  0.00     0.006 A 
ENDBRANCH  56  73
ENDBRANCH  30  31
ENDBRANCH  23  25
ENDBRANCH  22  23
ENDBRANCH   1  22
TORSDOF 12
ENDMDL
