MODEL 1
REMARK VINA RESULT:     -10.3      0.000      0.000
REMARK SMILES C[NH2+][C@H](CC(=O)OCCOC(=O)c1ccc(-c2c3nc(c(-c4c(F)cccc4F)c4ccc([nH]4)c(-c4c(F)cccc4F)c4nc(c(-c5c(F)cccc5F)c5ccc2[nH]5)C=C4)C=C3)cc1)c1cccc(C2CC2)c1
REMARK SMILES IDX 8 1 7 2 5 3 6 4 4 5 3 6 2 7 1 8 67 11 68 12 75 13 69 14
REMARK SMILES IDX 71 15 70 16 72 17 73 18 74 19 9 20 10 21 11 22 12 23 13 24
REMARK SMILES IDX 14 25 66 26 15 27 65 28 16 29 17 30 18 31 59 32 19 33 64 34
REMARK SMILES IDX 58 35 60 36 20 37 63 38 57 39 56 40 21 42 47 43 30 44 46 45
REMARK SMILES IDX 31 46 34 47 45 48 61 49 32 50 33 51 44 53 62 54 35 55 22 56
REMARK SMILES IDX 23 57 28 58 24 59 25 60 27 61 29 62 26 63 48 64 49 65 54 66
REMARK SMILES IDX 50 67 51 68 53 69 55 70 52 71 36 72 37 73 42 74 38 75 39 76
REMARK SMILES IDX 41 77 43 78 40 79
REMARK H PARENT 2 9 2 10 60 41 34 52
REMARK Flexibility Score: inf
ROOT
ATOM      1  C   UNL A   1      38.184  20.008  24.981  1.00  0.00     0.274 C 
ENDROOT
BRANCH   1   2
ATOM      2  O   UNL A   1      37.972  21.425  24.855  1.00  0.00    -0.462 OA
BRANCH   2   3
ATOM      3  C   UNL A   1      36.701  21.858  24.683  1.00  0.00     0.312 C 
ATOM      4  O   UNL A   1      36.346  22.625  23.794  1.00  0.00    -0.252 OA
BRANCH   3   5
ATOM      5  C   UNL A   1      35.783  21.398  25.793  1.00  0.00     0.192 C 
BRANCH   5   6
ATOM      6  C   UNL A   1      34.261  21.436  25.522  1.00  0.00     0.224 C 
BRANCH   6   7
ATOM      7  N   UNL A   1      33.890  22.806  25.124  1.00  0.00    -0.342 N 
ATOM      8  C   UNL A   1      33.874  23.742  26.240  1.00  0.00     0.331 C 
ATOM      9  H   UNL A   1      34.563  23.137  24.433  1.00  0.00     0.346 HD
ATOM     10  H   UNL A   1      32.942  22.767  24.748  1.00  0.00     0.346 HD
ENDBRANCH   6   7
BRANCH   6  11
ATOM     11  C   UNL A   1      33.767  20.306  24.617  1.00  0.00     0.010 A 
ATOM     12  C   UNL A   1      32.746  20.575  23.694  1.00  0.00     0.010 A 
ATOM     13  C   UNL A   1      34.237  18.978  24.697  1.00  0.00     0.014 A 
ATOM     14  C   UNL A   1      32.169  19.548  22.953  1.00  0.00     0.001 A 
ATOM     15  C   UNL A   1      33.679  17.912  23.965  1.00  0.00    -0.044 A 
ATOM     16  C   UNL A   1      32.622  18.236  23.101  1.00  0.00     0.004 A 
BRANCH  15  17
ATOM     17  C   UNL A   1      34.147  16.471  24.079  1.00  0.00     0.019 C 
ATOM     18  C   UNL A   1      35.143  16.000  25.112  1.00  0.00     0.009 C 
ATOM     19  C   UNL A   1      33.698  15.616  25.242  1.00  0.00     0.009 C 
ENDBRANCH  15  17
ENDBRANCH   6  11
ENDBRANCH   5   6
ENDBRANCH   3   5
ENDBRANCH   2   3
ENDBRANCH   1   2
BRANCH   1  20
ATOM     20  C   UNL A   1      39.298  19.705  25.982  1.00  0.00     0.275 C 
BRANCH  20  21
ATOM     21  O   UNL A   1      40.514  19.336  25.304  1.00  0.00    -0.458 OA
BRANCH  21  22
ATOM     22  C   UNL A   1      41.622  19.280  26.071  1.00  0.00     0.338 C 
ATOM     23  O   UNL A   1      42.295  18.310  26.365  1.00  0.00    -0.246 OA
BRANCH  22  24
ATOM     24  C   UNL A   1      42.006  20.626  26.486  1.00  0.00     0.060 A 
ATOM     25  C   UNL A   1      42.346  21.551  25.496  1.00  0.00     0.016 A 
ATOM     26  C   UNL A   1      42.138  20.928  27.841  1.00  0.00     0.016 A 
ATOM     27  C   UNL A   1      42.806  22.807  25.862  1.00  0.00     0.010 A 
ATOM     28  C   UNL A   1      42.593  22.191  28.207  1.00  0.00     0.010 A 
ATOM     29  C   UNL A   1      42.927  23.133  27.218  1.00  0.00    -0.014 A 
BRANCH  29  30
ATOM     30  C   UNL A   1      43.377  24.482  27.604  1.00  0.00     0.031 A 
ATOM     31  C   UNL A   1      42.382  25.513  28.030  1.00  0.00     0.074 A 
ATOM     32  C   UNL A   1      44.691  24.759  27.553  1.00  0.00     0.049 A 
ATOM     33  N   UNL A   1      42.575  26.774  28.314  1.00  0.00    -0.248 NA
ATOM     34  C   UNL A   1      40.984  25.070  28.149  1.00  0.00     0.031 C 
ATOM     35  C   UNL A   1      45.738  23.805  27.179  1.00  0.00     0.029 A 
ATOM     36  N   UNL A   1      45.367  25.921  27.806  1.00  0.00    -0.354 N 
ATOM     37  C   UNL A   1      41.324  27.282  28.632  1.00  0.00     0.074 A 
ATOM     38  C   UNL A   1      40.376  26.197  28.495  1.00  0.00     0.031 C 
ATOM     39  C   UNL A   1      46.928  24.426  27.221  1.00  0.00     0.029 A 
ATOM     40  C   UNL A   1      46.717  25.823  27.584  1.00  0.00     0.049 A 
ATOM     41  H   UNL A   1      44.928  26.746  28.115  1.00  0.00     0.167 HD
ATOM     42  C   UNL A   1      41.005  28.545  29.003  1.00  0.00     0.037 A 
ATOM     43  C   UNL A   1      47.673  26.768  27.644  1.00  0.00     0.037 A 
ATOM     44  C   UNL A   1      41.963  29.610  29.138  1.00  0.00     0.049 A 
ATOM     45  C   UNL A   1      47.285  28.168  28.017  1.00  0.00     0.074 A 
ATOM     46  C   UNL A   1      41.748  30.923  29.518  1.00  0.00     0.029 A 
ATOM     47  N   UNL A   1      43.323  29.481  28.894  1.00  0.00    -0.354 N 
ATOM     48  N   UNL A   1      46.098  28.643  28.313  1.00  0.00    -0.248 NA
ATOM     49  C   UNL A   1      48.363  29.163  28.059  1.00  0.00     0.031 C 
ATOM     50  C   UNL A   1      42.975  31.596  29.475  1.00  0.00     0.029 A 
ATOM     51  C   UNL A   1      43.959  30.694  29.099  1.00  0.00     0.049 A 
ATOM     52  H   UNL A   1      43.770  28.649  28.616  1.00  0.00     0.167 HD
ATOM     53  C   UNL A   1      46.288  29.988  28.591  1.00  0.00     0.074 A 
ATOM     54  C   UNL A   1      47.706  30.250  28.440  1.00  0.00     0.031 C 
ATOM     55  C   UNL A   1      45.371  30.925  28.938  1.00  0.00     0.037 A 
BRANCH  42  56
ATOM     56  C   UNL A   1      39.560  28.841  29.262  1.00  0.00     0.057 A 
ATOM     57  C   UNL A   1      38.700  29.270  28.244  1.00  0.00     0.134 A 
ATOM     58  C   UNL A   1      39.016  28.671  30.541  1.00  0.00     0.134 A 
ATOM     59  F   UNL A   1      39.165  29.468  27.000  1.00  0.00    -0.206 F 
ATOM     60  C   UNL A   1      37.352  29.535  28.491  1.00  0.00     0.040 A 
ATOM     61  C   UNL A   1      37.665  28.916  30.797  1.00  0.00     0.040 A 
ATOM     62  F   UNL A   1      39.787  28.262  31.560  1.00  0.00    -0.206 F 
ATOM     63  C   UNL A   1      36.830  29.352  29.772  1.00  0.00     0.006 A 
ENDBRANCH  42  56
BRANCH  43  64
ATOM     64  C   UNL A   1      49.075  26.413  27.328  1.00  0.00     0.057 A 
ATOM     65  C   UNL A   1      49.584  26.564  26.034  1.00  0.00     0.134 A 
ATOM     66  C   UNL A   1      49.947  25.941  28.317  1.00  0.00     0.134 A 
ATOM     67  F   UNL A   1      48.790  26.996  25.043  1.00  0.00    -0.206 F 
ATOM     68  C   UNL A   1      50.910  26.252  25.732  1.00  0.00     0.040 A 
ATOM     69  C   UNL A   1      51.280  25.645  28.033  1.00  0.00     0.040 A 
ATOM     70  F   UNL A   1      49.518  25.781  29.578  1.00  0.00    -0.206 F 
ATOM     71  C   UNL A   1      51.764  25.797  26.736  1.00  0.00     0.006 A 
ENDBRANCH  43  64
BRANCH  55  72
ATOM     72  C   UNL A   1      45.887  32.307  29.192  1.00  0.00     0.057 A 
ATOM     73  C   UNL A   1      46.334  32.700  30.459  1.00  0.00     0.134 A 
ATOM     74  C   UNL A   1      45.959  33.242  28.153  1.00  0.00     0.134 A 
ATOM     75  F   UNL A   1      46.273  31.851  31.495  1.00  0.00    -0.206 F 
ATOM     76  C   UNL A   1      46.820  33.988  30.688  1.00  0.00     0.040 A 
ATOM     77  C   UNL A   1      46.461  34.526  28.366  1.00  0.00     0.040 A 
ATOM     78  F   UNL A   1      45.550  32.922  26.917  1.00  0.00    -0.206 F 
ATOM     79  C   UNL A   1      46.890  34.903  29.639  1.00  0.00     0.006 A 
ENDBRANCH  55  72
ENDBRANCH  29  30
ENDBRANCH  22  24
ENDBRANCH  21  22
ENDBRANCH  20  21
ENDBRANCH   1  20
TORSDOF 15
ENDMDL
MODEL 2
REMARK VINA RESULT:     -10.3      4.366      8.205
REMARK SMILES C[NH2+][C@H](CC(=O)OCCOC(=O)c1ccc(-c2c3nc(c(-c4c(F)cccc4F)c4ccc([nH]4)c(-c4c(F)cccc4F)c4nc(c(-c5c(F)cccc5F)c5ccc2[nH]5)C=C4)C=C3)cc1)c1cccc(C2CC2)c1
REMARK SMILES IDX 8 1 7 2 5 3 6 4 4 5 3 6 2 7 1 8 67 11 68 12 75 13 69 14
REMARK SMILES IDX 71 15 70 16 72 17 73 18 74 19 9 20 10 21 11 22 12 23 13 24
REMARK SMILES IDX 14 25 66 26 15 27 65 28 16 29 17 30 18 31 59 32 19 33 64 34
REMARK SMILES IDX 58 35 60 36 20 37 63 38 57 39 56 40 21 42 47 43 30 44 46 45
REMARK SMILES IDX 31 46 34 47 45 48 61 49 32 50 33 51 44 53 62 54 35 55 22 56
REMARK SMILES IDX 23 57 28 58 24 59 25 60 27 61 29 62 26 63 48 64 49 65 54 66
REMARK SMILES IDX 50 67 51 68 53 69 55 70 52 71 36 72 37 73 42 74 38 75 39 76
REMARK SMILES IDX 41 77 43 78 40 79
REMARK H PARENT 2 9 2 10 60 41 34 52
REMARK Flexibility Score: inf
ROOT
ATOM      1  C   UNL A   1      41.010  20.889  26.681  1.00  0.00     0.274 C 
ENDROOT
BRANCH   1   2
ATOM      2  O   UNL A   1      39.915  20.559  25.810  1.00  0.00    -0.462 OA
BRANCH   2   3
ATOM      3  C   UNL A   1      38.872  21.421  25.755  1.00  0.00     0.312 C 
ATOM      4  O   UNL A   1      38.825  22.489  26.356  1.00  0.00    -0.252 OA
BRANCH   3   5
ATOM      5  C   UNL A   1      37.706  20.862  24.972  1.00  0.00     0.192 C 
BRANCH   5   6
ATOM      6  C   UNL A   1      36.293  21.386  25.323  1.00  0.00     0.224 C 
BRANCH   6   7
ATOM      7  N   UNL A   1      36.204  22.800  24.915  1.00  0.00    -0.342 N 
ATOM      8  C   UNL A   1      36.655  23.032  23.550  1.00  0.00     0.331 C 
ATOM      9  H   UNL A   1      35.232  23.099  24.991  1.00  0.00     0.346 HD
ATOM     10  H   UNL A   1      36.818  23.333  25.532  1.00  0.00     0.346 HD
ENDBRANCH   6   7
BRANCH   6  11
ATOM     11  C   UNL A   1      35.162  20.469  24.856  1.00  0.00     0.010 A 
ATOM     12  C   UNL A   1      33.899  21.025  24.605  1.00  0.00     0.010 A 
ATOM     13  C   UNL A   1      35.294  19.071  24.721  1.00  0.00     0.014 A 
ATOM     14  C   UNL A   1      32.808  20.212  24.317  1.00  0.00     0.001 A 
ATOM     15  C   UNL A   1      34.214  18.214  24.433  1.00  0.00    -0.044 A 
ATOM     16  C   UNL A   1      32.966  18.826  24.249  1.00  0.00     0.004 A 
BRANCH  15  17
ATOM     17  C   UNL A   1      34.337  16.703  24.332  1.00  0.00     0.019 C 
ATOM     18  C   UNL A   1      35.284  15.887  25.180  1.00  0.00     0.009 C 
ATOM     19  C   UNL A   1      33.808  15.821  25.439  1.00  0.00     0.009 C 
ENDBRANCH  15  17
ENDBRANCH   6  11
ENDBRANCH   5   6
ENDBRANCH   3   5
ENDBRANCH   2   3
ENDBRANCH   1   2
BRANCH   1  20
ATOM     20  C   UNL A   1      42.206  21.412  25.888  1.00  0.00     0.275 C 
BRANCH  20  21
ATOM     21  O   UNL A   1      41.971  22.756  25.429  1.00  0.00    -0.458 OA
BRANCH  21  22
ATOM     22  C   UNL A   1      43.009  23.609  25.550  1.00  0.00     0.338 C 
ATOM     23  O   UNL A   1      44.014  23.686  24.869  1.00  0.00    -0.246 OA
BRANCH  22  24
ATOM     24  C   UNL A   1      42.746  24.560  26.627  1.00  0.00     0.060 A 
ATOM     25  C   UNL A   1      41.659  24.319  27.470  1.00  0.00     0.016 A 
ATOM     26  C   UNL A   1      43.497  25.731  26.724  1.00  0.00     0.016 A 
ATOM     27  C   UNL A   1      41.327  25.250  28.442  1.00  0.00     0.010 A 
ATOM     28  C   UNL A   1      43.166  26.662  27.704  1.00  0.00     0.010 A 
ATOM     29  C   UNL A   1      42.082  26.423  28.565  1.00  0.00    -0.014 A 
BRANCH  29  30
ATOM     30  C   UNL A   1      41.752  27.392  29.624  1.00  0.00     0.031 A 
ATOM     31  C   UNL A   1      42.521  27.395  30.907  1.00  0.00     0.074 A 
ATOM     32  C   UNL A   1      40.744  28.256  29.413  1.00  0.00     0.049 A 
ATOM     33  N   UNL A   1      42.318  28.104  31.985  1.00  0.00    -0.248 NA
ATOM     34  C   UNL A   1      43.668  26.478  30.989  1.00  0.00     0.031 C 
ATOM     35  C   UNL A   1      39.959  28.346  28.180  1.00  0.00     0.029 A 
ATOM     36  N   UNL A   1      40.205  29.213  30.229  1.00  0.00    -0.354 N 
ATOM     37  C   UNL A   1      43.300  27.712  32.883  1.00  0.00     0.074 A 
ATOM     38  C   UNL A   1      44.093  26.692  32.227  1.00  0.00     0.031 C 
ATOM     39  C   UNL A   1      39.030  29.305  28.325  1.00  0.00     0.029 A 
ATOM     40  C   UNL A   1      39.134  29.862  29.669  1.00  0.00     0.049 A 
ATOM     41  H   UNL A   1      40.550  29.414  31.128  1.00  0.00     0.167 HD
ATOM     42  C   UNL A   1      43.513  28.166  34.140  1.00  0.00     0.037 A 
ATOM     43  C   UNL A   1      38.312  30.786  30.198  1.00  0.00     0.037 A 
ATOM     44  C   UNL A   1      42.716  29.183  34.774  1.00  0.00     0.049 A 
ATOM     45  C   UNL A   1      38.546  31.241  31.608  1.00  0.00     0.074 A 
ATOM     46  C   UNL A   1      42.852  29.723  36.040  1.00  0.00     0.029 A 
ATOM     47  N   UNL A   1      41.630  29.812  34.184  1.00  0.00    -0.354 N 
ATOM     48  N   UNL A   1      39.475  30.862  32.453  1.00  0.00    -0.248 NA
ATOM     49  C   UNL A   1      37.616  32.244  32.141  1.00  0.00     0.031 C 
ATOM     50  C   UNL A   1      41.828  30.660  36.228  1.00  0.00     0.029 A 
ATOM     51  C   UNL A   1      41.074  30.724  35.066  1.00  0.00     0.049 A 
ATOM     52  H   UNL A   1      41.302  29.636  33.273  1.00  0.00     0.167 HD
ATOM     53  C   UNL A   1      39.252  31.590  33.612  1.00  0.00     0.074 A 
ATOM     54  C   UNL A   1      38.107  32.442  33.356  1.00  0.00     0.031 C 
ATOM     55  C   UNL A   1      39.933  31.556  34.784  1.00  0.00     0.037 A 
BRANCH  42  56
ATOM     56  C   UNL A   1      44.634  27.544  34.915  1.00  0.00     0.057 A 
ATOM     57  C   UNL A   1      45.912  28.116  34.953  1.00  0.00     0.134 A 
ATOM     58  C   UNL A   1      44.427  26.371  35.651  1.00  0.00     0.134 A 
ATOM     59  F   UNL A   1      46.179  29.231  34.255  1.00  0.00    -0.206 F 
ATOM     60  C   UNL A   1      46.949  27.535  35.685  1.00  0.00     0.040 A 
ATOM     61  C   UNL A   1      45.452  25.791  36.401  1.00  0.00     0.040 A 
ATOM     62  F   UNL A   1      43.226  25.773  35.656  1.00  0.00    -0.206 F 
ATOM     63  C   UNL A   1      46.718  26.371  36.416  1.00  0.00     0.006 A 
ENDBRANCH  42  56
BRANCH  43  64
ATOM     64  C   UNL A   1      37.193  31.322  29.388  1.00  0.00     0.057 A 
ATOM     65  C   UNL A   1      37.267  32.592  28.808  1.00  0.00     0.134 A 
ATOM     66  C   UNL A   1      36.038  30.566  29.152  1.00  0.00     0.134 A 
ATOM     67  F   UNL A   1      38.342  33.366  29.014  1.00  0.00    -0.206 F 
ATOM     68  C   UNL A   1      36.227  33.096  28.026  1.00  0.00     0.040 A 
ATOM     69  C   UNL A   1      35.001  31.050  28.356  1.00  0.00     0.040 A 
ATOM     70  F   UNL A   1      35.913  29.339  29.677  1.00  0.00    -0.206 F 
ATOM     71  C   UNL A   1      35.092  32.321  27.793  1.00  0.00     0.006 A 
ENDBRANCH  43  64
BRANCH  55  72
ATOM     72  C   UNL A   1      39.459  32.481  35.862  1.00  0.00     0.057 A 
ATOM     73  C   UNL A   1      39.974  33.776  35.994  1.00  0.00     0.134 A 
ATOM     74  C   UNL A   1      38.462  32.079  36.757  1.00  0.00     0.134 A 
ATOM     75  F   UNL A   1      40.943  34.209  35.173  1.00  0.00    -0.206 F 
ATOM     76  C   UNL A   1      39.524  34.636  36.996  1.00  0.00     0.040 A 
ATOM     77  C   UNL A   1      37.990  32.938  37.752  1.00  0.00     0.040 A 
ATOM     78  F   UNL A   1      37.927  30.853  36.677  1.00  0.00    -0.206 F 
ATOM     79  C   UNL A   1      38.526  34.219  37.875  1.00  0.00     0.006 A 
ENDBRANCH  55  72
ENDBRANCH  29  30
ENDBRANCH  22  24
ENDBRANCH  21  22
ENDBRANCH  20  21
ENDBRANCH   1  20
TORSDOF 15
ENDMDL
MODEL 3
REMARK VINA RESULT:     -10.3      5.915     10.645
REMARK SMILES C[NH2+][C@H](CC(=O)OCCOC(=O)c1ccc(-c2c3nc(c(-c4c(F)cccc4F)c4ccc([nH]4)c(-c4c(F)cccc4F)c4nc(c(-c5c(F)cccc5F)c5ccc2[nH]5)C=C4)C=C3)cc1)c1cccc(C2CC2)c1
REMARK SMILES IDX 8 1 7 2 5 3 6 4 4 5 3 6 2 7 1 8 67 11 68 12 75 13 69 14
REMARK SMILES IDX 71 15 70 16 72 17 73 18 74 19 9 20 10 21 11 22 12 23 13 24
REMARK SMILES IDX 14 25 66 26 15 27 65 28 16 29 17 30 18 31 59 32 19 33 64 34
REMARK SMILES IDX 58 35 60 36 20 37 63 38 57 39 56 40 21 42 47 43 30 44 46 45
REMARK SMILES IDX 31 46 34 47 45 48 61 49 32 50 33 51 44 53 62 54 35 55 22 56
REMARK SMILES IDX 23 57 28 58 24 59 25 60 27 61 29 62 26 63 48 64 49 65 54 66
REMARK SMILES IDX 50 67 51 68 53 69 55 70 52 71 36 72 37 73 42 74 38 75 39 76
REMARK SMILES IDX 41 77 43 78 40 79
REMARK H PARENT 2 9 2 10 60 41 34 52
REMARK Flexibility Score: inf
ROOT
ATOM      1  C   UNL A   1      33.855  34.385  28.010  1.00  0.00     0.274 C 
ENDROOT
BRANCH   1   2
ATOM      2  O   UNL A   1      32.732  35.211  28.365  1.00  0.00    -0.462 OA
BRANCH   2   3
ATOM      3  C   UNL A   1      32.908  36.121  29.351  1.00  0.00     0.312 C 
ATOM      4  O   UNL A   1      33.409  37.229  29.189  1.00  0.00    -0.252 OA
BRANCH   3   5
ATOM      5  C   UNL A   1      32.538  35.573  30.711  1.00  0.00     0.192 C 
BRANCH   5   6
ATOM      6  C   UNL A   1      33.569  35.736  31.852  1.00  0.00     0.224 C 
BRANCH   6   7
ATOM      7  N   UNL A   1      32.853  36.133  33.078  1.00  0.00    -0.342 N 
ATOM      8  C   UNL A   1      31.404  36.077  32.938  1.00  0.00     0.331 C 
ATOM      9  H   UNL A   1      33.130  35.507  33.833  1.00  0.00     0.346 HD
ATOM     10  H   UNL A   1      33.101  37.104  33.274  1.00  0.00     0.346 HD
ENDBRANCH   6   7
BRANCH   6  11
ATOM     11  C   UNL A   1      34.539  34.560  31.980  1.00  0.00     0.010 A 
ATOM     12  C   UNL A   1      34.418  33.700  33.081  1.00  0.00     0.010 A 
ATOM     13  C   UNL A   1      35.599  34.321  31.081  1.00  0.00     0.014 A 
ATOM     14  C   UNL A   1      35.363  32.705  33.312  1.00  0.00     0.001 A 
ATOM     15  C   UNL A   1      36.576  33.325  31.282  1.00  0.00    -0.044 A 
ATOM     16  C   UNL A   1      36.433  32.535  32.431  1.00  0.00     0.004 A 
BRANCH  15  17
ATOM     17  C   UNL A   1      37.749  33.090  30.344  1.00  0.00     0.019 C 
ATOM     18  C   UNL A   1      38.070  33.988  29.173  1.00  0.00     0.009 C 
ATOM     19  C   UNL A   1      38.952  34.005  30.387  1.00  0.00     0.009 C 
ENDBRANCH  15  17
ENDBRANCH   6  11
ENDBRANCH   5   6
ENDBRANCH   3   5
ENDBRANCH   2   3
ENDBRANCH   1   2
BRANCH   1  20
ATOM     20  C   UNL A   1      33.449  32.916  27.915  1.00  0.00     0.275 C 
BRANCH  20  21
ATOM     21  O   UNL A   1      34.373  32.079  28.635  1.00  0.00    -0.458 OA
BRANCH  21  22
ATOM     22  C   UNL A   1      34.733  30.934  28.020  1.00  0.00     0.338 C 
ATOM     23  O   UNL A   1      34.190  30.366  27.090  1.00  0.00    -0.246 OA
BRANCH  22  24
ATOM     24  C   UNL A   1      35.988  30.443  28.582  1.00  0.00     0.060 A 
ATOM     25  C   UNL A   1      37.158  30.618  27.838  1.00  0.00     0.016 A 
ATOM     26  C   UNL A   1      35.984  29.718  29.773  1.00  0.00     0.016 A 
ATOM     27  C   UNL A   1      38.349  30.080  28.300  1.00  0.00     0.010 A 
ATOM     28  C   UNL A   1      37.182  29.184  30.238  1.00  0.00     0.010 A 
ATOM     29  C   UNL A   1      38.367  29.365  29.504  1.00  0.00    -0.014 A 
BRANCH  29  30
ATOM     30  C   UNL A   1      39.641  28.828  30.012  1.00  0.00     0.031 A 
ATOM     31  C   UNL A   1      40.296  29.450  31.204  1.00  0.00     0.074 A 
ATOM     32  C   UNL A   1      40.197  27.783  29.376  1.00  0.00     0.049 A 
ATOM     33  N   UNL A   1      41.458  29.180  31.738  1.00  0.00    -0.248 NA
ATOM     34  C   UNL A   1      39.549  30.520  31.883  1.00  0.00     0.031 C 
ATOM     35  C   UNL A   1      39.614  27.092  28.224  1.00  0.00     0.029 A 
ATOM     36  N   UNL A   1      41.377  27.128  29.601  1.00  0.00    -0.354 N 
ATOM     37  C   UNL A   1      41.591  30.054  32.807  1.00  0.00     0.074 A 
ATOM     38  C   UNL A   1      40.397  30.872  32.840  1.00  0.00     0.031 C 
ATOM     39  C   UNL A   1      40.445  26.111  27.839  1.00  0.00     0.029 A 
ATOM     40  C   UNL A   1      41.629  26.135  28.690  1.00  0.00     0.049 A 
ATOM     41  H   UNL A   1      41.986  27.349  30.343  1.00  0.00     0.167 HD
ATOM     42  C   UNL A   1      42.623  30.158  33.677  1.00  0.00     0.037 A 
ATOM     43  C   UNL A   1      42.711  25.349  28.546  1.00  0.00     0.037 A 
ATOM     44  C   UNL A   1      43.802  29.333  33.631  1.00  0.00     0.049 A 
ATOM     45  C   UNL A   1      43.857  25.514  29.499  1.00  0.00     0.074 A 
ATOM     46  C   UNL A   1      44.901  29.348  34.470  1.00  0.00     0.029 A 
ATOM     47  N   UNL A   1      44.031  28.343  32.686  1.00  0.00    -0.354 N 
ATOM     48  N   UNL A   1      43.978  26.345  30.507  1.00  0.00    -0.248 NA
ATOM     49  C   UNL A   1      45.018  24.639  29.293  1.00  0.00     0.031 C 
ATOM     50  C   UNL A   1      45.811  28.386  34.015  1.00  0.00     0.029 A 
ATOM     51  C   UNL A   1      45.263  27.750  32.911  1.00  0.00     0.049 A 
ATOM     52  H   UNL A   1      43.410  28.098  31.963  1.00  0.00     0.167 HD
ATOM     53  C   UNL A   1      45.221  26.086  31.065  1.00  0.00     0.074 A 
ATOM     54  C   UNL A   1      45.809  25.010  30.291  1.00  0.00     0.031 C 
ATOM     55  C   UNL A   1      45.823  26.683  32.122  1.00  0.00     0.037 A 
BRANCH  42  56
ATOM     56  C   UNL A   1      42.529  31.217  34.732  1.00  0.00     0.057 A 
ATOM     57  C   UNL A   1      41.981  30.957  35.994  1.00  0.00     0.134 A 
ATOM     58  C   UNL A   1      43.014  32.508  34.490  1.00  0.00     0.134 A 
ATOM     59  F   UNL A   1      41.483  29.744  36.282  1.00  0.00    -0.206 F 
ATOM     60  C   UNL A   1      41.905  31.948  36.974  1.00  0.00     0.040 A 
ATOM     61  C   UNL A   1      42.960  33.503  35.468  1.00  0.00     0.040 A 
ATOM     62  F   UNL A   1      43.550  32.823  33.301  1.00  0.00    -0.206 F 
ATOM     63  C   UNL A   1      42.401  33.225  36.713  1.00  0.00     0.006 A 
ENDBRANCH  42  56
BRANCH  43  64
ATOM     64  C   UNL A   1      42.754  24.355  27.449  1.00  0.00     0.057 A 
ATOM     65  C   UNL A   1      42.315  23.042  27.648  1.00  0.00     0.134 A 
ATOM     66  C   UNL A   1      43.209  24.700  26.171  1.00  0.00     0.134 A 
ATOM     67  F   UNL A   1      41.886  22.650  28.857  1.00  0.00    -0.206 F 
ATOM     68  C   UNL A   1      42.333  22.104  26.615  1.00  0.00     0.040 A 
ATOM     69  C   UNL A   1      43.212  23.778  25.124  1.00  0.00     0.040 A 
ATOM     70  F   UNL A   1      43.636  25.946  25.918  1.00  0.00    -0.206 F 
ATOM     71  C   UNL A   1      42.776  22.474  25.346  1.00  0.00     0.006 A 
ENDBRANCH  43  64
BRANCH  55  72
ATOM     72  C   UNL A   1      47.176  26.169  32.504  1.00  0.00     0.057 A 
ATOM     73  C   UNL A   1      47.332  25.154  33.454  1.00  0.00     0.134 A 
ATOM     74  C   UNL A   1      48.329  26.677  31.895  1.00  0.00     0.134 A 
ATOM     75  F   UNL A   1      46.263  24.639  34.081  1.00  0.00    -0.206 F 
ATOM     76  C   UNL A   1      48.595  24.672  33.800  1.00  0.00     0.040 A 
ATOM     77  C   UNL A   1      49.596  26.191  32.219  1.00  0.00     0.040 A 
ATOM     78  F   UNL A   1      48.242  27.647  30.973  1.00  0.00    -0.206 F 
ATOM     79  C   UNL A   1      49.731  25.188  33.178  1.00  0.00     0.006 A 
ENDBRANCH  55  72
ENDBRANCH  29  30
ENDBRANCH  22  24
ENDBRANCH  21  22
ENDBRANCH  20  21
ENDBRANCH   1  20
TORSDOF 15
ENDMDL
