MODEL 1
REMARK VINA RESULT:     -10.5      0.000      0.000
REMARK SMILES Cc1cc(NC[C@H](C)[NH+](C)C)cc(C(=O)OCCOC(=O)c2ccc(-c3c4nc(c(-c5c(F)cccc5F)c5ccc([nH]5)c(-c5c(F)cccc5F)c5nc(c(-c6c(F)cccc6F)c6ccc3[nH]6)C=C5)C=C4)cc2)c1N
REMARK SMILES IDX 17 1 16 2 14 3 15 4 13 5 1 6 2 7 3 8 76 9 4 10 12 11 77 12
REMARK SMILES IDX 5 15 6 17 7 18 8 19 9 20 10 21 11 22 18 24 19 25 20 26 21 27
REMARK SMILES IDX 22 28 23 29 75 30 24 31 74 32 25 33 26 34 27 35 68 36 28 37
REMARK SMILES IDX 73 38 67 39 69 40 29 41 72 42 66 43 65 44 30 46 56 47 39 48
REMARK SMILES IDX 55 49 40 50 43 51 54 52 70 53 41 54 42 55 53 57 71 58 44 59
REMARK SMILES IDX 31 60 32 61 37 62 33 63 34 64 36 65 38 66 35 67 57 68 58 69
REMARK SMILES IDX 63 70 59 71 60 72 62 73 64 74 61 75 45 76 46 77 51 78 47 79
REMARK SMILES IDX 48 80 50 81 52 82 49 83
REMARK H PARENT 77 13 77 14 5 16 9 23 69 45 43 56
REMARK Flexibility Score: inf
ROOT
ATOM      1  C   UNL A   1      31.080  28.641  25.005  1.00  0.00     0.275 C 
ENDROOT
BRANCH   1   2
ATOM      2  O   UNL A   1      31.759  27.548  25.658  1.00  0.00    -0.458 OA
BRANCH   2   3
ATOM      3  C   UNL A   1      32.222  26.548  24.857  1.00  0.00     0.340 C 
ATOM      4  O   UNL A   1      32.595  26.662  23.706  1.00  0.00    -0.246 OA
BRANCH   3   5
ATOM      5  C   UNL A   1      32.251  25.265  25.614  1.00  0.00     0.085 A 
ATOM      6  C   UNL A   1      29.907  22.679  27.148  1.00  0.00     0.047 C 
ATOM      7  C   UNL A   1      31.144  23.440  26.750  1.00  0.00    -0.025 A 
ATOM      8  C   UNL A   1      32.403  22.856  26.975  1.00  0.00     0.031 A 
ATOM      9  C   UNL A   1      31.072  24.717  26.164  1.00  0.00     0.049 A 
ATOM     10  C   UNL A   1      33.590  23.484  26.588  1.00  0.00     0.035 A 
ATOM     11  C   UNL A   1      33.490  24.648  25.832  1.00  0.00     0.043 A 
BRANCH   9  12
ATOM     12  N   UNL A   1      29.838  25.352  26.034  1.00  0.00    -0.398 N 
ATOM     13  H   UNL A   1      29.059  25.020  26.536  1.00  0.00     0.156 HD
ATOM     14  H   UNL A   1      29.745  26.131  25.439  1.00  0.00     0.156 HD
ENDBRANCH   9  12
BRANCH  10  15
ATOM     15  N   UNL A   1      34.800  22.906  26.927  1.00  0.00    -0.379 N 
ATOM     16  H   UNL A   1      35.089  22.936  27.868  1.00  0.00     0.160 HD
BRANCH  15  17
ATOM     17  C   UNL A   1      35.662  22.253  25.950  1.00  0.00     0.177 C 
BRANCH  17  18
ATOM     18  C   UNL A   1      36.594  23.259  25.217  1.00  0.00     0.199 C 
ATOM     19  C   UNL A   1      36.294  23.193  23.708  1.00  0.00     0.077 C 
BRANCH  18  20
ATOM     20  N   UNL A   1      38.055  23.155  25.458  1.00  0.00    -0.336 N 
ATOM     21  C   UNL A   1      38.545  24.133  26.429  1.00  0.00     0.332 C 
ATOM     22  C   UNL A   1      38.512  21.818  25.834  1.00  0.00     0.332 C 
ATOM     23  H   UNL A   1      38.460  23.366  24.546  1.00  0.00     0.347 HD
ENDBRANCH  18  20
ENDBRANCH  17  18
ENDBRANCH  15  17
ENDBRANCH  10  15
ENDBRANCH   3   5
ENDBRANCH   2   3
ENDBRANCH   1   2
BRANCH   1  24
ATOM     24  C   UNL A   1      31.836  29.951  25.220  1.00  0.00     0.275 C 
BRANCH  24  25
ATOM     25  O   UNL A   1      32.334  29.991  26.568  1.00  0.00    -0.458 OA
BRANCH  25  26
ATOM     26  C   UNL A   1      32.842  31.172  26.987  1.00  0.00     0.338 C 
ATOM     27  O   UNL A   1      32.284  32.259  26.995  1.00  0.00    -0.246 OA
BRANCH  26  28
ATOM     28  C   UNL A   1      34.214  30.967  27.491  1.00  0.00     0.060 A 
ATOM     29  C   UNL A   1      34.641  29.682  27.794  1.00  0.00     0.016 A 
ATOM     30  C   UNL A   1      35.034  32.051  27.799  1.00  0.00     0.016 A 
ATOM     31  C   UNL A   1      35.825  29.478  28.501  1.00  0.00     0.010 A 
ATOM     32  C   UNL A   1      36.283  31.832  28.401  1.00  0.00     0.010 A 
ATOM     33  C   UNL A   1      36.681  30.543  28.807  1.00  0.00    -0.014 A 
BRANCH  33  34
ATOM     34  C   UNL A   1      37.929  30.317  29.607  1.00  0.00     0.031 A 
ATOM     35  C   UNL A   1      39.076  29.530  29.016  1.00  0.00     0.074 A 
ATOM     36  C   UNL A   1      38.086  30.839  30.844  1.00  0.00     0.049 A 
ATOM     37  N   UNL A   1      40.116  29.002  29.611  1.00  0.00    -0.248 NA
ATOM     38  C   UNL A   1      39.036  29.289  27.564  1.00  0.00     0.031 C 
ATOM     39  C   UNL A   1      37.118  31.685  31.545  1.00  0.00     0.029 A 
ATOM     40  N   UNL A   1      39.135  30.745  31.732  1.00  0.00    -0.354 N 
ATOM     41  C   UNL A   1      40.803  28.296  28.627  1.00  0.00     0.074 A 
ATOM     42  C   UNL A   1      40.067  28.474  27.394  1.00  0.00     0.031 C 
ATOM     43  C   UNL A   1      37.640  32.086  32.713  1.00  0.00     0.029 A 
ATOM     44  C   UNL A   1      38.920  31.418  32.914  1.00  0.00     0.049 A 
ATOM     45  H   UNL A   1      39.960  30.245  31.540  1.00  0.00     0.167 HD
ATOM     46  C   UNL A   1      41.936  27.564  28.745  1.00  0.00     0.037 A 
ATOM     47  C   UNL A   1      39.627  31.444  34.061  1.00  0.00     0.037 A 
ATOM     48  C   UNL A   1      42.718  27.462  29.952  1.00  0.00     0.049 A 
ATOM     49  C   UNL A   1      40.865  30.603  34.181  1.00  0.00     0.074 A 
ATOM     50  C   UNL A   1      43.879  26.741  30.172  1.00  0.00     0.029 A 
ATOM     51  N   UNL A   1      42.434  28.130  31.133  1.00  0.00    -0.354 N 
ATOM     52  N   UNL A   1      41.436  29.839  33.282  1.00  0.00    -0.248 NA
ATOM     53  C   UNL A   1      41.536  30.595  35.490  1.00  0.00     0.031 C 
ATOM     54  C   UNL A   1      44.283  26.949  31.494  1.00  0.00     0.029 A 
ATOM     55  C   UNL A   1      43.398  27.835  32.085  1.00  0.00     0.049 A 
ATOM     56  H   UNL A   1      41.664  28.725  31.275  1.00  0.00     0.167 HD
ATOM     57  C   UNL A   1      42.532  29.266  33.912  1.00  0.00     0.074 A 
ATOM     58  C   UNL A   1      42.564  29.791  35.261  1.00  0.00     0.031 C 
ATOM     59  C   UNL A   1      43.424  28.373  33.420  1.00  0.00     0.037 A 
BRANCH  46  60
ATOM     60  C   UNL A   1      42.389  26.775  27.549  1.00  0.00     0.057 A 
ATOM     61  C   UNL A   1      42.018  25.441  27.342  1.00  0.00     0.134 A 
ATOM     62  C   UNL A   1      43.173  27.385  26.560  1.00  0.00     0.134 A 
ATOM     63  F   UNL A   1      41.277  24.791  28.253  1.00  0.00    -0.206 F 
ATOM     64  C   UNL A   1      42.427  24.737  26.206  1.00  0.00     0.040 A 
ATOM     65  C   UNL A   1      43.566  26.701  25.408  1.00  0.00     0.040 A 
ATOM     66  F   UNL A   1      43.557  28.665  26.690  1.00  0.00    -0.206 F 
ATOM     67  C   UNL A   1      43.196  25.371  25.232  1.00  0.00     0.006 A 
ENDBRANCH  46  60
BRANCH  47  68
ATOM     68  C   UNL A   1      39.132  32.230  35.223  1.00  0.00     0.057 A 
ATOM     69  C   UNL A   1      39.474  33.577  35.391  1.00  0.00     0.134 A 
ATOM     70  C   UNL A   1      38.313  31.650  36.201  1.00  0.00     0.134 A 
ATOM     71  F   UNL A   1      40.282  34.185  34.510  1.00  0.00    -0.206 F 
ATOM     72  C   UNL A   1      39.025  34.315  36.490  1.00  0.00     0.040 A 
ATOM     73  C   UNL A   1      37.827  32.384  37.284  1.00  0.00     0.040 A 
ATOM     74  F   UNL A   1      37.952  30.362  36.105  1.00  0.00    -0.206 F 
ATOM     75  C   UNL A   1      38.189  33.720  37.434  1.00  0.00     0.006 A 
ENDBRANCH  47  68
BRANCH  59  76
ATOM     76  C   UNL A   1      44.532  27.941  34.335  1.00  0.00     0.057 A 
ATOM     77  C   UNL A   1      45.736  28.650  34.423  1.00  0.00     0.134 A 
ATOM     78  C   UNL A   1      44.382  26.812  35.149  1.00  0.00     0.134 A 
ATOM     79  F   UNL A   1      45.946  29.731  33.657  1.00  0.00    -0.206 F 
ATOM     80  C   UNL A   1      46.762  28.238  35.274  1.00  0.00     0.040 A 
ATOM     81  C   UNL A   1      45.391  26.404  36.022  1.00  0.00     0.040 A 
ATOM     82  F   UNL A   1      43.250  26.092  35.116  1.00  0.00    -0.206 F 
ATOM     83  C   UNL A   1      46.588  27.114  36.081  1.00  0.00     0.006 A 
ENDBRANCH  59  76
ENDBRANCH  33  34
ENDBRANCH  26  28
ENDBRANCH  25  26
ENDBRANCH  24  25
ENDBRANCH   1  24
TORSDOF 16
ENDMDL
MODEL 2
REMARK VINA RESULT:     -10.4      5.628      9.404
REMARK SMILES Cc1cc(NC[C@H](C)[NH+](C)C)cc(C(=O)OCCOC(=O)c2ccc(-c3c4nc(c(-c5c(F)cccc5F)c5ccc([nH]5)c(-c5c(F)cccc5F)c5nc(c(-c6c(F)cccc6F)c6ccc3[nH]6)C=C5)C=C4)cc2)c1N
REMARK SMILES IDX 17 1 16 2 14 3 15 4 13 5 1 6 2 7 3 8 76 9 4 10 12 11 77 12
REMARK SMILES IDX 5 15 6 17 7 18 8 19 9 20 10 21 11 22 18 24 19 25 20 26 21 27
REMARK SMILES IDX 22 28 23 29 75 30 24 31 74 32 25 33 26 34 27 35 68 36 28 37
REMARK SMILES IDX 73 38 67 39 69 40 29 41 72 42 66 43 65 44 30 46 56 47 39 48
REMARK SMILES IDX 55 49 40 50 43 51 54 52 70 53 41 54 42 55 53 57 71 58 44 59
REMARK SMILES IDX 31 60 32 61 37 62 33 63 34 64 36 65 38 66 35 67 57 68 58 69
REMARK SMILES IDX 63 70 59 71 60 72 62 73 64 74 61 75 45 76 46 77 51 78 47 79
REMARK SMILES IDX 48 80 50 81 52 82 49 83
REMARK H PARENT 77 13 77 14 5 16 9 23 69 45 43 56
REMARK Flexibility Score: inf
ROOT
ATOM      1  C   UNL A   1      41.831  19.755  27.000  1.00  0.00     0.275 C 
ENDROOT
BRANCH   1   2
ATOM      2  O   UNL A   1      40.575  19.988  26.328  1.00  0.00    -0.458 OA
BRANCH   2   3
ATOM      3  C   UNL A   1      40.288  21.278  25.997  1.00  0.00     0.340 C 
ATOM      4  O   UNL A   1      41.078  22.200  25.936  1.00  0.00    -0.246 OA
BRANCH   3   5
ATOM      5  C   UNL A   1      38.839  21.406  25.669  1.00  0.00     0.085 A 
ATOM      6  C   UNL A   1      36.141  24.051  25.163  1.00  0.00     0.047 C 
ATOM      7  C   UNL A   1      36.847  22.730  25.317  1.00  0.00    -0.025 A 
ATOM      8  C   UNL A   1      36.154  21.547  25.004  1.00  0.00     0.031 A 
ATOM      9  C   UNL A   1      38.177  22.648  25.768  1.00  0.00     0.049 A 
ATOM     10  C   UNL A   1      36.761  20.290  25.078  1.00  0.00     0.035 A 
ATOM     11  C   UNL A   1      38.129  20.247  25.330  1.00  0.00     0.043 A 
BRANCH   9  12
ATOM     12  N   UNL A   1      38.840  23.802  26.182  1.00  0.00    -0.398 N 
ATOM     13  H   UNL A   1      39.047  23.936  27.136  1.00  0.00     0.156 HD
ATOM     14  H   UNL A   1      39.100  24.485  25.523  1.00  0.00     0.156 HD
ENDBRANCH   9  12
BRANCH  10  15
ATOM     15  N   UNL A   1      35.998  19.159  24.856  1.00  0.00    -0.379 N 
ATOM     16  H   UNL A   1      36.458  18.300  24.716  1.00  0.00     0.160 HD
BRANCH  15  17
ATOM     17  C   UNL A   1      34.541  19.186  24.821  1.00  0.00     0.177 C 
BRANCH  17  18
ATOM     18  C   UNL A   1      33.932  17.811  24.424  1.00  0.00     0.199 C 
ATOM     19  C   UNL A   1      32.471  18.029  23.993  1.00  0.00     0.077 C 
BRANCH  18  20
ATOM     20  N   UNL A   1      34.021  16.703  25.407  1.00  0.00    -0.336 N 
ATOM     21  C   UNL A   1      32.849  15.829  25.393  1.00  0.00     0.332 C 
ATOM     22  C   UNL A   1      35.237  15.896  25.301  1.00  0.00     0.332 C 
ATOM     23  H   UNL A   1      34.059  17.187  26.304  1.00  0.00     0.347 HD
ENDBRANCH  18  20
ENDBRANCH  17  18
ENDBRANCH  15  17
ENDBRANCH  10  15
ENDBRANCH   3   5
ENDBRANCH   2   3
ENDBRANCH   1   2
BRANCH   1  24
ATOM     24  C   UNL A   1      42.658  18.711  26.252  1.00  0.00     0.275 C 
BRANCH  24  25
ATOM     25  O   UNL A   1      42.957  19.205  24.935  1.00  0.00    -0.458 OA
BRANCH  25  26
ATOM     26  C   UNL A   1      44.266  19.361  24.635  1.00  0.00     0.338 C 
ATOM     27  O   UNL A   1      45.045  18.507  24.240  1.00  0.00    -0.246 OA
BRANCH  26  28
ATOM     28  C   UNL A   1      44.649  20.775  24.822  1.00  0.00     0.060 A 
ATOM     29  C   UNL A   1      45.392  21.135  25.938  1.00  0.00     0.016 A 
ATOM     30  C   UNL A   1      44.160  21.768  23.975  1.00  0.00     0.016 A 
ATOM     31  C   UNL A   1      45.554  22.478  26.275  1.00  0.00     0.010 A 
ATOM     32  C   UNL A   1      44.431  23.117  24.253  1.00  0.00     0.010 A 
ATOM     33  C   UNL A   1      45.093  23.500  25.435  1.00  0.00    -0.014 A 
BRANCH  33  34
ATOM     34  C   UNL A   1      45.234  24.939  25.833  1.00  0.00     0.031 A 
ATOM     35  C   UNL A   1      46.548  25.656  25.628  1.00  0.00     0.074 A 
ATOM     36  C   UNL A   1      44.195  25.644  26.334  1.00  0.00     0.049 A 
ATOM     37  N   UNL A   1      46.962  26.794  26.129  1.00  0.00    -0.248 NA
ATOM     38  C   UNL A   1      47.537  24.996  24.760  1.00  0.00     0.031 C 
ATOM     39  C   UNL A   1      42.835  25.140  26.532  1.00  0.00     0.029 A 
ATOM     40  N   UNL A   1      44.119  26.952  26.759  1.00  0.00    -0.354 N 
ATOM     41  C   UNL A   1      48.281  26.940  25.710  1.00  0.00     0.074 A 
ATOM     42  C   UNL A   1      48.595  25.780  24.904  1.00  0.00     0.031 C 
ATOM     43  C   UNL A   1      42.050  26.135  26.969  1.00  0.00     0.029 A 
ATOM     44  C   UNL A   1      42.873  27.312  27.219  1.00  0.00     0.049 A 
ATOM     45  H   UNL A   1      44.884  27.572  26.735  1.00  0.00     0.167 HD
ATOM     46  C   UNL A   1      49.150  27.944  25.980  1.00  0.00     0.037 A 
ATOM     47  C   UNL A   1      42.444  28.430  27.837  1.00  0.00     0.037 A 
ATOM     48  C   UNL A   1      48.809  29.142  26.705  1.00  0.00     0.049 A 
ATOM     49  C   UNL A   1      43.428  29.519  28.153  1.00  0.00     0.074 A 
ATOM     50  C   UNL A   1      49.620  30.214  27.033  1.00  0.00     0.029 A 
ATOM     51  N   UNL A   1      47.542  29.439  27.186  1.00  0.00    -0.354 N 
ATOM     52  N   UNL A   1      44.704  29.590  27.862  1.00  0.00    -0.248 NA
ATOM     53  C   UNL A   1      42.922  30.668  28.919  1.00  0.00     0.031 C 
ATOM     54  C   UNL A   1      48.853  31.148  27.737  1.00  0.00     0.029 A 
ATOM     55  C   UNL A   1      47.553  30.677  27.809  1.00  0.00     0.049 A 
ATOM     56  H   UNL A   1      46.754  28.857  27.098  1.00  0.00     0.167 HD
ATOM     57  C   UNL A   1      45.151  30.788  28.402  1.00  0.00     0.074 A 
ATOM     58  C   UNL A   1      44.005  31.427  29.014  1.00  0.00     0.031 C 
ATOM     59  C   UNL A   1      46.403  31.305  28.404  1.00  0.00     0.037 A 
BRANCH  46  60
ATOM     60  C   UNL A   1      50.572  27.782  25.524  1.00  0.00     0.057 A 
ATOM     61  C   UNL A   1      51.601  27.393  26.390  1.00  0.00     0.134 A 
ATOM     62  C   UNL A   1      50.904  27.973  24.175  1.00  0.00     0.134 A 
ATOM     63  F   UNL A   1      51.356  27.205  27.696  1.00  0.00    -0.206 F 
ATOM     64  C   UNL A   1      52.911  27.220  25.936  1.00  0.00     0.040 A 
ATOM     65  C   UNL A   1      52.204  27.777  23.704  1.00  0.00     0.040 A 
ATOM     66  F   UNL A   1      49.965  28.337  23.288  1.00  0.00    -0.206 F 
ATOM     67  C   UNL A   1      53.213  27.405  24.587  1.00  0.00     0.006 A 
ENDBRANCH  46  60
BRANCH  47  68
ATOM     68  C   UNL A   1      41.028  28.539  28.282  1.00  0.00     0.057 A 
ATOM     69  C   UNL A   1      40.024  28.986  27.415  1.00  0.00     0.134 A 
ATOM     70  C   UNL A   1      40.646  28.209  29.589  1.00  0.00     0.134 A 
ATOM     71  F   UNL A   1      40.327  29.351  26.160  1.00  0.00    -0.206 F 
ATOM     72  C   UNL A   1      38.696  29.106  27.832  1.00  0.00     0.040 A 
ATOM     73  C   UNL A   1      39.318  28.289  30.009  1.00  0.00     0.040 A 
ATOM     74  F   UNL A   1      41.558  27.780  30.473  1.00  0.00    -0.206 F 
ATOM     75  C   UNL A   1      38.339  28.745  29.130  1.00  0.00     0.006 A 
ENDBRANCH  47  68
BRANCH  59  76
ATOM     76  C   UNL A   1      46.586  32.646  29.053  1.00  0.00     0.057 A 
ATOM     77  C   UNL A   1      46.935  32.771  30.403  1.00  0.00     0.134 A 
ATOM     78  C   UNL A   1      46.428  33.822  28.311  1.00  0.00     0.134 A 
ATOM     79  F   UNL A   1      47.085  31.681  31.171  1.00  0.00    -0.206 F 
ATOM     80  C   UNL A   1      47.098  34.023  30.999  1.00  0.00     0.040 A 
ATOM     81  C   UNL A   1      46.613  35.079  28.889  1.00  0.00     0.040 A 
ATOM     82  F   UNL A   1      46.100  33.770  27.011  1.00  0.00    -0.206 F 
ATOM     83  C   UNL A   1      46.942  35.181  30.239  1.00  0.00     0.006 A 
ENDBRANCH  59  76
ENDBRANCH  33  34
ENDBRANCH  26  28
ENDBRANCH  25  26
ENDBRANCH  24  25
ENDBRANCH   1  24
TORSDOF 16
ENDMDL
MODEL 3
REMARK VINA RESULT:     -10.4      3.725      8.836
REMARK SMILES Cc1cc(NC[C@H](C)[NH+](C)C)cc(C(=O)OCCOC(=O)c2ccc(-c3c4nc(c(-c5c(F)cccc5F)c5ccc([nH]5)c(-c5c(F)cccc5F)c5nc(c(-c6c(F)cccc6F)c6ccc3[nH]6)C=C5)C=C4)cc2)c1N
REMARK SMILES IDX 17 1 16 2 14 3 15 4 13 5 1 6 2 7 3 8 76 9 4 10 12 11 77 12
REMARK SMILES IDX 5 15 6 17 7 18 8 19 9 20 10 21 11 22 18 24 19 25 20 26 21 27
REMARK SMILES IDX 22 28 23 29 75 30 24 31 74 32 25 33 26 34 27 35 68 36 28 37
REMARK SMILES IDX 73 38 67 39 69 40 29 41 72 42 66 43 65 44 30 46 56 47 39 48
REMARK SMILES IDX 55 49 40 50 43 51 54 52 70 53 41 54 42 55 53 57 71 58 44 59
REMARK SMILES IDX 31 60 32 61 37 62 33 63 34 64 36 65 38 66 35 67 57 68 58 69
REMARK SMILES IDX 63 70 59 71 60 72 62 73 64 74 61 75 45 76 46 77 51 78 47 79
REMARK SMILES IDX 48 80 50 81 52 82 49 83
REMARK H PARENT 77 13 77 14 5 16 9 23 69 45 43 56
REMARK Flexibility Score: inf
ROOT
ATOM      1  C   UNL A   1      45.694  24.616  25.004  1.00  0.00     0.275 C 
ENDROOT
BRANCH   1   2
ATOM      2  O   UNL A   1      44.799  23.540  24.658  1.00  0.00    -0.458 OA
BRANCH   2   3
ATOM      3  C   UNL A   1      45.123  22.300  25.123  1.00  0.00     0.340 C 
ATOM      4  O   UNL A   1      46.244  21.847  25.247  1.00  0.00    -0.246 OA
BRANCH   3   5
ATOM      5  C   UNL A   1      43.885  21.564  25.508  1.00  0.00     0.085 A 
ATOM      6  C   UNL A   1      42.681  18.058  26.399  1.00  0.00     0.047 C 
ATOM      7  C   UNL A   1      42.709  19.528  26.072  1.00  0.00    -0.025 A 
ATOM      8  C   UNL A   1      41.545  20.291  26.269  1.00  0.00     0.031 A 
ATOM      9  C   UNL A   1      43.866  20.155  25.574  1.00  0.00     0.049 A 
ATOM     10  C   UNL A   1      41.512  21.668  26.031  1.00  0.00     0.035 A 
ATOM     11  C   UNL A   1      42.715  22.302  25.733  1.00  0.00     0.043 A 
BRANCH   9  12
ATOM     12  N   UNL A   1      44.993  19.391  25.274  1.00  0.00    -0.398 N 
ATOM     13  H   UNL A   1      45.390  19.431  24.374  1.00  0.00     0.156 HD
ATOM     14  H   UNL A   1      45.392  18.811  25.962  1.00  0.00     0.156 HD
ENDBRANCH   9  12
BRANCH  10  15
ATOM     15  N   UNL A   1      40.312  22.344  26.145  1.00  0.00    -0.379 N 
ATOM     16  H   UNL A   1      40.327  23.289  26.418  1.00  0.00     0.160 HD
BRANCH  15  17
ATOM     17  C   UNL A   1      39.025  21.713  25.877  1.00  0.00     0.177 C 
BRANCH  17  18
ATOM     18  C   UNL A   1      37.877  22.752  25.726  1.00  0.00     0.199 C 
ATOM     19  C   UNL A   1      38.308  24.061  26.411  1.00  0.00     0.077 C 
BRANCH  18  20
ATOM     20  N   UNL A   1      36.519  22.356  26.176  1.00  0.00    -0.336 N 
ATOM     21  C   UNL A   1      35.539  23.435  26.057  1.00  0.00     0.332 C 
ATOM     22  C   UNL A   1      35.999  21.147  25.538  1.00  0.00     0.332 C 
ATOM     23  H   UNL A   1      36.653  22.141  27.165  1.00  0.00     0.347 HD
ENDBRANCH  18  20
ENDBRANCH  17  18
ENDBRANCH  15  17
ENDBRANCH  10  15
ENDBRANCH   3   5
ENDBRANCH   2   3
ENDBRANCH   1   2
BRANCH   1  24
ATOM     24  C   UNL A   1      44.910  25.855  25.432  1.00  0.00     0.275 C 
BRANCH  24  25
ATOM     25  O   UNL A   1      43.777  25.445  26.216  1.00  0.00    -0.458 OA
BRANCH  25  26
ATOM     26  C   UNL A   1      42.570  25.906  25.815  1.00  0.00     0.338 C 
ATOM     27  O   UNL A   1      42.011  25.695  24.750  1.00  0.00    -0.246 OA
BRANCH  26  28
ATOM     28  C   UNL A   1      41.966  26.709  26.896  1.00  0.00     0.060 A 
ATOM     29  C   UNL A   1      42.283  28.057  26.998  1.00  0.00     0.016 A 
ATOM     30  C   UNL A   1      41.198  26.110  27.892  1.00  0.00     0.016 A 
ATOM     31  C   UNL A   1      41.936  28.780  28.139  1.00  0.00     0.010 A 
ATOM     32  C   UNL A   1      40.746  26.874  28.980  1.00  0.00     0.010 A 
ATOM     33  C   UNL A   1      41.148  28.213  29.147  1.00  0.00    -0.014 A 
BRANCH  33  34
ATOM     34  C   UNL A   1      40.821  28.987  30.389  1.00  0.00     0.031 A 
ATOM     35  C   UNL A   1      39.631  29.920  30.409  1.00  0.00     0.074 A 
ATOM     36  C   UNL A   1      41.536  28.844  31.527  1.00  0.00     0.049 A 
ATOM     37  N   UNL A   1      39.327  30.863  31.267  1.00  0.00    -0.248 NA
ATOM     38  C   UNL A   1      38.666  29.789  29.305  1.00  0.00     0.031 C 
ATOM     39  C   UNL A   1      42.669  27.936  31.717  1.00  0.00     0.029 A 
ATOM     40  N   UNL A   1      41.405  29.457  32.754  1.00  0.00    -0.354 N 
ATOM     41  C   UNL A   1      38.192  31.489  30.762  1.00  0.00     0.074 A 
ATOM     42  C   UNL A   1      37.855  30.812  29.528  1.00  0.00     0.031 C 
ATOM     43  C   UNL A   1      43.082  27.999  32.990  1.00  0.00     0.029 A 
ATOM     44  C   UNL A   1      42.340  29.050  33.678  1.00  0.00     0.049 A 
ATOM     45  H   UNL A   1      40.707  30.122  32.952  1.00  0.00     0.167 HD
ATOM     46  C   UNL A   1      37.502  32.535  31.276  1.00  0.00     0.037 A 
ATOM     47  C   UNL A   1      42.628  29.509  34.912  1.00  0.00     0.037 A 
ATOM     48  C   UNL A   1      37.784  33.149  32.549  1.00  0.00     0.049 A 
ATOM     49  C   UNL A   1      41.871  30.687  35.452  1.00  0.00     0.074 A 
ATOM     50  C   UNL A   1      37.145  34.217  33.154  1.00  0.00     0.029 A 
ATOM     51  N   UNL A   1      38.770  32.725  33.427  1.00  0.00    -0.354 N 
ATOM     52  N   UNL A   1      40.880  31.352  34.910  1.00  0.00    -0.248 NA
ATOM     53  C   UNL A   1      42.297  31.206  36.760  1.00  0.00     0.031 C 
ATOM     54  C   UNL A   1      37.760  34.459  34.386  1.00  0.00     0.029 A 
ATOM     55  C   UNL A   1      38.755  33.513  34.568  1.00  0.00     0.049 A 
ATOM     56  H   UNL A   1      39.387  31.977  33.265  1.00  0.00     0.167 HD
ATOM     57  C   UNL A   1      40.563  32.361  35.808  1.00  0.00     0.074 A 
ATOM     58  C   UNL A   1      41.446  32.205  36.945  1.00  0.00     0.031 C 
ATOM     59  C   UNL A   1      39.632  33.339  35.695  1.00  0.00     0.037 A 
BRANCH  46  60
ATOM     60  C   UNL A   1      36.392  33.118  30.447  1.00  0.00     0.057 A 
ATOM     61  C   UNL A   1      35.042  32.857  30.707  1.00  0.00     0.134 A 
ATOM     62  C   UNL A   1      36.686  33.998  29.397  1.00  0.00     0.134 A 
ATOM     63  F   UNL A   1      34.688  32.014  31.690  1.00  0.00    -0.206 F 
ATOM     64  C   UNL A   1      34.026  33.434  29.941  1.00  0.00     0.040 A 
ATOM     65  C   UNL A   1      35.680  34.603  28.641  1.00  0.00     0.040 A 
ATOM     66  F   UNL A   1      37.960  34.300  29.099  1.00  0.00    -0.206 F 
ATOM     67  C   UNL A   1      34.345  34.316  28.910  1.00  0.00     0.006 A 
ENDBRANCH  46  60
BRANCH  47  68
ATOM     68  C   UNL A   1      43.745  28.907  35.689  1.00  0.00     0.057 A 
ATOM     69  C   UNL A   1      43.528  27.846  36.575  1.00  0.00     0.134 A 
ATOM     70  C   UNL A   1      45.056  29.388  35.573  1.00  0.00     0.134 A 
ATOM     71  F   UNL A   1      42.291  27.360  36.760  1.00  0.00    -0.206 F 
ATOM     72  C   UNL A   1      44.571  27.289  37.320  1.00  0.00     0.040 A 
ATOM     73  C   UNL A   1      46.114  28.817  36.283  1.00  0.00     0.040 A 
ATOM     74  F   UNL A   1      45.333  30.407  34.747  1.00  0.00    -0.206 F 
ATOM     75  C   UNL A   1      45.871  27.768  37.165  1.00  0.00     0.006 A 
ENDBRANCH  47  68
BRANCH  59  76
ATOM     76  C   UNL A   1      39.496  34.288  36.850  1.00  0.00     0.057 A 
ATOM     77  C   UNL A   1      38.766  33.956  37.997  1.00  0.00     0.134 A 
ATOM     78  C   UNL A   1      40.120  35.540  36.818  1.00  0.00     0.134 A 
ATOM     79  F   UNL A   1      38.131  32.777  38.082  1.00  0.00    -0.206 F 
ATOM     80  C   UNL A   1      38.641  34.847  39.064  1.00  0.00     0.040 A 
ATOM     81  C   UNL A   1      40.024  36.431  37.888  1.00  0.00     0.040 A 
ATOM     82  F   UNL A   1      40.841  35.917  35.750  1.00  0.00    -0.206 F 
ATOM     83  C   UNL A   1      39.277  36.087  39.013  1.00  0.00     0.006 A 
ENDBRANCH  59  76
ENDBRANCH  33  34
ENDBRANCH  26  28
ENDBRANCH  25  26
ENDBRANCH  24  25
ENDBRANCH   1  24
TORSDOF 16
ENDMDL
