MODEL 1
REMARK VINA RESULT:     -11.5      0.000      0.000
REMARK SMILES O=C(OCCOC(=O)c1cc(Br)ccc1NC(=O)c1ccc(Br)s1)c1ccc(-c2c3nc(c(-c4c(F)cccc4F)c4ccc([nH]4)c(-c4c(F)cccc4F)c4nc(c(-c5c(F)cccc5F)c5ccc2[nH]5)C=C4)C=C3)cc1
REMARK SMILES IDX 4 1 3 2 2 3 1 4 25 5 26 6 78 7 27 8 77 9 28 10 29 11 30 12
REMARK SMILES IDX 71 13 31 14 76 15 70 16 72 17 32 18 75 19 69 20 68 21 33 23
REMARK SMILES IDX 59 24 42 25 58 26 43 27 46 28 57 29 73 30 44 31 45 32 56 34
REMARK SMILES IDX 74 35 47 36 34 37 35 38 40 39 36 40 37 41 39 42 41 43 38 44
REMARK SMILES IDX 60 45 61 46 66 47 62 48 63 49 65 50 67 51 64 52 48 53 49 54
REMARK SMILES IDX 54 55 50 56 51 57 53 58 55 59 52 60 5 61 6 62 7 63 8 64 9 65
REMARK SMILES IDX 10 66 15 67 11 68 14 69 12 70 13 71 16 72 17 73 18 75 19 76
REMARK SMILES IDX 20 77 24 78 21 79 22 80 23 81
REMARK H PARENT 72 22 46 33 16 74
REMARK Flexibility Score: inf
ROOT
ATOM      1  C   UNL A   1      38.472  19.606  24.884  1.00  0.00     0.275 C 
ENDROOT
BRANCH   1   2
ATOM      2  O   UNL A   1      39.476  19.087  25.771  1.00  0.00    -0.458 OA
BRANCH   2   3
ATOM      3  C   UNL A   1      40.757  19.468  25.968  1.00  0.00     0.338 C 
ATOM      4  O   UNL A   1      41.653  18.651  25.763  1.00  0.00    -0.246 OA
BRANCH   3   5
ATOM      5  C   UNL A   1      41.152  20.784  26.559  1.00  0.00     0.060 A 
ATOM      6  C   UNL A   1      41.014  21.163  27.894  1.00  0.00     0.016 A 
ATOM      7  C   UNL A   1      41.701  21.723  25.668  1.00  0.00     0.016 A 
ATOM      8  C   UNL A   1      41.488  22.396  28.348  1.00  0.00     0.010 A 
ATOM      9  C   UNL A   1      42.201  22.948  26.117  1.00  0.00     0.010 A 
ATOM     10  C   UNL A   1      42.095  23.292  27.468  1.00  0.00    -0.014 A 
BRANCH  10  11
ATOM     11  C   UNL A   1      42.449  24.650  27.933  1.00  0.00     0.031 A 
ATOM     12  C   UNL A   1      43.897  24.968  28.153  1.00  0.00     0.074 A 
ATOM     13  C   UNL A   1      41.511  25.602  28.088  1.00  0.00     0.049 A 
ATOM     14  N   UNL A   1      44.448  26.092  28.528  1.00  0.00    -0.248 NA
ATOM     15  C   UNL A   1      44.856  23.882  27.890  1.00  0.00     0.031 C 
ATOM     16  C   UNL A   1      40.086  25.440  27.808  1.00  0.00     0.029 A 
ATOM     17  N   UNL A   1      41.617  26.901  28.519  1.00  0.00    -0.354 N 
ATOM     18  C   UNL A   1      45.815  25.858  28.503  1.00  0.00     0.074 A 
ATOM     19  C   UNL A   1      46.009  24.464  28.174  1.00  0.00     0.031 C 
ATOM     20  C   UNL A   1      39.445  26.581  28.112  1.00  0.00     0.029 A 
ATOM     21  C   UNL A   1      40.408  27.544  28.628  1.00  0.00     0.049 A 
ATOM     22  H   UNL A   1      42.477  27.329  28.731  1.00  0.00     0.167 HD
ATOM     23  C   UNL A   1      46.823  26.739  28.682  1.00  0.00     0.037 A 
ATOM     24  C   UNL A   1      40.110  28.768  29.101  1.00  0.00     0.037 A 
ATOM     25  C   UNL A   1      46.626  28.119  29.026  1.00  0.00     0.049 A 
ATOM     26  C   UNL A   1      41.240  29.682  29.480  1.00  0.00     0.074 A 
ATOM     27  C   UNL A   1      47.573  29.101  29.243  1.00  0.00     0.029 A 
ATOM     28  N   UNL A   1      45.382  28.707  29.213  1.00  0.00    -0.354 N 
ATOM     29  N   UNL A   1      42.531  29.460  29.421  1.00  0.00    -0.248 NA
ATOM     30  C   UNL A   1      40.878  31.026  29.949  1.00  0.00     0.031 C 
ATOM     31  C   UNL A   1      46.904  30.273  29.612  1.00  0.00     0.029 A 
ATOM     32  C   UNL A   1      45.538  30.035  29.573  1.00  0.00     0.049 A 
ATOM     33  H   UNL A   1      44.518  28.249  29.106  1.00  0.00     0.167 HD
ATOM     34  C   UNL A   1      43.138  30.652  29.788  1.00  0.00     0.074 A 
ATOM     35  C   UNL A   1      42.072  31.590  30.083  1.00  0.00     0.031 C 
ATOM     36  C   UNL A   1      44.459  30.950  29.851  1.00  0.00     0.037 A 
BRANCH  23  37
ATOM     37  C   UNL A   1      48.214  26.209  28.508  1.00  0.00     0.057 A 
ATOM     38  C   UNL A   1      48.931  25.667  29.586  1.00  0.00     0.134 A 
ATOM     39  C   UNL A   1      48.865  26.292  27.274  1.00  0.00     0.134 A 
ATOM     40  F   UNL A   1      48.373  25.586  30.803  1.00  0.00    -0.206 F 
ATOM     41  C   UNL A   1      50.259  25.261  29.448  1.00  0.00     0.040 A 
ATOM     42  C   UNL A   1      50.184  25.865  27.117  1.00  0.00     0.040 A 
ATOM     43  F   UNL A   1      48.237  26.808  26.206  1.00  0.00    -0.206 F 
ATOM     44  C   UNL A   1      50.888  25.358  28.208  1.00  0.00     0.006 A 
ENDBRANCH  23  37
BRANCH  24  45
ATOM     45  C   UNL A   1      38.696  29.200  29.240  1.00  0.00     0.057 A 
ATOM     46  C   UNL A   1      38.006  29.079  30.450  1.00  0.00     0.134 A 
ATOM     47  C   UNL A   1      37.991  29.717  28.145  1.00  0.00     0.134 A 
ATOM     48  F   UNL A   1      38.621  28.574  31.529  1.00  0.00    -0.206 F 
ATOM     49  C   UNL A   1      36.660  29.438  30.564  1.00  0.00     0.040 A 
ATOM     50  C   UNL A   1      36.652  30.097  28.248  1.00  0.00     0.040 A 
ATOM     51  F   UNL A   1      38.596  29.855  26.955  1.00  0.00    -0.206 F 
ATOM     52  C   UNL A   1      35.979  29.950  29.460  1.00  0.00     0.006 A 
ENDBRANCH  24  45
BRANCH  36  53
ATOM     53  C   UNL A   1      44.824  32.361  30.199  1.00  0.00     0.057 A 
ATOM     54  C   UNL A   1      45.098  32.754  31.514  1.00  0.00     0.134 A 
ATOM     55  C   UNL A   1      44.953  33.325  29.190  1.00  0.00     0.134 A 
ATOM     56  F   UNL A   1      44.975  31.881  32.524  1.00  0.00    -0.206 F 
ATOM     57  C   UNL A   1      45.473  34.063  31.815  1.00  0.00     0.040 A 
ATOM     58  C   UNL A   1      45.354  34.629  29.476  1.00  0.00     0.040 A 
ATOM     59  F   UNL A   1      44.709  33.008  27.909  1.00  0.00    -0.206 F 
ATOM     60  C   UNL A   1      45.611  35.002  30.794  1.00  0.00     0.006 A 
ENDBRANCH  36  53
ENDBRANCH  10  11
ENDBRANCH   3   5
ENDBRANCH   2   3
ENDBRANCH   1   2
BRANCH   1  61
ATOM     61  C   UNL A   1      37.845  20.929  25.327  1.00  0.00     0.275 C 
BRANCH  61  62
ATOM     62  O   UNL A   1      36.518  21.167  24.829  1.00  0.00    -0.458 OA
BRANCH  62  63
ATOM     63  C   UNL A   1      35.530  21.198  25.764  1.00  0.00     0.340 C 
ATOM     64  O   UNL A   1      35.485  21.888  26.766  1.00  0.00    -0.246 OA
BRANCH  63  65
ATOM     65  C   UNL A   1      34.426  20.325  25.318  1.00  0.00     0.084 A 
ATOM     66  C   UNL A   1      34.754  19.171  24.589  1.00  0.00     0.033 A 
ATOM     67  C   UNL A   1      33.083  20.639  25.610  1.00  0.00     0.056 A 
ATOM     68  C   UNL A   1      33.739  18.369  24.083  1.00  0.00     0.018 A 
ATOM     69  C   UNL A   1      32.104  19.934  24.901  1.00  0.00     0.028 A 
ATOM     70  Br  UNL A   1      34.149  16.702  23.297  1.00  0.00    -0.051 Br
ATOM     71  C   UNL A   1      32.421  18.790  24.163  1.00  0.00     0.018 A 
BRANCH  67  72
ATOM     72  N   UNL A   1      32.780  21.645  26.561  1.00  0.00    -0.320 N 
ATOM     73  C   UNL A   1      32.383  22.969  26.460  1.00  0.00     0.265 C 
ATOM     74  H   UNL A   1      32.872  21.338  27.492  1.00  0.00     0.170 HD
ATOM     75  O   UNL A   1      32.312  23.615  27.506  1.00  0.00    -0.268 OA
BRANCH  73  76
ATOM     76  C   UNL A   1      32.035  23.550  25.180  1.00  0.00     0.093 A 
ATOM     77  C   UNL A   1      30.846  23.489  24.472  1.00  0.00     0.027 A 
ATOM     78  S   UNL A   1      33.204  24.502  24.361  1.00  0.00    -0.123 S 
ATOM     79  C   UNL A   1      30.950  24.114  23.192  1.00  0.00     0.028 A 
ATOM     80  C   UNL A   1      32.181  24.696  23.024  1.00  0.00     0.071 A 
ATOM     81  Br  UNL A   1      32.691  25.609  21.471  1.00  0.00    -0.039 Br
ENDBRANCH  73  76
ENDBRANCH  67  72
ENDBRANCH  63  65
ENDBRANCH  62  63
ENDBRANCH  61  62
ENDBRANCH   1  61
TORSDOF 13
ENDMDL
MODEL 2
REMARK VINA RESULT:     -11.5      4.943      9.765
REMARK SMILES O=C(OCCOC(=O)c1cc(Br)ccc1NC(=O)c1ccc(Br)s1)c1ccc(-c2c3nc(c(-c4c(F)cccc4F)c4ccc([nH]4)c(-c4c(F)cccc4F)c4nc(c(-c5c(F)cccc5F)c5ccc2[nH]5)C=C4)C=C3)cc1
REMARK SMILES IDX 4 1 3 2 2 3 1 4 25 5 26 6 78 7 27 8 77 9 28 10 29 11 30 12
REMARK SMILES IDX 71 13 31 14 76 15 70 16 72 17 32 18 75 19 69 20 68 21 33 23
REMARK SMILES IDX 59 24 42 25 58 26 43 27 46 28 57 29 73 30 44 31 45 32 56 34
REMARK SMILES IDX 74 35 47 36 34 37 35 38 40 39 36 40 37 41 39 42 41 43 38 44
REMARK SMILES IDX 60 45 61 46 66 47 62 48 63 49 65 50 67 51 64 52 48 53 49 54
REMARK SMILES IDX 54 55 50 56 51 57 53 58 55 59 52 60 5 61 6 62 7 63 8 64 9 65
REMARK SMILES IDX 10 66 15 67 11 68 14 69 12 70 13 71 16 72 17 73 18 75 19 76
REMARK SMILES IDX 20 77 24 78 21 79 22 80 23 81
REMARK H PARENT 72 22 46 33 16 74
REMARK Flexibility Score: inf
ROOT
ATOM      1  C   UNL A   1      31.684  32.126  26.962  1.00  0.00     0.275 C 
ENDROOT
BRANCH   1   2
ATOM      2  O   UNL A   1      32.276  33.431  27.066  1.00  0.00    -0.458 OA
BRANCH   2   3
ATOM      3  C   UNL A   1      32.995  33.993  28.062  1.00  0.00     0.338 C 
ATOM      4  O   UNL A   1      32.658  35.098  28.481  1.00  0.00    -0.246 OA
BRANCH   3   5
ATOM      5  C   UNL A   1      34.269  33.418  28.596  1.00  0.00     0.060 A 
ATOM      6  C   UNL A   1      35.559  33.738  28.171  1.00  0.00     0.016 A 
ATOM      7  C   UNL A   1      34.137  32.455  29.611  1.00  0.00     0.016 A 
ATOM      8  C   UNL A   1      36.681  33.189  28.796  1.00  0.00     0.010 A 
ATOM      9  C   UNL A   1      35.253  31.921  30.259  1.00  0.00     0.010 A 
ATOM     10  C   UNL A   1      36.539  32.288  29.851  1.00  0.00    -0.014 A 
BRANCH  10  11
ATOM     11  C   UNL A   1      37.730  31.602  30.394  1.00  0.00     0.031 A 
ATOM     12  C   UNL A   1      38.163  31.934  31.791  1.00  0.00     0.074 A 
ATOM     13  C   UNL A   1      38.372  30.652  29.690  1.00  0.00     0.049 A 
ATOM     14  N   UNL A   1      39.153  31.443  32.487  1.00  0.00    -0.248 NA
ATOM     15  C   UNL A   1      37.357  32.936  32.508  1.00  0.00     0.031 C 
ATOM     16  C   UNL A   1      37.983  30.173  28.366  1.00  0.00     0.029 A 
ATOM     17  N   UNL A   1      39.489  29.915  29.993  1.00  0.00    -0.354 N 
ATOM     18  C   UNL A   1      39.059  32.044  33.734  1.00  0.00     0.074 A 
ATOM     19  C   UNL A   1      37.982  33.006  33.670  1.00  0.00     0.031 C 
ATOM     20  C   UNL A   1      38.871  29.251  27.953  1.00  0.00     0.029 A 
ATOM     21  C   UNL A   1      39.899  29.093  28.972  1.00  0.00     0.049 A 
ATOM     22  H   UNL A   1      39.953  29.970  30.859  1.00  0.00     0.167 HD
ATOM     23  C   UNL A   1      39.770  31.778  34.852  1.00  0.00     0.037 A 
ATOM     24  C   UNL A   1      40.987  28.308  28.865  1.00  0.00     0.037 A 
ATOM     25  C   UNL A   1      40.850  30.834  34.905  1.00  0.00     0.049 A 
ATOM     26  C   UNL A   1      41.885  28.165  30.062  1.00  0.00     0.074 A 
ATOM     27  C   UNL A   1      41.648  30.492  35.980  1.00  0.00     0.029 A 
ATOM     28  N   UNL A   1      41.290  30.087  33.821  1.00  0.00    -0.354 N 
ATOM     29  N   UNL A   1      41.767  28.714  31.246  1.00  0.00    -0.248 NA
ATOM     30  C   UNL A   1      43.037  27.266  29.924  1.00  0.00     0.031 C 
ATOM     31  C   UNL A   1      42.604  29.573  35.534  1.00  0.00     0.029 A 
ATOM     32  C   UNL A   1      42.369  29.304  34.194  1.00  0.00     0.049 A 
ATOM     33  H   UNL A   1      40.893  30.110  32.920  1.00  0.00     0.167 HD
ATOM     34  C   UNL A   1      42.793  28.183  32.015  1.00  0.00     0.074 A 
ATOM     35  C   UNL A   1      43.533  27.280  31.154  1.00  0.00     0.031 C 
ATOM     36  C   UNL A   1      43.081  28.405  33.320  1.00  0.00     0.037 A 
BRANCH  23  37
ATOM     37  C   UNL A   1      39.383  32.534  36.086  1.00  0.00     0.057 A 
ATOM     38  C   UNL A   1      38.419  32.039  36.977  1.00  0.00     0.134 A 
ATOM     39  C   UNL A   1      39.931  33.791  36.359  1.00  0.00     0.134 A 
ATOM     40  F   UNL A   1      37.834  30.852  36.756  1.00  0.00    -0.206 F 
ATOM     41  C   UNL A   1      37.988  32.785  38.074  1.00  0.00     0.040 A 
ATOM     42  C   UNL A   1      39.528  34.535  37.469  1.00  0.00     0.040 A 
ATOM     43  F   UNL A   1      40.853  34.325  35.542  1.00  0.00    -0.206 F 
ATOM     44  C   UNL A   1      38.545  34.037  38.323  1.00  0.00     0.006 A 
ENDBRANCH  23  37
BRANCH  24  45
ATOM     45  C   UNL A   1      41.287  27.602  27.594  1.00  0.00     0.057 A 
ATOM     46  C   UNL A   1      40.807  26.314  27.337  1.00  0.00     0.134 A 
ATOM     47  C   UNL A   1      42.095  28.195  26.616  1.00  0.00     0.134 A 
ATOM     48  F   UNL A   1      40.044  25.686  28.243  1.00  0.00    -0.206 F 
ATOM     49  C   UNL A   1      41.134  25.632  26.162  1.00  0.00     0.040 A 
ATOM     50  C   UNL A   1      42.416  27.533  25.428  1.00  0.00     0.040 A 
ATOM     51  F   UNL A   1      42.590  29.428  26.802  1.00  0.00    -0.206 F 
ATOM     52  C   UNL A   1      41.940  26.243  25.203  1.00  0.00     0.006 A 
ENDBRANCH  24  45
BRANCH  36  53
ATOM     53  C   UNL A   1      44.209  27.617  33.913  1.00  0.00     0.057 A 
ATOM     54  C   UNL A   1      44.014  26.351  34.476  1.00  0.00     0.134 A 
ATOM     55  C   UNL A   1      45.518  28.116  33.869  1.00  0.00     0.134 A 
ATOM     56  F   UNL A   1      42.782  25.827  34.561  1.00  0.00    -0.206 F 
ATOM     57  C   UNL A   1      45.081  25.614  34.990  1.00  0.00     0.040 A 
ATOM     58  C   UNL A   1      46.596  27.377  34.354  1.00  0.00     0.040 A 
ATOM     59  F   UNL A   1      45.770  29.322  33.337  1.00  0.00    -0.206 F 
ATOM     60  C   UNL A   1      46.377  26.123  34.921  1.00  0.00     0.006 A 
ENDBRANCH  36  53
ENDBRANCH  10  11
ENDBRANCH   3   5
ENDBRANCH   2   3
ENDBRANCH   1   2
BRANCH   1  61
ATOM     61  C   UNL A   1      32.654  31.010  26.569  1.00  0.00     0.275 C 
BRANCH  61  62
ATOM     62  O   UNL A   1      32.032  29.815  26.069  1.00  0.00    -0.458 OA
BRANCH  62  63
ATOM     63  C   UNL A   1      32.461  29.388  24.850  1.00  0.00     0.340 C 
ATOM     64  O   UNL A   1      33.579  29.006  24.555  1.00  0.00    -0.246 OA
BRANCH  63  65
ATOM     65  C   UNL A   1      31.309  29.346  23.928  1.00  0.00     0.084 A 
ATOM     66  C   UNL A   1      30.218  30.188  24.201  1.00  0.00     0.033 A 
ATOM     67  C   UNL A   1      31.298  28.487  22.811  1.00  0.00     0.056 A 
ATOM     68  C   UNL A   1      29.083  30.118  23.403  1.00  0.00     0.018 A 
ATOM     69  C   UNL A   1      30.066  28.294  22.177  1.00  0.00     0.028 A 
ATOM     70  Br  UNL A   1      27.700  31.386  23.606  1.00  0.00    -0.051 Br
ATOM     71  C   UNL A   1      28.970  29.118  22.448  1.00  0.00     0.018 A 
BRANCH  67  72
ATOM     72  N   UNL A   1      32.493  27.847  22.396  1.00  0.00    -0.320 N 
ATOM     73  C   UNL A   1      33.018  26.580  22.593  1.00  0.00     0.265 C 
ATOM     74  H   UNL A   1      33.074  28.427  21.853  1.00  0.00     0.170 HD
ATOM     75  O   UNL A   1      34.161  26.375  22.183  1.00  0.00    -0.268 OA
BRANCH  73  76
ATOM     76  C   UNL A   1      32.237  25.537  23.224  1.00  0.00     0.093 A 
ATOM     77  C   UNL A   1      31.256  24.717  22.690  1.00  0.00     0.027 A 
ATOM     78  S   UNL A   1      32.528  25.172  24.875  1.00  0.00    -0.123 S 
ATOM     79  C   UNL A   1      30.653  23.884  23.681  1.00  0.00     0.028 A 
ATOM     80  C   UNL A   1      31.262  24.046  24.901  1.00  0.00     0.071 A 
ATOM     81  Br  UNL A   1      30.745  23.124  26.446  1.00  0.00    -0.039 Br
ENDBRANCH  73  76
ENDBRANCH  67  72
ENDBRANCH  63  65
ENDBRANCH  62  63
ENDBRANCH  61  62
ENDBRANCH   1  61
TORSDOF 13
ENDMDL
MODEL 3
REMARK VINA RESULT:     -11.5      4.703      9.584
REMARK SMILES O=C(OCCOC(=O)c1cc(Br)ccc1NC(=O)c1ccc(Br)s1)c1ccc(-c2c3nc(c(-c4c(F)cccc4F)c4ccc([nH]4)c(-c4c(F)cccc4F)c4nc(c(-c5c(F)cccc5F)c5ccc2[nH]5)C=C4)C=C3)cc1
REMARK SMILES IDX 4 1 3 2 2 3 1 4 25 5 26 6 78 7 27 8 77 9 28 10 29 11 30 12
REMARK SMILES IDX 71 13 31 14 76 15 70 16 72 17 32 18 75 19 69 20 68 21 33 23
REMARK SMILES IDX 59 24 42 25 58 26 43 27 46 28 57 29 73 30 44 31 45 32 56 34
REMARK SMILES IDX 74 35 47 36 34 37 35 38 40 39 36 40 37 41 39 42 41 43 38 44
REMARK SMILES IDX 60 45 61 46 66 47 62 48 63 49 65 50 67 51 64 52 48 53 49 54
REMARK SMILES IDX 54 55 50 56 51 57 53 58 55 59 52 60 5 61 6 62 7 63 8 64 9 65
REMARK SMILES IDX 10 66 15 67 11 68 14 69 12 70 13 71 16 72 17 73 18 75 19 76
REMARK SMILES IDX 20 77 24 78 21 79 22 80 23 81
REMARK H PARENT 72 22 46 33 16 74
REMARK Flexibility Score: inf
ROOT
ATOM      1  C   UNL A   1      31.498  32.062  26.876  1.00  0.00     0.275 C 
ENDROOT
BRANCH   1   2
ATOM      2  O   UNL A   1      32.231  33.295  26.938  1.00  0.00    -0.458 OA
BRANCH   2   3
ATOM      3  C   UNL A   1      32.917  33.860  27.955  1.00  0.00     0.338 C 
ATOM      4  O   UNL A   1      32.551  34.955  28.378  1.00  0.00    -0.246 OA
BRANCH   3   5
ATOM      5  C   UNL A   1      34.189  33.301  28.513  1.00  0.00     0.060 A 
ATOM      6  C   UNL A   1      35.476  33.549  28.036  1.00  0.00     0.016 A 
ATOM      7  C   UNL A   1      34.055  32.435  29.612  1.00  0.00     0.016 A 
ATOM      8  C   UNL A   1      36.598  33.028  28.685  1.00  0.00     0.010 A 
ATOM      9  C   UNL A   1      35.173  31.932  30.283  1.00  0.00     0.010 A 
ATOM     10  C   UNL A   1      36.458  32.228  29.818  1.00  0.00    -0.014 A 
BRANCH  10  11
ATOM     11  C   UNL A   1      37.644  31.561  30.397  1.00  0.00     0.031 A 
ATOM     12  C   UNL A   1      38.062  31.941  31.786  1.00  0.00     0.074 A 
ATOM     13  C   UNL A   1      38.294  30.589  29.731  1.00  0.00     0.049 A 
ATOM     14  N   UNL A   1      39.045  31.474  32.508  1.00  0.00    -0.248 NA
ATOM     15  C   UNL A   1      37.247  32.965  32.460  1.00  0.00     0.031 C 
ATOM     16  C   UNL A   1      37.920  30.066  28.420  1.00  0.00     0.029 A 
ATOM     17  N   UNL A   1      39.409  29.864  30.070  1.00  0.00    -0.354 N 
ATOM     18  C   UNL A   1      38.937  32.116  33.734  1.00  0.00     0.074 A 
ATOM     19  C   UNL A   1      37.860  33.074  33.626  1.00  0.00     0.031 C 
ATOM     20  C   UNL A   1      38.812  29.132  28.047  1.00  0.00     0.029 A 
ATOM     21  C   UNL A   1      39.830  29.009  29.081  1.00  0.00     0.049 A 
ATOM     22  H   UNL A   1      39.863  29.949  30.939  1.00  0.00     0.167 HD
ATOM     23  C   UNL A   1      39.636  31.888  34.867  1.00  0.00     0.037 A 
ATOM     24  C   UNL A   1      40.920  28.223  29.013  1.00  0.00     0.037 A 
ATOM     25  C   UNL A   1      40.717  30.948  34.963  1.00  0.00     0.049 A 
ATOM     26  C   UNL A   1      41.805  28.121  30.222  1.00  0.00     0.074 A 
ATOM     27  C   UNL A   1      41.504  30.643  36.058  1.00  0.00     0.029 A 
ATOM     28  N   UNL A   1      41.168  30.166  33.909  1.00  0.00    -0.354 N 
ATOM     29  N   UNL A   1      41.674  28.709  31.387  1.00  0.00    -0.248 NA
ATOM     30  C   UNL A   1      42.959  27.219  30.127  1.00  0.00     0.031 C 
ATOM     31  C   UNL A   1      42.465  29.711  35.652  1.00  0.00     0.029 A 
ATOM     32  C   UNL A   1      42.244  29.397  34.319  1.00  0.00     0.049 A 
ATOM     33  H   UNL A   1      40.781  30.158  33.004  1.00  0.00     0.167 HD
ATOM     34  C   UNL A   1      42.692  28.205  32.183  1.00  0.00     0.074 A 
ATOM     35  C   UNL A   1      43.442  27.275  31.361  1.00  0.00     0.031 C 
ATOM     36  C   UNL A   1      42.966  28.471  33.483  1.00  0.00     0.037 A 
BRANCH  23  37
ATOM     37  C   UNL A   1      39.236  32.685  36.071  1.00  0.00     0.057 A 
ATOM     38  C   UNL A   1      39.790  33.947  36.333  1.00  0.00     0.134 A 
ATOM     39  C   UNL A   1      38.335  32.168  37.008  1.00  0.00     0.134 A 
ATOM     40  F   UNL A   1      40.683  34.487  35.488  1.00  0.00    -0.206 F 
ATOM     41  C   UNL A   1      39.491  34.648  37.501  1.00  0.00     0.040 A 
ATOM     42  C   UNL A   1      38.007  32.871  38.167  1.00  0.00     0.040 A 
ATOM     43  F   UNL A   1      37.775  30.962  36.820  1.00  0.00    -0.206 F 
ATOM     44  C   UNL A   1      38.595  34.109  38.422  1.00  0.00     0.006 A 
ENDBRANCH  23  37
BRANCH  24  45
ATOM     45  C   UNL A   1      41.234  27.475  27.769  1.00  0.00     0.057 A 
ATOM     46  C   UNL A   1      41.959  28.056  26.724  1.00  0.00     0.134 A 
ATOM     47  C   UNL A   1      40.782  26.161  27.587  1.00  0.00     0.134 A 
ATOM     48  F   UNL A   1      42.402  29.317  26.831  1.00  0.00    -0.206 F 
ATOM     49  C   UNL A   1      42.208  27.367  25.534  1.00  0.00     0.040 A 
ATOM     50  C   UNL A   1      41.039  25.454  26.410  1.00  0.00     0.040 A 
ATOM     51  F   UNL A   1      40.079  25.547  28.550  1.00  0.00    -0.206 F 
ATOM     52  C   UNL A   1      41.748  26.061  25.376  1.00  0.00     0.006 A 
ENDBRANCH  24  45
BRANCH  36  53
ATOM     53  C   UNL A   1      44.089  27.705  34.114  1.00  0.00     0.057 A 
ATOM     54  C   UNL A   1      45.395  28.205  34.161  1.00  0.00     0.134 A 
ATOM     55  C   UNL A   1      43.842  26.470  34.729  1.00  0.00     0.134 A 
ATOM     56  F   UNL A   1      45.697  29.374  33.575  1.00  0.00    -0.206 F 
ATOM     57  C   UNL A   1      46.421  27.496  34.785  1.00  0.00     0.040 A 
ATOM     58  C   UNL A   1      44.854  25.766  35.380  1.00  0.00     0.040 A 
ATOM     59  F   UNL A   1      42.610  25.940  34.722  1.00  0.00    -0.206 F 
ATOM     60  C   UNL A   1      46.149  26.277  35.404  1.00  0.00     0.006 A 
ENDBRANCH  36  53
ENDBRANCH  10  11
ENDBRANCH   3   5
ENDBRANCH   2   3
ENDBRANCH   1   2
BRANCH   1  61
ATOM     61  C   UNL A   1      32.362  30.799  26.878  1.00  0.00     0.275 C 
BRANCH  61  62
ATOM     62  O   UNL A   1      31.657  29.583  27.175  1.00  0.00    -0.458 OA
BRANCH  62  63
ATOM     63  C   UNL A   1      32.174  28.449  26.632  1.00  0.00     0.340 C 
ATOM     64  O   UNL A   1      33.131  27.810  27.032  1.00  0.00    -0.246 OA
BRANCH  63  65
ATOM     65  C   UNL A   1      31.314  28.022  25.510  1.00  0.00     0.084 A 
ATOM     66  C   UNL A   1      31.180  28.894  24.418  1.00  0.00     0.033 A 
ATOM     67  C   UNL A   1      30.643  26.783  25.534  1.00  0.00     0.056 A 
ATOM     68  C   UNL A   1      30.315  28.564  23.381  1.00  0.00     0.018 A 
ATOM     69  C   UNL A   1      29.629  26.599  24.588  1.00  0.00     0.028 A 
ATOM     70  Br  UNL A   1      30.286  29.601  21.803  1.00  0.00    -0.051 Br
ATOM     71  C   UNL A   1      29.479  27.465  23.502  1.00  0.00     0.018 A 
BRANCH  67  72
ATOM     72  N   UNL A   1      30.989  25.807  26.502  1.00  0.00    -0.320 N 
ATOM     73  C   UNL A   1      31.850  24.722  26.501  1.00  0.00     0.265 C 
ATOM     74  H   UNL A   1      30.517  25.927  27.358  1.00  0.00     0.170 HD
ATOM     75  O   UNL A   1      31.834  23.990  27.492  1.00  0.00    -0.268 OA
BRANCH  73  76
ATOM     76  C   UNL A   1      32.753  24.484  25.394  1.00  0.00     0.093 A 
ATOM     77  C   UNL A   1      32.600  24.773  24.048  1.00  0.00     0.027 A 
ATOM     78  S   UNL A   1      34.279  23.767  25.712  1.00  0.00    -0.123 S 
ATOM     79  C   UNL A   1      33.688  24.277  23.265  1.00  0.00     0.028 A 
ATOM     80  C   UNL A   1      34.654  23.714  24.061  1.00  0.00     0.071 A 
ATOM     81  Br  UNL A   1      36.229  22.954  23.394  1.00  0.00    -0.039 Br
ENDBRANCH  73  76
ENDBRANCH  67  72
ENDBRANCH  63  65
ENDBRANCH  62  63
ENDBRANCH  61  62
ENDBRANCH   1  61
TORSDOF 13
ENDMDL
