MODEL 1
REMARK VINA RESULT:     -11.4      0.000      0.000
REMARK SMILES C[C@H](NC(=O)c1ccncc1/C=C/C(=O)OCCOC(=O)c1ccc(-c2c3nc(c(-c4c(F)cccc4F)c4ccc([nH]4)c(-c4c(F)cccc4F)c4nc(c(-c5c(F)cccc5F)c5ccc2[nH]5)C=C4)C=C3)cc1)c1ccco1
REMARK SMILES IDX 17 1 16 2 14 3 15 4 13 5 12 6 11 7 6 8 7 9 8 10 10 11 9 12
REMARK SMILES IDX 4 13 3 14 5 16 2 17 1 18 76 19 77 20 80 21 78 22 79 23 18 24
REMARK SMILES IDX 19 25 20 26 21 27 22 28 23 29 75 30 24 31 74 32 25 33 26 34
REMARK SMILES IDX 27 35 68 36 28 37 73 38 67 39 69 40 29 41 72 42 66 43 65 44
REMARK SMILES IDX 30 46 56 47 39 48 55 49 40 50 43 51 54 52 70 53 41 54 42 55
REMARK SMILES IDX 53 57 71 58 44 59 31 60 32 61 37 62 33 63 34 64 36 65 38 66
REMARK SMILES IDX 35 67 57 68 58 69 63 70 59 71 60 72 62 73 64 74 61 75 45 76
REMARK SMILES IDX 46 77 51 78 47 79 48 80 50 81 52 82 49 83
REMARK H PARENT 3 15 69 45 43 56
REMARK Flexibility Score: inf
ROOT
ATOM      1  C   UNL A   1      31.780  31.671  26.868  1.00  0.00     0.275 C 
ENDROOT
BRANCH   1   2
ATOM      2  O   UNL A   1      32.431  30.707  26.016  1.00  0.00    -0.459 OA
BRANCH   2   3
ATOM      3  C   UNL A   1      33.205  29.800  26.653  1.00  0.00     0.330 C 
ATOM      4  O   UNL A   1      33.864  29.995  27.665  1.00  0.00    -0.247 OA
BRANCH   3   5
ATOM      5  C   UNL A   1      33.164  28.460  26.034  1.00  0.00     0.094 C 
ATOM      6  C   UNL A   1      34.019  27.956  25.128  1.00  0.00     0.018 C 
BRANCH   6   7
ATOM      7  C   UNL A   1      33.829  26.597  24.583  1.00  0.00     0.006 A 
ATOM      8  C   UNL A   1      33.454  26.326  23.259  1.00  0.00     0.050 A 
ATOM      9  C   UNL A   1      33.451  25.019  22.764  1.00  0.00     0.034 A 
ATOM     10  C   UNL A   1      33.699  23.993  23.655  1.00  0.00     0.112 A 
ATOM     11  C   UNL A   1      34.017  25.476  25.389  1.00  0.00     0.119 A 
ATOM     12  N   UNL A   1      33.952  24.192  24.963  1.00  0.00    -0.264 NA
BRANCH   8  13
ATOM     13  C   UNL A   1      33.104  27.417  22.341  1.00  0.00     0.252 C 
ATOM     14  N   UNL A   1      31.824  27.894  22.260  1.00  0.00    -0.342 N 
ATOM     15  H   UNL A   1      31.769  28.735  21.752  1.00  0.00     0.164 HD
ATOM     16  O   UNL A   1      33.990  27.930  21.663  1.00  0.00    -0.269 OA
BRANCH  14  17
ATOM     17  C   UNL A   1      30.512  27.444  22.752  1.00  0.00     0.145 C 
ATOM     18  C   UNL A   1      30.446  26.967  24.204  1.00  0.00     0.039 C 
BRANCH  17  19
ATOM     19  C   UNL A   1      29.533  28.569  22.504  1.00  0.00     0.125 A 
ATOM     20  C   UNL A   1      28.275  28.870  22.996  1.00  0.00     0.048 A 
ATOM     21  O   UNL A   1      29.914  29.548  21.626  1.00  0.00    -0.467 OA
ATOM     22  C   UNL A   1      27.871  30.077  22.373  1.00  0.00     0.042 A 
ATOM     23  C   UNL A   1      28.908  30.451  21.555  1.00  0.00     0.195 A 
ENDBRANCH  17  19
ENDBRANCH  14  17
ENDBRANCH   8  13
ENDBRANCH   6   7
ENDBRANCH   3   5
ENDBRANCH   2   3
ENDBRANCH   1   2
BRANCH   1  24
ATOM     24  C   UNL A   1      32.525  33.009  26.877  1.00  0.00     0.275 C 
BRANCH  24  25
ATOM     25  O   UNL A   1      32.153  33.831  27.999  1.00  0.00    -0.458 OA
BRANCH  25  26
ATOM     26  C   UNL A   1      33.131  34.645  28.462  1.00  0.00     0.338 C 
ATOM     27  O   UNL A   1      33.077  35.854  28.612  1.00  0.00    -0.246 OA
BRANCH  26  28
ATOM     28  C   UNL A   1      34.291  33.846  28.893  1.00  0.00     0.060 A 
ATOM     29  C   UNL A   1      34.050  32.730  29.702  1.00  0.00     0.016 A 
ATOM     30  C   UNL A   1      35.600  34.226  28.583  1.00  0.00     0.016 A 
ATOM     31  C   UNL A   1      35.117  31.994  30.211  1.00  0.00     0.010 A 
ATOM     32  C   UNL A   1      36.671  33.486  29.096  1.00  0.00     0.010 A 
ATOM     33  C   UNL A   1      36.436  32.374  29.925  1.00  0.00    -0.014 A 
BRANCH  33  34
ATOM     34  C   UNL A   1      37.564  31.626  30.532  1.00  0.00     0.031 A 
ATOM     35  C   UNL A   1      37.950  31.878  31.961  1.00  0.00     0.074 A 
ATOM     36  C   UNL A   1      38.223  30.703  29.808  1.00  0.00     0.049 A 
ATOM     37  N   UNL A   1      38.924  31.351  32.661  1.00  0.00    -0.248 NA
ATOM     38  C   UNL A   1      37.132  32.850  32.702  1.00  0.00     0.031 C 
ATOM     39  C   UNL A   1      37.925  30.349  28.421  1.00  0.00     0.029 A 
ATOM     40  N   UNL A   1      39.281  29.897  30.142  1.00  0.00    -0.354 N 
ATOM     41  C   UNL A   1      38.836  31.926  33.923  1.00  0.00     0.074 A 
ATOM     42  C   UNL A   1      37.734  32.864  33.884  1.00  0.00     0.031 C 
ATOM     43  C   UNL A   1      38.785  29.398  28.020  1.00  0.00     0.029 A 
ATOM     44  C   UNL A   1      39.713  29.102  29.108  1.00  0.00     0.049 A 
ATOM     45  H   UNL A   1      39.693  29.889  31.036  1.00  0.00     0.167 HD
ATOM     46  C   UNL A   1      39.599  31.684  35.016  1.00  0.00     0.037 A 
ATOM     47  C   UNL A   1      40.752  28.248  29.041  1.00  0.00     0.037 A 
ATOM     48  C   UNL A   1      40.697  30.754  35.054  1.00  0.00     0.049 A 
ATOM     49  C   UNL A   1      41.621  28.043  30.251  1.00  0.00     0.074 A 
ATOM     50  C   UNL A   1      41.531  30.445  36.116  1.00  0.00     0.029 A 
ATOM     51  N   UNL A   1      41.116  29.983  33.981  1.00  0.00    -0.354 N 
ATOM     52  N   UNL A   1      41.523  28.585  31.441  1.00  0.00    -0.248 NA
ATOM     53  C   UNL A   1      42.744  27.105  30.110  1.00  0.00     0.031 C 
ATOM     54  C   UNL A   1      42.476  29.513  35.675  1.00  0.00     0.029 A 
ATOM     55  C   UNL A   1      42.206  29.211  34.350  1.00  0.00     0.049 A 
ATOM     56  H   UNL A   1      40.701  29.984  33.088  1.00  0.00     0.167 HD
ATOM     57  C   UNL A   1      42.556  28.041  32.193  1.00  0.00     0.074 A 
ATOM     58  C   UNL A   1      43.259  27.113  31.332  1.00  0.00     0.031 C 
ATOM     59  C   UNL A   1      42.892  28.288  33.483  1.00  0.00     0.037 A 
BRANCH  46  60
ATOM     60  C   UNL A   1      39.277  32.452  36.263  1.00  0.00     0.057 A 
ATOM     61  C   UNL A   1      38.357  31.974  37.205  1.00  0.00     0.134 A 
ATOM     62  C   UNL A   1      39.921  33.664  36.545  1.00  0.00     0.134 A 
ATOM     63  F   UNL A   1      37.697  30.826  36.989  1.00  0.00    -0.206 F 
ATOM     64  C   UNL A   1      38.074  32.683  38.374  1.00  0.00     0.040 A 
ATOM     65  C   UNL A   1      39.664  34.371  37.721  1.00  0.00     0.040 A 
ATOM     66  F   UNL A   1      40.818  34.174  35.688  1.00  0.00    -0.206 F 
ATOM     67  C   UNL A   1      38.733  33.883  38.637  1.00  0.00     0.006 A 
ENDBRANCH  46  60
BRANCH  47  68
ATOM     68  C   UNL A   1      41.044  27.536  27.772  1.00  0.00     0.057 A 
ATOM     69  C   UNL A   1      40.530  26.260  27.518  1.00  0.00     0.134 A 
ATOM     70  C   UNL A   1      41.861  28.110  26.791  1.00  0.00     0.134 A 
ATOM     71  F   UNL A   1      39.761  25.648  28.432  1.00  0.00    -0.206 F 
ATOM     72  C   UNL A   1      40.830  25.571  26.343  1.00  0.00     0.040 A 
ATOM     73  C   UNL A   1      42.150  27.444  25.599  1.00  0.00     0.040 A 
ATOM     74  F   UNL A   1      42.384  29.330  26.974  1.00  0.00    -0.206 F 
ATOM     75  C   UNL A   1      41.639  26.166  25.376  1.00  0.00     0.006 A 
ENDBRANCH  47  68
BRANCH  59  76
ATOM     76  C   UNL A   1      44.054  27.524  34.046  1.00  0.00     0.057 A 
ATOM     77  C   UNL A   1      43.894  26.260  34.625  1.00  0.00     0.134 A 
ATOM     78  C   UNL A   1      45.352  28.046  33.976  1.00  0.00     0.134 A 
ATOM     79  F   UNL A   1      42.675  25.711  34.734  1.00  0.00    -0.206 F 
ATOM     80  C   UNL A   1      44.983  25.550  35.136  1.00  0.00     0.040 A 
ATOM     81  C   UNL A   1      46.450  27.336  34.462  1.00  0.00     0.040 A 
ATOM     82  F   UNL A   1      45.574  29.250  33.425  1.00  0.00    -0.206 F 
ATOM     83  C   UNL A   1      46.266  26.086  35.050  1.00  0.00     0.006 A 
ENDBRANCH  59  76
ENDBRANCH  33  34
ENDBRANCH  26  28
ENDBRANCH  25  26
ENDBRANCH  24  25
ENDBRANCH   1  24
TORSDOF 15
ENDMDL
MODEL 2
REMARK VINA RESULT:     -11.3      0.665      6.232
REMARK SMILES C[C@H](NC(=O)c1ccncc1/C=C/C(=O)OCCOC(=O)c1ccc(-c2c3nc(c(-c4c(F)cccc4F)c4ccc([nH]4)c(-c4c(F)cccc4F)c4nc(c(-c5c(F)cccc5F)c5ccc2[nH]5)C=C4)C=C3)cc1)c1ccco1
REMARK SMILES IDX 17 1 16 2 14 3 15 4 13 5 12 6 11 7 6 8 7 9 8 10 10 11 9 12
REMARK SMILES IDX 4 13 3 14 5 16 2 17 1 18 76 19 77 20 80 21 78 22 79 23 18 24
REMARK SMILES IDX 19 25 20 26 21 27 22 28 23 29 75 30 24 31 74 32 25 33 26 34
REMARK SMILES IDX 27 35 68 36 28 37 73 38 67 39 69 40 29 41 72 42 66 43 65 44
REMARK SMILES IDX 30 46 56 47 39 48 55 49 40 50 43 51 54 52 70 53 41 54 42 55
REMARK SMILES IDX 53 57 71 58 44 59 31 60 32 61 37 62 33 63 34 64 36 65 38 66
REMARK SMILES IDX 35 67 57 68 58 69 63 70 59 71 60 72 62 73 64 74 61 75 45 76
REMARK SMILES IDX 46 77 51 78 47 79 48 80 50 81 52 82 49 83
REMARK H PARENT 3 15 69 45 43 56
REMARK Flexibility Score: inf
ROOT
ATOM      1  C   UNL A   1      31.767  30.970  26.254  1.00  0.00     0.275 C 
ENDROOT
BRANCH   1   2
ATOM      2  O   UNL A   1      32.380  30.003  27.131  1.00  0.00    -0.459 OA
BRANCH   2   3
ATOM      3  C   UNL A   1      33.483  29.394  26.641  1.00  0.00     0.330 C 
ATOM      4  O   UNL A   1      34.643  29.651  26.937  1.00  0.00    -0.247 OA
BRANCH   3   5
ATOM      5  C   UNL A   1      33.176  28.299  25.700  1.00  0.00     0.094 C 
ATOM      6  C   UNL A   1      34.025  27.370  25.228  1.00  0.00     0.018 C 
BRANCH   6   7
ATOM      7  C   UNL A   1      33.569  26.346  24.268  1.00  0.00     0.006 A 
ATOM      8  C   UNL A   1      33.186  26.620  22.946  1.00  0.00     0.050 A 
ATOM      9  C   UNL A   1      32.922  25.587  22.043  1.00  0.00     0.034 A 
ATOM     10  C   UNL A   1      32.917  24.294  22.528  1.00  0.00     0.112 A 
ATOM     11  C   UNL A   1      33.489  25.006  24.644  1.00  0.00     0.119 A 
ATOM     12  N   UNL A   1      33.166  23.984  23.815  1.00  0.00    -0.264 NA
BRANCH   8  13
ATOM     13  C   UNL A   1      33.105  28.004  22.463  1.00  0.00     0.252 C 
ATOM     14  N   UNL A   1      31.912  28.671  22.416  1.00  0.00    -0.342 N 
ATOM     15  H   UNL A   1      32.027  29.635  22.252  1.00  0.00     0.164 HD
ATOM     16  O   UNL A   1      34.139  28.578  22.130  1.00  0.00    -0.269 OA
BRANCH  14  17
ATOM     17  C   UNL A   1      30.498  28.287  22.552  1.00  0.00     0.145 C 
ATOM     18  C   UNL A   1      30.124  27.455  23.779  1.00  0.00     0.039 C 
BRANCH  17  19
ATOM     19  C   UNL A   1      29.682  29.559  22.487  1.00  0.00     0.125 A 
ATOM     20  C   UNL A   1      29.247  30.466  23.437  1.00  0.00     0.048 A 
ATOM     21  O   UNL A   1      29.265  29.972  21.252  1.00  0.00    -0.467 OA
ATOM     22  C   UNL A   1      28.518  31.464  22.744  1.00  0.00     0.042 A 
ATOM     23  C   UNL A   1      28.566  31.120  21.416  1.00  0.00     0.195 A 
ENDBRANCH  17  19
ENDBRANCH  14  17
ENDBRANCH   8  13
ENDBRANCH   6   7
ENDBRANCH   3   5
ENDBRANCH   2   3
ENDBRANCH   1   2
BRANCH   1  24
ATOM     24  C   UNL A   1      31.548  32.312  26.959  1.00  0.00     0.275 C 
BRANCH  24  25
ATOM     25  O   UNL A   1      32.631  33.232  26.727  1.00  0.00    -0.458 OA
BRANCH  25  26
ATOM     26  C   UNL A   1      33.064  33.894  27.826  1.00  0.00     0.338 C 
ATOM     27  O   UNL A   1      32.529  34.840  28.377  1.00  0.00    -0.246 OA
BRANCH  26  28
ATOM     28  C   UNL A   1      34.262  33.233  28.375  1.00  0.00     0.060 A 
ATOM     29  C   UNL A   1      34.070  32.134  29.218  1.00  0.00     0.016 A 
ATOM     30  C   UNL A   1      35.547  33.727  28.137  1.00  0.00     0.016 A 
ATOM     31  C   UNL A   1      35.163  31.529  29.835  1.00  0.00     0.010 A 
ATOM     32  C   UNL A   1      36.643  33.120  28.758  1.00  0.00     0.010 A 
ATOM     33  C   UNL A   1      36.456  32.026  29.622  1.00  0.00    -0.014 A 
BRANCH  33  34
ATOM     34  C   UNL A   1      37.603  31.420  30.342  1.00  0.00     0.031 A 
ATOM     35  C   UNL A   1      38.480  30.416  29.650  1.00  0.00     0.074 A 
ATOM     36  C   UNL A   1      37.873  31.792  31.607  1.00  0.00     0.049 A 
ATOM     37  N   UNL A   1      39.507  29.752  30.118  1.00  0.00    -0.248 NA
ATOM     38  C   UNL A   1      38.159  30.120  28.246  1.00  0.00     0.031 C 
ATOM     39  C   UNL A   1      37.113  32.777  32.376  1.00  0.00     0.029 A 
ATOM     40  N   UNL A   1      38.860  31.382  32.466  1.00  0.00    -0.354 N 
ATOM     41  C   UNL A   1      39.956  28.961  29.068  1.00  0.00     0.074 A 
ATOM     42  C   UNL A   1      39.071  29.205  27.948  1.00  0.00     0.031 C 
ATOM     43  C   UNL A   1      37.660  32.891  33.598  1.00  0.00     0.029 A 
ATOM     44  C   UNL A   1      38.785  31.966  33.707  1.00  0.00     0.049 A 
ATOM     45  H   UNL A   1      39.556  30.730  32.218  1.00  0.00     0.167 HD
ATOM     46  C   UNL A   1      41.016  28.118  29.038  1.00  0.00     0.037 A 
ATOM     47  C   UNL A   1      39.526  31.761  34.813  1.00  0.00     0.037 A 
ATOM     48  C   UNL A   1      41.894  27.873  30.153  1.00  0.00     0.049 A 
ATOM     49  C   UNL A   1      40.660  30.775  34.771  1.00  0.00     0.074 A 
ATOM     50  C   UNL A   1      42.992  27.032  30.218  1.00  0.00     0.029 A 
ATOM     51  N   UNL A   1      41.773  28.468  31.399  1.00  0.00    -0.354 N 
ATOM     52  N   UNL A   1      41.080  30.039  33.770  1.00  0.00    -0.248 NA
ATOM     53  C   UNL A   1      41.424  30.590  36.013  1.00  0.00     0.031 C 
ATOM     54  C   UNL A   1      43.514  27.092  31.515  1.00  0.00     0.029 A 
ATOM     55  C   UNL A   1      42.766  28.002  32.244  1.00  0.00     0.049 A 
ATOM     56  H   UNL A   1      41.083  29.125  31.646  1.00  0.00     0.167 HD
ATOM     57  C   UNL A   1      42.167  29.322  34.254  1.00  0.00     0.074 A 
ATOM     58  C   UNL A   1      42.353  29.723  35.633  1.00  0.00     0.031 C 
ATOM     59  C   UNL A   1      42.942  28.413  33.613  1.00  0.00     0.037 A 
BRANCH  46  60
ATOM     60  C   UNL A   1      41.276  27.384  27.756  1.00  0.00     0.057 A 
ATOM     61  C   UNL A   1      42.077  27.932  26.745  1.00  0.00     0.134 A 
ATOM     62  C   UNL A   1      40.753  26.103  27.544  1.00  0.00     0.134 A 
ATOM     63  F   UNL A   1      42.599  29.160  26.881  1.00  0.00    -0.206 F 
ATOM     64  C   UNL A   1      42.332  27.238  25.561  1.00  0.00     0.040 A 
ATOM     65  C   UNL A   1      41.020  25.390  26.374  1.00  0.00     0.040 A 
ATOM     66  F   UNL A   1      39.983  25.519  28.476  1.00  0.00    -0.206 F 
ATOM     67  C   UNL A   1      41.807  25.960  25.376  1.00  0.00     0.006 A 
ENDBRANCH  46  60
BRANCH  47  68
ATOM     68  C   UNL A   1      39.206  32.492  36.064  1.00  0.00     0.057 A 
ATOM     69  C   UNL A   1      38.344  31.952  37.024  1.00  0.00     0.134 A 
ATOM     70  C   UNL A   1      39.743  33.761  36.317  1.00  0.00     0.134 A 
ATOM     71  F   UNL A   1      37.779  30.752  36.824  1.00  0.00    -0.206 F 
ATOM     72  C   UNL A   1      38.012  32.652  38.184  1.00  0.00     0.040 A 
ATOM     73  C   UNL A   1      39.439  34.462  37.486  1.00  0.00     0.040 A 
ATOM     74  F   UNL A   1      40.576  34.333  35.437  1.00  0.00    -0.206 F 
ATOM     75  C   UNL A   1      38.565  33.910  38.420  1.00  0.00     0.006 A 
ENDBRANCH  47  68
BRANCH  59  76
ATOM     76  C   UNL A   1      44.076  27.812  34.390  1.00  0.00     0.057 A 
ATOM     77  C   UNL A   1      43.932  26.611  35.095  1.00  0.00     0.134 A 
ATOM     78  C   UNL A   1      45.335  28.425  34.403  1.00  0.00     0.134 A 
ATOM     79  F   UNL A   1      42.748  25.982  35.133  1.00  0.00    -0.206 F 
ATOM     80  C   UNL A   1      44.996  26.052  35.806  1.00  0.00     0.040 A 
ATOM     81  C   UNL A   1      46.412  27.863  35.090  1.00  0.00     0.040 A 
ATOM     82  F   UNL A   1      45.541  29.574  33.740  1.00  0.00    -0.206 F 
ATOM     83  C   UNL A   1      46.242  26.676  35.799  1.00  0.00     0.006 A 
ENDBRANCH  59  76
ENDBRANCH  33  34
ENDBRANCH  26  28
ENDBRANCH  25  26
ENDBRANCH  24  25
ENDBRANCH   1  24
TORSDOF 15
ENDMDL
MODEL 3
REMARK VINA RESULT:     -11.3      5.234      8.933
REMARK SMILES C[C@H](NC(=O)c1ccncc1/C=C/C(=O)OCCOC(=O)c1ccc(-c2c3nc(c(-c4c(F)cccc4F)c4ccc([nH]4)c(-c4c(F)cccc4F)c4nc(c(-c5c(F)cccc5F)c5ccc2[nH]5)C=C4)C=C3)cc1)c1ccco1
REMARK SMILES IDX 17 1 16 2 14 3 15 4 13 5 12 6 11 7 6 8 7 9 8 10 10 11 9 12
REMARK SMILES IDX 4 13 3 14 5 16 2 17 1 18 76 19 77 20 80 21 78 22 79 23 18 24
REMARK SMILES IDX 19 25 20 26 21 27 22 28 23 29 75 30 24 31 74 32 25 33 26 34
REMARK SMILES IDX 27 35 68 36 28 37 73 38 67 39 69 40 29 41 72 42 66 43 65 44
REMARK SMILES IDX 30 46 56 47 39 48 55 49 40 50 43 51 54 52 70 53 41 54 42 55
REMARK SMILES IDX 53 57 71 58 44 59 31 60 32 61 37 62 33 63 34 64 36 65 38 66
REMARK SMILES IDX 35 67 57 68 58 69 63 70 59 71 60 72 62 73 64 74 61 75 45 76
REMARK SMILES IDX 46 77 51 78 47 79 48 80 50 81 52 82 49 83
REMARK H PARENT 3 15 69 45 43 56
REMARK Flexibility Score: inf
ROOT
ATOM      1  C   UNL A   1      36.871  20.698  24.807  1.00  0.00     0.275 C 
ENDROOT
BRANCH   1   2
ATOM      2  O   UNL A   1      37.315  21.999  24.374  1.00  0.00    -0.459 OA
BRANCH   2   3
ATOM      3  C   UNL A   1      36.465  22.658  23.555  1.00  0.00     0.330 C 
ATOM      4  O   UNL A   1      36.722  23.086  22.438  1.00  0.00    -0.247 OA
BRANCH   3   5
ATOM      5  C   UNL A   1      35.105  22.796  24.114  1.00  0.00     0.094 C 
ATOM      6  C   UNL A   1      34.713  23.615  25.104  1.00  0.00     0.018 C 
BRANCH   6   7
ATOM      7  C   UNL A   1      33.312  23.622  25.571  1.00  0.00     0.006 A 
ATOM      8  C   UNL A   1      32.759  22.647  26.415  1.00  0.00     0.050 A 
ATOM      9  C   UNL A   1      31.476  22.800  26.949  1.00  0.00     0.034 A 
ATOM     10  C   UNL A   1      30.722  23.872  26.515  1.00  0.00     0.112 A 
ATOM     11  C   UNL A   1      32.438  24.633  25.178  1.00  0.00     0.119 A 
ATOM     12  N   UNL A   1      31.164  24.775  25.618  1.00  0.00    -0.264 NA
BRANCH   8  13
ATOM     13  C   UNL A   1      33.536  21.463  26.800  1.00  0.00     0.252 C 
ATOM     14  N   UNL A   1      33.437  20.290  26.103  1.00  0.00    -0.342 N 
ATOM     15  H   UNL A   1      34.140  19.647  26.349  1.00  0.00     0.164 HD
ATOM     16  O   UNL A   1      34.313  21.546  27.747  1.00  0.00    -0.269 OA
BRANCH  14  17
ATOM     17  C   UNL A   1      32.528  19.766  25.071  1.00  0.00     0.145 C 
ATOM     18  C   UNL A   1      32.500  20.507  23.734  1.00  0.00     0.039 C 
BRANCH  17  19
ATOM     19  C   UNL A   1      32.870  18.306  24.877  1.00  0.00     0.125 A 
ATOM     20  C   UNL A   1      33.697  17.625  24.001  1.00  0.00     0.048 A 
ATOM     21  O   UNL A   1      32.284  17.407  25.726  1.00  0.00    -0.467 OA
ATOM     22  C   UNL A   1      33.592  16.249  24.327  1.00  0.00     0.042 A 
ATOM     23  C   UNL A   1      32.725  16.173  25.388  1.00  0.00     0.195 A 
ENDBRANCH  17  19
ENDBRANCH  14  17
ENDBRANCH   8  13
ENDBRANCH   6   7
ENDBRANCH   3   5
ENDBRANCH   2   3
ENDBRANCH   1   2
BRANCH   1  24
ATOM     24  C   UNL A   1      38.048  19.740  25.015  1.00  0.00     0.275 C 
BRANCH  24  25
ATOM     25  O   UNL A   1      38.698  19.943  26.283  1.00  0.00    -0.458 OA
BRANCH  25  26
ATOM     26  C   UNL A   1      40.050  19.998  26.231  1.00  0.00     0.338 C 
ATOM     27  O   UNL A   1      40.809  19.140  25.814  1.00  0.00    -0.246 OA
BRANCH  26  28
ATOM     28  C   UNL A   1      40.518  21.330  26.653  1.00  0.00     0.060 A 
ATOM     29  C   UNL A   1      40.023  22.443  25.965  1.00  0.00     0.016 A 
ATOM     30  C   UNL A   1      41.486  21.487  27.649  1.00  0.00     0.016 A 
ATOM     31  C   UNL A   1      40.501  23.717  26.264  1.00  0.00     0.010 A 
ATOM     32  C   UNL A   1      41.965  22.767  27.947  1.00  0.00     0.010 A 
ATOM     33  C   UNL A   1      41.486  23.888  27.246  1.00  0.00    -0.014 A 
BRANCH  33  34
ATOM     34  C   UNL A   1      42.040  25.240  27.504  1.00  0.00     0.031 A 
ATOM     35  C   UNL A   1      41.231  26.251  28.264  1.00  0.00     0.074 A 
ATOM     36  C   UNL A   1      43.279  25.549  27.078  1.00  0.00     0.049 A 
ATOM     37  N   UNL A   1      41.525  27.492  28.561  1.00  0.00    -0.248 NA
ATOM     38  C   UNL A   1      39.918  25.809  28.756  1.00  0.00     0.031 C 
ATOM     39  C   UNL A   1      44.171  24.645  26.355  1.00  0.00     0.029 A 
ATOM     40  N   UNL A   1      43.997  26.712  27.193  1.00  0.00    -0.354 N 
ATOM     41  C   UNL A   1      40.437  27.978  29.274  1.00  0.00     0.074 A 
ATOM     42  C   UNL A   1      39.463  26.909  29.339  1.00  0.00     0.031 C 
ATOM     43  C   UNL A   1      45.319  25.289  26.085  1.00  0.00     0.029 A 
ATOM     44  C   UNL A   1      45.228  26.658  26.586  1.00  0.00     0.049 A 
ATOM     45  H   UNL A   1      43.662  27.509  27.664  1.00  0.00     0.167 HD
ATOM     46  C   UNL A   1      40.270  29.201  29.834  1.00  0.00     0.037 A 
ATOM     47  C   UNL A   1      46.167  27.612  26.434  1.00  0.00     0.037 A 
ATOM     48  C   UNL A   1      41.238  30.266  29.767  1.00  0.00     0.049 A 
ATOM     49  C   UNL A   1      45.932  28.980  27.013  1.00  0.00     0.074 A 
ATOM     50  C   UNL A   1      41.156  31.542  30.299  1.00  0.00     0.029 A 
ATOM     51  N   UNL A   1      42.464  30.180  29.126  1.00  0.00    -0.354 N 
ATOM     52  N   UNL A   1      44.903  29.425  27.692  1.00  0.00    -0.248 NA
ATOM     53  C   UNL A   1      46.990  29.979  26.804  1.00  0.00     0.031 C 
ATOM     54  C   UNL A   1      42.318  32.238  29.951  1.00  0.00     0.029 A 
ATOM     55  C   UNL A   1      43.142  31.383  29.237  1.00  0.00     0.049 A 
ATOM     56  H   UNL A   1      42.804  29.381  28.661  1.00  0.00     0.167 HD
ATOM     57  C   UNL A   1      45.197  30.745  28.009  1.00  0.00     0.074 A 
ATOM     58  C   UNL A   1      46.509  31.024  27.462  1.00  0.00     0.031 C 
ATOM     59  C   UNL A   1      44.448  31.645  28.691  1.00  0.00     0.037 A 
BRANCH  46  60
ATOM     60  C   UNL A   1      38.983  29.458  30.558  1.00  0.00     0.057 A 
ATOM     61  C   UNL A   1      38.821  29.127  31.910  1.00  0.00     0.134 A 
ATOM     62  C   UNL A   1      37.907  30.076  29.910  1.00  0.00     0.134 A 
ATOM     63  F   UNL A   1      39.810  28.522  32.585  1.00  0.00    -0.206 F 
ATOM     64  C   UNL A   1      37.627  29.384  32.585  1.00  0.00     0.040 A 
ATOM     65  C   UNL A   1      36.716  30.359  30.580  1.00  0.00     0.040 A 
ATOM     66  F   UNL A   1      37.999  30.424  28.617  1.00  0.00    -0.206 F 
ATOM     67  C   UNL A   1      36.572  30.008  31.921  1.00  0.00     0.006 A 
ENDBRANCH  46  60
BRANCH  47  68
ATOM     68  C   UNL A   1      47.411  27.312  25.682  1.00  0.00     0.057 A 
ATOM     69  C   UNL A   1      48.554  26.832  26.328  1.00  0.00     0.134 A 
ATOM     70  C   UNL A   1      47.488  27.521  24.300  1.00  0.00     0.134 A 
ATOM     71  F   UNL A   1      48.548  26.637  27.656  1.00  0.00    -0.206 F 
ATOM     72  C   UNL A   1      49.737  26.583  25.631  1.00  0.00     0.040 A 
ATOM     73  C   UNL A   1      48.657  27.253  23.585  1.00  0.00     0.040 A 
ATOM     74  F   UNL A   1      46.426  27.980  23.623  1.00  0.00    -0.206 F 
ATOM     75  C   UNL A   1      49.789  26.789  24.254  1.00  0.00     0.006 A 
ENDBRANCH  47  68
BRANCH  59  76
ATOM     76  C   UNL A   1      45.042  33.006  28.907  1.00  0.00     0.057 A 
ATOM     77  C   UNL A   1      44.807  34.062  28.019  1.00  0.00     0.134 A 
ATOM     78  C   UNL A   1      45.830  33.270  30.035  1.00  0.00     0.134 A 
ATOM     79  F   UNL A   1      44.072  33.871  26.914  1.00  0.00    -0.206 F 
ATOM     80  C   UNL A   1      45.354  35.329  28.234  1.00  0.00     0.040 A 
ATOM     81  C   UNL A   1      46.362  34.537  30.272  1.00  0.00     0.040 A 
ATOM     82  F   UNL A   1      46.086  32.302  30.929  1.00  0.00    -0.206 F 
ATOM     83  C   UNL A   1      46.129  35.570  29.366  1.00  0.00     0.006 A 
ENDBRANCH  59  76
ENDBRANCH  33  34
ENDBRANCH  26  28
ENDBRANCH  25  26
ENDBRANCH  24  25
ENDBRANCH   1  24
TORSDOF 15
ENDMDL
