MODEL 1
REMARK VINA RESULT:     -13.4      0.000      0.000
REMARK SMILES O=C(OCCOC(=O)c1nccnc1C(=O)Nc1n[nH]c2ncccc12)c1ccc(-c2c3nc(c(-c4c(F)cccc4F)c4ccc([nH]4)c(-c4c(F)cccc4F)c4nc(c(-c5c(F)cccc5F)c5ccc2[nH]5)C=C4)C=C3)cc1
REMARK SMILES IDX 4 1 3 2 2 3 1 4 27 5 28 6 80 7 29 8 79 9 30 10 31 11 32 12
REMARK SMILES IDX 73 13 33 14 78 15 72 16 74 17 34 18 77 19 71 20 70 21 35 23
REMARK SMILES IDX 61 24 44 25 60 26 45 27 48 28 59 29 75 30 46 31 47 32 58 34
REMARK SMILES IDX 76 35 49 36 36 37 37 38 42 39 38 40 39 41 41 42 43 43 40 44
REMARK SMILES IDX 62 45 63 46 68 47 64 48 65 49 67 50 69 51 66 52 50 53 51 54
REMARK SMILES IDX 56 55 52 56 53 57 55 58 57 59 54 60 5 61 6 62 7 63 8 64 9 65
REMARK SMILES IDX 10 66 14 67 11 68 13 69 12 70 15 71 16 72 17 73 18 75 19 76
REMARK SMILES IDX 26 77 20 78 21 79 25 80 22 82 24 83 23 84
REMARK H PARENT 74 22 48 33 17 74 20 81
REMARK Flexibility Score: inf
ROOT
ATOM      1  C   UNL A   1      31.998  28.169  26.325  1.00  0.00     0.275 C 
ENDROOT
BRANCH   1   2
ATOM      2  O   UNL A   1      32.707  29.038  27.364  1.00  0.00    -0.458 OA
BRANCH   2   3
ATOM      3  C   UNL A   1      32.958  30.412  27.413  1.00  0.00     0.338 C 
ATOM      4  O   UNL A   1      32.088  31.263  27.327  1.00  0.00    -0.246 OA
BRANCH   3   5
ATOM      5  C   UNL A   1      34.448  30.774  27.400  1.00  0.00     0.060 A 
ATOM      6  C   UNL A   1      35.284  29.779  27.042  1.00  0.00     0.016 A 
ATOM      7  C   UNL A   1      35.145  31.922  27.731  1.00  0.00     0.016 A 
ATOM      8  C   UNL A   1      36.463  29.562  27.740  1.00  0.00     0.010 A 
ATOM      9  C   UNL A   1      36.541  31.825  28.096  1.00  0.00     0.010 A 
ATOM     10  C   UNL A   1      37.135  30.568  28.363  1.00  0.00    -0.014 A 
BRANCH  10  11
ATOM     11  C   UNL A   1      38.220  30.231  29.393  1.00  0.00     0.031 A 
ATOM     12  C   UNL A   1      39.378  29.390  28.907  1.00  0.00     0.074 A 
ATOM     13  C   UNL A   1      38.407  30.783  30.633  1.00  0.00     0.049 A 
ATOM     14  N   UNL A   1      40.277  28.721  29.579  1.00  0.00    -0.248 NA
ATOM     15  C   UNL A   1      39.553  29.314  27.449  1.00  0.00     0.031 C 
ATOM     16  C   UNL A   1      37.648  31.873  31.233  1.00  0.00     0.029 A 
ATOM     17  N   UNL A   1      39.349  30.543  31.628  1.00  0.00    -0.354 N 
ATOM     18  C   UNL A   1      41.043  28.070  28.620  1.00  0.00     0.074 A 
ATOM     19  C   UNL A   1      40.483  28.388  27.330  1.00  0.00     0.031 C 
ATOM     20  C   UNL A   1      38.126  32.222  32.430  1.00  0.00     0.029 A 
ATOM     21  C   UNL A   1      39.184  31.308  32.774  1.00  0.00     0.049 A 
ATOM     22  H   UNL A   1      40.074  29.885  31.526  1.00  0.00     0.167 HD
ATOM     23  C   UNL A   1      42.140  27.299  28.783  1.00  0.00     0.037 A 
ATOM     24  C   UNL A   1      39.760  31.284  33.994  1.00  0.00     0.037 A 
ATOM     25  C   UNL A   1      42.773  27.074  30.048  1.00  0.00     0.049 A 
ATOM     26  C   UNL A   1      40.859  30.295  34.216  1.00  0.00     0.074 A 
ATOM     27  C   UNL A   1      43.800  26.204  30.357  1.00  0.00     0.029 A 
ATOM     28  N   UNL A   1      42.464  27.768  31.207  1.00  0.00    -0.354 N 
ATOM     29  N   UNL A   1      41.420  29.498  33.343  1.00  0.00    -0.248 NA
ATOM     30  C   UNL A   1      41.406  30.191  35.575  1.00  0.00     0.031 C 
ATOM     31  C   UNL A   1      44.091  26.348  31.719  1.00  0.00     0.029 A 
ATOM     32  C   UNL A   1      43.277  27.341  32.241  1.00  0.00     0.049 A 
ATOM     33  H   UNL A   1      41.769  28.462  31.284  1.00  0.00     0.167 HD
ATOM     34  C   UNL A   1      42.405  28.817  34.036  1.00  0.00     0.074 A 
ATOM     35  C   UNL A   1      42.382  29.313  35.397  1.00  0.00     0.031 C 
ATOM     36  C   UNL A   1      43.248  27.861  33.583  1.00  0.00     0.037 A 
BRANCH  23  37
ATOM     37  C   UNL A   1      42.634  26.596  27.556  1.00  0.00     0.057 A 
ATOM     38  C   UNL A   1      43.551  27.174  26.668  1.00  0.00     0.134 A 
ATOM     39  C   UNL A   1      42.070  25.365  27.197  1.00  0.00     0.134 A 
ATOM     40  F   UNL A   1      44.079  28.381  26.926  1.00  0.00    -0.206 F 
ATOM     41  C   UNL A   1      43.854  26.574  25.444  1.00  0.00     0.040 A 
ATOM     42  C   UNL A   1      42.389  24.741  25.992  1.00  0.00     0.040 A 
ATOM     43  F   UNL A   1      41.170  24.771  27.995  1.00  0.00    -0.206 F 
ATOM     44  C   UNL A   1      43.272  25.354  25.105  1.00  0.00     0.006 A 
ENDBRANCH  23  37
BRANCH  24  45
ATOM     45  C   UNL A   1      39.272  32.147  35.120  1.00  0.00     0.057 A 
ATOM     46  C   UNL A   1      38.324  31.696  36.049  1.00  0.00     0.134 A 
ATOM     47  C   UNL A   1      39.685  33.484  35.246  1.00  0.00     0.134 A 
ATOM     48  F   UNL A   1      37.867  30.437  35.988  1.00  0.00    -0.206 F 
ATOM     49  C   UNL A   1      37.780  32.541  37.025  1.00  0.00     0.040 A 
ATOM     50  C   UNL A   1      39.173  34.332  36.234  1.00  0.00     0.040 A 
ATOM     51  F   UNL A   1      40.595  33.994  34.404  1.00  0.00    -0.206 F 
ATOM     52  C   UNL A   1      38.204  33.865  37.118  1.00  0.00     0.006 A 
ENDBRANCH  24  45
BRANCH  36  53
ATOM     53  C   UNL A   1      44.239  27.322  34.562  1.00  0.00     0.057 A 
ATOM     54  C   UNL A   1      45.474  27.944  34.777  1.00  0.00     0.134 A 
ATOM     55  C   UNL A   1      43.935  26.187  35.321  1.00  0.00     0.134 A 
ATOM     56  F   UNL A   1      45.826  29.022  34.060  1.00  0.00    -0.206 F 
ATOM     57  C   UNL A   1      46.386  27.441  35.702  1.00  0.00     0.040 A 
ATOM     58  C   UNL A   1      44.825  25.692  36.271  1.00  0.00     0.040 A 
ATOM     59  F   UNL A   1      42.764  25.551  35.159  1.00  0.00    -0.206 F 
ATOM     60  C   UNL A   1      46.057  26.317  36.459  1.00  0.00     0.006 A 
ENDBRANCH  36  53
ENDBRANCH  10  11
ENDBRANCH   3   5
ENDBRANCH   2   3
ENDBRANCH   1   2
BRANCH   1  61
ATOM     61  C   UNL A   1      30.860  26.763  26.784  1.00  0.00     0.275 C 
BRANCH  61  62
ATOM     62  O   UNL A   1      31.324  24.762  26.836  1.00  0.00    -0.457 OA
BRANCH  62  63
ATOM     63  C   UNL A   1      31.399  23.381  26.303  1.00  0.00     0.359 C 
ATOM     64  O   UNL A   1      30.363  22.710  26.316  1.00  0.00    -0.244 OA
BRANCH  63  65
ATOM     65  C   UNL A   1      32.659  22.612  25.779  1.00  0.00     0.179 A 
ATOM     66  N   UNL A   1      33.428  22.263  26.880  1.00  0.00    -0.245 NA
ATOM     67  C   UNL A   1      33.044  22.106  24.515  1.00  0.00     0.161 A 
ATOM     68  C   UNL A   1      34.523  21.474  26.706  1.00  0.00     0.132 A 
ATOM     69  N   UNL A   1      34.240  21.404  24.393  1.00  0.00    -0.247 NA
ATOM     70  C   UNL A   1      34.960  21.095  25.471  1.00  0.00     0.132 A 
BRANCH  67  71
ATOM     71  C   UNL A   1      32.495  22.155  23.089  1.00  0.00     0.278 C 
ATOM     72  O   UNL A   1      32.200  21.091  22.524  1.00  0.00    -0.267 OA
ATOM     73  N   UNL A   1      32.297  23.250  22.310  1.00  0.00    -0.303 N 
ATOM     74  H   UNL A   1      31.991  23.072  21.391  1.00  0.00     0.172 HD
BRANCH  73  75
ATOM     75  C   UNL A   1      32.463  24.544  22.629  1.00  0.00     0.164 A 
ATOM     76  N   UNL A   1      33.659  25.072  22.336  1.00  0.00    -0.155 NA
ATOM     77  C   UNL A   1      31.487  25.443  23.076  1.00  0.00     0.063 A 
ATOM     78  N   UNL A   1      33.499  26.399  22.122  1.00  0.00    -0.259 N 
ATOM     79  C   UNL A   1      32.320  26.888  22.555  1.00  0.00     0.157 A 
ATOM     80  C   UNL A   1      29.723  25.669  23.644  1.00  0.00     0.017 A 
ATOM     81  H   UNL A   1      34.185  26.957  21.688  1.00  0.00     0.192 HD
ATOM     82  N   UNL A   1      31.636  28.426  22.526  1.00  0.00    -0.237 NA
ATOM     83  C   UNL A   1      28.974  27.273  23.568  1.00  0.00     0.021 A 
ATOM     84  C   UNL A   1      29.983  28.552  23.010  1.00  0.00     0.113 A 
ENDBRANCH  73  75
ENDBRANCH  67  71
ENDBRANCH  63  65
ENDBRANCH  62  63
ENDBRANCH  61  62
ENDBRANCH   1  61
TORSDOF 13
ENDMDL
MODEL 2
REMARK VINA RESULT:     -13.4      1.344      3.206
REMARK SMILES O=C(OCCOC(=O)c1nccnc1C(=O)Nc1n[nH]c2ncccc12)c1ccc(-c2c3nc(c(-c4c(F)cccc4F)c4ccc([nH]4)c(-c4c(F)cccc4F)c4nc(c(-c5c(F)cccc5F)c5ccc2[nH]5)C=C4)C=C3)cc1
REMARK SMILES IDX 4 1 3 2 2 3 1 4 27 5 28 6 80 7 29 8 79 9 30 10 31 11 32 12
REMARK SMILES IDX 73 13 33 14 78 15 72 16 74 17 34 18 77 19 71 20 70 21 35 23
REMARK SMILES IDX 61 24 44 25 60 26 45 27 48 28 59 29 75 30 46 31 47 32 58 34
REMARK SMILES IDX 76 35 49 36 36 37 37 38 42 39 38 40 39 41 41 42 43 43 40 44
REMARK SMILES IDX 62 45 63 46 68 47 64 48 65 49 67 50 69 51 66 52 50 53 51 54
REMARK SMILES IDX 56 55 52 56 53 57 55 58 57 59 54 60 5 61 6 62 7 63 8 64 9 65
REMARK SMILES IDX 10 66 14 67 11 68 13 69 12 70 15 71 16 72 17 73 18 75 19 76
REMARK SMILES IDX 26 77 20 78 21 79 25 80 22 82 24 83 23 84
REMARK H PARENT 74 22 48 33 17 74 20 81
REMARK Flexibility Score: inf
ROOT
ATOM      1  C   UNL A   1      31.891  28.612  26.208  1.00  0.00     0.275 C 
ENDROOT
BRANCH   1   2
ATOM      2  O   UNL A   1      32.689  29.311  27.310  1.00  0.00    -0.458 OA
BRANCH   2   3
ATOM      3  C   UNL A   1      33.061  30.646  27.485  1.00  0.00     0.338 C 
ATOM      4  O   UNL A   1      32.266  31.570  27.525  1.00  0.00    -0.246 OA
BRANCH   3   5
ATOM      5  C   UNL A   1      34.576  30.882  27.439  1.00  0.00     0.060 A 
ATOM      6  C   UNL A   1      35.325  29.796  27.166  1.00  0.00     0.016 A 
ATOM      7  C   UNL A   1      35.367  31.992  27.672  1.00  0.00     0.016 A 
ATOM      8  C   UNL A   1      36.487  29.542  27.878  1.00  0.00     0.010 A 
ATOM      9  C   UNL A   1      36.753  31.812  28.042  1.00  0.00     0.010 A 
ATOM     10  C   UNL A   1      37.245  30.538  28.412  1.00  0.00    -0.014 A 
BRANCH  10  11
ATOM     11  C   UNL A   1      38.308  30.200  29.466  1.00  0.00     0.031 A 
ATOM     12  C   UNL A   1      39.484  29.374  29.001  1.00  0.00     0.074 A 
ATOM     13  C   UNL A   1      38.458  30.742  30.715  1.00  0.00     0.049 A 
ATOM     14  N   UNL A   1      40.372  28.707  29.688  1.00  0.00    -0.248 NA
ATOM     15  C   UNL A   1      39.696  29.313  27.547  1.00  0.00     0.031 C 
ATOM     16  C   UNL A   1      37.675  31.820  31.306  1.00  0.00     0.029 A 
ATOM     17  N   UNL A   1      39.378  30.501  31.731  1.00  0.00    -0.354 N 
ATOM     18  C   UNL A   1      41.167  28.071  28.743  1.00  0.00     0.074 A 
ATOM     19  C   UNL A   1      40.637  28.397  27.443  1.00  0.00     0.031 C 
ATOM     20  C   UNL A   1      38.120  32.161  32.518  1.00  0.00     0.029 A 
ATOM     21  C   UNL A   1      39.178  31.253  32.880  1.00  0.00     0.049 A 
ATOM     22  H   UNL A   1      40.111  29.850  31.641  1.00  0.00     0.167 HD
ATOM     23  C   UNL A   1      42.268  27.309  28.926  1.00  0.00     0.037 A 
ATOM     24  C   UNL A   1      39.724  31.223  34.113  1.00  0.00     0.037 A 
ATOM     25  C   UNL A   1      42.871  27.077  30.204  1.00  0.00     0.049 A 
ATOM     26  C   UNL A   1      40.826  30.241  34.353  1.00  0.00     0.074 A 
ATOM     27  C   UNL A   1      43.898  26.213  30.530  1.00  0.00     0.029 A 
ATOM     28  N   UNL A   1      42.527  27.757  31.362  1.00  0.00    -0.354 N 
ATOM     29  N   UNL A   1      41.416  29.457  33.486  1.00  0.00    -0.248 NA
ATOM     30  C   UNL A   1      41.340  30.130  35.724  1.00  0.00     0.031 C 
ATOM     31  C   UNL A   1      44.154  26.347  31.900  1.00  0.00     0.029 A 
ATOM     32  C   UNL A   1      43.318  27.327  32.411  1.00  0.00     0.049 A 
ATOM     33  H   UNL A   1      41.825  28.444  31.428  1.00  0.00     0.167 HD
ATOM     34  C   UNL A   1      42.389  28.779  34.197  1.00  0.00     0.074 A 
ATOM     35  C   UNL A   1      42.328  29.262  35.562  1.00  0.00     0.031 C 
ATOM     36  C   UNL A   1      43.251  27.834  33.757  1.00  0.00     0.037 A 
BRANCH  23  37
ATOM     37  C   UNL A   1      42.798  26.622  27.705  1.00  0.00     0.057 A 
ATOM     38  C   UNL A   1      43.740  27.211  26.852  1.00  0.00     0.134 A 
ATOM     39  C   UNL A   1      42.245  25.395  27.313  1.00  0.00     0.134 A 
ATOM     40  F   UNL A   1      44.259  28.415  27.141  1.00  0.00    -0.206 F 
ATOM     41  C   UNL A   1      44.079  26.628  25.630  1.00  0.00     0.040 A 
ATOM     42  C   UNL A   1      42.600  24.787  26.111  1.00  0.00     0.040 A 
ATOM     43  F   UNL A   1      41.323  24.790  28.077  1.00  0.00    -0.206 F 
ATOM     44  C   UNL A   1      43.508  25.411  25.257  1.00  0.00     0.006 A 
ENDBRANCH  23  37
BRANCH  24  45
ATOM     45  C   UNL A   1      39.201  32.071  35.235  1.00  0.00     0.057 A 
ATOM     46  C   UNL A   1      39.626  33.392  35.433  1.00  0.00     0.134 A 
ATOM     47  C   UNL A   1      38.316  31.547  36.193  1.00  0.00     0.134 A 
ATOM     48  F   UNL A   1      40.482  33.960  34.572  1.00  0.00    -0.206 F 
ATOM     49  C   UNL A   1      39.229  34.140  36.549  1.00  0.00     0.040 A 
ATOM     50  C   UNL A   1      37.887  32.292  37.297  1.00  0.00     0.040 A 
ATOM     51  F   UNL A   1      37.854  30.293  36.075  1.00  0.00    -0.206 F 
ATOM     52  C   UNL A   1      38.357  33.588  37.487  1.00  0.00     0.006 A 
ENDBRANCH  24  45
BRANCH  36  53
ATOM     53  C   UNL A   1      44.223  27.295  34.755  1.00  0.00     0.057 A 
ATOM     54  C   UNL A   1      43.944  26.150  35.509  1.00  0.00     0.134 A 
ATOM     55  C   UNL A   1      45.465  27.913  34.935  1.00  0.00     0.134 A 
ATOM     56  F   UNL A   1      42.760  25.530  35.392  1.00  0.00    -0.206 F 
ATOM     57  C   UNL A   1      44.863  25.647  36.427  1.00  0.00     0.040 A 
ATOM     58  C   UNL A   1      46.404  27.403  35.828  1.00  0.00     0.040 A 
ATOM     59  F   UNL A   1      45.787  29.014  34.237  1.00  0.00    -0.206 F 
ATOM     60  C   UNL A   1      46.101  26.270  36.581  1.00  0.00     0.006 A 
ENDBRANCH  36  53
ENDBRANCH  10  11
ENDBRANCH   3   5
ENDBRANCH   2   3
ENDBRANCH   1   2
BRANCH   1  61
ATOM     61  C   UNL A   1      32.023  29.080  24.407  1.00  0.00     0.275 C 
BRANCH  61  62
ATOM     62  O   UNL A   1      32.426  27.826  22.829  1.00  0.00    -0.457 OA
BRANCH  62  63
ATOM     63  C   UNL A   1      32.890  26.575  22.186  1.00  0.00     0.359 C 
ATOM     64  O   UNL A   1      33.737  26.676  21.293  1.00  0.00    -0.244 OA
BRANCH  63  65
ATOM     65  C   UNL A   1      32.389  25.112  22.438  1.00  0.00     0.179 A 
ATOM     66  N   UNL A   1      33.240  24.252  21.758  1.00  0.00    -0.245 NA
ATOM     67  C   UNL A   1      31.413  24.542  23.288  1.00  0.00     0.161 A 
ATOM     68  C   UNL A   1      33.095  22.908  21.915  1.00  0.00     0.132 A 
ATOM     69  N   UNL A   1      31.244  23.161  23.310  1.00  0.00    -0.247 NA
ATOM     70  C   UNL A   1      32.074  22.364  22.636  1.00  0.00     0.132 A 
BRANCH  67  71
ATOM     71  C   UNL A   1      30.346  25.062  24.253  1.00  0.00     0.278 C 
ATOM     72  O   UNL A   1      29.385  25.699  23.796  1.00  0.00    -0.267 OA
ATOM     73  N   UNL A   1      30.315  24.936  25.605  1.00  0.00    -0.303 N 
ATOM     74  H   UNL A   1      29.572  25.395  26.060  1.00  0.00     0.172 HD
BRANCH  73  75
ATOM     75  C   UNL A   1      31.164  24.269  26.403  1.00  0.00     0.164 A 
ATOM     76  N   UNL A   1      30.612  23.366  27.224  1.00  0.00    -0.155 NA
ATOM     77  C   UNL A   1      32.563  24.288  26.363  1.00  0.00     0.063 A 
ATOM     78  N   UNL A   1      31.527  22.401  27.476  1.00  0.00    -0.259 N 
ATOM     79  C   UNL A   1      32.788  22.737  27.136  1.00  0.00     0.157 A 
ATOM     80  C   UNL A   1      34.088  25.062  25.614  1.00  0.00     0.017 A 
ATOM     81  H   UNL A   1      31.292  21.531  27.873  1.00  0.00     0.192 HD
ATOM     82  N   UNL A   1      34.257  21.921  27.230  1.00  0.00    -0.237 NA
ATOM     83  C   UNL A   1      35.629  24.190  25.660  1.00  0.00     0.021 A 
ATOM     84  C   UNL A   1      35.613  22.669  26.466  1.00  0.00     0.113 A 
ENDBRANCH  73  75
ENDBRANCH  67  71
ENDBRANCH  63  65
ENDBRANCH  62  63
ENDBRANCH  61  62
ENDBRANCH   1  61
TORSDOF 13
ENDMDL
MODEL 3
REMARK VINA RESULT:     -13.2      5.442      9.053
REMARK SMILES O=C(OCCOC(=O)c1nccnc1C(=O)Nc1n[nH]c2ncccc12)c1ccc(-c2c3nc(c(-c4c(F)cccc4F)c4ccc([nH]4)c(-c4c(F)cccc4F)c4nc(c(-c5c(F)cccc5F)c5ccc2[nH]5)C=C4)C=C3)cc1
REMARK SMILES IDX 4 1 3 2 2 3 1 4 27 5 28 6 80 7 29 8 79 9 30 10 31 11 32 12
REMARK SMILES IDX 73 13 33 14 78 15 72 16 74 17 34 18 77 19 71 20 70 21 35 23
REMARK SMILES IDX 61 24 44 25 60 26 45 27 48 28 59 29 75 30 46 31 47 32 58 34
REMARK SMILES IDX 76 35 49 36 36 37 37 38 42 39 38 40 39 41 41 42 43 43 40 44
REMARK SMILES IDX 62 45 63 46 68 47 64 48 65 49 67 50 69 51 66 52 50 53 51 54
REMARK SMILES IDX 56 55 52 56 53 57 55 58 57 59 54 60 5 61 6 62 7 63 8 64 9 65
REMARK SMILES IDX 10 66 14 67 11 68 13 69 12 70 15 71 16 72 17 73 18 75 19 76
REMARK SMILES IDX 26 77 20 78 21 79 25 80 22 82 24 83 23 84
REMARK H PARENT 74 22 48 33 17 74 20 81
REMARK Flexibility Score: inf
ROOT
ATOM      1  C   UNL A   1      38.388  21.200  25.440  1.00  0.00     0.275 C 
ENDROOT
BRANCH   1   2
ATOM      2  O   UNL A   1      37.753  22.556  25.132  1.00  0.00    -0.458 OA
BRANCH   2   3
ATOM      3  C   UNL A   1      37.585  23.704  25.911  1.00  0.00     0.338 C 
ATOM      4  O   UNL A   1      36.517  24.277  26.052  1.00  0.00    -0.246 OA
BRANCH   3   5
ATOM      5  C   UNL A   1      38.898  24.300  26.433  1.00  0.00     0.060 A 
ATOM      6  C   UNL A   1      39.011  24.373  27.775  1.00  0.00     0.016 A 
ATOM      7  C   UNL A   1      40.007  24.839  25.807  1.00  0.00     0.016 A 
ATOM      8  C   UNL A   1      39.525  25.509  28.380  1.00  0.00     0.010 A 
ATOM      9  C   UNL A   1      40.855  25.760  26.530  1.00  0.00     0.010 A 
ATOM     10  C   UNL A   1      40.440  26.309  27.767  1.00  0.00    -0.014 A 
BRANCH  10  11
ATOM     11  C   UNL A   1      40.711  27.714  28.320  1.00  0.00     0.031 A 
ATOM     12  C   UNL A   1      42.149  28.176  28.321  1.00  0.00     0.074 A 
ATOM     13  C   UNL A   1      39.802  28.701  28.596  1.00  0.00     0.049 A 
ATOM     14  N   UNL A   1      42.720  29.161  28.961  1.00  0.00    -0.248 NA
ATOM     15  C   UNL A   1      43.069  27.425  27.454  1.00  0.00     0.031 C 
ATOM     16  C   UNL A   1      38.364  28.662  28.362  1.00  0.00     0.029 A 
ATOM     17  N   UNL A   1      39.950  29.990  29.097  1.00  0.00    -0.354 N 
ATOM     18  C   UNL A   1      44.071  29.068  28.652  1.00  0.00     0.074 A 
ATOM     19  C   UNL A   1      44.242  27.914  27.804  1.00  0.00     0.031 C 
ATOM     20  C   UNL A   1      37.769  29.815  28.680  1.00  0.00     0.029 A 
ATOM     21  C   UNL A   1      38.759  30.685  29.261  1.00  0.00     0.049 A 
ATOM     22  H   UNL A   1      40.827  30.378  29.318  1.00  0.00     0.167 HD
ATOM     23  C   UNL A   1      45.086  29.886  29.006  1.00  0.00     0.037 A 
ATOM     24  C   UNL A   1      38.446  31.862  29.842  1.00  0.00     0.037 A 
ATOM     25  C   UNL A   1      44.911  31.098  29.747  1.00  0.00     0.049 A 
ATOM     26  C   UNL A   1      39.571  32.677  30.394  1.00  0.00     0.074 A 
ATOM     27  C   UNL A   1      45.873  31.930  30.284  1.00  0.00     0.029 A 
ATOM     28  N   UNL A   1      43.678  31.675  30.013  1.00  0.00    -0.354 N 
ATOM     29  N   UNL A   1      40.857  32.449  30.303  1.00  0.00    -0.248 NA
ATOM     30  C   UNL A   1      39.219  33.900  31.126  1.00  0.00     0.031 C 
ATOM     31  C   UNL A   1      45.218  32.999  30.907  1.00  0.00     0.029 A 
ATOM     32  C   UNL A   1      43.854  32.853  30.715  1.00  0.00     0.049 A 
ATOM     33  H   UNL A   1      42.808  31.303  29.743  1.00  0.00     0.167 HD
ATOM     34  C   UNL A   1      41.471  33.512  30.940  1.00  0.00     0.074 A 
ATOM     35  C   UNL A   1      40.417  34.399  31.392  1.00  0.00     0.031 C 
ATOM     36  C   UNL A   1      42.792  33.728  31.139  1.00  0.00     0.037 A 
BRANCH  23  37
ATOM     37  C   UNL A   1      46.462  29.410  28.653  1.00  0.00     0.057 A 
ATOM     38  C   UNL A   1      47.234  28.617  29.513  1.00  0.00     0.134 A 
ATOM     39  C   UNL A   1      47.069  29.873  27.478  1.00  0.00     0.134 A 
ATOM     40  F   UNL A   1      46.730  28.194  30.683  1.00  0.00    -0.206 F 
ATOM     41  C   UNL A   1      48.575  28.341  29.239  1.00  0.00     0.040 A 
ATOM     42  C   UNL A   1      48.397  29.577  27.178  1.00  0.00     0.040 A 
ATOM     43  F   UNL A   1      46.389  30.653  26.624  1.00  0.00    -0.206 F 
ATOM     44  C   UNL A   1      49.158  28.821  28.067  1.00  0.00     0.006 A 
ENDBRANCH  23  37
BRANCH  24  45
ATOM     45  C   UNL A   1      37.024  32.310  30.014  1.00  0.00     0.057 A 
ATOM     46  C   UNL A   1      36.397  33.170  29.101  1.00  0.00     0.134 A 
ATOM     47  C   UNL A   1      36.279  31.950  31.149  1.00  0.00     0.134 A 
ATOM     48  F   UNL A   1      37.047  33.573  28.000  1.00  0.00    -0.206 F 
ATOM     49  C   UNL A   1      35.114  33.683  29.327  1.00  0.00     0.040 A 
ATOM     50  C   UNL A   1      34.984  32.430  31.372  1.00  0.00     0.040 A 
ATOM     51  F   UNL A   1      36.800  31.123  32.068  1.00  0.00    -0.206 F 
ATOM     52  C   UNL A   1      34.403  33.313  30.467  1.00  0.00     0.006 A 
ENDBRANCH  24  45
BRANCH  36  53
ATOM     53  C   UNL A   1      43.167  34.993  31.839  1.00  0.00     0.057 A 
ATOM     54  C   UNL A   1      43.246  35.066  33.234  1.00  0.00     0.134 A 
ATOM     55  C   UNL A   1      43.484  36.140  31.103  1.00  0.00     0.134 A 
ATOM     56  F   UNL A   1      42.931  34.003  33.990  1.00  0.00    -0.206 F 
ATOM     57  C   UNL A   1      43.611  36.247  33.877  1.00  0.00     0.040 A 
ATOM     58  C   UNL A   1      43.878  37.317  31.732  1.00  0.00     0.040 A 
ATOM     59  F   UNL A   1      43.427  36.127  29.762  1.00  0.00    -0.206 F 
ATOM     60  C   UNL A   1      43.937  37.374  33.124  1.00  0.00     0.006 A 
ENDBRANCH  36  53
ENDBRANCH  10  11
ENDBRANCH   3   5
ENDBRANCH   2   3
ENDBRANCH   1   2
BRANCH   1  61
ATOM     61  C   UNL A   1      39.962  21.017  26.425  1.00  0.00     0.275 C 
BRANCH  61  62
ATOM     62  O   UNL A   1      41.757  20.268  25.761  1.00  0.00    -0.457 OA
BRANCH  62  63
ATOM     63  C   UNL A   1      42.820  19.246  25.615  1.00  0.00     0.359 C 
ATOM     64  O   UNL A   1      42.493  18.063  25.754  1.00  0.00    -0.244 OA
BRANCH  63  65
ATOM     65  C   UNL A   1      44.351  19.468  25.375  1.00  0.00     0.179 A 
ATOM     66  N   UNL A   1      45.004  18.285  25.690  1.00  0.00    -0.245 NA
ATOM     67  C   UNL A   1      45.112  20.508  24.790  1.00  0.00     0.161 A 
ATOM     68  C   UNL A   1      46.339  18.174  25.449  1.00  0.00     0.132 A 
ATOM     69  N   UNL A   1      46.493  20.370  24.681  1.00  0.00    -0.247 NA
ATOM     70  C   UNL A   1      47.089  19.222  25.004  1.00  0.00     0.132 A 
BRANCH  67  71
ATOM     71  C   UNL A   1      44.833  21.904  24.230  1.00  0.00     0.278 C 
ATOM     72  O   UNL A   1      44.350  22.006  23.093  1.00  0.00    -0.267 OA
ATOM     73  N   UNL A   1      45.073  23.101  24.824  1.00  0.00    -0.303 N 
ATOM     74  H   UNL A   1      44.881  23.896  24.275  1.00  0.00     0.172 HD
BRANCH  73  75
ATOM     75  C   UNL A   1      45.538  23.344  26.059  1.00  0.00     0.164 A 
ATOM     76  N   UNL A   1      46.836  23.663  26.147  1.00  0.00    -0.155 NA
ATOM     77  C   UNL A   1      44.795  23.464  27.241  1.00  0.00     0.063 A 
ATOM     78  N   UNL A   1      47.012  24.442  27.240  1.00  0.00    -0.259 N 
ATOM     79  C   UNL A   1      45.973  24.428  28.098  1.00  0.00     0.157 A 
ATOM     80  C   UNL A   1      43.119  23.301  28.048  1.00  0.00     0.017 A 
ATOM     81  H   UNL A   1      47.828  24.971  27.393  1.00  0.00     0.192 HD
ATOM     82  N   UNL A   1      45.685  25.205  29.564  1.00  0.00    -0.237 NA
ATOM     83  C   UNL A   1      42.787  24.156  29.563  1.00  0.00     0.021 A 
ATOM     84  C   UNL A   1      44.096  25.058  30.224  1.00  0.00     0.113 A 
ENDBRANCH  73  75
ENDBRANCH  67  71
ENDBRANCH  63  65
ENDBRANCH  62  63
ENDBRANCH  61  62
ENDBRANCH   1  61
TORSDOF 13
ENDMDL
