MODEL 1
REMARK VINA RESULT:     -11.4      0.000      0.000
REMARK SMILES CC(=O)N1[C@@H](c2c(F)cccc2Cl)SC[C@H]1C(=O)OCCOC(=O)c1ccc(-c2c3nc(c(-c4c(F)cccc4F)c4ccc([nH]4)c(-c4c(F)cccc4F)c4nc(c(-c5c(F)cccc5F)c5ccc2[nH]5)C=C4)C=C3)cc1
REMARK SMILES IDX 21 1 20 2 19 3 17 4 18 5 16 6 4 7 5 8 14 9 15 10 2 11 1 12
REMARK SMILES IDX 3 13 6 14 7 15 12 16 8 17 9 18 11 19 13 20 10 21 22 22 23 23
REMARK SMILES IDX 24 24 25 25 26 26 78 27 27 28 77 29 28 30 29 31 30 32 71 33
REMARK SMILES IDX 31 34 76 35 70 36 72 37 32 38 75 39 69 40 68 41 33 43 59 44
REMARK SMILES IDX 42 45 58 46 43 47 46 48 57 49 73 50 44 51 45 52 56 54 74 55
REMARK SMILES IDX 47 56 34 57 35 58 40 59 36 60 37 61 39 62 41 63 38 64 60 65
REMARK SMILES IDX 61 66 66 67 62 68 63 69 65 70 67 71 64 72 48 73 49 74 54 75
REMARK SMILES IDX 50 76 51 77 53 78 55 79 52 80
REMARK H PARENT 72 42 46 53
REMARK Flexibility Score: inf
ROOT
ATOM      1  C   UNL A   1      36.501  20.605  24.931  1.00  0.00     0.275 C 
ENDROOT
BRANCH   1   2
ATOM      2  C   UNL A   1      35.152  21.250  24.635  1.00  0.00     0.274 C 
BRANCH   2   3
ATOM      3  O   UNL A   1      35.316  22.668  24.414  1.00  0.00    -0.461 OA
BRANCH   3   4
ATOM      4  C   UNL A   1      34.334  23.301  23.711  1.00  0.00     0.329 C 
ATOM      5  O   UNL A   1      34.525  23.972  22.701  1.00  0.00    -0.250 OA
BRANCH   4   6
ATOM      6  C   UNL A   1      32.927  23.047  24.281  1.00  0.00     0.206 C 
ATOM      7  N   UNL A   1      32.391  24.031  25.234  1.00  0.00    -0.312 N 
ATOM      8  C   UNL A   1      31.599  25.082  24.597  1.00  0.00     0.179 C 
ATOM      9  S   UNL A   1      30.651  24.167  23.327  1.00  0.00    -0.129 SA
ATOM     10  C   UNL A   1      31.882  22.823  23.187  1.00  0.00     0.109 C 
BRANCH   7  11
ATOM     11  C   UNL A   1      32.430  23.702  26.575  1.00  0.00     0.221 C 
ATOM     12  C   UNL A   1      33.712  23.206  27.182  1.00  0.00     0.114 C 
ATOM     13  O   UNL A   1      31.472  23.921  27.319  1.00  0.00    -0.275 OA
ENDBRANCH   7  11
BRANCH   8  14
ATOM     14  C   UNL A   1      32.421  26.249  24.050  1.00  0.00     0.039 A 
ATOM     15  C   UNL A   1      32.607  26.468  22.669  1.00  0.00     0.130 A 
ATOM     16  C   UNL A   1      33.082  27.163  24.893  1.00  0.00     0.050 A 
ATOM     17  F   UNL A   1      32.045  25.664  21.758  1.00  0.00    -0.207 F 
ATOM     18  C   UNL A   1      33.413  27.485  22.154  1.00  0.00     0.040 A 
ATOM     19  C   UNL A   1      33.910  28.180  24.382  1.00  0.00     0.021 A 
ATOM     20  Cl  UNL A   1      32.903  27.171  26.610  1.00  0.00    -0.084 Cl
ATOM     21  C   UNL A   1      34.083  28.338  23.013  1.00  0.00     0.005 A 
ENDBRANCH   8  14
ENDBRANCH   4   6
ENDBRANCH   3   4
ENDBRANCH   2   3
ENDBRANCH   1   2
BRANCH   1  22
ATOM     22  O   UNL A   1      37.258  21.500  25.758  1.00  0.00    -0.458 OA
BRANCH  22  23
ATOM     23  C   UNL A   1      38.566  21.195  25.894  1.00  0.00     0.338 C 
ATOM     24  O   UNL A   1      39.132  20.150  25.600  1.00  0.00    -0.246 OA
BRANCH  23  25
ATOM     25  C   UNL A   1      39.239  22.375  26.440  1.00  0.00     0.060 A 
ATOM     26  C   UNL A   1      38.770  23.638  26.084  1.00  0.00     0.016 A 
ATOM     27  C   UNL A   1      40.360  22.235  27.254  1.00  0.00     0.016 A 
ATOM     28  C   UNL A   1      39.454  24.778  26.484  1.00  0.00     0.010 A 
ATOM     29  C   UNL A   1      41.012  23.382  27.710  1.00  0.00     0.010 A 
ATOM     30  C   UNL A   1      40.579  24.660  27.306  1.00  0.00    -0.014 A 
BRANCH  30  31
ATOM     31  C   UNL A   1      41.343  25.866  27.703  1.00  0.00     0.031 A 
ATOM     32  C   UNL A   1      40.677  26.921  28.537  1.00  0.00     0.074 A 
ATOM     33  C   UNL A   1      42.623  26.015  27.313  1.00  0.00     0.049 A 
ATOM     34  N   UNL A   1      41.089  28.127  28.830  1.00  0.00    -0.248 NA
ATOM     35  C   UNL A   1      39.365  26.575  29.106  1.00  0.00     0.031 C 
ATOM     36  C   UNL A   1      43.397  25.035  26.552  1.00  0.00     0.029 A 
ATOM     37  N   UNL A   1      43.494  27.057  27.501  1.00  0.00    -0.354 N 
ATOM     38  C   UNL A   1      40.067  28.701  29.576  1.00  0.00     0.074 A 
ATOM     39  C   UNL A   1      39.015  27.714  29.687  1.00  0.00     0.031 C 
ATOM     40  C   UNL A   1      44.631  25.519  26.341  1.00  0.00     0.029 A 
ATOM     41  C   UNL A   1      44.710  26.868  26.893  1.00  0.00     0.049 A 
ATOM     42  H   UNL A   1      43.269  27.862  28.021  1.00  0.00     0.167 HD
ATOM     43  C   UNL A   1      40.017  29.942  30.115  1.00  0.00     0.037 A 
ATOM     44  C   UNL A   1      45.755  27.705  26.758  1.00  0.00     0.037 A 
ATOM     45  C   UNL A   1      41.087  30.900  30.034  1.00  0.00     0.049 A 
ATOM     46  C   UNL A   1      45.661  29.090  27.331  1.00  0.00     0.074 A 
ATOM     47  C   UNL A   1      41.144  32.179  30.560  1.00  0.00     0.029 A 
ATOM     48  N   UNL A   1      42.298  30.676  29.395  1.00  0.00    -0.354 N 
ATOM     49  N   UNL A   1      44.675  29.643  27.994  1.00  0.00    -0.248 NA
ATOM     50  C   UNL A   1      46.817  29.972  27.122  1.00  0.00     0.031 C 
ATOM     51  C   UNL A   1      42.377  32.740  30.210  1.00  0.00     0.029 A 
ATOM     52  C   UNL A   1      43.104  31.797  29.501  1.00  0.00     0.049 A 
ATOM     53  H   UNL A   1      42.547  29.842  28.934  1.00  0.00     0.167 HD
ATOM     54  C   UNL A   1      45.095  30.931  28.295  1.00  0.00     0.074 A 
ATOM     55  C   UNL A   1      46.432  31.071  27.754  1.00  0.00     0.031 C 
ATOM     56  C   UNL A   1      44.432  31.912  28.957  1.00  0.00     0.037 A 
BRANCH  43  57
ATOM     57  C   UNL A   1      38.748  30.341  30.806  1.00  0.00     0.057 A 
ATOM     58  C   UNL A   1      38.533  30.101  32.169  1.00  0.00     0.134 A 
ATOM     59  C   UNL A   1      37.729  30.991  30.097  1.00  0.00     0.134 A 
ATOM     60  F   UNL A   1      39.461  29.468  32.902  1.00  0.00    -0.206 F 
ATOM     61  C   UNL A   1      37.341  30.471  32.796  1.00  0.00     0.040 A 
ATOM     62  C   UNL A   1      36.543  31.387  30.717  1.00  0.00     0.040 A 
ATOM     63  F   UNL A   1      37.871  31.255  28.789  1.00  0.00    -0.206 F 
ATOM     64  C   UNL A   1      36.345  31.121  32.070  1.00  0.00     0.006 A 
ENDBRANCH  43  57
BRANCH  44  65
ATOM     65  C   UNL A   1      46.963  27.263  26.019  1.00  0.00     0.057 A 
ATOM     66  C   UNL A   1      47.083  27.470  24.641  1.00  0.00     0.134 A 
ATOM     67  C   UNL A   1      48.030  26.633  26.673  1.00  0.00     0.134 A 
ATOM     68  F   UNL A   1      46.086  28.047  23.956  1.00  0.00    -0.206 F 
ATOM     69  C   UNL A   1      48.218  27.061  23.937  1.00  0.00     0.040 A 
ATOM     70  C   UNL A   1      49.179  26.241  25.987  1.00  0.00     0.040 A 
ATOM     71  F   UNL A   1      47.975  26.408  27.994  1.00  0.00    -0.206 F 
ATOM     72  C   UNL A   1      49.274  26.451  24.613  1.00  0.00     0.006 A 
ENDBRANCH  44  65
BRANCH  56  73
ATOM     73  C   UNL A   1      45.159  33.207  29.152  1.00  0.00     0.057 A 
ATOM     74  C   UNL A   1      45.035  34.266  28.244  1.00  0.00     0.134 A 
ATOM     75  C   UNL A   1      45.966  33.408  30.279  1.00  0.00     0.134 A 
ATOM     76  F   UNL A   1      44.287  34.129  27.138  1.00  0.00    -0.206 F 
ATOM     77  C   UNL A   1      45.707  35.474  28.440  1.00  0.00     0.040 A 
ATOM     78  C   UNL A   1      46.625  34.619  30.496  1.00  0.00     0.040 A 
ATOM     79  F   UNL A   1      46.121  32.434  31.189  1.00  0.00    -0.206 F 
ATOM     80  C   UNL A   1      46.499  35.654  29.572  1.00  0.00     0.006 A 
ENDBRANCH  56  73
ENDBRANCH  30  31
ENDBRANCH  23  25
ENDBRANCH  22  23
ENDBRANCH   1  22
TORSDOF 13
ENDMDL
MODEL 2
REMARK VINA RESULT:     -11.3      0.144      1.626
REMARK SMILES CC(=O)N1[C@@H](c2c(F)cccc2Cl)SC[C@H]1C(=O)OCCOC(=O)c1ccc(-c2c3nc(c(-c4c(F)cccc4F)c4ccc([nH]4)c(-c4c(F)cccc4F)c4nc(c(-c5c(F)cccc5F)c5ccc2[nH]5)C=C4)C=C3)cc1
REMARK SMILES IDX 21 1 20 2 19 3 17 4 18 5 16 6 4 7 5 8 14 9 15 10 2 11 1 12
REMARK SMILES IDX 3 13 6 14 7 15 12 16 8 17 9 18 11 19 13 20 10 21 22 22 23 23
REMARK SMILES IDX 24 24 25 25 26 26 78 27 27 28 77 29 28 30 29 31 30 32 71 33
REMARK SMILES IDX 31 34 76 35 70 36 72 37 32 38 75 39 69 40 68 41 33 43 59 44
REMARK SMILES IDX 42 45 58 46 43 47 46 48 57 49 73 50 44 51 45 52 56 54 74 55
REMARK SMILES IDX 47 56 34 57 35 58 40 59 36 60 37 61 39 62 41 63 38 64 60 65
REMARK SMILES IDX 61 66 66 67 62 68 63 69 65 70 67 71 64 72 48 73 49 74 54 75
REMARK SMILES IDX 50 76 51 77 53 78 55 79 52 80
REMARK H PARENT 72 42 46 53
REMARK Flexibility Score: inf
ROOT
ATOM      1  C   UNL A   1      36.530  20.584  25.000  1.00  0.00     0.275 C 
ENDROOT
BRANCH   1   2
ATOM      2  C   UNL A   1      35.151  21.167  24.718  1.00  0.00     0.274 C 
BRANCH   2   3
ATOM      3  O   UNL A   1      35.255  22.581  24.440  1.00  0.00    -0.461 OA
BRANCH   3   4
ATOM      4  C   UNL A   1      34.273  23.134  23.673  1.00  0.00     0.329 C 
ATOM      5  O   UNL A   1      34.465  23.703  22.603  1.00  0.00    -0.250 OA
BRANCH   4   6
ATOM      6  C   UNL A   1      32.865  22.925  24.257  1.00  0.00     0.206 C 
ATOM      7  N   UNL A   1      32.358  23.940  25.192  1.00  0.00    -0.312 N 
ATOM      8  C   UNL A   1      31.587  24.997  24.539  1.00  0.00     0.179 C 
ATOM      9  S   UNL A   1      30.609  24.078  23.294  1.00  0.00    -0.129 SA
ATOM     10  C   UNL A   1      31.807  22.702  23.174  1.00  0.00     0.109 C 
BRANCH   7  11
ATOM     11  C   UNL A   1      32.399  23.639  26.540  1.00  0.00     0.221 C 
ATOM     12  C   UNL A   1      33.716  23.327  27.193  1.00  0.00     0.114 C 
ATOM     13  O   UNL A   1      31.397  23.739  27.252  1.00  0.00    -0.275 OA
ENDBRANCH   7  11
BRANCH   8  14
ATOM     14  C   UNL A   1      32.432  26.132  23.961  1.00  0.00     0.039 A 
ATOM     15  C   UNL A   1      32.600  26.328  22.575  1.00  0.00     0.130 A 
ATOM     16  C   UNL A   1      33.134  27.038  24.781  1.00  0.00     0.050 A 
ATOM     17  F   UNL A   1      31.999  25.529  21.684  1.00  0.00    -0.207 F 
ATOM     18  C   UNL A   1      33.426  27.315  22.033  1.00  0.00     0.040 A 
ATOM     19  C   UNL A   1      33.982  28.023  24.242  1.00  0.00     0.021 A 
ATOM     20  Cl  UNL A   1      32.986  27.072  26.501  1.00  0.00    -0.084 Cl
ATOM     21  C   UNL A   1      34.135  28.159  22.868  1.00  0.00     0.005 A 
ENDBRANCH   8  14
ENDBRANCH   4   6
ENDBRANCH   3   4
ENDBRANCH   2   3
ENDBRANCH   1   2
BRANCH   1  22
ATOM     22  O   UNL A   1      37.290  21.553  25.737  1.00  0.00    -0.458 OA
BRANCH  22  23
ATOM     23  C   UNL A   1      38.581  21.228  25.961  1.00  0.00     0.338 C 
ATOM     24  O   UNL A   1      39.138  20.159  25.749  1.00  0.00    -0.246 OA
BRANCH  23  25
ATOM     25  C   UNL A   1      39.250  22.419  26.488  1.00  0.00     0.060 A 
ATOM     26  C   UNL A   1      38.767  23.675  26.123  1.00  0.00     0.016 A 
ATOM     27  C   UNL A   1      40.380  22.296  27.291  1.00  0.00     0.016 A 
ATOM     28  C   UNL A   1      39.446  24.824  26.505  1.00  0.00     0.010 A 
ATOM     29  C   UNL A   1      41.027  23.453  27.728  1.00  0.00     0.010 A 
ATOM     30  C   UNL A   1      40.580  24.723  27.317  1.00  0.00    -0.014 A 
BRANCH  30  31
ATOM     31  C   UNL A   1      41.338  25.939  27.693  1.00  0.00     0.031 A 
ATOM     32  C   UNL A   1      40.668  27.003  28.514  1.00  0.00     0.074 A 
ATOM     33  C   UNL A   1      42.616  26.090  27.298  1.00  0.00     0.049 A 
ATOM     34  N   UNL A   1      41.075  28.215  28.788  1.00  0.00    -0.248 NA
ATOM     35  C   UNL A   1      39.361  26.657  29.092  1.00  0.00     0.031 C 
ATOM     36  C   UNL A   1      43.393  25.103  26.548  1.00  0.00     0.029 A 
ATOM     37  N   UNL A   1      43.482  27.140  27.467  1.00  0.00    -0.354 N 
ATOM     38  C   UNL A   1      40.052  28.794  29.529  1.00  0.00     0.074 A 
ATOM     39  C   UNL A   1      39.006  27.803  29.657  1.00  0.00     0.031 C 
ATOM     40  C   UNL A   1      44.624  25.591  26.326  1.00  0.00     0.029 A 
ATOM     41  C   UNL A   1      44.697  26.948  26.858  1.00  0.00     0.049 A 
ATOM     42  H   UNL A   1      43.253  27.951  27.975  1.00  0.00     0.167 HD
ATOM     43  C   UNL A   1      39.996  30.042  30.049  1.00  0.00     0.037 A 
ATOM     44  C   UNL A   1      45.737  27.790  26.707  1.00  0.00     0.037 A 
ATOM     45  C   UNL A   1      41.061  31.005  29.952  1.00  0.00     0.049 A 
ATOM     46  C   UNL A   1      45.636  29.182  27.260  1.00  0.00     0.074 A 
ATOM     47  C   UNL A   1      41.112  32.292  30.458  1.00  0.00     0.029 A 
ATOM     48  N   UNL A   1      42.270  30.779  29.312  1.00  0.00    -0.354 N 
ATOM     49  N   UNL A   1      44.649  29.739  27.919  1.00  0.00    -0.248 NA
ATOM     50  C   UNL A   1      46.786  30.067  27.035  1.00  0.00     0.031 C 
ATOM     51  C   UNL A   1      42.340  32.855  30.096  1.00  0.00     0.029 A 
ATOM     52  C   UNL A   1      43.070  31.906  29.398  1.00  0.00     0.049 A 
ATOM     53  H   UNL A   1      42.523  29.940  28.863  1.00  0.00     0.167 HD
ATOM     54  C   UNL A   1      45.062  31.033  28.199  1.00  0.00     0.074 A 
ATOM     55  C   UNL A   1      46.397  31.174  27.652  1.00  0.00     0.031 C 
ATOM     56  C   UNL A   1      44.396  32.021  28.848  1.00  0.00     0.037 A 
BRANCH  43  57
ATOM     57  C   UNL A   1      38.727  30.445  30.739  1.00  0.00     0.057 A 
ATOM     58  C   UNL A   1      37.673  31.069  30.060  1.00  0.00     0.134 A 
ATOM     59  C   UNL A   1      38.553  30.189  32.106  1.00  0.00     0.134 A 
ATOM     60  F   UNL A   1      37.782  31.358  28.754  1.00  0.00    -0.206 F 
ATOM     61  C   UNL A   1      36.501  31.446  30.720  1.00  0.00     0.040 A 
ATOM     62  C   UNL A   1      37.377  30.539  32.771  1.00  0.00     0.040 A 
ATOM     63  F   UNL A   1      39.521  29.591  32.816  1.00  0.00    -0.206 F 
ATOM     64  C   UNL A   1      36.349  31.176  32.078  1.00  0.00     0.006 A 
ENDBRANCH  43  57
BRANCH  44  65
ATOM     65  C   UNL A   1      46.945  27.344  25.971  1.00  0.00     0.057 A 
ATOM     66  C   UNL A   1      48.028  26.767  26.642  1.00  0.00     0.134 A 
ATOM     67  C   UNL A   1      47.042  27.475  24.580  1.00  0.00     0.134 A 
ATOM     68  F   UNL A   1      48.003  26.636  27.975  1.00  0.00    -0.206 F 
ATOM     69  C   UNL A   1      49.168  26.341  25.957  1.00  0.00     0.040 A 
ATOM     70  C   UNL A   1      48.164  27.033  23.880  1.00  0.00     0.040 A 
ATOM     71  F   UNL A   1      46.036  28.020  23.879  1.00  0.00    -0.206 F 
ATOM     72  C   UNL A   1      49.235  26.467  24.570  1.00  0.00     0.006 A 
ENDBRANCH  44  65
BRANCH  56  73
ATOM     73  C   UNL A   1      45.116  33.323  29.023  1.00  0.00     0.057 A 
ATOM     74  C   UNL A   1      45.976  33.550  30.104  1.00  0.00     0.134 A 
ATOM     75  C   UNL A   1      44.970  34.349  28.081  1.00  0.00     0.134 A 
ATOM     76  F   UNL A   1      46.146  32.610  31.046  1.00  0.00    -0.206 F 
ATOM     77  C   UNL A   1      46.653  34.762  30.253  1.00  0.00     0.040 A 
ATOM     78  C   UNL A   1      45.657  35.557  28.207  1.00  0.00     0.040 A 
ATOM     79  F   UNL A   1      44.164  34.191  27.020  1.00  0.00    -0.206 F 
ATOM     80  C   UNL A   1      46.498  35.766  29.299  1.00  0.00     0.006 A 
ENDBRANCH  56  73
ENDBRANCH  30  31
ENDBRANCH  23  25
ENDBRANCH  22  23
ENDBRANCH   1  22
TORSDOF 13
ENDMDL
MODEL 3
REMARK VINA RESULT:     -11.3      3.943      8.705
REMARK SMILES CC(=O)N1[C@@H](c2c(F)cccc2Cl)SC[C@H]1C(=O)OCCOC(=O)c1ccc(-c2c3nc(c(-c4c(F)cccc4F)c4ccc([nH]4)c(-c4c(F)cccc4F)c4nc(c(-c5c(F)cccc5F)c5ccc2[nH]5)C=C4)C=C3)cc1
REMARK SMILES IDX 21 1 20 2 19 3 17 4 18 5 16 6 4 7 5 8 14 9 15 10 2 11 1 12
REMARK SMILES IDX 3 13 6 14 7 15 12 16 8 17 9 18 11 19 13 20 10 21 22 22 23 23
REMARK SMILES IDX 24 24 25 25 26 26 78 27 27 28 77 29 28 30 29 31 30 32 71 33
REMARK SMILES IDX 31 34 76 35 70 36 72 37 32 38 75 39 69 40 68 41 33 43 59 44
REMARK SMILES IDX 42 45 58 46 43 47 46 48 57 49 73 50 44 51 45 52 56 54 74 55
REMARK SMILES IDX 47 56 34 57 35 58 40 59 36 60 37 61 39 62 41 63 38 64 60 65
REMARK SMILES IDX 61 66 66 67 62 68 63 69 65 70 67 71 64 72 48 73 49 74 54 75
REMARK SMILES IDX 50 76 51 77 53 78 55 79 52 80
REMARK H PARENT 72 42 46 53
REMARK Flexibility Score: inf
ROOT
ATOM      1  C   UNL A   1      31.510  30.410  25.727  1.00  0.00     0.275 C 
ENDROOT
BRANCH   1   2
ATOM      2  C   UNL A   1      31.308  29.046  25.079  1.00  0.00     0.274 C 
BRANCH   2   3
ATOM      3  O   UNL A   1      31.970  28.022  25.854  1.00  0.00    -0.461 OA
BRANCH   3   4
ATOM      4  C   UNL A   1      31.518  26.745  25.705  1.00  0.00     0.329 C 
ATOM      5  O   UNL A   1      31.202  26.006  26.633  1.00  0.00    -0.250 OA
BRANCH   4   6
ATOM      6  C   UNL A   1      31.384  26.323  24.231  1.00  0.00     0.206 C 
ATOM      7  N   UNL A   1      32.523  25.622  23.618  1.00  0.00    -0.312 N 
ATOM      8  C   UNL A   1      32.427  24.166  23.715  1.00  0.00     0.179 C 
ATOM      9  S   UNL A   1      30.653  23.851  23.394  1.00  0.00    -0.129 SA
ATOM     10  C   UNL A   1      30.120  25.503  23.967  1.00  0.00     0.109 C 
BRANCH   7  11
ATOM     11  C   UNL A   1      33.352  26.358  22.795  1.00  0.00     0.221 C 
ATOM     12  C   UNL A   1      34.028  27.589  23.328  1.00  0.00     0.114 C 
ATOM     13  O   UNL A   1      33.653  25.962  21.666  1.00  0.00    -0.275 OA
ENDBRANCH   7  11
BRANCH   8  14
ATOM     14  C   UNL A   1      32.941  23.585  25.032  1.00  0.00     0.039 A 
ATOM     15  C   UNL A   1      32.083  23.047  26.013  1.00  0.00     0.130 A 
ATOM     16  C   UNL A   1      34.309  23.585  25.370  1.00  0.00     0.050 A 
ATOM     17  F   UNL A   1      30.758  22.997  25.825  1.00  0.00    -0.207 F 
ATOM     18  C   UNL A   1      32.529  22.578  27.251  1.00  0.00     0.040 A 
ATOM     19  C   UNL A   1      34.763  23.132  26.623  1.00  0.00     0.021 A 
ATOM     20  Cl  UNL A   1      35.555  24.078  24.283  1.00  0.00    -0.084 Cl
ATOM     21  C   UNL A   1      33.875  22.634  27.567  1.00  0.00     0.005 A 
ENDBRANCH   8  14
ENDBRANCH   4   6
ENDBRANCH   3   4
ENDBRANCH   2   3
ENDBRANCH   1   2
BRANCH   1  22
ATOM     22  O   UNL A   1      32.879  30.514  26.144  1.00  0.00    -0.458 OA
BRANCH  22  23
ATOM     23  C   UNL A   1      33.149  31.524  26.999  1.00  0.00     0.338 C 
ATOM     24  O   UNL A   1      32.459  32.504  27.251  1.00  0.00    -0.246 OA
BRANCH  23  25
ATOM     25  C   UNL A   1      34.436  31.234  27.632  1.00  0.00     0.060 A 
ATOM     26  C   UNL A   1      34.753  29.909  27.928  1.00  0.00     0.016 A 
ATOM     27  C   UNL A   1      35.300  32.268  27.980  1.00  0.00     0.016 A 
ATOM     28  C   UNL A   1      35.909  29.607  28.635  1.00  0.00     0.010 A 
ATOM     29  C   UNL A   1      36.494  31.960  28.635  1.00  0.00     0.010 A 
ATOM     30  C   UNL A   1      36.794  30.631  28.990  1.00  0.00    -0.014 A 
BRANCH  30  31
ATOM     31  C   UNL A   1      38.007  30.325  29.783  1.00  0.00     0.031 A 
ATOM     32  C   UNL A   1      39.079  29.458  29.190  1.00  0.00     0.074 A 
ATOM     33  C   UNL A   1      38.145  30.819  31.028  1.00  0.00     0.049 A 
ATOM     34  N   UNL A   1      40.117  28.913  29.768  1.00  0.00    -0.248 NA
ATOM     35  C   UNL A   1      38.955  29.153  27.756  1.00  0.00     0.031 C 
ATOM     36  C   UNL A   1      37.202  31.721  31.691  1.00  0.00     0.029 A 
ATOM     37  N   UNL A   1      39.133  30.624  31.959  1.00  0.00    -0.354 N 
ATOM     38  C   UNL A   1      40.744  28.162  28.782  1.00  0.00     0.074 A 
ATOM     39  C   UNL A   1      39.967  28.317  27.571  1.00  0.00     0.031 C 
ATOM     40  C   UNL A   1      37.660  32.005  32.921  1.00  0.00     0.029 A 
ATOM     41  C   UNL A   1      38.888  31.253  33.154  1.00  0.00     0.049 A 
ATOM     42  H   UNL A   1      39.938  30.084  31.786  1.00  0.00     0.167 HD
ATOM     43  C   UNL A   1      41.865  27.409  28.885  1.00  0.00     0.037 A 
ATOM     44  C   UNL A   1      39.557  31.195  34.321  1.00  0.00     0.037 A 
ATOM     45  C   UNL A   1      42.653  27.297  30.084  1.00  0.00     0.049 A 
ATOM     46  C   UNL A   1      40.775  30.324  34.421  1.00  0.00     0.074 A 
ATOM     47  C   UNL A   1      43.815  26.574  30.290  1.00  0.00     0.029 A 
ATOM     48  N   UNL A   1      42.363  27.937  31.279  1.00  0.00    -0.354 N 
ATOM     49  N   UNL A   1      41.337  29.580  33.500  1.00  0.00    -0.248 NA
ATOM     50  C   UNL A   1      41.444  30.271  35.728  1.00  0.00     0.031 C 
ATOM     51  C   UNL A   1      44.209  26.752  31.620  1.00  0.00     0.029 A 
ATOM     52  C   UNL A   1      43.316  27.616  32.232  1.00  0.00     0.049 A 
ATOM     53  H   UNL A   1      41.593  28.533  31.429  1.00  0.00     0.167 HD
ATOM     54  C   UNL A   1      42.431  28.982  34.108  1.00  0.00     0.074 A 
ATOM     55  C   UNL A   1      42.463  29.462  35.475  1.00  0.00     0.031 C 
ATOM     56  C   UNL A   1      43.328  28.109  33.584  1.00  0.00     0.037 A 
BRANCH  43  57
ATOM     57  C   UNL A   1      42.281  26.624  27.677  1.00  0.00     0.057 A 
ATOM     58  C   UNL A   1      41.872  25.301  27.469  1.00  0.00     0.134 A 
ATOM     59  C   UNL A   1      43.094  27.210  26.698  1.00  0.00     0.134 A 
ATOM     60  F   UNL A   1      41.107  24.676  28.376  1.00  0.00    -0.206 F 
ATOM     61  C   UNL A   1      42.277  24.581  26.343  1.00  0.00     0.040 A 
ATOM     62  C   UNL A   1      43.486  26.509  25.557  1.00  0.00     0.040 A 
ATOM     63  F   UNL A   1      43.519  28.475  26.833  1.00  0.00    -0.206 F 
ATOM     64  C   UNL A   1      43.082  25.187  25.381  1.00  0.00     0.006 A 
ENDBRANCH  43  57
BRANCH  44  65
ATOM     65  C   UNL A   1      39.063  31.959  35.492  1.00  0.00     0.057 A 
ATOM     66  C   UNL A   1      38.245  31.358  36.454  1.00  0.00     0.134 A 
ATOM     67  C   UNL A   1      39.405  33.304  35.684  1.00  0.00     0.134 A 
ATOM     68  F   UNL A   1      37.865  30.080  36.313  1.00  0.00    -0.206 F 
ATOM     69  C   UNL A   1      37.778  32.068  37.562  1.00  0.00     0.040 A 
ATOM     70  C   UNL A   1      38.966  34.019  36.798  1.00  0.00     0.040 A 
ATOM     71  F   UNL A   1      40.188  33.936  34.797  1.00  0.00    -0.206 F 
ATOM     72  C   UNL A   1      38.145  33.401  37.740  1.00  0.00     0.006 A 
ENDBRANCH  44  65
BRANCH  56  73
ATOM     73  C   UNL A   1      44.430  27.647  34.488  1.00  0.00     0.057 A 
ATOM     74  C   UNL A   1      44.315  26.479  35.252  1.00  0.00     0.134 A 
ATOM     75  C   UNL A   1      45.631  28.361  34.570  1.00  0.00     0.134 A 
ATOM     76  F   UNL A   1      43.182  25.759  35.226  1.00  0.00    -0.206 F 
ATOM     77  C   UNL A   1      45.350  26.048  36.082  1.00  0.00     0.040 A 
ATOM     78  C   UNL A   1      46.682  27.929  35.380  1.00  0.00     0.040 A 
ATOM     79  F   UNL A   1      45.805  29.486  33.858  1.00  0.00    -0.206 F 
ATOM     80  C   UNL A   1      46.540  26.771  36.143  1.00  0.00     0.006 A 
ENDBRANCH  56  73
ENDBRANCH  30  31
ENDBRANCH  23  25
ENDBRANCH  22  23
ENDBRANCH   1  22
TORSDOF 13
ENDMDL
