MODEL 1
REMARK VINA RESULT:     -12.7      0.000      0.000
REMARK SMILES COc1cc2ccccc2cc1C(=O)Nc1cc(C(=O)OCCOC(=O)c2ccc(-c3c4nc(c(-c5c(F)cccc5F)c5ccc([nH]5)c(-c5c(F)cccc5F)c5nc(c(-c6c(F)cccc6F)c6ccc3[nH]6)C=C5)C=C4)cc2)ccc1C
REMARK SMILES IDX 22 1 21 2 19 3 20 4 18 5 16 6 17 7 83 8 82 9 84 10 81 11
REMARK SMILES IDX 15 12 13 13 14 14 12 16 3 17 4 18 5 19 11 20 6 21 10 22 7 23
REMARK SMILES IDX 9 24 8 25 2 26 1 27 23 28 24 29 25 30 26 31 27 32 28 33
REMARK SMILES IDX 80 34 29 35 79 36 30 37 31 38 32 39 73 40 33 41 78 42 72 43
REMARK SMILES IDX 74 44 34 45 77 46 71 47 70 48 35 50 61 51 44 52 60 53 45 54
REMARK SMILES IDX 48 55 59 56 75 57 46 58 47 59 58 61 76 62 49 63 36 64 37 65
REMARK SMILES IDX 42 66 38 67 39 68 41 69 43 70 40 71 62 72 63 73 68 74 64 75
REMARK SMILES IDX 65 76 67 77 69 78 66 79 50 80 51 81 56 82 52 83 53 84 55 85
REMARK SMILES IDX 57 86 54 87
REMARK H PARENT 15 15 74 49 48 60
REMARK Flexibility Score: inf
ROOT
ATOM      1  C   UNL A   1      35.495  20.775  25.051  1.00  0.00     0.275 C 
ENDROOT
BRANCH   1   2
ATOM      2  O   UNL A   1      35.010  22.095  25.346  1.00  0.00    -0.458 OA
BRANCH   2   3
ATOM      3  C   UNL A   1      34.112  22.076  26.355  1.00  0.00     0.338 C 
ATOM      4  O   UNL A   1      34.030  21.212  27.211  1.00  0.00    -0.246 OA
BRANCH   3   5
ATOM      5  C   UNL A   1      33.127  23.161  26.323  1.00  0.00     0.062 A 
ATOM      6  C   UNL A   1      32.337  24.909  24.847  1.00  0.00     0.045 A 
ATOM      7  C   UNL A   1      33.378  24.136  25.355  1.00  0.00     0.042 A 
ATOM      8  C   UNL A   1      31.066  24.846  25.459  1.00  0.00    -0.027 A 
ATOM      9  C   UNL A   1      30.852  23.906  26.493  1.00  0.00     0.006 A 
ATOM     10  C   UNL A   1      29.860  25.566  24.913  1.00  0.00     0.046 C 
ATOM     11  C   UNL A   1      31.871  23.040  26.908  1.00  0.00     0.016 A 
BRANCH   6  12
ATOM     12  N   UNL A   1      32.526  25.651  23.664  1.00  0.00    -0.322 N 
ATOM     13  C   UNL A   1      32.512  27.023  23.446  1.00  0.00     0.259 C 
ATOM     14  O   UNL A   1      32.491  27.425  22.281  1.00  0.00    -0.269 OA
ATOM     15  H   UNL A   1      32.695  25.109  22.860  1.00  0.00     0.170 HD
BRANCH  13  16
ATOM     16  C   UNL A   1      32.604  28.042  24.539  1.00  0.00     0.082 A 
ATOM     17  C   UNL A   1      31.581  28.922  24.885  1.00  0.00     0.132 A 
ATOM     18  C   UNL A   1      31.875  30.014  25.699  1.00  0.00     0.056 A 
ATOM     19  C   UNL A   1      33.082  30.125  26.390  1.00  0.00    -0.015 A 
ATOM     20  C   UNL A   1      33.804  28.101  25.283  1.00  0.00     0.026 A 
ATOM     21  C   UNL A   1      33.324  31.205  27.251  1.00  0.00     0.009 A 
ATOM     22  C   UNL A   1      34.029  29.101  26.259  1.00  0.00    -0.017 A 
ATOM     23  C   UNL A   1      34.420  31.204  28.106  1.00  0.00     0.001 A 
ATOM     24  C   UNL A   1      35.154  29.128  27.108  1.00  0.00     0.009 A 
ATOM     25  C   UNL A   1      35.324  30.152  28.050  1.00  0.00     0.001 A 
BRANCH  17  26
ATOM     26  O   UNL A   1      30.291  28.882  24.428  1.00  0.00    -0.496 OA
ATOM     27  C   UNL A   1      30.031  29.881  23.446  1.00  0.00     0.278 C 
ENDBRANCH  17  26
ENDBRANCH  13  16
ENDBRANCH   6  12
ENDBRANCH   3   5
ENDBRANCH   2   3
ENDBRANCH   1   2
BRANCH   1  28
ATOM     28  C   UNL A   1      37.016  20.702  25.002  1.00  0.00     0.275 C 
BRANCH  28  29
ATOM     29  O   UNL A   1      37.777  21.694  25.742  1.00  0.00    -0.458 OA
BRANCH  29  30
ATOM     30  C   UNL A   1      39.073  21.697  26.126  1.00  0.00     0.338 C 
ATOM     31  O   UNL A   1      39.731  20.659  26.115  1.00  0.00    -0.246 OA
BRANCH  30  32
ATOM     32  C   UNL A   1      39.709  22.940  26.620  1.00  0.00     0.060 A 
ATOM     33  C   UNL A   1      40.970  22.859  27.247  1.00  0.00     0.016 A 
ATOM     34  C   UNL A   1      39.069  24.169  26.524  1.00  0.00     0.016 A 
ATOM     35  C   UNL A   1      41.589  24.003  27.768  1.00  0.00     0.010 A 
ATOM     36  C   UNL A   1      39.727  25.313  26.937  1.00  0.00     0.010 A 
ATOM     37  C   UNL A   1      40.954  25.235  27.620  1.00  0.00    -0.014 A 
BRANCH  37  38
ATOM     38  C   UNL A   1      41.273  26.451  28.380  1.00  0.00     0.031 A 
ATOM     39  C   UNL A   1      40.407  27.642  28.468  1.00  0.00     0.074 A 
ATOM     40  C   UNL A   1      42.386  26.320  29.126  1.00  0.00     0.049 A 
ATOM     41  N   UNL A   1      39.936  28.147  29.567  1.00  0.00    -0.248 NA
ATOM     42  C   UNL A   1      39.997  28.350  27.251  1.00  0.00     0.031 C 
ATOM     43  C   UNL A   1      42.898  27.154  30.191  1.00  0.00     0.029 A 
ATOM     44  N   UNL A   1      43.441  25.447  28.821  1.00  0.00    -0.354 N 
ATOM     45  C   UNL A   1      39.192  29.271  29.222  1.00  0.00     0.074 A 
ATOM     46  C   UNL A   1      39.210  29.303  27.758  1.00  0.00     0.031 C 
ATOM     47  C   UNL A   1      44.235  26.999  30.231  1.00  0.00     0.029 A 
ATOM     48  C   UNL A   1      44.610  26.167  29.089  1.00  0.00     0.049 A 
ATOM     49  H   UNL A   1      43.372  24.523  28.488  1.00  0.00     0.167 HD
ATOM     50  C   UNL A   1      39.394  30.458  29.863  1.00  0.00     0.037 A 
ATOM     51  C   UNL A   1      45.364  26.581  28.027  1.00  0.00     0.037 A 
ATOM     52  C   UNL A   1      40.783  30.677  30.168  1.00  0.00     0.049 A 
ATOM     53  C   UNL A   1      45.376  28.084  27.912  1.00  0.00     0.074 A 
ATOM     54  C   UNL A   1      41.585  30.394  31.256  1.00  0.00     0.029 A 
ATOM     55  N   UNL A   1      41.623  31.028  29.126  1.00  0.00    -0.354 N 
ATOM     56  N   UNL A   1      44.390  28.856  28.283  1.00  0.00    -0.248 NA
ATOM     57  C   UNL A   1      46.523  28.830  27.409  1.00  0.00     0.031 C 
ATOM     58  C   UNL A   1      42.934  30.495  30.829  1.00  0.00     0.029 A 
ATOM     59  C   UNL A   1      42.938  30.872  29.496  1.00  0.00     0.049 A 
ATOM     60  H   UNL A   1      41.321  31.345  28.244  1.00  0.00     0.167 HD
ATOM     61  C   UNL A   1      44.781  30.163  28.160  1.00  0.00     0.074 A 
ATOM     62  C   UNL A   1      46.109  30.097  27.583  1.00  0.00     0.031 C 
ATOM     63  C   UNL A   1      44.002  31.205  28.569  1.00  0.00     0.037 A 
BRANCH  50  64
ATOM     64  C   UNL A   1      38.201  31.020  30.577  1.00  0.00     0.057 A 
ATOM     65  C   UNL A   1      37.500  32.144  30.109  1.00  0.00     0.134 A 
ATOM     66  C   UNL A   1      37.718  30.465  31.779  1.00  0.00     0.134 A 
ATOM     67  F   UNL A   1      37.828  32.745  28.957  1.00  0.00    -0.206 F 
ATOM     68  C   UNL A   1      36.432  32.712  30.816  1.00  0.00     0.040 A 
ATOM     69  C   UNL A   1      36.656  31.029  32.499  1.00  0.00     0.040 A 
ATOM     70  F   UNL A   1      38.254  29.344  32.284  1.00  0.00    -0.206 F 
ATOM     71  C   UNL A   1      36.014  32.165  32.023  1.00  0.00     0.006 A 
ENDBRANCH  50  64
BRANCH  51  72
ATOM     72  C   UNL A   1      45.376  25.630  26.869  1.00  0.00     0.057 A 
ATOM     73  C   UNL A   1      46.238  24.515  26.911  1.00  0.00     0.134 A 
ATOM     74  C   UNL A   1      44.400  25.621  25.867  1.00  0.00     0.134 A 
ATOM     75  F   UNL A   1      47.206  24.448  27.841  1.00  0.00    -0.206 F 
ATOM     76  C   UNL A   1      46.079  23.408  26.072  1.00  0.00     0.040 A 
ATOM     77  C   UNL A   1      44.245  24.525  25.002  1.00  0.00     0.040 A 
ATOM     78  F   UNL A   1      43.527  26.632  25.749  1.00  0.00    -0.206 F 
ATOM     79  C   UNL A   1      45.062  23.402  25.125  1.00  0.00     0.006 A 
ENDBRANCH  51  72
BRANCH  63  80
ATOM     80  C   UNL A   1      44.216  32.649  28.207  1.00  0.00     0.057 A 
ATOM     81  C   UNL A   1      44.662  33.616  29.118  1.00  0.00     0.134 A 
ATOM     82  C   UNL A   1      44.153  33.074  26.860  1.00  0.00     0.134 A 
ATOM     83  F   UNL A   1      44.883  33.314  30.405  1.00  0.00    -0.206 F 
ATOM     84  C   UNL A   1      44.968  34.925  28.732  1.00  0.00     0.040 A 
ATOM     85  C   UNL A   1      44.510  34.361  26.455  1.00  0.00     0.040 A 
ATOM     86  F   UNL A   1      43.778  32.245  25.875  1.00  0.00    -0.206 F 
ATOM     87  C   UNL A   1      44.905  35.299  27.395  1.00  0.00     0.006 A 
ENDBRANCH  63  80
ENDBRANCH  37  38
ENDBRANCH  30  32
ENDBRANCH  29  30
ENDBRANCH  28  29
ENDBRANCH   1  28
TORSDOF 14
ENDMDL
MODEL 2
REMARK VINA RESULT:     -12.6      2.957      8.729
REMARK SMILES COc1cc2ccccc2cc1C(=O)Nc1cc(C(=O)OCCOC(=O)c2ccc(-c3c4nc(c(-c5c(F)cccc5F)c5ccc([nH]5)c(-c5c(F)cccc5F)c5nc(c(-c6c(F)cccc6F)c6ccc3[nH]6)C=C5)C=C4)cc2)ccc1C
REMARK SMILES IDX 22 1 21 2 19 3 20 4 18 5 16 6 17 7 83 8 82 9 84 10 81 11
REMARK SMILES IDX 15 12 13 13 14 14 12 16 3 17 4 18 5 19 11 20 6 21 10 22 7 23
REMARK SMILES IDX 9 24 8 25 2 26 1 27 23 28 24 29 25 30 26 31 27 32 28 33
REMARK SMILES IDX 80 34 29 35 79 36 30 37 31 38 32 39 73 40 33 41 78 42 72 43
REMARK SMILES IDX 74 44 34 45 77 46 71 47 70 48 35 50 61 51 44 52 60 53 45 54
REMARK SMILES IDX 48 55 59 56 75 57 46 58 47 59 58 61 76 62 49 63 36 64 37 65
REMARK SMILES IDX 42 66 38 67 39 68 41 69 43 70 40 71 62 72 63 73 68 74 64 75
REMARK SMILES IDX 65 76 67 77 69 78 66 79 50 80 51 81 56 82 52 83 53 84 55 85
REMARK SMILES IDX 57 86 54 87
REMARK H PARENT 15 15 74 49 48 60
REMARK Flexibility Score: inf
ROOT
ATOM      1  C   UNL A   1      32.888  31.463  27.496  1.00  0.00     0.275 C 
ENDROOT
BRANCH   1   2
ATOM      2  O   UNL A   1      32.790  30.805  26.223  1.00  0.00    -0.458 OA
BRANCH   2   3
ATOM      3  C   UNL A   1      33.307  29.557  26.272  1.00  0.00     0.338 C 
ATOM      4  O   UNL A   1      34.368  29.253  26.789  1.00  0.00    -0.246 OA
BRANCH   3   5
ATOM      5  C   UNL A   1      32.529  28.541  25.559  1.00  0.00     0.062 A 
ATOM      6  C   UNL A   1      31.359  26.464  25.978  1.00  0.00     0.045 A 
ATOM      7  C   UNL A   1      32.430  27.318  26.228  1.00  0.00     0.042 A 
ATOM      8  C   UNL A   1      30.488  26.741  24.903  1.00  0.00    -0.027 A 
ATOM      9  C   UNL A   1      30.653  27.948  24.185  1.00  0.00     0.006 A 
ATOM     10  C   UNL A   1      29.249  25.931  24.625  1.00  0.00     0.046 C 
ATOM     11  C   UNL A   1      31.653  28.866  24.528  1.00  0.00     0.016 A 
BRANCH   6  12
ATOM     12  N   UNL A   1      31.086  25.403  26.865  1.00  0.00    -0.322 N 
ATOM     13  C   UNL A   1      31.524  24.085  26.861  1.00  0.00     0.259 C 
ATOM     14  O   UNL A   1      30.976  23.289  27.626  1.00  0.00    -0.269 OA
ATOM     15  H   UNL A   1      30.486  25.635  27.611  1.00  0.00     0.170 HD
BRANCH  13  16
ATOM     16  C   UNL A   1      32.675  23.592  26.041  1.00  0.00     0.082 A 
ATOM     17  C   UNL A   1      32.550  22.839  24.876  1.00  0.00     0.132 A 
ATOM     18  C   UNL A   1      33.671  22.186  24.369  1.00  0.00     0.056 A 
ATOM     19  C   UNL A   1      34.962  22.457  24.824  1.00  0.00    -0.015 A 
ATOM     20  C   UNL A   1      33.979  23.932  26.469  1.00  0.00     0.026 A 
ATOM     21  C   UNL A   1      36.076  21.829  24.251  1.00  0.00     0.009 A 
ATOM     22  C   UNL A   1      35.132  23.421  25.827  1.00  0.00    -0.017 A 
ATOM     23  C   UNL A   1      37.366  22.258  24.543  1.00  0.00     0.001 A 
ATOM     24  C   UNL A   1      36.446  23.824  26.138  1.00  0.00     0.009 A 
ATOM     25  C   UNL A   1      37.550  23.274  25.472  1.00  0.00     0.001 A 
BRANCH  17  26
ATOM     26  O   UNL A   1      31.388  22.587  24.198  1.00  0.00    -0.496 OA
ATOM     27  C   UNL A   1      31.191  23.479  23.104  1.00  0.00     0.278 C 
ENDBRANCH  17  26
ENDBRANCH  13  16
ENDBRANCH   6  12
ENDBRANCH   3   5
ENDBRANCH   2   3
ENDBRANCH   1   2
BRANCH   1  28
ATOM     28  C   UNL A   1      32.586  32.955  27.414  1.00  0.00     0.275 C 
BRANCH  28  29
ATOM     29  O   UNL A   1      33.426  33.870  28.167  1.00  0.00    -0.458 OA
BRANCH  29  30
ATOM     30  C   UNL A   1      34.105  33.688  29.323  1.00  0.00     0.338 C 
ATOM     31  O   UNL A   1      33.755  34.266  30.350  1.00  0.00    -0.246 OA
BRANCH  30  32
ATOM     32  C   UNL A   1      35.315  32.836  29.360  1.00  0.00     0.060 A 
ATOM     33  C   UNL A   1      35.268  31.612  30.060  1.00  0.00     0.016 A 
ATOM     34  C   UNL A   1      36.504  33.239  28.764  1.00  0.00     0.016 A 
ATOM     35  C   UNL A   1      36.401  30.795  30.158  1.00  0.00     0.010 A 
ATOM     36  C   UNL A   1      37.589  32.383  28.764  1.00  0.00     0.010 A 
ATOM     37  C   UNL A   1      37.572  31.192  29.513  1.00  0.00    -0.014 A 
BRANCH  37  38
ATOM     38  C   UNL A   1      38.913  30.657  29.783  1.00  0.00     0.031 A 
ATOM     39  C   UNL A   1      39.382  29.317  29.382  1.00  0.00     0.074 A 
ATOM     40  C   UNL A   1      39.742  31.576  30.313  1.00  0.00     0.049 A 
ATOM     41  N   UNL A   1      40.408  29.078  28.624  1.00  0.00    -0.248 NA
ATOM     42  C   UNL A   1      38.667  28.118  29.831  1.00  0.00     0.031 C 
ATOM     43  C   UNL A   1      41.178  31.547  30.483  1.00  0.00     0.029 A 
ATOM     44  N   UNL A   1      39.317  32.679  31.068  1.00  0.00    -0.354 N 
ATOM     45  C   UNL A   1      40.526  27.696  28.509  1.00  0.00     0.074 A 
ATOM     46  C   UNL A   1      39.369  27.155  29.227  1.00  0.00     0.031 C 
ATOM     47  C   UNL A   1      41.487  32.343  31.525  1.00  0.00     0.029 A 
ATOM     48  C   UNL A   1      40.227  32.779  32.126  1.00  0.00     0.049 A 
ATOM     49  H   UNL A   1      38.541  33.259  30.892  1.00  0.00     0.167 HD
ATOM     50  C   UNL A   1      41.724  27.084  28.730  1.00  0.00     0.037 A 
ATOM     51  C   UNL A   1      39.793  32.441  33.377  1.00  0.00     0.037 A 
ATOM     52  C   UNL A   1      42.458  27.702  29.801  1.00  0.00     0.049 A 
ATOM     53  C   UNL A   1      40.499  31.213  33.893  1.00  0.00     0.074 A 
ATOM     54  C   UNL A   1      43.399  28.711  29.866  1.00  0.00     0.029 A 
ATOM     55  N   UNL A   1      42.030  27.465  31.096  1.00  0.00    -0.354 N 
ATOM     56  N   UNL A   1      40.942  30.249  33.133  1.00  0.00    -0.248 NA
ATOM     57  C   UNL A   1      40.797  31.007  35.306  1.00  0.00     0.031 C 
ATOM     58  C   UNL A   1      43.470  29.143  31.215  1.00  0.00     0.029 A 
ATOM     59  C   UNL A   1      42.597  28.369  31.962  1.00  0.00     0.049 A 
ATOM     60  H   UNL A   1      41.407  26.749  31.358  1.00  0.00     0.167 HD
ATOM     61  C   UNL A   1      41.640  29.360  33.907  1.00  0.00     0.074 A 
ATOM     62  C   UNL A   1      41.496  29.860  35.261  1.00  0.00     0.031 C 
ATOM     63  C   UNL A   1      42.312  28.297  33.382  1.00  0.00     0.037 A 
BRANCH  50  64
ATOM     64  C   UNL A   1      42.277  26.305  27.572  1.00  0.00     0.057 A 
ATOM     65  C   UNL A   1      42.951  26.916  26.503  1.00  0.00     0.134 A 
ATOM     66  C   UNL A   1      42.134  24.907  27.477  1.00  0.00     0.134 A 
ATOM     67  F   UNL A   1      43.190  28.234  26.486  1.00  0.00    -0.206 F 
ATOM     68  C   UNL A   1      43.401  26.196  25.387  1.00  0.00     0.040 A 
ATOM     69  C   UNL A   1      42.573  24.176  26.363  1.00  0.00     0.040 A 
ATOM     70  F   UNL A   1      41.579  24.201  28.473  1.00  0.00    -0.206 F 
ATOM     71  C   UNL A   1      43.200  24.824  25.306  1.00  0.00     0.006 A 
ENDBRANCH  50  64
BRANCH  51  72
ATOM     72  C   UNL A   1      38.361  32.787  33.649  1.00  0.00     0.057 A 
ATOM     73  C   UNL A   1      38.007  34.142  33.823  1.00  0.00     0.134 A 
ATOM     74  C   UNL A   1      37.303  31.888  33.478  1.00  0.00     0.134 A 
ATOM     75  F   UNL A   1      38.964  35.069  33.999  1.00  0.00    -0.206 F 
ATOM     76  C   UNL A   1      36.688  34.593  33.732  1.00  0.00     0.040 A 
ATOM     77  C   UNL A   1      35.970  32.326  33.409  1.00  0.00     0.040 A 
ATOM     78  F   UNL A   1      37.535  30.580  33.298  1.00  0.00    -0.206 F 
ATOM     79  C   UNL A   1      35.662  33.683  33.502  1.00  0.00     0.006 A 
ENDBRANCH  51  72
BRANCH  63  80
ATOM     80  C   UNL A   1      42.843  27.126  34.164  1.00  0.00     0.057 A 
ATOM     81  C   UNL A   1      42.020  26.174  34.781  1.00  0.00     0.134 A 
ATOM     82  C   UNL A   1      44.222  26.819  34.160  1.00  0.00     0.134 A 
ATOM     83  F   UNL A   1      40.684  26.280  34.751  1.00  0.00    -0.206 F 
ATOM     84  C   UNL A   1      42.533  25.029  35.401  1.00  0.00     0.040 A 
ATOM     85  C   UNL A   1      44.740  25.651  34.726  1.00  0.00     0.040 A 
ATOM     86  F   UNL A   1      45.123  27.620  33.573  1.00  0.00    -0.206 F 
ATOM     87  C   UNL A   1      43.895  24.758  35.364  1.00  0.00     0.006 A 
ENDBRANCH  63  80
ENDBRANCH  37  38
ENDBRANCH  30  32
ENDBRANCH  29  30
ENDBRANCH  28  29
ENDBRANCH   1  28
TORSDOF 14
ENDMDL
MODEL 3
REMARK VINA RESULT:     -12.6      2.692      8.403
REMARK SMILES COc1cc2ccccc2cc1C(=O)Nc1cc(C(=O)OCCOC(=O)c2ccc(-c3c4nc(c(-c5c(F)cccc5F)c5ccc([nH]5)c(-c5c(F)cccc5F)c5nc(c(-c6c(F)cccc6F)c6ccc3[nH]6)C=C5)C=C4)cc2)ccc1C
REMARK SMILES IDX 22 1 21 2 19 3 20 4 18 5 16 6 17 7 83 8 82 9 84 10 81 11
REMARK SMILES IDX 15 12 13 13 14 14 12 16 3 17 4 18 5 19 11 20 6 21 10 22 7 23
REMARK SMILES IDX 9 24 8 25 2 26 1 27 23 28 24 29 25 30 26 31 27 32 28 33
REMARK SMILES IDX 80 34 29 35 79 36 30 37 31 38 32 39 73 40 33 41 78 42 72 43
REMARK SMILES IDX 74 44 34 45 77 46 71 47 70 48 35 50 61 51 44 52 60 53 45 54
REMARK SMILES IDX 48 55 59 56 75 57 46 58 47 59 58 61 76 62 49 63 36 64 37 65
REMARK SMILES IDX 42 66 38 67 39 68 41 69 43 70 40 71 62 72 63 73 68 74 64 75
REMARK SMILES IDX 65 76 67 77 69 78 66 79 50 80 51 81 56 82 52 83 53 84 55 85
REMARK SMILES IDX 57 86 54 87
REMARK H PARENT 15 15 74 49 48 60
REMARK Flexibility Score: inf
ROOT
ATOM      1  C   UNL A   1      32.366  30.244  26.741  1.00  0.00     0.275 C 
ENDROOT
BRANCH   1   2
ATOM      2  O   UNL A   1      32.907  29.350  25.755  1.00  0.00    -0.458 OA
BRANCH   2   3
ATOM      3  C   UNL A   1      31.991  29.047  24.808  1.00  0.00     0.338 C 
ATOM      4  O   UNL A   1      31.123  29.799  24.399  1.00  0.00    -0.246 OA
BRANCH   3   5
ATOM      5  C   UNL A   1      32.037  27.663  24.329  1.00  0.00     0.062 A 
ATOM      6  C   UNL A   1      31.480  25.424  25.060  1.00  0.00     0.045 A 
ATOM      7  C   UNL A   1      31.959  26.701  25.339  1.00  0.00     0.042 A 
ATOM      8  C   UNL A   1      31.269  25.042  23.718  1.00  0.00    -0.027 A 
ATOM      9  C   UNL A   1      31.429  26.009  22.699  1.00  0.00     0.006 A 
ATOM     10  C   UNL A   1      30.656  23.721  23.331  1.00  0.00     0.046 C 
ATOM     11  C   UNL A   1      31.784  27.330  23.002  1.00  0.00     0.016 A 
BRANCH   6  12
ATOM     12  N   UNL A   1      31.101  24.570  26.115  1.00  0.00    -0.322 N 
ATOM     13  C   UNL A   1      31.631  23.355  26.530  1.00  0.00     0.259 C 
ATOM     14  O   UNL A   1      30.991  22.692  27.349  1.00  0.00    -0.269 OA
ATOM     15  H   UNL A   1      30.334  24.887  26.646  1.00  0.00     0.170 HD
BRANCH  13  16
ATOM     16  C   UNL A   1      32.971  22.842  26.104  1.00  0.00     0.082 A 
ATOM     17  C   UNL A   1      33.186  21.605  25.500  1.00  0.00     0.132 A 
ATOM     18  C   UNL A   1      34.484  21.107  25.422  1.00  0.00     0.056 A 
ATOM     19  C   UNL A   1      35.603  21.896  25.690  1.00  0.00    -0.015 A 
ATOM     20  C   UNL A   1      34.091  23.678  26.312  1.00  0.00     0.026 A 
ATOM     21  C   UNL A   1      36.900  21.384  25.544  1.00  0.00     0.009 A 
ATOM     22  C   UNL A   1      35.410  23.238  26.047  1.00  0.00    -0.017 A 
ATOM     23  C   UNL A   1      38.008  22.223  25.589  1.00  0.00     0.001 A 
ATOM     24  C   UNL A   1      36.544  24.071  26.122  1.00  0.00     0.009 A 
ATOM     25  C   UNL A   1      37.827  23.573  25.856  1.00  0.00     0.001 A 
BRANCH  17  26
ATOM     26  O   UNL A   1      32.220  20.754  25.034  1.00  0.00    -0.496 OA
ATOM     27  C   UNL A   1      32.307  20.549  23.627  1.00  0.00     0.278 C 
ENDBRANCH  17  26
ENDBRANCH  13  16
ENDBRANCH   6  12
ENDBRANCH   3   5
ENDBRANCH   2   3
ENDBRANCH   1   2
BRANCH   1  28
ATOM     28  C   UNL A   1      33.445  30.977  27.528  1.00  0.00     0.275 C 
BRANCH  28  29
ATOM     29  O   UNL A   1      34.737  30.334  27.689  1.00  0.00    -0.458 OA
BRANCH  29  30
ATOM     30  C   UNL A   1      35.964  30.866  27.886  1.00  0.00     0.338 C 
ATOM     31  O   UNL A   1      36.119  32.085  27.913  1.00  0.00    -0.246 OA
BRANCH  30  32
ATOM     32  C   UNL A   1      37.153  29.993  28.015  1.00  0.00     0.060 A 
ATOM     33  C   UNL A   1      37.262  29.150  29.141  1.00  0.00     0.016 A 
ATOM     34  C   UNL A   1      38.180  30.024  27.080  1.00  0.00     0.016 A 
ATOM     35  C   UNL A   1      38.389  28.339  29.325  1.00  0.00     0.010 A 
ATOM     36  C   UNL A   1      39.239  29.143  27.202  1.00  0.00     0.010 A 
ATOM     37  C   UNL A   1      39.388  28.347  28.353  1.00  0.00    -0.014 A 
BRANCH  37  38
ATOM     38  C   UNL A   1      40.755  27.843  28.536  1.00  0.00     0.031 A 
ATOM     39  C   UNL A   1      41.212  26.490  28.167  1.00  0.00     0.074 A 
ATOM     40  C   UNL A   1      41.611  28.799  28.945  1.00  0.00     0.049 A 
ATOM     41  N   UNL A   1      42.175  26.223  27.339  1.00  0.00    -0.248 NA
ATOM     42  C   UNL A   1      40.557  25.308  28.738  1.00  0.00     0.031 C 
ATOM     43  C   UNL A   1      43.056  28.798  28.995  1.00  0.00     0.029 A 
ATOM     44  N   UNL A   1      41.232  29.936  29.675  1.00  0.00    -0.354 N 
ATOM     45  C   UNL A   1      42.306  24.838  27.287  1.00  0.00     0.074 A 
ATOM     46  C   UNL A   1      41.222  24.323  28.127  1.00  0.00     0.031 C 
ATOM     47  C   UNL A   1      43.437  29.652  29.964  1.00  0.00     0.029 A 
ATOM     48  C   UNL A   1      42.225  30.104  30.645  1.00  0.00     0.049 A 
ATOM     49  H   UNL A   1      40.435  30.496  29.534  1.00  0.00     0.167 HD
ATOM     50  C   UNL A   1      43.528  24.254  27.438  1.00  0.00     0.037 A 
ATOM     51  C   UNL A   1      41.903  29.829  31.945  1.00  0.00     0.037 A 
ATOM     52  C   UNL A   1      44.339  24.938  28.410  1.00  0.00     0.049 A 
ATOM     53  C   UNL A   1      42.670  28.638  32.463  1.00  0.00     0.074 A 
ATOM     54  C   UNL A   1      45.265  25.960  28.342  1.00  0.00     0.029 A 
ATOM     55  N   UNL A   1      44.024  24.764  29.746  1.00  0.00    -0.354 N 
ATOM     56  N   UNL A   1      43.064  27.640  31.720  1.00  0.00    -0.248 NA
ATOM     57  C   UNL A   1      43.088  28.512  33.854  1.00  0.00     0.031 C 
ATOM     58  C   UNL A   1      45.441  26.464  29.656  1.00  0.00     0.029 A 
ATOM     59  C   UNL A   1      44.647  25.721  30.514  1.00  0.00     0.049 A 
ATOM     60  H   UNL A   1      43.438  24.056  30.097  1.00  0.00     0.167 HD
ATOM     61  C   UNL A   1      43.840  26.803  32.478  1.00  0.00     0.074 A 
ATOM     62  C   UNL A   1      43.801  27.373  33.811  1.00  0.00     0.031 C 
ATOM     63  C   UNL A   1      44.483  25.721  31.954  1.00  0.00     0.037 A 
BRANCH  50  64
ATOM     64  C   UNL A   1      43.995  23.421  26.280  1.00  0.00     0.057 A 
ATOM     65  C   UNL A   1      43.740  22.043  26.188  1.00  0.00     0.134 A 
ATOM     66  C   UNL A   1      44.741  23.969  25.218  1.00  0.00     0.134 A 
ATOM     67  F   UNL A   1      43.008  21.403  27.110  1.00  0.00    -0.206 F 
ATOM     68  C   UNL A   1      44.241  21.254  25.144  1.00  0.00     0.040 A 
ATOM     69  C   UNL A   1      45.254  23.189  24.172  1.00  0.00     0.040 A 
ATOM     70  F   UNL A   1      44.981  25.288  25.153  1.00  0.00    -0.206 F 
ATOM     71  C   UNL A   1      45.012  21.821  24.138  1.00  0.00     0.006 A 
ENDBRANCH  50  64
BRANCH  51  72
ATOM     72  C   UNL A   1      40.493  30.171  32.318  1.00  0.00     0.057 A 
ATOM     73  C   UNL A   1      39.565  29.126  32.510  1.00  0.00     0.134 A 
ATOM     74  C   UNL A   1      40.095  31.439  32.752  1.00  0.00     0.134 A 
ATOM     75  F   UNL A   1      39.868  27.877  32.116  1.00  0.00    -0.206 F 
ATOM     76  C   UNL A   1      38.354  29.308  33.183  1.00  0.00     0.040 A 
ATOM     77  C   UNL A   1      38.869  31.640  33.409  1.00  0.00     0.040 A 
ATOM     78  F   UNL A   1      40.909  32.497  32.622  1.00  0.00    -0.206 F 
ATOM     79  C   UNL A   1      38.012  30.569  33.656  1.00  0.00     0.006 A 
ENDBRANCH  51  72
BRANCH  63  80
ATOM     80  C   UNL A   1      45.096  24.600  32.749  1.00  0.00     0.057 A 
ATOM     81  C   UNL A   1      46.302  24.723  33.452  1.00  0.00     0.134 A 
ATOM     82  C   UNL A   1      44.380  23.404  32.984  1.00  0.00     0.134 A 
ATOM     83  F   UNL A   1      47.021  25.854  33.416  1.00  0.00    -0.206 F 
ATOM     84  C   UNL A   1      46.793  23.708  34.281  1.00  0.00     0.040 A 
ATOM     85  C   UNL A   1      44.832  22.409  33.853  1.00  0.00     0.040 A 
ATOM     86  F   UNL A   1      43.192  23.167  32.408  1.00  0.00    -0.206 F 
ATOM     87  C   UNL A   1      46.052  22.552  34.494  1.00  0.00     0.006 A 
ENDBRANCH  63  80
ENDBRANCH  37  38
ENDBRANCH  30  32
ENDBRANCH  29  30
ENDBRANCH  28  29
ENDBRANCH   1  28
TORSDOF 14
ENDMDL
