MODEL 1
REMARK VINA RESULT:     -11.5      0.000      0.000
REMARK SMILES O=C(OCCOC(=O)[C@H]1Cc2[nH]cnc2CN1C(=O)N1CCC[C@H](O)C1)c1ccc(-c2c3nc(c(-c4c(F)cccc4F)c4ccc([nH]4)c(-c4c(F)cccc4F)c4nc(c(-c5c(F)cccc5F)c5ccc2[nH]5)C=C4)C=C3)cc1
REMARK SMILES IDX 5 1 4 2 3 3 2 4 1 5 27 6 28 7 80 8 29 9 79 10 30 11 31 12
REMARK SMILES IDX 32 13 73 14 33 15 78 16 72 17 74 18 34 19 77 20 71 21 70 22
REMARK SMILES IDX 35 24 61 25 44 26 60 27 45 28 48 29 59 30 75 31 46 32 47 33
REMARK SMILES IDX 58 35 76 36 49 37 36 38 37 39 42 40 38 41 39 42 41 43 43 44
REMARK SMILES IDX 40 45 62 46 63 47 68 48 64 49 65 50 67 51 69 52 66 53 50 54
REMARK SMILES IDX 51 55 56 56 52 57 53 58 55 59 57 60 54 61 6 62 7 63 8 64
REMARK SMILES IDX 9 65 10 66 17 67 11 68 16 69 12 70 15 71 13 72 14 74 18 75
REMARK SMILES IDX 19 76 20 77 21 78 26 79 22 80 24 81 23 82 25 83
REMARK H PARENT 74 23 48 34 12 73 25 84
REMARK Flexibility Score: inf
ROOT
ATOM      1  C   UNL A   1      36.801  21.718  25.283  1.00  0.00     0.274 C 
ENDROOT
BRANCH   1   2
ATOM      2  C   UNL A   1      38.307  21.711  25.476  1.00  0.00     0.275 C 
BRANCH   2   3
ATOM      3  O   UNL A   1      38.701  22.717  26.427  1.00  0.00    -0.458 OA
BRANCH   3   4
ATOM      4  C   UNL A   1      39.900  22.826  27.024  1.00  0.00     0.338 C 
ATOM      5  O   UNL A   1      40.406  21.852  27.595  1.00  0.00    -0.246 OA
BRANCH   4   6
ATOM      6  C   UNL A   1      40.600  24.113  27.166  1.00  0.00     0.060 A 
ATOM      7  C   UNL A   1      41.434  24.354  28.256  1.00  0.00     0.016 A 
ATOM      8  C   UNL A   1      40.089  25.190  26.418  1.00  0.00     0.016 A 
ATOM      9  C   UNL A   1      41.621  25.667  28.662  1.00  0.00     0.010 A 
ATOM     10  C   UNL A   1      40.311  26.495  26.787  1.00  0.00     0.010 A 
ATOM     11  C   UNL A   1      40.974  26.707  27.976  1.00  0.00    -0.014 A 
BRANCH  11  12
ATOM     12  C   UNL A   1      40.946  28.020  28.583  1.00  0.00     0.031 A 
ATOM     13  C   UNL A   1      42.107  28.857  28.247  1.00  0.00     0.074 A 
ATOM     14  C   UNL A   1      39.947  28.461  29.369  1.00  0.00     0.049 A 
ATOM     15  N   UNL A   1      43.156  29.055  28.970  1.00  0.00    -0.248 NA
ATOM     16  C   UNL A   1      42.191  29.383  26.881  1.00  0.00     0.031 C 
ATOM     17  C   UNL A   1      38.598  27.922  29.554  1.00  0.00     0.029 A 
ATOM     18  N   UNL A   1      39.947  29.571  30.154  1.00  0.00    -0.354 N 
ATOM     19  C   UNL A   1      43.954  29.918  28.231  1.00  0.00     0.074 A 
ATOM     20  C   UNL A   1      43.414  29.914  26.895  1.00  0.00     0.031 C 
ATOM     21  C   UNL A   1      37.853  28.820  30.243  1.00  0.00     0.029 A 
ATOM     22  C   UNL A   1      38.709  29.913  30.671  1.00  0.00     0.049 A 
ATOM     23  H   UNL A   1      40.763  30.089  30.340  1.00  0.00     0.167 HD
ATOM     24  C   UNL A   1      44.830  30.753  28.851  1.00  0.00     0.037 A 
ATOM     25  C   UNL A   1      38.425  31.052  31.349  1.00  0.00     0.037 A 
ATOM     26  C   UNL A   1      45.081  30.329  30.211  1.00  0.00     0.049 A 
ATOM     27  C   UNL A   1      39.708  31.597  31.868  1.00  0.00     0.074 A 
ATOM     28  C   UNL A   1      45.558  29.171  30.799  1.00  0.00     0.029 A 
ATOM     29  N   UNL A   1      44.478  31.031  31.228  1.00  0.00    -0.354 N 
ATOM     30  N   UNL A   1      40.407  31.038  32.817  1.00  0.00    -0.248 NA
ATOM     31  C   UNL A   1      40.445  32.526  31.022  1.00  0.00     0.031 C 
ATOM     32  C   UNL A   1      44.798  29.019  31.998  1.00  0.00     0.029 A 
ATOM     33  C   UNL A   1      43.940  30.114  32.094  1.00  0.00     0.049 A 
ATOM     34  H   UNL A   1      44.439  32.010  31.317  1.00  0.00     0.167 HD
ATOM     35  C   UNL A   1      41.731  31.206  32.433  1.00  0.00     0.074 A 
ATOM     36  C   UNL A   1      41.695  32.210  31.373  1.00  0.00     0.031 C 
ATOM     37  C   UNL A   1      42.698  30.314  32.806  1.00  0.00     0.037 A 
BRANCH  24  38
ATOM     38  C   UNL A   1      45.136  32.155  28.374  1.00  0.00     0.057 A 
ATOM     39  C   UNL A   1      46.477  32.510  28.142  1.00  0.00     0.134 A 
ATOM     40  C   UNL A   1      44.234  33.239  28.421  1.00  0.00     0.134 A 
ATOM     41  F   UNL A   1      47.434  31.573  28.061  1.00  0.00    -0.206 F 
ATOM     42  C   UNL A   1      46.901  33.842  28.079  1.00  0.00     0.040 A 
ATOM     43  C   UNL A   1      44.640  34.569  28.307  1.00  0.00     0.040 A 
ATOM     44  F   UNL A   1      42.930  33.091  28.676  1.00  0.00    -0.206 F 
ATOM     45  C   UNL A   1      45.982  34.878  28.177  1.00  0.00     0.006 A 
ENDBRANCH  24  38
BRANCH  25  46
ATOM     46  C   UNL A   1      37.180  31.850  31.308  1.00  0.00     0.057 A 
ATOM     47  C   UNL A   1      36.430  32.089  32.467  1.00  0.00     0.134 A 
ATOM     48  C   UNL A   1      36.844  32.624  30.183  1.00  0.00     0.134 A 
ATOM     49  F   UNL A   1      36.704  31.432  33.603  1.00  0.00    -0.206 F 
ATOM     50  C   UNL A   1      35.420  33.060  32.512  1.00  0.00     0.040 A 
ATOM     51  C   UNL A   1      35.833  33.590  30.212  1.00  0.00     0.040 A 
ATOM     52  F   UNL A   1      37.545  32.536  29.045  1.00  0.00    -0.206 F 
ATOM     53  C   UNL A   1      35.126  33.821  31.385  1.00  0.00     0.006 A 
ENDBRANCH  25  46
BRANCH  37  54
ATOM     54  C   UNL A   1      42.342  29.296  33.854  1.00  0.00     0.057 A 
ATOM     55  C   UNL A   1      41.754  28.054  33.568  1.00  0.00     0.134 A 
ATOM     56  C   UNL A   1      42.738  29.517  35.178  1.00  0.00     0.134 A 
ATOM     57  F   UNL A   1      41.439  27.711  32.313  1.00  0.00    -0.206 F 
ATOM     58  C   UNL A   1      41.524  27.100  34.563  1.00  0.00     0.040 A 
ATOM     59  C   UNL A   1      42.545  28.558  36.175  1.00  0.00     0.040 A 
ATOM     60  F   UNL A   1      43.362  30.657  35.515  1.00  0.00    -0.206 F 
ATOM     61  C   UNL A   1      41.926  27.348  35.871  1.00  0.00     0.006 A 
ENDBRANCH  37  54
ENDBRANCH  11  12
ENDBRANCH   4   6
ENDBRANCH   3   4
ENDBRANCH   2   3
ENDBRANCH   1   2
BRANCH   1  62
ATOM     62  O   UNL A   1      36.279  22.949  25.808  1.00  0.00    -0.461 OA
BRANCH  62  63
ATOM     63  C   UNL A   1      34.932  23.044  25.935  1.00  0.00     0.329 C 
ATOM     64  O   UNL A   1      34.348  23.935  26.574  1.00  0.00    -0.250 OA
BRANCH  63  65
ATOM     65  C   UNL A   1      34.250  21.852  25.289  1.00  0.00     0.203 C 
ATOM     66  C   UNL A   1      33.672  21.021  26.476  1.00  0.00     0.093 C 
ATOM     67  N   UNL A   1      33.254  21.946  24.174  1.00  0.00    -0.304 N 
ATOM     68  C   UNL A   1      33.116  19.772  25.917  1.00  0.00     0.042 A 
ATOM     69  C   UNL A   1      32.898  20.649  23.541  1.00  0.00     0.180 C 
ATOM     70  N   UNL A   1      32.853  18.597  26.550  1.00  0.00    -0.348 N 
ATOM     71  C   UNL A   1      32.765  19.593  24.599  1.00  0.00     0.081 A 
ATOM     72  C   UNL A   1      32.388  17.738  25.588  1.00  0.00     0.197 A 
ATOM     73  H   UNL A   1      32.972  18.402  27.507  1.00  0.00     0.167 HD
ATOM     74  N   UNL A   1      32.335  18.307  24.399  1.00  0.00    -0.240 NA
BRANCH  67  75
ATOM     75  C   UNL A   1      32.780  23.088  23.559  1.00  0.00     0.321 C 
ATOM     76  O   UNL A   1      32.983  23.330  22.368  1.00  0.00    -0.248 OA
BRANCH  75  77
ATOM     77  N   UNL A   1      32.010  23.937  24.329  1.00  0.00    -0.322 N 
ATOM     78  C   UNL A   1      31.476  25.145  23.719  1.00  0.00     0.121 C 
ATOM     79  C   UNL A   1      30.982  23.278  25.126  1.00  0.00     0.153 C 
ATOM     80  C   UNL A   1      31.158  26.185  24.772  1.00  0.00     0.024 C 
ATOM     81  C   UNL A   1      30.482  24.175  26.264  1.00  0.00     0.134 C 
ATOM     82  C   UNL A   1      30.255  25.648  25.878  1.00  0.00     0.035 C 
BRANCH  81  83
ATOM     83  O   UNL A   1      31.398  24.101  27.356  1.00  0.00    -0.391 OA
ATOM     84  H   UNL A   1      31.073  23.461  28.009  1.00  0.00     0.211 HD
ENDBRANCH  81  83
ENDBRANCH  75  77
ENDBRANCH  67  75
ENDBRANCH  63  65
ENDBRANCH  62  63
ENDBRANCH   1  62
TORSDOF 14
ENDMDL
MODEL 2
REMARK VINA RESULT:     -11.4      3.700      7.828
REMARK SMILES O=C(OCCOC(=O)[C@H]1Cc2[nH]cnc2CN1C(=O)N1CCC[C@H](O)C1)c1ccc(-c2c3nc(c(-c4c(F)cccc4F)c4ccc([nH]4)c(-c4c(F)cccc4F)c4nc(c(-c5c(F)cccc5F)c5ccc2[nH]5)C=C4)C=C3)cc1
REMARK SMILES IDX 5 1 4 2 3 3 2 4 1 5 27 6 28 7 80 8 29 9 79 10 30 11 31 12
REMARK SMILES IDX 32 13 73 14 33 15 78 16 72 17 74 18 34 19 77 20 71 21 70 22
REMARK SMILES IDX 35 24 61 25 44 26 60 27 45 28 48 29 59 30 75 31 46 32 47 33
REMARK SMILES IDX 58 35 76 36 49 37 36 38 37 39 42 40 38 41 39 42 41 43 43 44
REMARK SMILES IDX 40 45 62 46 63 47 68 48 64 49 65 50 67 51 69 52 66 53 50 54
REMARK SMILES IDX 51 55 56 56 52 57 53 58 55 59 57 60 54 61 6 62 7 63 8 64
REMARK SMILES IDX 9 65 10 66 17 67 11 68 16 69 12 70 15 71 13 72 14 74 18 75
REMARK SMILES IDX 19 76 20 77 21 78 26 79 22 80 24 81 23 82 25 83
REMARK H PARENT 74 23 48 34 12 73 25 84
REMARK Flexibility Score: inf
ROOT
ATOM      1  C   UNL A   1      33.763  29.767  26.757  1.00  0.00     0.274 C 
ENDROOT
BRANCH   1   2
ATOM      2  C   UNL A   1      34.957  29.165  27.477  1.00  0.00     0.275 C 
BRANCH   2   3
ATOM      3  O   UNL A   1      35.525  30.113  28.399  1.00  0.00    -0.458 OA
BRANCH   3   4
ATOM      4  C   UNL A   1      36.730  30.031  28.989  1.00  0.00     0.338 C 
ATOM      5  O   UNL A   1      37.047  30.830  29.878  1.00  0.00    -0.246 OA
BRANCH   4   6
ATOM      6  C   UNL A   1      37.777  29.107  28.524  1.00  0.00     0.060 A 
ATOM      7  C   UNL A   1      38.366  28.199  29.402  1.00  0.00     0.016 A 
ATOM      8  C   UNL A   1      38.426  29.449  27.323  1.00  0.00     0.016 A 
ATOM      9  C   UNL A   1      39.654  27.764  29.129  1.00  0.00     0.010 A 
ATOM     10  C   UNL A   1      39.683  28.982  27.024  1.00  0.00     0.010 A 
ATOM     11  C   UNL A   1      40.326  28.242  27.993  1.00  0.00    -0.014 A 
BRANCH  11  12
ATOM     12  C   UNL A   1      41.750  28.011  27.885  1.00  0.00     0.031 A 
ATOM     13  C   UNL A   1      42.100  26.762  27.193  1.00  0.00     0.074 A 
ATOM     14  C   UNL A   1      42.684  28.859  28.351  1.00  0.00     0.049 A 
ATOM     15  N   UNL A   1      42.428  25.639  27.736  1.00  0.00    -0.248 NA
ATOM     16  C   UNL A   1      41.881  26.705  25.745  1.00  0.00     0.031 C 
ATOM     17  C   UNL A   1      42.553  30.257  28.765  1.00  0.00     0.029 A 
ATOM     18  N   UNL A   1      44.014  28.617  28.498  1.00  0.00    -0.354 N 
ATOM     19  C   UNL A   1      42.671  24.776  26.677  1.00  0.00     0.074 A 
ATOM     20  C   UNL A   1      42.125  25.416  25.507  1.00  0.00     0.031 C 
ATOM     21  C   UNL A   1      43.788  30.791  28.925  1.00  0.00     0.029 A 
ATOM     22  C   UNL A   1      44.778  29.739  28.773  1.00  0.00     0.049 A 
ATOM     23  H   UNL A   1      44.402  27.717  28.414  1.00  0.00     0.167 HD
ATOM     24  C   UNL A   1      43.529  23.730  26.819  1.00  0.00     0.037 A 
ATOM     25  C   UNL A   1      46.133  29.780  28.811  1.00  0.00     0.037 A 
ATOM     26  C   UNL A   1      43.772  23.441  28.216  1.00  0.00     0.049 A 
ATOM     27  C   UNL A   1      46.619  28.389  29.009  1.00  0.00     0.074 A 
ATOM     28  C   UNL A   1      42.973  23.109  29.295  1.00  0.00     0.029 A 
ATOM     29  N   UNL A   1      44.970  23.840  28.759  1.00  0.00    -0.354 N 
ATOM     30  N   UNL A   1      46.469  27.714  30.115  1.00  0.00    -0.248 NA
ATOM     31  C   UNL A   1      46.880  27.584  27.823  1.00  0.00     0.031 C 
ATOM     32  C   UNL A   1      43.554  23.784  30.412  1.00  0.00     0.029 A 
ATOM     33  C   UNL A   1      44.695  24.446  29.957  1.00  0.00     0.049 A 
ATOM     34  H   UNL A   1      45.862  23.714  28.361  1.00  0.00     0.167 HD
ATOM     35  C   UNL A   1      46.192  26.415  29.707  1.00  0.00     0.074 A 
ATOM     36  C   UNL A   1      46.552  26.377  28.292  1.00  0.00     0.031 C 
ATOM     37  C   UNL A   1      45.430  25.578  30.473  1.00  0.00     0.037 A 
BRANCH  24  38
ATOM     38  C   UNL A   1      44.450  23.243  25.724  1.00  0.00     0.057 A 
ATOM     39  C   UNL A   1      44.546  21.860  25.489  1.00  0.00     0.134 A 
ATOM     40  C   UNL A   1      45.452  24.021  25.105  1.00  0.00     0.134 A 
ATOM     41  F   UNL A   1      43.648  21.008  26.008  1.00  0.00    -0.206 F 
ATOM     42  C   UNL A   1      45.617  21.288  24.793  1.00  0.00     0.040 A 
ATOM     43  C   UNL A   1      46.496  23.465  24.365  1.00  0.00     0.040 A 
ATOM     44  F   UNL A   1      45.543  25.346  25.256  1.00  0.00    -0.206 F 
ATOM     45  C   UNL A   1      46.606  22.091  24.241  1.00  0.00     0.006 A 
ENDBRANCH  24  38
BRANCH  25  46
ATOM     46  C   UNL A   1      47.022  30.881  28.378  1.00  0.00     0.057 A 
ATOM     47  C   UNL A   1      47.021  31.340  27.054  1.00  0.00     0.134 A 
ATOM     48  C   UNL A   1      47.693  31.690  29.312  1.00  0.00     0.134 A 
ATOM     49  F   UNL A   1      46.371  30.660  26.099  1.00  0.00    -0.206 F 
ATOM     50  C   UNL A   1      47.632  32.546  26.684  1.00  0.00     0.040 A 
ATOM     51  C   UNL A   1      48.314  32.892  28.955  1.00  0.00     0.040 A 
ATOM     52  F   UNL A   1      47.691  31.390  30.618  1.00  0.00    -0.206 F 
ATOM     53  C   UNL A   1      48.272  33.330  27.639  1.00  0.00     0.006 A 
ENDBRANCH  25  46
BRANCH  37  54
ATOM     54  C   UNL A   1      45.122  26.005  31.882  1.00  0.00     0.057 A 
ATOM     55  C   UNL A   1      43.979  26.735  32.243  1.00  0.00     0.134 A 
ATOM     56  C   UNL A   1      45.931  25.542  32.925  1.00  0.00     0.134 A 
ATOM     57  F   UNL A   1      43.090  27.129  31.321  1.00  0.00    -0.206 F 
ATOM     58  C   UNL A   1      43.684  27.033  33.576  1.00  0.00     0.040 A 
ATOM     59  C   UNL A   1      45.629  25.804  34.264  1.00  0.00     0.040 A 
ATOM     60  F   UNL A   1      47.008  24.786  32.660  1.00  0.00    -0.206 F 
ATOM     61  C   UNL A   1      44.508  26.561  34.593  1.00  0.00     0.006 A 
ENDBRANCH  37  54
ENDBRANCH  11  12
ENDBRANCH   4   6
ENDBRANCH   3   4
ENDBRANCH   2   3
ENDBRANCH   1   2
BRANCH   1  62
ATOM     62  O   UNL A   1      32.838  28.713  26.448  1.00  0.00    -0.461 OA
BRANCH  62  63
ATOM     63  C   UNL A   1      32.891  28.194  25.195  1.00  0.00     0.329 C 
ATOM     64  O   UNL A   1      33.914  27.724  24.672  1.00  0.00    -0.250 OA
BRANCH  63  65
ATOM     65  C   UNL A   1      31.560  28.374  24.488  1.00  0.00     0.203 C 
ATOM     66  C   UNL A   1      31.904  29.098  23.150  1.00  0.00     0.093 C 
ATOM     67  N   UNL A   1      30.568  27.275  24.255  1.00  0.00    -0.304 N 
ATOM     68  C   UNL A   1      30.630  29.426  22.479  1.00  0.00     0.042 A 
ATOM     69  C   UNL A   1      29.240  27.725  23.759  1.00  0.00     0.180 C 
ATOM     70  N   UNL A   1      30.388  30.353  21.514  1.00  0.00    -0.348 N 
ATOM     71  C   UNL A   1      29.426  28.815  22.745  1.00  0.00     0.081 A 
ATOM     72  C   UNL A   1      29.042  30.298  21.257  1.00  0.00     0.197 A 
ATOM     73  H   UNL A   1      31.047  30.946  21.085  1.00  0.00     0.167 HD
ATOM     74  N   UNL A   1      28.434  29.389  21.993  1.00  0.00    -0.240 NA
BRANCH  67  75
ATOM     75  C   UNL A   1      30.678  25.947  24.615  1.00  0.00     0.321 C 
ATOM     76  O   UNL A   1      29.909  25.413  25.417  1.00  0.00    -0.248 OA
BRANCH  75  77
ATOM     77  N   UNL A   1      31.667  25.213  23.992  1.00  0.00    -0.322 N 
ATOM     78  C   UNL A   1      31.957  23.873  24.479  1.00  0.00     0.121 C 
ATOM     79  C   UNL A   1      31.607  25.217  22.535  1.00  0.00     0.153 C 
ATOM     80  C   UNL A   1      33.357  23.449  24.090  1.00  0.00     0.024 C 
ATOM     81  C   UNL A   1      32.939  24.788  21.910  1.00  0.00     0.134 C 
ATOM     82  C   UNL A   1      33.623  23.591  22.594  1.00  0.00     0.035 C 
BRANCH  81  83
ATOM     83  O   UNL A   1      33.830  25.904  21.892  1.00  0.00    -0.391 OA
ATOM     84  H   UNL A   1      34.387  25.886  22.686  1.00  0.00     0.211 HD
ENDBRANCH  81  83
ENDBRANCH  75  77
ENDBRANCH  67  75
ENDBRANCH  63  65
ENDBRANCH  62  63
ENDBRANCH   1  62
TORSDOF 14
ENDMDL
MODEL 3
REMARK VINA RESULT:     -11.4      3.889      7.582
REMARK SMILES O=C(OCCOC(=O)[C@H]1Cc2[nH]cnc2CN1C(=O)N1CCC[C@H](O)C1)c1ccc(-c2c3nc(c(-c4c(F)cccc4F)c4ccc([nH]4)c(-c4c(F)cccc4F)c4nc(c(-c5c(F)cccc5F)c5ccc2[nH]5)C=C4)C=C3)cc1
REMARK SMILES IDX 5 1 4 2 3 3 2 4 1 5 27 6 28 7 80 8 29 9 79 10 30 11 31 12
REMARK SMILES IDX 32 13 73 14 33 15 78 16 72 17 74 18 34 19 77 20 71 21 70 22
REMARK SMILES IDX 35 24 61 25 44 26 60 27 45 28 48 29 59 30 75 31 46 32 47 33
REMARK SMILES IDX 58 35 76 36 49 37 36 38 37 39 42 40 38 41 39 42 41 43 43 44
REMARK SMILES IDX 40 45 62 46 63 47 68 48 64 49 65 50 67 51 69 52 66 53 50 54
REMARK SMILES IDX 51 55 56 56 52 57 53 58 55 59 57 60 54 61 6 62 7 63 8 64
REMARK SMILES IDX 9 65 10 66 17 67 11 68 16 69 12 70 15 71 13 72 14 74 18 75
REMARK SMILES IDX 19 76 20 77 21 78 26 79 22 80 24 81 23 82 25 83
REMARK H PARENT 74 23 48 34 12 73 25 84
REMARK Flexibility Score: inf
ROOT
ATOM      1  C   UNL A   1      34.735  29.479  27.357  1.00  0.00     0.274 C 
ENDROOT
BRANCH   1   2
ATOM      2  C   UNL A   1      35.038  30.881  27.854  1.00  0.00     0.275 C 
BRANCH   2   3
ATOM      3  O   UNL A   1      36.301  30.913  28.544  1.00  0.00    -0.458 OA
BRANCH   3   4
ATOM      4  C   UNL A   1      36.808  29.947  29.327  1.00  0.00     0.338 C 
ATOM      5  O   UNL A   1      36.501  29.886  30.524  1.00  0.00    -0.246 OA
BRANCH   4   6
ATOM      6  C   UNL A   1      37.850  29.017  28.863  1.00  0.00     0.060 A 
ATOM      7  C   UNL A   1      38.504  28.176  29.761  1.00  0.00     0.016 A 
ATOM      8  C   UNL A   1      38.427  29.296  27.610  1.00  0.00     0.016 A 
ATOM      9  C   UNL A   1      39.786  27.749  29.445  1.00  0.00     0.010 A 
ATOM     10  C   UNL A   1      39.676  28.837  27.272  1.00  0.00     0.010 A 
ATOM     11  C   UNL A   1      40.386  28.170  28.247  1.00  0.00    -0.014 A 
BRANCH  11  12
ATOM     12  C   UNL A   1      41.807  27.960  28.076  1.00  0.00     0.031 A 
ATOM     13  C   UNL A   1      42.143  26.724  27.355  1.00  0.00     0.074 A 
ATOM     14  C   UNL A   1      42.749  28.815  28.513  1.00  0.00     0.049 A 
ATOM     15  N   UNL A   1      42.509  25.599  27.870  1.00  0.00    -0.248 NA
ATOM     16  C   UNL A   1      41.864  26.681  25.916  1.00  0.00     0.031 C 
ATOM     17  C   UNL A   1      42.616  30.206  28.950  1.00  0.00     0.029 A 
ATOM     18  N   UNL A   1      44.087  28.590  28.600  1.00  0.00    -0.354 N 
ATOM     19  C   UNL A   1      42.719  24.752  26.790  1.00  0.00     0.074 A 
ATOM     20  C   UNL A   1      42.115  25.398  25.653  1.00  0.00     0.031 C 
ATOM     21  C   UNL A   1      43.849  30.755  29.064  1.00  0.00     0.029 A 
ATOM     22  C   UNL A   1      44.847  29.718  28.857  1.00  0.00     0.049 A 
ATOM     23  H   UNL A   1      44.483  27.696  28.489  1.00  0.00     0.167 HD
ATOM     24  C   UNL A   1      43.596  23.717  26.882  1.00  0.00     0.037 A 
ATOM     25  C   UNL A   1      46.201  29.778  28.838  1.00  0.00     0.037 A 
ATOM     26  C   UNL A   1      43.901  23.414  28.264  1.00  0.00     0.049 A 
ATOM     27  C   UNL A   1      46.714  28.391  28.998  1.00  0.00     0.074 A 
ATOM     28  C   UNL A   1      43.154  23.059  29.372  1.00  0.00     0.029 A 
ATOM     29  N   UNL A   1      45.117  23.823  28.761  1.00  0.00    -0.354 N 
ATOM     30  N   UNL A   1      46.619  27.701  30.100  1.00  0.00    -0.248 NA
ATOM     31  C   UNL A   1      46.935  27.604  27.792  1.00  0.00     0.031 C 
ATOM     32  C   UNL A   1      43.773  23.728  30.471  1.00  0.00     0.029 A 
ATOM     33  C   UNL A   1      44.884  24.411  29.978  1.00  0.00     0.049 A 
ATOM     34  H   UNL A   1      45.992  23.714  28.324  1.00  0.00     0.167 HD
ATOM     35  C   UNL A   1      46.343  26.404  29.689  1.00  0.00     0.074 A 
ATOM     36  C   UNL A   1      46.643  26.387  28.260  1.00  0.00     0.031 C 
ATOM     37  C   UNL A   1      45.626  25.547  30.476  1.00  0.00     0.037 A 
BRANCH  24  38
ATOM     38  C   UNL A   1      44.476  23.256  25.743  1.00  0.00     0.057 A 
ATOM     39  C   UNL A   1      44.567  21.878  25.477  1.00  0.00     0.134 A 
ATOM     40  C   UNL A   1      45.451  24.050  25.103  1.00  0.00     0.134 A 
ATOM     41  F   UNL A   1      43.692  21.013  26.013  1.00  0.00    -0.206 F 
ATOM     42  C   UNL A   1      45.613  21.325  24.729  1.00  0.00     0.040 A 
ATOM     43  C   UNL A   1      46.468  23.513  24.313  1.00  0.00     0.040 A 
ATOM     44  F   UNL A   1      45.544  25.372  25.278  1.00  0.00    -0.206 F 
ATOM     45  C   UNL A   1      46.577  22.142  24.156  1.00  0.00     0.006 A 
ENDBRANCH  24  38
BRANCH  25  46
ATOM     46  C   UNL A   1      47.056  30.896  28.382  1.00  0.00     0.057 A 
ATOM     47  C   UNL A   1      47.029  31.338  27.053  1.00  0.00     0.134 A 
ATOM     48  C   UNL A   1      47.716  31.734  29.298  1.00  0.00     0.134 A 
ATOM     49  F   UNL A   1      46.386  30.630  26.113  1.00  0.00    -0.206 F 
ATOM     50  C   UNL A   1      47.603  32.555  26.661  1.00  0.00     0.040 A 
ATOM     51  C   UNL A   1      48.301  32.947  28.919  1.00  0.00     0.040 A 
ATOM     52  F   UNL A   1      47.737  31.450  30.608  1.00  0.00    -0.206 F 
ATOM     53  C   UNL A   1      48.233  33.368  27.599  1.00  0.00     0.006 A 
ENDBRANCH  25  46
BRANCH  37  54
ATOM     54  C   UNL A   1      45.372  25.953  31.901  1.00  0.00     0.057 A 
ATOM     55  C   UNL A   1      46.284  25.743  32.947  1.00  0.00     0.134 A 
ATOM     56  C   UNL A   1      44.233  26.710  32.200  1.00  0.00     0.134 A 
ATOM     57  F   UNL A   1      47.451  25.122  32.732  1.00  0.00    -0.206 F 
ATOM     58  C   UNL A   1      46.047  26.218  34.240  1.00  0.00     0.040 A 
ATOM     59  C   UNL A   1      44.001  27.220  33.480  1.00  0.00     0.040 A 
ATOM     60  F   UNL A   1      43.346  27.004  31.237  1.00  0.00    -0.206 F 
ATOM     61  C   UNL A   1      44.905  26.965  34.508  1.00  0.00     0.006 A 
ENDBRANCH  37  54
ENDBRANCH  11  12
ENDBRANCH   4   6
ENDBRANCH   3   4
ENDBRANCH   2   3
ENDBRANCH   1   2
BRANCH   1  62
ATOM     62  O   UNL A   1      33.820  29.574  26.253  1.00  0.00    -0.461 OA
BRANCH  62  63
ATOM     63  C   UNL A   1      32.555  29.130  26.460  1.00  0.00     0.329 C 
ATOM     64  O   UNL A   1      31.728  29.685  27.202  1.00  0.00    -0.250 OA
BRANCH  63  65
ATOM     65  C   UNL A   1      32.334  27.806  25.752  1.00  0.00     0.203 C 
ATOM     66  C   UNL A   1      31.295  27.043  26.631  1.00  0.00     0.093 C 
ATOM     67  N   UNL A   1      32.000  27.667  24.298  1.00  0.00    -0.304 N 
ATOM     68  C   UNL A   1      31.143  25.687  26.066  1.00  0.00     0.042 A 
ATOM     69  C   UNL A   1      32.062  26.278  23.770  1.00  0.00     0.180 C 
ATOM     70  N   UNL A   1      30.666  24.562  26.664  1.00  0.00    -0.348 N 
ATOM     71  C   UNL A   1      31.486  25.331  24.781  1.00  0.00     0.081 A 
ATOM     72  C   UNL A   1      30.770  23.559  25.735  1.00  0.00     0.197 A 
ATOM     73  H   UNL A   1      30.315  24.484  27.580  1.00  0.00     0.167 HD
ATOM     74  N   UNL A   1      31.272  23.990  24.595  1.00  0.00    -0.240 NA
BRANCH  67  75
ATOM     75  C   UNL A   1      31.828  28.675  23.370  1.00  0.00     0.321 C 
ATOM     76  O   UNL A   1      32.748  29.086  22.661  1.00  0.00    -0.248 OA
BRANCH  75  77
ATOM     77  N   UNL A   1      30.550  29.178  23.228  1.00  0.00    -0.322 N 
ATOM     78  C   UNL A   1      29.423  28.265  23.335  1.00  0.00     0.121 C 
ATOM     79  C   UNL A   1      30.284  30.397  23.983  1.00  0.00     0.153 C 
ATOM     80  C   UNL A   1      28.205  28.828  22.634  1.00  0.00     0.024 C 
ATOM     81  C   UNL A   1      29.051  31.137  23.452  1.00  0.00     0.134 C 
ATOM     82  C   UNL A   1      27.853  30.237  23.101  1.00  0.00     0.035 C 
BRANCH  81  83
ATOM     83  O   UNL A   1      29.424  31.908  22.310  1.00  0.00    -0.391 OA
ATOM     84  H   UNL A   1      29.272  31.388  21.505  1.00  0.00     0.211 HD
ENDBRANCH  81  83
ENDBRANCH  75  77
ENDBRANCH  67  75
ENDBRANCH  63  65
ENDBRANCH  62  63
ENDBRANCH   1  62
TORSDOF 14
ENDMDL
