MODEL 1
REMARK VINA RESULT:     -11.1      0.000      0.000
REMARK SMILES O=C(COCC(=O)OCCOC(=O)c1ccc(-c2c3nc(c(-c4c(F)cccc4F)c4ccc([nH]4)c(-c4c(F)cccc4F)c4nc(c(-c5c(F)cccc5F)c5ccc2[nH]5)C=C4)C=C3)cc1)Nc1cccc([N+](=O)[O-])c1
REMARK SMILES IDX 8 1 6 2 7 3 5 4 4 5 3 6 2 7 1 8 68 9 69 11 70 12 77 13 71 14
REMARK SMILES IDX 73 15 72 16 74 17 75 18 76 19 9 20 10 21 11 22 12 23 13 24
REMARK SMILES IDX 14 25 15 26 67 27 16 28 66 29 17 30 18 31 19 32 60 33 20 34
REMARK SMILES IDX 65 35 59 36 61 37 21 38 64 39 58 40 57 41 22 43 48 44 31 45
REMARK SMILES IDX 47 46 32 47 35 48 46 49 62 50 33 51 34 52 45 54 63 55 36 56
REMARK SMILES IDX 23 57 24 58 29 59 25 60 26 61 28 62 30 63 27 64 49 65 50 66
REMARK SMILES IDX 55 67 51 68 52 69 54 70 56 71 53 72 37 73 38 74 43 75 39 76
REMARK SMILES IDX 40 77 42 78 44 79 41 80
REMARK H PARENT 68 10 61 42 35 53
REMARK Flexibility Score: inf
ROOT
ATOM      1  O   UNL A   1      45.691  20.601  24.921  1.00  0.00    -0.460 OA
ENDROOT
BRANCH   1   2
ATOM      2  C   UNL A   1      45.292  19.305  24.969  1.00  0.00     0.332 C 
ATOM      3  O   UNL A   1      46.045  18.336  24.987  1.00  0.00    -0.250 OA
BRANCH   2   4
ATOM      4  C   UNL A   1      43.767  19.136  24.962  1.00  0.00     0.283 C 
BRANCH   4   5
ATOM      5  O   UNL A   1      43.011  18.374  25.881  1.00  0.00    -0.360 OA
BRANCH   5   6
ATOM      6  C   UNL A   1      42.200  19.103  26.790  1.00  0.00     0.261 C 
BRANCH   6   7
ATOM      7  C   UNL A   1      40.860  19.691  26.303  1.00  0.00     0.250 C 
ATOM      8  O   UNL A   1      40.091  19.019  25.625  1.00  0.00    -0.272 OA
ATOM      9  N   UNL A   1      40.660  21.005  26.688  1.00  0.00    -0.324 N 
ATOM     10  H   UNL A   1      41.343  21.398  27.277  1.00  0.00     0.170 HD
BRANCH   9  11
ATOM     11  C   UNL A   1      39.584  21.843  26.328  1.00  0.00     0.048 A 
ATOM     12  C   UNL A   1      39.613  23.161  26.807  1.00  0.00     0.026 A 
ATOM     13  C   UNL A   1      38.510  21.435  25.532  1.00  0.00     0.111 A 
ATOM     14  C   UNL A   1      38.603  24.071  26.477  1.00  0.00     0.009 A 
ATOM     15  C   UNL A   1      37.479  22.341  25.237  1.00  0.00     0.271 A 
ATOM     16  C   UNL A   1      37.530  23.664  25.690  1.00  0.00     0.086 A 
BRANCH  15  17
ATOM     17  N   UNL A   1      36.297  21.884  24.497  1.00  0.00     0.062 N 
ATOM     18  O   UNL A   1      35.808  20.797  24.829  1.00  0.00    -0.258 OA
ATOM     19  O   UNL A   1      35.890  22.591  23.564  1.00  0.00    -0.258 OA
ENDBRANCH  15  17
ENDBRANCH   9  11
ENDBRANCH   6   7
ENDBRANCH   5   6
ENDBRANCH   4   5
ENDBRANCH   2   4
ENDBRANCH   1   2
BRANCH   1  20
ATOM     20  C   UNL A   1      44.656  21.570  25.182  1.00  0.00     0.274 C 
BRANCH  20  21
ATOM     21  C   UNL A   1      44.607  22.669  24.119  1.00  0.00     0.275 C 
BRANCH  21  22
ATOM     22  O   UNL A   1      43.835  23.798  24.569  1.00  0.00    -0.458 OA
BRANCH  22  23
ATOM     23  C   UNL A   1      44.561  24.839  25.037  1.00  0.00     0.338 C 
ATOM     24  O   UNL A   1      45.653  25.210  24.646  1.00  0.00    -0.246 OA
BRANCH  23  25
ATOM     25  C   UNL A   1      43.802  25.549  26.076  1.00  0.00     0.060 A 
ATOM     26  C   UNL A   1      44.133  26.873  26.359  1.00  0.00     0.016 A 
ATOM     27  C   UNL A   1      42.864  24.873  26.857  1.00  0.00     0.016 A 
ATOM     28  C   UNL A   1      43.572  27.509  27.463  1.00  0.00     0.010 A 
ATOM     29  C   UNL A   1      42.261  25.532  27.936  1.00  0.00     0.010 A 
ATOM     30  C   UNL A   1      42.635  26.845  28.268  1.00  0.00    -0.014 A 
BRANCH  30  31
ATOM     31  C   UNL A   1      42.070  27.553  29.446  1.00  0.00     0.031 A 
ATOM     32  C   UNL A   1      42.733  27.474  30.794  1.00  0.00     0.074 A 
ATOM     33  C   UNL A   1      40.977  28.325  29.284  1.00  0.00     0.049 A 
ATOM     34  N   UNL A   1      42.446  28.133  31.889  1.00  0.00    -0.248 NA
ATOM     35  C   UNL A   1      43.867  26.548  30.932  1.00  0.00     0.031 C 
ATOM     36  C   UNL A   1      40.230  28.476  28.033  1.00  0.00     0.029 A 
ATOM     37  N   UNL A   1      40.313  29.135  30.169  1.00  0.00    -0.354 N 
ATOM     38  C   UNL A   1      43.359  27.701  32.845  1.00  0.00     0.074 A 
ATOM     39  C   UNL A   1      44.192  26.704  32.209  1.00  0.00     0.031 C 
ATOM     40  C   UNL A   1      39.227  29.348  28.224  1.00  0.00     0.029 A 
ATOM     41  C   UNL A   1      39.242  29.793  29.615  1.00  0.00     0.049 A 
ATOM     42  H   UNL A   1      40.577  29.236  31.112  1.00  0.00     0.167 HD
ATOM     43  C   UNL A   1      43.506  28.114  34.127  1.00  0.00     0.037 A 
ATOM     44  C   UNL A   1      38.365  30.654  30.163  1.00  0.00     0.037 A 
ATOM     45  C   UNL A   1      42.699  29.127  34.757  1.00  0.00     0.049 A 
ATOM     46  C   UNL A   1      38.510  31.039  31.605  1.00  0.00     0.074 A 
ATOM     47  C   UNL A   1      42.852  29.699  36.008  1.00  0.00     0.029 A 
ATOM     48  N   UNL A   1      41.575  29.701  34.188  1.00  0.00    -0.354 N 
ATOM     49  N   UNL A   1      39.446  30.706  32.457  1.00  0.00    -0.248 NA
ATOM     50  C   UNL A   1      37.470  31.916  32.162  1.00  0.00     0.031 C 
ATOM     51  C   UNL A   1      41.788  30.588  36.215  1.00  0.00     0.029 A 
ATOM     52  C   UNL A   1      40.990  30.584  35.084  1.00  0.00     0.049 A 
ATOM     53  H   UNL A   1      41.240  29.512  33.282  1.00  0.00     0.167 HD
ATOM     54  C   UNL A   1      39.121  31.343  33.647  1.00  0.00     0.074 A 
ATOM     55  C   UNL A   1      37.905  32.093  33.402  1.00  0.00     0.031 C 
ATOM     56  C   UNL A   1      39.774  31.312  34.834  1.00  0.00     0.037 A 
BRANCH  43  57
ATOM     57  C   UNL A   1      44.578  27.462  34.949  1.00  0.00     0.057 A 
ATOM     58  C   UNL A   1      45.888  27.953  34.978  1.00  0.00     0.134 A 
ATOM     59  C   UNL A   1      44.283  26.362  35.760  1.00  0.00     0.134 A 
ATOM     60  F   UNL A   1      46.237  29.018  34.247  1.00  0.00    -0.206 F 
ATOM     61  C   UNL A   1      46.875  27.360  35.769  1.00  0.00     0.040 A 
ATOM     62  C   UNL A   1      45.257  25.769  36.568  1.00  0.00     0.040 A 
ATOM     63  F   UNL A   1      43.043  25.849  35.787  1.00  0.00    -0.206 F 
ATOM     64  C   UNL A   1      46.559  26.266  36.571  1.00  0.00     0.006 A 
ENDBRANCH  43  57
BRANCH  44  65
ATOM     65  C   UNL A   1      37.268  31.214  29.338  1.00  0.00     0.057 A 
ATOM     66  C   UNL A   1      37.332  32.520  28.841  1.00  0.00     0.134 A 
ATOM     67  C   UNL A   1      36.132  30.457  29.031  1.00  0.00     0.134 A 
ATOM     68  F   UNL A   1      38.387  33.298  29.120  1.00  0.00    -0.206 F 
ATOM     69  C   UNL A   1      36.299  33.056  28.070  1.00  0.00     0.040 A 
ATOM     70  C   UNL A   1      35.101  30.974  28.246  1.00  0.00     0.040 A 
ATOM     71  F   UNL A   1      36.015  29.200  29.482  1.00  0.00    -0.206 F 
ATOM     72  C   UNL A   1      35.182  32.279  27.766  1.00  0.00     0.006 A 
ENDBRANCH  44  65
BRANCH  56  73
ATOM     73  C   UNL A   1      39.181  32.115  35.950  1.00  0.00     0.057 A 
ATOM     74  C   UNL A   1      38.259  31.555  36.843  1.00  0.00     0.134 A 
ATOM     75  C   UNL A   1      39.526  33.460  36.129  1.00  0.00     0.134 A 
ATOM     76  F   UNL A   1      37.872  30.278  36.709  1.00  0.00    -0.206 F 
ATOM     77  C   UNL A   1      37.686  32.312  37.866  1.00  0.00     0.040 A 
ATOM     78  C   UNL A   1      38.974  34.222  37.160  1.00  0.00     0.040 A 
ATOM     79  F   UNL A   1      40.403  34.054  35.306  1.00  0.00    -0.206 F 
ATOM     80  C   UNL A   1      38.046  33.650  38.028  1.00  0.00     0.006 A 
ENDBRANCH  56  73
ENDBRANCH  30  31
ENDBRANCH  23  25
ENDBRANCH  22  23
ENDBRANCH  21  22
ENDBRANCH  20  21
ENDBRANCH   1  20
TORSDOF 16
ENDMDL
MODEL 2
REMARK VINA RESULT:     -11.1      5.444     10.997
REMARK SMILES O=C(COCC(=O)OCCOC(=O)c1ccc(-c2c3nc(c(-c4c(F)cccc4F)c4ccc([nH]4)c(-c4c(F)cccc4F)c4nc(c(-c5c(F)cccc5F)c5ccc2[nH]5)C=C4)C=C3)cc1)Nc1cccc([N+](=O)[O-])c1
REMARK SMILES IDX 8 1 6 2 7 3 5 4 4 5 3 6 2 7 1 8 68 9 69 11 70 12 77 13 71 14
REMARK SMILES IDX 73 15 72 16 74 17 75 18 76 19 9 20 10 21 11 22 12 23 13 24
REMARK SMILES IDX 14 25 15 26 67 27 16 28 66 29 17 30 18 31 19 32 60 33 20 34
REMARK SMILES IDX 65 35 59 36 61 37 21 38 64 39 58 40 57 41 22 43 48 44 31 45
REMARK SMILES IDX 47 46 32 47 35 48 46 49 62 50 33 51 34 52 45 54 63 55 36 56
REMARK SMILES IDX 23 57 24 58 29 59 25 60 26 61 28 62 30 63 27 64 49 65 50 66
REMARK SMILES IDX 55 67 51 68 52 69 54 70 56 71 53 72 37 73 38 74 43 75 39 76
REMARK SMILES IDX 40 77 42 78 44 79 41 80
REMARK H PARENT 68 10 61 42 35 53
REMARK Flexibility Score: inf
ROOT
ATOM      1  O   UNL A   1      34.704  35.680  32.836  1.00  0.00    -0.460 OA
ENDROOT
BRANCH   1   2
ATOM      2  C   UNL A   1      34.520  34.492  33.466  1.00  0.00     0.332 C 
ATOM      3  O   UNL A   1      33.557  33.749  33.302  1.00  0.00    -0.250 OA
BRANCH   2   4
ATOM      4  C   UNL A   1      35.633  34.154  34.466  1.00  0.00     0.283 C 
BRANCH   4   5
ATOM      5  O   UNL A   1      36.253  32.894  34.625  1.00  0.00    -0.360 OA
BRANCH   5   6
ATOM      6  C   UNL A   1      37.339  32.835  35.537  1.00  0.00     0.261 C 
BRANCH   6   7
ATOM      7  C   UNL A   1      38.092  31.504  35.731  1.00  0.00     0.250 C 
ATOM      8  O   UNL A   1      37.947  30.845  36.755  1.00  0.00    -0.272 OA
ATOM      9  N   UNL A   1      38.921  31.178  34.672  1.00  0.00    -0.324 N 
ATOM     10  H   UNL A   1      38.893  31.778  33.893  1.00  0.00     0.170 HD
BRANCH   9  11
ATOM     11  C   UNL A   1      39.802  30.079  34.587  1.00  0.00     0.048 A 
ATOM     12  C   UNL A   1      39.674  29.244  33.467  1.00  0.00     0.026 A 
ATOM     13  C   UNL A   1      40.778  29.786  35.543  1.00  0.00     0.111 A 
ATOM     14  C   UNL A   1      40.524  28.148  33.285  1.00  0.00     0.009 A 
ATOM     15  C   UNL A   1      41.602  28.662  35.375  1.00  0.00     0.271 A 
ATOM     16  C   UNL A   1      41.493  27.852  34.239  1.00  0.00     0.086 A 
BRANCH  15  17
ATOM     17  N   UNL A   1      42.550  28.289  36.430  1.00  0.00     0.062 N 
ATOM     18  O   UNL A   1      42.677  27.084  36.676  1.00  0.00    -0.258 OA
ATOM     19  O   UNL A   1      43.130  29.203  37.035  1.00  0.00    -0.258 OA
ENDBRANCH  15  17
ENDBRANCH   9  11
ENDBRANCH   6   7
ENDBRANCH   5   6
ENDBRANCH   4   5
ENDBRANCH   2   4
ENDBRANCH   1   2
BRANCH   1  20
ATOM     20  C   UNL A   1      33.498  36.325  32.381  1.00  0.00     0.274 C 
BRANCH  20  21
ATOM     21  C   UNL A   1      33.331  36.239  30.863  1.00  0.00     0.275 C 
BRANCH  21  22
ATOM     22  O   UNL A   1      32.735  34.987  30.472  1.00  0.00    -0.458 OA
BRANCH  22  23
ATOM     23  C   UNL A   1      33.127  34.518  29.265  1.00  0.00     0.338 C 
ATOM     24  O   UNL A   1      32.558  34.663  28.198  1.00  0.00    -0.246 OA
BRANCH  23  25
ATOM     25  C   UNL A   1      34.425  33.841  29.391  1.00  0.00     0.060 A 
ATOM     26  C   UNL A   1      34.564  32.830  30.339  1.00  0.00     0.016 A 
ATOM     27  C   UNL A   1      35.534  34.293  28.673  1.00  0.00     0.016 A 
ATOM     28  C   UNL A   1      35.823  32.306  30.618  1.00  0.00     0.010 A 
ATOM     29  C   UNL A   1      36.792  33.728  28.918  1.00  0.00     0.010 A 
ATOM     30  C   UNL A   1      36.952  32.753  29.916  1.00  0.00    -0.014 A 
BRANCH  30  31
ATOM     31  C   UNL A   1      38.281  32.179  30.254  1.00  0.00     0.031 A 
ATOM     32  C   UNL A   1      39.159  32.811  31.299  1.00  0.00     0.074 A 
ATOM     33  C   UNL A   1      38.675  31.040  29.650  1.00  0.00     0.049 A 
ATOM     34  N   UNL A   1      40.283  32.366  31.805  1.00  0.00    -0.248 NA
ATOM     35  C   UNL A   1      38.719  34.098  31.858  1.00  0.00     0.031 C 
ATOM     36  C   UNL A   1      37.925  30.334  28.609  1.00  0.00     0.029 A 
ATOM     37  N   UNL A   1      39.795  30.270  29.834  1.00  0.00    -0.354 N 
ATOM     38  C   UNL A   1      40.686  33.317  32.736  1.00  0.00     0.074 A 
ATOM     39  C   UNL A   1      39.701  34.376  32.707  1.00  0.00     0.031 C 
ATOM     40  C   UNL A   1      38.592  29.221  28.266  1.00  0.00     0.029 A 
ATOM     41  C   UNL A   1      39.829  29.150  29.039  1.00  0.00     0.049 A 
ATOM     42  H   UNL A   1      40.508  30.498  30.474  1.00  0.00     0.167 HD
ATOM     43  C   UNL A   1      41.764  33.299  33.556  1.00  0.00     0.037 A 
ATOM     44  C   UNL A   1      40.751  28.177  28.938  1.00  0.00     0.037 A 
ATOM     45  C   UNL A   1      42.732  32.235  33.611  1.00  0.00     0.049 A 
ATOM     46  C   UNL A   1      41.971  28.220  29.810  1.00  0.00     0.074 A 
ATOM     47  C   UNL A   1      43.785  32.068  34.494  1.00  0.00     0.029 A 
ATOM     48  N   UNL A   1      42.774  31.167  32.730  1.00  0.00    -0.354 N 
ATOM     49  N   UNL A   1      42.275  29.068  30.761  1.00  0.00    -0.248 NA
ATOM     50  C   UNL A   1      42.979  27.173  29.588  1.00  0.00     0.031 C 
ATOM     51  C   UNL A   1      44.495  30.921  34.116  1.00  0.00     0.029 A 
ATOM     52  C   UNL A   1      43.869  30.364  33.014  1.00  0.00     0.049 A 
ATOM     53  H   UNL A   1      42.124  31.001  32.010  1.00  0.00     0.167 HD
ATOM     54  C   UNL A   1      43.499  28.650  31.264  1.00  0.00     0.074 A 
ATOM     55  C   UNL A   1      43.877  27.466  30.520  1.00  0.00     0.031 C 
ATOM     56  C   UNL A   1      44.242  29.198  32.257  1.00  0.00     0.037 A 
BRANCH  43  57
ATOM     57  C   UNL A   1      41.966  34.476  34.464  1.00  0.00     0.057 A 
ATOM     58  C   UNL A   1      42.604  35.644  34.031  1.00  0.00     0.134 A 
ATOM     59  C   UNL A   1      41.469  34.459  35.771  1.00  0.00     0.134 A 
ATOM     60  F   UNL A   1      43.083  35.740  32.785  1.00  0.00    -0.206 F 
ATOM     61  C   UNL A   1      42.762  36.748  34.872  1.00  0.00     0.040 A 
ATOM     62  C   UNL A   1      41.606  35.563  36.617  1.00  0.00     0.040 A 
ATOM     63  F   UNL A   1      40.836  33.376  36.246  1.00  0.00    -0.206 F 
ATOM     64  C   UNL A   1      42.257  36.710  36.169  1.00  0.00     0.006 A 
ENDBRANCH  43  57
BRANCH  44  65
ATOM     65  C   UNL A   1      40.555  27.072  27.969  1.00  0.00     0.057 A 
ATOM     66  C   UNL A   1      39.752  25.971  28.281  1.00  0.00     0.134 A 
ATOM     67  C   UNL A   1      41.168  27.094  26.710  1.00  0.00     0.134 A 
ATOM     68  F   UNL A   1      39.156  25.887  29.479  1.00  0.00    -0.206 F 
ATOM     69  C   UNL A   1      39.569  24.924  27.377  1.00  0.00     0.040 A 
ATOM     70  C   UNL A   1      40.978  26.063  25.789  1.00  0.00     0.040 A 
ATOM     71  F   UNL A   1      41.951  28.123  26.357  1.00  0.00    -0.206 F 
ATOM     72  C   UNL A   1      40.179  24.973  26.123  1.00  0.00     0.006 A 
ENDBRANCH  44  65
BRANCH  56  73
ATOM     73  C   UNL A   1      45.532  28.514  32.588  1.00  0.00     0.057 A 
ATOM     74  C   UNL A   1      46.740  28.909  32.001  1.00  0.00     0.134 A 
ATOM     75  C   UNL A   1      45.568  27.448  33.495  1.00  0.00     0.134 A 
ATOM     76  F   UNL A   1      46.766  29.910  31.108  1.00  0.00    -0.206 F 
ATOM     77  C   UNL A   1      47.938  28.253  32.289  1.00  0.00     0.040 A 
ATOM     78  C   UNL A   1      46.763  26.797  33.806  1.00  0.00     0.040 A 
ATOM     79  F   UNL A   1      44.444  27.022  34.091  1.00  0.00    -0.206 F 
ATOM     80  C   UNL A   1      47.951  27.195  33.197  1.00  0.00     0.006 A 
ENDBRANCH  56  73
ENDBRANCH  30  31
ENDBRANCH  23  25
ENDBRANCH  22  23
ENDBRANCH  21  22
ENDBRANCH  20  21
ENDBRANCH   1  20
TORSDOF 16
ENDMDL
MODEL 3
REMARK VINA RESULT:     -11.0      5.320     11.251
REMARK SMILES O=C(COCC(=O)OCCOC(=O)c1ccc(-c2c3nc(c(-c4c(F)cccc4F)c4ccc([nH]4)c(-c4c(F)cccc4F)c4nc(c(-c5c(F)cccc5F)c5ccc2[nH]5)C=C4)C=C3)cc1)Nc1cccc([N+](=O)[O-])c1
REMARK SMILES IDX 8 1 6 2 7 3 5 4 4 5 3 6 2 7 1 8 68 9 69 11 70 12 77 13 71 14
REMARK SMILES IDX 73 15 72 16 74 17 75 18 76 19 9 20 10 21 11 22 12 23 13 24
REMARK SMILES IDX 14 25 15 26 67 27 16 28 66 29 17 30 18 31 19 32 60 33 20 34
REMARK SMILES IDX 65 35 59 36 61 37 21 38 64 39 58 40 57 41 22 43 48 44 31 45
REMARK SMILES IDX 47 46 32 47 35 48 46 49 62 50 33 51 34 52 45 54 63 55 36 56
REMARK SMILES IDX 23 57 24 58 29 59 25 60 26 61 28 62 30 63 27 64 49 65 50 66
REMARK SMILES IDX 55 67 51 68 52 69 54 70 56 71 53 72 37 73 38 74 43 75 39 76
REMARK SMILES IDX 40 77 42 78 44 79 41 80
REMARK H PARENT 68 10 61 42 35 53
REMARK Flexibility Score: inf
ROOT
ATOM      1  O   UNL A   1      34.289  35.898  31.935  1.00  0.00    -0.460 OA
ENDROOT
BRANCH   1   2
ATOM      2  C   UNL A   1      33.885  35.005  32.873  1.00  0.00     0.332 C 
ATOM      3  O   UNL A   1      32.774  34.486  32.919  1.00  0.00    -0.250 OA
BRANCH   2   4
ATOM      4  C   UNL A   1      34.953  34.711  33.934  1.00  0.00     0.283 C 
BRANCH   4   5
ATOM      5  O   UNL A   1      35.460  33.436  34.273  1.00  0.00    -0.360 OA
BRANCH   5   6
ATOM      6  C   UNL A   1      36.619  33.414  35.091  1.00  0.00     0.261 C 
BRANCH   6   7
ATOM      7  C   UNL A   1      37.719  32.369  34.816  1.00  0.00     0.250 C 
ATOM      8  O   UNL A   1      38.857  32.529  35.243  1.00  0.00    -0.272 OA
ATOM      9  N   UNL A   1      37.287  31.300  34.051  1.00  0.00    -0.324 N 
ATOM     10  H   UNL A   1      36.329  31.281  33.825  1.00  0.00     0.170 HD
BRANCH   9  11
ATOM     11  C   UNL A   1      38.069  30.233  33.559  1.00  0.00     0.048 A 
ATOM     12  C   UNL A   1      37.417  29.276  32.768  1.00  0.00     0.026 A 
ATOM     13  C   UNL A   1      39.435  30.087  33.813  1.00  0.00     0.111 A 
ATOM     14  C   UNL A   1      38.119  28.201  32.213  1.00  0.00     0.009 A 
ATOM     15  C   UNL A   1      40.126  28.984  33.287  1.00  0.00     0.271 A 
ATOM     16  C   UNL A   1      39.478  28.050  32.471  1.00  0.00     0.086 A 
BRANCH  15  17
ATOM     17  N   UNL A   1      41.533  28.767  33.644  1.00  0.00     0.062 N 
ATOM     18  O   UNL A   1      42.050  29.580  34.420  1.00  0.00    -0.258 OA
ATOM     19  O   UNL A   1      42.122  27.812  33.117  1.00  0.00    -0.258 OA
ENDBRANCH  15  17
ENDBRANCH   9  11
ENDBRANCH   6   7
ENDBRANCH   5   6
ENDBRANCH   4   5
ENDBRANCH   2   4
ENDBRANCH   1   2
BRANCH   1  20
ATOM     20  C   UNL A   1      33.230  36.647  31.305  1.00  0.00     0.274 C 
BRANCH  20  21
ATOM     21  C   UNL A   1      33.052  36.273  29.832  1.00  0.00     0.275 C 
BRANCH  21  22
ATOM     22  O   UNL A   1      32.501  34.950  29.691  1.00  0.00    -0.458 OA
BRANCH  22  23
ATOM     23  C   UNL A   1      33.124  34.164  28.783  1.00  0.00     0.338 C 
ATOM     24  O   UNL A   1      32.730  33.872  27.668  1.00  0.00    -0.246 OA
BRANCH  23  25
ATOM     25  C   UNL A   1      34.433  33.743  29.301  1.00  0.00     0.060 A 
ATOM     26  C   UNL A   1      35.583  34.167  28.638  1.00  0.00     0.016 A 
ATOM     27  C   UNL A   1      34.519  32.828  30.352  1.00  0.00     0.016 A 
ATOM     28  C   UNL A   1      36.821  33.632  28.982  1.00  0.00     0.010 A 
ATOM     29  C   UNL A   1      35.773  32.331  30.731  1.00  0.00     0.010 A 
ATOM     30  C   UNL A   1      36.930  32.703  30.028  1.00  0.00    -0.014 A 
BRANCH  30  31
ATOM     31  C   UNL A   1      38.268  32.144  30.355  1.00  0.00     0.031 A 
ATOM     32  C   UNL A   1      38.742  30.853  29.745  1.00  0.00     0.074 A 
ATOM     33  C   UNL A   1      39.088  32.840  31.167  1.00  0.00     0.049 A 
ATOM     34  N   UNL A   1      39.925  30.296  29.821  1.00  0.00    -0.248 NA
ATOM     35  C   UNL A   1      37.774  30.094  28.940  1.00  0.00     0.031 C 
ATOM     36  C   UNL A   1      38.745  34.097  31.835  1.00  0.00     0.029 A 
ATOM     37  N   UNL A   1      40.379  32.596  31.558  1.00  0.00    -0.354 N 
ATOM     38  C   UNL A   1      39.844  29.123  29.079  1.00  0.00     0.074 A 
ATOM     39  C   UNL A   1      38.488  29.034  28.583  1.00  0.00     0.031 C 
ATOM     40  C   UNL A   1      39.808  34.528  32.531  1.00  0.00     0.029 A 
ATOM     41  C   UNL A   1      40.896  33.565  32.384  1.00  0.00     0.049 A 
ATOM     42  H   UNL A   1      40.889  31.802  31.276  1.00  0.00     0.167 HD
ATOM     43  C   UNL A   1      40.815  28.215  28.815  1.00  0.00     0.037 A 
ATOM     44  C   UNL A   1      42.106  33.668  32.962  1.00  0.00     0.037 A 
ATOM     45  C   UNL A   1      42.173  28.313  29.282  1.00  0.00     0.049 A 
ATOM     46  C   UNL A   1      43.139  32.610  32.709  1.00  0.00     0.074 A 
ATOM     47  C   UNL A   1      43.256  27.511  28.965  1.00  0.00     0.029 A 
ATOM     48  N   UNL A   1      42.628  29.261  30.183  1.00  0.00    -0.354 N 
ATOM     49  N   UNL A   1      43.077  31.571  31.914  1.00  0.00    -0.248 NA
ATOM     50  C   UNL A   1      44.409  32.738  33.438  1.00  0.00     0.031 C 
ATOM     51  C   UNL A   1      44.357  27.947  29.714  1.00  0.00     0.029 A 
ATOM     52  C   UNL A   1      43.964  29.033  30.477  1.00  0.00     0.049 A 
ATOM     53  H   UNL A   1      42.084  29.990  30.560  1.00  0.00     0.167 HD
ATOM     54  C   UNL A   1      44.302  30.929  32.034  1.00  0.00     0.074 A 
ATOM     55  C   UNL A   1      45.092  31.703  32.970  1.00  0.00     0.031 C 
ATOM     56  C   UNL A   1      44.733  29.800  31.420  1.00  0.00     0.037 A 
BRANCH  43  57
ATOM     57  C   UNL A   1      40.444  27.022  27.987  1.00  0.00     0.057 A 
ATOM     58  C   UNL A   1      40.876  26.876  26.664  1.00  0.00     0.134 A 
ATOM     59  C   UNL A   1      39.687  25.981  28.537  1.00  0.00     0.134 A 
ATOM     60  F   UNL A   1      41.623  27.820  26.080  1.00  0.00    -0.206 F 
ATOM     61  C   UNL A   1      40.552  25.748  25.907  1.00  0.00     0.040 A 
ATOM     62  C   UNL A   1      39.371  24.839  27.796  1.00  0.00     0.040 A 
ATOM     63  F   UNL A   1      39.251  26.052  29.803  1.00  0.00    -0.206 F 
ATOM     64  C   UNL A   1      39.800  24.723  26.475  1.00  0.00     0.006 A 
ENDBRANCH  43  57
BRANCH  44  65
ATOM     65  C   UNL A   1      42.408  34.822  33.842  1.00  0.00     0.057 A 
ATOM     66  C   UNL A   1      42.205  34.750  35.224  1.00  0.00     0.134 A 
ATOM     67  C   UNL A   1      42.904  36.023  33.319  1.00  0.00     0.134 A 
ATOM     68  F   UNL A   1      41.713  33.632  35.777  1.00  0.00    -0.206 F 
ATOM     69  C   UNL A   1      42.480  35.835  36.057  1.00  0.00     0.040 A 
ATOM     70  C   UNL A   1      43.201  37.108  34.143  1.00  0.00     0.040 A 
ATOM     71  F   UNL A   1      43.116  36.150  32.002  1.00  0.00    -0.206 F 
ATOM     72  C   UNL A   1      42.986  37.017  35.516  1.00  0.00     0.006 A 
ENDBRANCH  44  65
BRANCH  56  73
ATOM     73  C   UNL A   1      46.122  29.346  31.745  1.00  0.00     0.057 A 
ATOM     74  C   UNL A   1      47.235  29.851  31.060  1.00  0.00     0.134 A 
ATOM     75  C   UNL A   1      46.352  28.393  32.745  1.00  0.00     0.134 A 
ATOM     76  F   UNL A   1      47.077  30.750  30.077  1.00  0.00    -0.206 F 
ATOM     77  C   UNL A   1      48.527  29.407  31.345  1.00  0.00     0.040 A 
ATOM     78  C   UNL A   1      47.641  27.956  33.051  1.00  0.00     0.040 A 
ATOM     79  F   UNL A   1      45.327  27.871  33.436  1.00  0.00    -0.206 F 
ATOM     80  C   UNL A   1      48.733  28.459  32.346  1.00  0.00     0.006 A 
ENDBRANCH  56  73
ENDBRANCH  30  31
ENDBRANCH  23  25
ENDBRANCH  22  23
ENDBRANCH  21  22
ENDBRANCH  20  21
ENDBRANCH   1  20
TORSDOF 16
ENDMDL
