MODEL 1
REMARK VINA RESULT:     -11.4      0.000      0.000
REMARK SMILES C/C(=N\NC(N)=S)c1nnn(-c2ccc(C(=O)OCCOC(=O)c3ccc(-c4c5nc(c(-c6c(F)cccc6F)c6ccc([nH]6)c(-c6c(F)cccc6F)c6nc(c(-c7c(F)cccc7F)c7ccc4[nH]7)C=C6)C=C5)cc3)cc2)c1C
REMARK SMILES IDX 18 1 16 2 17 3 15 4 12 5 13 6 79 7 14 8 78 9 11 10 8 11 9 12
REMARK SMILES IDX 80 13 10 14 81 15 2 16 1 17 3 18 4 19 5 21 7 22 6 23 19 26
REMARK SMILES IDX 20 27 21 28 22 29 23 30 24 31 25 32 77 33 26 34 76 35 27 36
REMARK SMILES IDX 28 37 29 38 70 39 30 40 75 41 69 42 71 43 31 44 74 45 68 46
REMARK SMILES IDX 67 47 32 49 58 50 41 51 57 52 42 53 45 54 56 55 72 56 43 57
REMARK SMILES IDX 44 58 55 60 73 61 46 62 33 63 34 64 39 65 35 66 36 67 38 68
REMARK SMILES IDX 40 69 37 70 59 71 60 72 65 73 61 74 62 75 64 76 66 77 63 78
REMARK SMILES IDX 47 79 48 80 53 81 49 82 50 83 52 84 54 85 51 86
REMARK H PARENT 4 20 6 24 6 25 71 48 45 59
REMARK Flexibility Score: inf
ROOT
ATOM      1  O   UNL A   1      32.849  34.638  28.751  1.00  0.00    -0.458 OA
ENDROOT
BRANCH   1   2
ATOM      2  C   UNL A   1      33.897  33.801  28.541  1.00  0.00     0.338 C 
ATOM      3  O   UNL A   1      35.050  33.971  28.914  1.00  0.00    -0.246 OA
BRANCH   2   4
ATOM      4  C   UNL A   1      33.435  32.571  27.849  1.00  0.00     0.060 A 
ATOM      5  C   UNL A   1      32.396  30.209  26.836  1.00  0.00     0.067 A 
ATOM      6  C   UNL A   1      31.667  31.392  26.671  1.00  0.00     0.029 A 
ATOM      7  C   UNL A   1      33.692  30.224  27.357  1.00  0.00     0.029 A 
ATOM      8  C   UNL A   1      32.185  32.574  27.205  1.00  0.00     0.018 A 
ATOM      9  C   UNL A   1      34.215  31.410  27.857  1.00  0.00     0.018 A 
BRANCH   5  10
ATOM     10  N   UNL A   1      31.740  28.972  26.686  1.00  0.00    -0.217 N 
ATOM     11  C   UNL A   1      31.150  27.021  25.928  1.00  0.00     0.132 A 
ATOM     12  N   UNL A   1      30.938  27.050  27.281  1.00  0.00    -0.128 NA
ATOM     13  C   UNL A   1      31.677  28.227  25.517  1.00  0.00     0.071 A 
ATOM     14  N   UNL A   1      31.366  28.217  27.741  1.00  0.00    -0.061 NA
ATOM     15  C   UNL A   1      32.289  28.617  24.222  1.00  0.00     0.069 C 
BRANCH  11  16
ATOM     16  C   UNL A   1      31.082  25.792  25.161  1.00  0.00     0.087 C 
ATOM     17  C   UNL A   1      30.110  25.798  24.011  1.00  0.00     0.071 C 
ATOM     18  N   UNL A   1      31.881  24.841  25.544  1.00  0.00    -0.176 NA
BRANCH  18  19
ATOM     19  N   UNL A   1      31.973  23.662  24.861  1.00  0.00    -0.254 N 
ATOM     20  H   UNL A   1      32.229  23.737  23.914  1.00  0.00     0.193 HD
BRANCH  19  21
ATOM     21  C   UNL A   1      31.755  22.379  25.322  1.00  0.00     0.184 C 
ATOM     22  S   UNL A   1      32.593  20.979  25.004  1.00  0.00    -0.040 S 
BRANCH  21  23
ATOM     23  N   UNL A   1      30.675  22.314  26.159  1.00  0.00    -0.375 N 
ATOM     24  H   UNL A   1      29.764  22.276  25.786  1.00  0.00     0.159 HD
ATOM     25  H   UNL A   1      30.808  22.304  27.134  1.00  0.00     0.159 HD
ENDBRANCH  21  23
ENDBRANCH  19  21
ENDBRANCH  18  19
ENDBRANCH  11  16
ENDBRANCH   5  10
ENDBRANCH   2   4
ENDBRANCH   1   2
BRANCH   1  26
ATOM     26  C   UNL A   1      33.158  36.026  28.953  1.00  0.00     0.275 C 
BRANCH  26  27
ATOM     27  C   UNL A   1      32.729  36.479  30.340  1.00  0.00     0.275 C 
BRANCH  27  28
ATOM     28  O   UNL A   1      33.648  36.003  31.319  1.00  0.00    -0.458 OA
BRANCH  28  29
ATOM     29  C   UNL A   1      33.157  35.084  32.179  1.00  0.00     0.338 C 
ATOM     30  O   UNL A   1      32.007  34.973  32.568  1.00  0.00    -0.246 OA
BRANCH  29  31
ATOM     31  C   UNL A   1      34.276  34.346  32.770  1.00  0.00     0.060 A 
ATOM     32  C   UNL A   1      35.377  35.105  33.179  1.00  0.00     0.016 A 
ATOM     33  C   UNL A   1      34.358  32.966  32.540  1.00  0.00     0.016 A 
ATOM     34  C   UNL A   1      36.623  34.528  33.098  1.00  0.00     0.010 A 
ATOM     35  C   UNL A   1      35.601  32.400  32.436  1.00  0.00     0.010 A 
ATOM     36  C   UNL A   1      36.712  33.220  32.616  1.00  0.00    -0.014 A 
BRANCH  36  37
ATOM     37  C   UNL A   1      38.022  32.689  32.323  1.00  0.00     0.031 A 
ATOM     38  C   UNL A   1      38.912  32.651  33.500  1.00  0.00     0.074 A 
ATOM     39  C   UNL A   1      38.294  32.140  31.124  1.00  0.00     0.049 A 
ATOM     40  N   UNL A   1      40.039  33.257  33.672  1.00  0.00    -0.248 NA
ATOM     41  C   UNL A   1      38.399  31.970  34.702  1.00  0.00     0.031 C 
ATOM     42  C   UNL A   1      37.368  31.872  30.016  1.00  0.00     0.029 A 
ATOM     43  N   UNL A   1      39.453  31.590  30.688  1.00  0.00    -0.354 N 
ATOM     44  C   UNL A   1      40.475  32.860  34.931  1.00  0.00     0.074 A 
ATOM     45  C   UNL A   1      39.354  32.244  35.588  1.00  0.00     0.031 C 
ATOM     46  C   UNL A   1      37.949  31.011  29.150  1.00  0.00     0.029 A 
ATOM     47  C   UNL A   1      39.316  30.771  29.577  1.00  0.00     0.049 A 
ATOM     48  H   UNL A   1      40.321  31.758  31.123  1.00  0.00     0.167 HD
ATOM     49  C   UNL A   1      41.798  32.805  35.231  1.00  0.00     0.037 A 
ATOM     50  C   UNL A   1      40.242  29.889  29.127  1.00  0.00     0.037 A 
ATOM     51  C   UNL A   1      42.578  33.632  34.346  1.00  0.00     0.049 A 
ATOM     52  C   UNL A   1      41.546  30.268  29.734  1.00  0.00     0.074 A 
ATOM     53  C   UNL A   1      42.586  34.978  34.036  1.00  0.00     0.029 A 
ATOM     54  N   UNL A   1      43.284  33.016  33.342  1.00  0.00    -0.354 N 
ATOM     55  N   UNL A   1      42.193  31.364  29.442  1.00  0.00    -0.248 NA
ATOM     56  C   UNL A   1      41.903  29.658  31.007  1.00  0.00     0.031 C 
ATOM     57  C   UNL A   1      42.868  35.035  32.639  1.00  0.00     0.029 A 
ATOM     58  C   UNL A   1      43.058  33.727  32.191  1.00  0.00     0.049 A 
ATOM     59  H   UNL A   1      43.846  32.212  33.431  1.00  0.00     0.167 HD
ATOM     60  C   UNL A   1      42.721  31.802  30.650  1.00  0.00     0.074 A 
ATOM     61  C   UNL A   1      42.579  30.669  31.561  1.00  0.00     0.031 C 
ATOM     62  C   UNL A   1      42.954  33.128  30.881  1.00  0.00     0.037 A 
BRANCH  49  63
ATOM     63  C   UNL A   1      42.398  31.695  36.055  1.00  0.00     0.057 A 
ATOM     64  C   UNL A   1      43.266  32.019  37.109  1.00  0.00     0.134 A 
ATOM     65  C   UNL A   1      42.390  30.333  35.680  1.00  0.00     0.134 A 
ATOM     66  F   UNL A   1      43.380  33.284  37.541  1.00  0.00    -0.206 F 
ATOM     67  C   UNL A   1      44.113  31.072  37.696  1.00  0.00     0.040 A 
ATOM     68  C   UNL A   1      43.188  29.370  36.297  1.00  0.00     0.040 A 
ATOM     69  F   UNL A   1      41.694  29.875  34.632  1.00  0.00    -0.206 F 
ATOM     70  C   UNL A   1      44.080  29.744  37.287  1.00  0.00     0.006 A 
ENDBRANCH  49  63
BRANCH  50  71
ATOM     71  C   UNL A   1      39.999  28.562  28.519  1.00  0.00     0.057 A 
ATOM     72  C   UNL A   1      40.495  28.242  27.247  1.00  0.00     0.134 A 
ATOM     73  C   UNL A   1      39.496  27.484  29.271  1.00  0.00     0.134 A 
ATOM     74  F   UNL A   1      41.041  29.191  26.474  1.00  0.00    -0.206 F 
ATOM     75  C   UNL A   1      40.499  26.928  26.759  1.00  0.00     0.040 A 
ATOM     76  C   UNL A   1      39.485  26.171  28.792  1.00  0.00     0.040 A 
ATOM     77  F   UNL A   1      39.076  27.655  30.533  1.00  0.00    -0.206 F 
ATOM     78  C   UNL A   1      39.999  25.886  27.535  1.00  0.00     0.006 A 
ENDBRANCH  50  71
BRANCH  62  79
ATOM     79  C   UNL A   1      42.828  34.070  29.715  1.00  0.00     0.057 A 
ATOM     80  C   UNL A   1      43.833  34.254  28.754  1.00  0.00     0.134 A 
ATOM     81  C   UNL A   1      41.599  34.688  29.467  1.00  0.00     0.134 A 
ATOM     82  F   UNL A   1      45.006  33.618  28.851  1.00  0.00    -0.206 F 
ATOM     83  C   UNL A   1      43.642  35.054  27.623  1.00  0.00     0.040 A 
ATOM     84  C   UNL A   1      41.382  35.464  28.325  1.00  0.00     0.040 A 
ATOM     85  F   UNL A   1      40.569  34.506  30.308  1.00  0.00    -0.206 F 
ATOM     86  C   UNL A   1      42.409  35.658  27.403  1.00  0.00     0.006 A 
ENDBRANCH  62  79
ENDBRANCH  36  37
ENDBRANCH  29  31
ENDBRANCH  28  29
ENDBRANCH  27  28
ENDBRANCH  26  27
ENDBRANCH   1  26
TORSDOF 16
ENDMDL
MODEL 2
REMARK VINA RESULT:     -11.3      5.352      9.856
REMARK SMILES C/C(=N\NC(N)=S)c1nnn(-c2ccc(C(=O)OCCOC(=O)c3ccc(-c4c5nc(c(-c6c(F)cccc6F)c6ccc([nH]6)c(-c6c(F)cccc6F)c6nc(c(-c7c(F)cccc7F)c7ccc4[nH]7)C=C6)C=C5)cc3)cc2)c1C
REMARK SMILES IDX 18 1 16 2 17 3 15 4 12 5 13 6 79 7 14 8 78 9 11 10 8 11 9 12
REMARK SMILES IDX 80 13 10 14 81 15 2 16 1 17 3 18 4 19 5 21 7 22 6 23 19 26
REMARK SMILES IDX 20 27 21 28 22 29 23 30 24 31 25 32 77 33 26 34 76 35 27 36
REMARK SMILES IDX 28 37 29 38 70 39 30 40 75 41 69 42 71 43 31 44 74 45 68 46
REMARK SMILES IDX 67 47 32 49 58 50 41 51 57 52 42 53 45 54 56 55 72 56 43 57
REMARK SMILES IDX 44 58 55 60 73 61 46 62 33 63 34 64 39 65 35 66 36 67 38 68
REMARK SMILES IDX 40 69 37 70 59 71 60 72 65 73 61 74 62 75 64 76 66 77 63 78
REMARK SMILES IDX 47 79 48 80 53 81 49 82 50 83 52 84 54 85 51 86
REMARK H PARENT 4 20 6 24 6 25 71 48 45 59
REMARK Flexibility Score: inf
ROOT
ATOM      1  O   UNL A   1      38.978  20.500  25.641  1.00  0.00    -0.458 OA
ENDROOT
BRANCH   1   2
ATOM      2  C   UNL A   1      37.786  20.082  25.142  1.00  0.00     0.338 C 
ATOM      3  O   UNL A   1      37.462  18.927  24.904  1.00  0.00    -0.246 OA
BRANCH   2   4
ATOM      4  C   UNL A   1      36.865  21.237  24.994  1.00  0.00     0.060 A 
ATOM      5  C   UNL A   1      35.135  23.318  24.391  1.00  0.00     0.067 A 
ATOM      6  C   UNL A   1      34.600  22.060  24.685  1.00  0.00     0.029 A 
ATOM      7  C   UNL A   1      36.499  23.578  24.546  1.00  0.00     0.029 A 
ATOM      8  C   UNL A   1      35.478  21.010  24.965  1.00  0.00     0.018 A 
ATOM      9  C   UNL A   1      37.364  22.537  24.857  1.00  0.00     0.018 A 
BRANCH   5  10
ATOM     10  N   UNL A   1      34.337  24.264  23.721  1.00  0.00    -0.217 N 
ATOM     11  C   UNL A   1      33.326  26.116  23.191  1.00  0.00     0.132 A 
ATOM     12  N   UNL A   1      33.568  25.404  22.046  1.00  0.00    -0.128 NA
ATOM     13  C   UNL A   1      33.819  25.425  24.279  1.00  0.00     0.071 A 
ATOM     14  N   UNL A   1      34.245  24.313  22.374  1.00  0.00    -0.061 NA
ATOM     15  C   UNL A   1      34.017  25.858  25.683  1.00  0.00     0.069 C 
BRANCH  11  16
ATOM     16  C   UNL A   1      32.881  27.496  23.165  1.00  0.00     0.087 C 
ATOM     17  C   UNL A   1      33.899  28.497  22.686  1.00  0.00     0.071 C 
ATOM     18  N   UNL A   1      31.653  27.702  23.538  1.00  0.00    -0.176 NA
BRANCH  18  19
ATOM     19  N   UNL A   1      31.085  28.942  23.486  1.00  0.00    -0.254 N 
ATOM     20  H   UNL A   1      31.375  29.573  24.184  1.00  0.00     0.193 HD
BRANCH  19  21
ATOM     21  C   UNL A   1      30.158  29.429  22.587  1.00  0.00     0.184 C 
ATOM     22  S   UNL A   1      28.499  29.340  22.619  1.00  0.00    -0.040 S 
BRANCH  21  23
ATOM     23  N   UNL A   1      30.755  30.070  21.535  1.00  0.00    -0.375 N 
ATOM     24  H   UNL A   1      30.202  30.494  20.840  1.00  0.00     0.159 HD
ATOM     25  H   UNL A   1      31.736  30.107  21.474  1.00  0.00     0.159 HD
ENDBRANCH  21  23
ENDBRANCH  19  21
ENDBRANCH  18  19
ENDBRANCH  11  16
ENDBRANCH   5  10
ENDBRANCH   2   4
ENDBRANCH   1   2
BRANCH   1  26
ATOM     26  C   UNL A   1      40.008  19.508  25.774  1.00  0.00     0.275 C 
BRANCH  26  27
ATOM     27  C   UNL A   1      41.245  20.098  26.435  1.00  0.00     0.275 C 
BRANCH  27  28
ATOM     28  O   UNL A   1      41.854  21.055  25.574  1.00  0.00    -0.458 OA
BRANCH  28  29
ATOM     29  C   UNL A   1      43.204  21.017  25.525  1.00  0.00     0.338 C 
ATOM     30  O   UNL A   1      43.919  20.029  25.535  1.00  0.00    -0.246 OA
BRANCH  29  31
ATOM     31  C   UNL A   1      43.720  22.379  25.681  1.00  0.00     0.060 A 
ATOM     32  C   UNL A   1      44.513  22.620  26.808  1.00  0.00     0.016 A 
ATOM     33  C   UNL A   1      43.103  23.412  24.961  1.00  0.00     0.016 A 
ATOM     34  C   UNL A   1      44.468  23.873  27.371  1.00  0.00     0.010 A 
ATOM     35  C   UNL A   1      43.040  24.653  25.537  1.00  0.00     0.010 A 
ATOM     36  C   UNL A   1      43.637  24.830  26.782  1.00  0.00    -0.014 A 
BRANCH  36  37
ATOM     37  C   UNL A   1      43.416  26.069  27.487  1.00  0.00     0.031 A 
ATOM     38  C   UNL A   1      44.427  27.102  27.181  1.00  0.00     0.074 A 
ATOM     39  C   UNL A   1      42.294  26.268  28.204  1.00  0.00     0.049 A 
ATOM     40  N   UNL A   1      45.253  27.679  27.988  1.00  0.00    -0.248 NA
ATOM     41  C   UNL A   1      44.649  27.416  25.759  1.00  0.00     0.031 C 
ATOM     42  C   UNL A   1      41.114  25.401  28.303  1.00  0.00     0.029 A 
ATOM     43  N   UNL A   1      41.925  27.363  28.912  1.00  0.00    -0.354 N 
ATOM     44  C   UNL A   1      45.956  28.585  27.201  1.00  0.00     0.074 A 
ATOM     45  C   UNL A   1      45.690  28.242  25.830  1.00  0.00     0.031 C 
ATOM     46  C   UNL A   1      40.087  26.107  28.828  1.00  0.00     0.029 A 
ATOM     47  C   UNL A   1      40.572  27.421  29.211  1.00  0.00     0.049 A 
ATOM     48  H   UNL A   1      42.564  28.059  29.191  1.00  0.00     0.167 HD
ATOM     49  C   UNL A   1      46.468  29.725  27.731  1.00  0.00     0.037 A 
ATOM     50  C   UNL A   1      39.905  28.520  29.642  1.00  0.00     0.037 A 
ATOM     51  C   UNL A   1      46.632  29.620  29.158  1.00  0.00     0.049 A 
ATOM     52  C   UNL A   1      40.919  29.482  30.152  1.00  0.00     0.074 A 
ATOM     53  C   UNL A   1      47.341  28.778  29.991  1.00  0.00     0.029 A 
ATOM     54  N   UNL A   1      45.711  30.247  29.960  1.00  0.00    -0.354 N 
ATOM     55  N   UNL A   1      41.636  29.282  31.223  1.00  0.00    -0.248 NA
ATOM     56  C   UNL A   1      41.465  30.451  29.211  1.00  0.00     0.031 C 
ATOM     57  C   UNL A   1      46.501  28.586  31.127  1.00  0.00     0.029 A 
ATOM     58  C   UNL A   1      45.352  29.355  30.939  1.00  0.00     0.049 A 
ATOM     59  H   UNL A   1      45.370  31.165  29.853  1.00  0.00     0.167 HD
ATOM     60  C   UNL A   1      42.898  29.770  30.907  1.00  0.00     0.074 A 
ATOM     61  C   UNL A   1      42.709  30.551  29.687  1.00  0.00     0.031 C 
ATOM     62  C   UNL A   1      44.022  29.260  31.494  1.00  0.00     0.037 A 
BRANCH  49  63
ATOM     63  C   UNL A   1      46.430  31.045  27.005  1.00  0.00     0.057 A 
ATOM     64  C   UNL A   1      47.597  31.822  26.940  1.00  0.00     0.134 A 
ATOM     65  C   UNL A   1      45.243  31.709  26.626  1.00  0.00     0.134 A 
ATOM     66  F   UNL A   1      48.784  31.311  27.296  1.00  0.00    -0.206 F 
ATOM     67  C   UNL A   1      47.572  33.177  26.591  1.00  0.00     0.040 A 
ATOM     68  C   UNL A   1      45.215  33.044  26.222  1.00  0.00     0.040 A 
ATOM     69  F   UNL A   1      44.034  31.144  26.725  1.00  0.00    -0.206 F 
ATOM     70  C   UNL A   1      46.377  33.794  26.236  1.00  0.00     0.006 A 
ENDBRANCH  49  63
BRANCH  50  71
ATOM     71  C   UNL A   1      38.521  28.922  29.306  1.00  0.00     0.057 A 
ATOM     72  C   UNL A   1      37.539  29.052  30.298  1.00  0.00     0.134 A 
ATOM     73  C   UNL A   1      38.186  29.436  28.039  1.00  0.00     0.134 A 
ATOM     74  F   UNL A   1      37.781  28.638  31.550  1.00  0.00    -0.206 F 
ATOM     75  C   UNL A   1      36.305  29.667  30.047  1.00  0.00     0.040 A 
ATOM     76  C   UNL A   1      36.955  30.042  27.773  1.00  0.00     0.040 A 
ATOM     77  F   UNL A   1      39.077  29.446  27.036  1.00  0.00    -0.206 F 
ATOM     78  C   UNL A   1      36.012  30.171  28.783  1.00  0.00     0.006 A 
ENDBRANCH  50  71
BRANCH  62  79
ATOM     79  C   UNL A   1      43.835  28.311  32.646  1.00  0.00     0.057 A 
ATOM     80  C   UNL A   1      43.749  26.919  32.498  1.00  0.00     0.134 A 
ATOM     81  C   UNL A   1      43.904  28.803  33.953  1.00  0.00     0.134 A 
ATOM     82  F   UNL A   1      43.784  26.349  31.289  1.00  0.00    -0.206 F 
ATOM     83  C   UNL A   1      43.685  26.058  33.598  1.00  0.00     0.040 A 
ATOM     84  C   UNL A   1      43.875  27.953  35.061  1.00  0.00     0.040 A 
ATOM     85  F   UNL A   1      44.052  30.119  34.173  1.00  0.00    -0.206 F 
ATOM     86  C   UNL A   1      43.755  26.576  34.887  1.00  0.00     0.006 A 
ENDBRANCH  62  79
ENDBRANCH  36  37
ENDBRANCH  29  31
ENDBRANCH  28  29
ENDBRANCH  27  28
ENDBRANCH  26  27
ENDBRANCH   1  26
TORSDOF 16
ENDMDL
MODEL 3
REMARK VINA RESULT:     -11.2      6.118     10.867
REMARK SMILES C/C(=N\NC(N)=S)c1nnn(-c2ccc(C(=O)OCCOC(=O)c3ccc(-c4c5nc(c(-c6c(F)cccc6F)c6ccc([nH]6)c(-c6c(F)cccc6F)c6nc(c(-c7c(F)cccc7F)c7ccc4[nH]7)C=C6)C=C5)cc3)cc2)c1C
REMARK SMILES IDX 18 1 16 2 17 3 15 4 12 5 13 6 79 7 14 8 78 9 11 10 8 11 9 12
REMARK SMILES IDX 80 13 10 14 81 15 2 16 1 17 3 18 4 19 5 21 7 22 6 23 19 26
REMARK SMILES IDX 20 27 21 28 22 29 23 30 24 31 25 32 77 33 26 34 76 35 27 36
REMARK SMILES IDX 28 37 29 38 70 39 30 40 75 41 69 42 71 43 31 44 74 45 68 46
REMARK SMILES IDX 67 47 32 49 58 50 41 51 57 52 42 53 45 54 56 55 72 56 43 57
REMARK SMILES IDX 44 58 55 60 73 61 46 62 33 63 34 64 39 65 35 66 36 67 38 68
REMARK SMILES IDX 40 69 37 70 59 71 60 72 65 73 61 74 62 75 64 76 66 77 63 78
REMARK SMILES IDX 47 79 48 80 53 81 49 82 50 83 52 84 54 85 51 86
REMARK H PARENT 4 20 6 24 6 25 71 48 45 59
REMARK Flexibility Score: inf
ROOT
ATOM      1  O   UNL A   1      40.564  19.559  26.067  1.00  0.00    -0.458 OA
ENDROOT
BRANCH   1   2
ATOM      2  C   UNL A   1      40.165  20.657  26.760  1.00  0.00     0.338 C 
ATOM      3  O   UNL A   1      40.634  21.061  27.815  1.00  0.00    -0.246 OA
BRANCH   2   4
ATOM      4  C   UNL A   1      39.107  21.376  26.006  1.00  0.00     0.060 A 
ATOM      5  C   UNL A   1      36.938  22.676  24.871  1.00  0.00     0.067 A 
ATOM      6  C   UNL A   1      37.839  23.416  25.642  1.00  0.00     0.029 A 
ATOM      7  C   UNL A   1      37.194  21.344  24.538  1.00  0.00     0.029 A 
ATOM      8  C   UNL A   1      38.917  22.750  26.232  1.00  0.00     0.018 A 
ATOM      9  C   UNL A   1      38.285  20.695  25.101  1.00  0.00     0.018 A 
BRANCH   5  10
ATOM     10  N   UNL A   1      35.659  23.205  24.613  1.00  0.00    -0.217 N 
ATOM     11  C   UNL A   1      33.688  24.084  24.887  1.00  0.00     0.132 A 
ATOM     12  N   UNL A   1      34.166  24.451  23.657  1.00  0.00    -0.128 NA
ATOM     13  C   UNL A   1      34.623  23.301  25.532  1.00  0.00     0.071 A 
ATOM     14  N   UNL A   1      35.394  23.968  23.530  1.00  0.00    -0.061 NA
ATOM     15  C   UNL A   1      34.692  22.854  26.945  1.00  0.00     0.069 C 
BRANCH  11  16
ATOM     16  C   UNL A   1      32.509  24.693  25.472  1.00  0.00     0.087 C 
ATOM     17  C   UNL A   1      31.239  23.892  25.354  1.00  0.00     0.071 C 
ATOM     18  N   UNL A   1      32.692  25.846  26.044  1.00  0.00    -0.176 NA
BRANCH  18  19
ATOM     19  N   UNL A   1      31.683  26.490  26.701  1.00  0.00    -0.254 N 
ATOM     20  H   UNL A   1      30.925  25.926  26.975  1.00  0.00     0.193 HD
BRANCH  19  21
ATOM     21  C   UNL A   1      31.584  27.826  27.030  1.00  0.00     0.184 C 
ATOM     22  S   UNL A   1      31.912  29.174  26.115  1.00  0.00    -0.040 S 
BRANCH  21  23
ATOM     23  N   UNL A   1      31.146  28.005  28.315  1.00  0.00    -0.375 N 
ATOM     24  H   UNL A   1      30.182  27.978  28.515  1.00  0.00     0.159 HD
ATOM     25  H   UNL A   1      31.794  28.159  29.039  1.00  0.00     0.159 HD
ENDBRANCH  21  23
ENDBRANCH  19  21
ENDBRANCH  18  19
ENDBRANCH  11  16
ENDBRANCH   5  10
ENDBRANCH   2   4
ENDBRANCH   1   2
BRANCH   1  26
ATOM     26  C   UNL A   1      41.918  19.123  26.267  1.00  0.00     0.275 C 
BRANCH  26  27
ATOM     27  C   UNL A   1      42.902  20.163  25.752  1.00  0.00     0.275 C 
BRANCH  27  28
ATOM     28  O   UNL A   1      44.031  19.523  25.164  1.00  0.00    -0.458 OA
BRANCH  28  29
ATOM     29  C   UNL A   1      44.481  20.077  24.017  1.00  0.00     0.338 C 
ATOM     30  O   UNL A   1      44.635  19.527  22.939  1.00  0.00    -0.246 OA
BRANCH  29  31
ATOM     31  C   UNL A   1      44.979  21.424  24.306  1.00  0.00     0.060 A 
ATOM     32  C   UNL A   1      45.911  21.533  25.343  1.00  0.00     0.016 A 
ATOM     33  C   UNL A   1      44.245  22.521  23.836  1.00  0.00     0.016 A 
ATOM     34  C   UNL A   1      45.911  22.689  26.089  1.00  0.00     0.010 A 
ATOM     35  C   UNL A   1      44.229  23.661  24.593  1.00  0.00     0.010 A 
ATOM     36  C   UNL A   1      44.985  23.682  25.763  1.00  0.00    -0.014 A 
BRANCH  36  37
ATOM     37  C   UNL A   1      44.830  24.796  26.668  1.00  0.00     0.031 A 
ATOM     38  C   UNL A   1      45.963  25.742  26.626  1.00  0.00     0.074 A 
ATOM     39  C   UNL A   1      43.676  24.993  27.333  1.00  0.00     0.049 A 
ATOM     40  N   UNL A   1      46.770  26.069  27.580  1.00  0.00    -0.248 NA
ATOM     41  C   UNL A   1      46.339  26.274  25.304  1.00  0.00     0.031 C 
ATOM     42  C   UNL A   1      42.410  24.264  27.191  1.00  0.00     0.029 A 
ATOM     43  N   UNL A   1      43.360  25.982  28.205  1.00  0.00    -0.354 N 
ATOM     44  C   UNL A   1      47.627  27.012  27.022  1.00  0.00     0.074 A 
ATOM     45  C   UNL A   1      47.448  26.949  25.596  1.00  0.00     0.031 C 
ATOM     46  C   UNL A   1      41.418  24.981  27.768  1.00  0.00     0.029 A 
ATOM     47  C   UNL A   1      41.999  26.142  28.418  1.00  0.00     0.049 A 
ATOM     48  H   UNL A   1      44.039  26.539  28.649  1.00  0.00     0.167 HD
ATOM     49  C   UNL A   1      48.204  27.973  27.786  1.00  0.00     0.037 A 
ATOM     50  C   UNL A   1      41.412  27.217  28.999  1.00  0.00     0.037 A 
ATOM     51  C   UNL A   1      48.233  27.601  29.177  1.00  0.00     0.049 A 
ATOM     52  C   UNL A   1      42.470  27.950  29.744  1.00  0.00     0.074 A 
ATOM     53  C   UNL A   1      48.778  26.549  29.886  1.00  0.00     0.029 A 
ATOM     54  N   UNL A   1      47.314  28.179  30.018  1.00  0.00    -0.354 N 
ATOM     55  N   UNL A   1      43.068  27.484  30.806  1.00  0.00    -0.248 NA
ATOM     56  C   UNL A   1      43.192  29.000  29.037  1.00  0.00     0.031 C 
ATOM     57  C   UNL A   1      47.827  26.258  30.908  1.00  0.00     0.029 A 
ATOM     58  C   UNL A   1      46.783  27.176  30.789  1.00  0.00     0.049 A 
ATOM     59  H   UNL A   1      47.079  29.134  30.060  1.00  0.00     0.167 HD
ATOM     60  C   UNL A   1      44.395  27.871  30.671  1.00  0.00     0.074 A 
ATOM     61  C   UNL A   1      44.394  28.871  29.606  1.00  0.00     0.031 C 
ATOM     62  C   UNL A   1      45.407  27.139  31.226  1.00  0.00     0.037 A 
BRANCH  49  63
ATOM     63  C   UNL A   1      48.364  29.396  27.315  1.00  0.00     0.057 A 
ATOM     64  C   UNL A   1      49.624  30.007  27.403  1.00  0.00     0.134 A 
ATOM     65  C   UNL A   1      47.287  30.273  27.057  1.00  0.00     0.134 A 
ATOM     66  F   UNL A   1      50.722  29.284  27.667  1.00  0.00    -0.206 F 
ATOM     67  C   UNL A   1      49.789  31.394  27.309  1.00  0.00     0.040 A 
ATOM     68  C   UNL A   1      47.447  31.650  26.906  1.00  0.00     0.040 A 
ATOM     69  F   UNL A   1      46.011  29.868  27.042  1.00  0.00    -0.206 F 
ATOM     70  C   UNL A   1      48.698  32.221  27.066  1.00  0.00     0.006 A 
ENDBRANCH  49  63
BRANCH  50  71
ATOM     71  C   UNL A   1      40.110  27.829  28.651  1.00  0.00     0.057 A 
ATOM     72  C   UNL A   1      39.064  27.893  29.582  1.00  0.00     0.134 A 
ATOM     73  C   UNL A   1      39.941  28.595  27.482  1.00  0.00     0.134 A 
ATOM     74  F   UNL A   1      39.152  27.239  30.748  1.00  0.00    -0.206 F 
ATOM     75  C   UNL A   1      37.924  28.681  29.367  1.00  0.00     0.040 A 
ATOM     76  C   UNL A   1      38.805  29.376  27.252  1.00  0.00     0.040 A 
ATOM     77  F   UNL A   1      40.912  28.679  26.561  1.00  0.00    -0.206 F 
ATOM     78  C   UNL A   1      37.795  29.431  28.202  1.00  0.00     0.006 A 
ENDBRANCH  50  71
BRANCH  62  79
ATOM     79  C   UNL A   1      45.026  26.030  32.168  1.00  0.00     0.057 A 
ATOM     80  C   UNL A   1      44.723  24.725  31.750  1.00  0.00     0.134 A 
ATOM     81  C   UNL A   1      45.122  26.243  33.547  1.00  0.00     0.134 A 
ATOM     82  F   UNL A   1      44.713  24.402  30.452  1.00  0.00    -0.206 F 
ATOM     83  C   UNL A   1      44.480  23.692  32.659  1.00  0.00     0.040 A 
ATOM     84  C   UNL A   1      44.914  25.211  34.467  1.00  0.00     0.040 A 
ATOM     85  F   UNL A   1      45.471  27.448  34.022  1.00  0.00    -0.206 F 
ATOM     86  C   UNL A   1      44.581  23.933  34.025  1.00  0.00     0.006 A 
ENDBRANCH  62  79
ENDBRANCH  36  37
ENDBRANCH  29  31
ENDBRANCH  28  29
ENDBRANCH  27  28
ENDBRANCH  26  27
ENDBRANCH   1  26
TORSDOF 16
ENDMDL
