MODEL 1
REMARK VINA RESULT:     -14.4      0.000      0.000
REMARK SMILES Cc1ccc(N2C(=O)N=C(OCCOC(=O)c3ccc(-c4c5nc(c(-c6c(F)cccc6F)c6ccc([nH]6)c(-c6c(F)cccc6F)c6nc(c(-c7c(F)cccc7F)c7ccc4[nH]7)C=C6)C=C5)cc3)/C(=C\c3ccccc3OCc3cccc(C(=O)[O-])c3)C2=O)cc1
REMARK SMILES IDX 12 1 11 2 10 3 6 4 7 5 90 6 8 7 9 8 71 9 91 10 72 11 5 12
REMARK SMILES IDX 1 13 2 14 3 15 93 16 4 17 92 18 73 19 74 20 78 21 75 22
REMARK SMILES IDX 77 23 76 24 79 25 80 26 81 27 82 28 89 29 83 30 85 31 84 32
REMARK SMILES IDX 86 33 87 34 88 35 13 36 14 37 15 38 16 39 17 40 18 41 70 42
REMARK SMILES IDX 19 43 69 44 20 45 21 46 22 47 63 48 23 49 68 50 62 51 64 52
REMARK SMILES IDX 24 53 67 54 61 55 60 56 25 58 51 59 34 60 50 61 35 62 38 63
REMARK SMILES IDX 49 64 65 65 36 66 37 67 48 69 66 70 39 71 26 72 27 73 32 74
REMARK SMILES IDX 28 75 29 76 31 77 33 78 30 79 52 80 53 81 58 82 54 83 55 84
REMARK SMILES IDX 57 85 59 86 56 87 40 88 41 89 46 90 42 91 43 92 45 93 47 94
REMARK SMILES IDX 44 95
REMARK H PARENT 64 57 38 68
REMARK Flexibility Score: inf
ROOT
ATOM      1  C   UNL A   1      43.777  40.173  26.140  1.00  0.00     0.273 C 
ENDROOT
BRANCH   1   2
ATOM      2  O   UNL A   1      44.864  40.922  25.735  1.00  0.00    -0.473 OA
BRANCH   2   3
ATOM      3  C   UNL A   1      44.585  41.639  24.655  1.00  0.00     0.231 C 
ATOM      4  N   UNL A   1      43.620  42.918  21.442  1.00  0.00    -0.226 N 
ATOM      5  C   UNL A   1      42.449  42.853  22.817  1.00  0.00     0.358 C 
ATOM      6  C   UNL A   1      45.304  42.504  21.599  1.00  0.00     0.272 C 
ATOM      7  O   UNL A   1      41.303  43.287  22.547  1.00  0.00    -0.245 OA
ATOM      8  N   UNL A   1      43.164  41.975  24.438  1.00  0.00    -0.156 NA
ATOM      9  C   UNL A   1      45.940  42.095  23.361  1.00  0.00     0.103 C 
ATOM     10  O   UNL A   1      46.169  42.837  20.783  1.00  0.00    -0.268 OA
ATOM     11  C   UNL A   1      46.898  43.063  23.625  1.00  0.00     0.031 C 
BRANCH   4  12
ATOM     12  C   UNL A   1      43.194  43.482  20.120  1.00  0.00     0.054 A 
ATOM     13  C   UNL A   1      42.086  45.383  16.280  1.00  0.00     0.044 C 
ATOM     14  C   UNL A   1      42.449  44.727  17.586  1.00  0.00    -0.051 A 
ATOM     15  C   UNL A   1      41.786  43.599  18.068  1.00  0.00     0.005 A 
ATOM     16  C   UNL A   1      43.485  45.224  18.368  1.00  0.00     0.005 A 
ATOM     17  C   UNL A   1      42.165  42.980  19.299  1.00  0.00     0.027 A 
ATOM     18  C   UNL A   1      43.839  44.614  19.592  1.00  0.00     0.027 A 
ENDBRANCH   4  12
BRANCH  11  19
ATOM     19  C   UNL A   1      46.936  43.920  24.842  1.00  0.00     0.018 A 
ATOM     20  C   UNL A   1      47.971  43.713  25.778  1.00  0.00     0.012 A 
ATOM     21  C   UNL A   1      45.848  44.732  25.189  1.00  0.00     0.127 A 
ATOM     22  C   UNL A   1      47.765  43.891  27.148  1.00  0.00     0.001 A 
ATOM     23  C   UNL A   1      45.626  44.799  26.614  1.00  0.00     0.047 A 
ATOM     24  C   UNL A   1      46.518  44.284  27.575  1.00  0.00     0.004 A 
BRANCH  21  25
ATOM     25  O   UNL A   1      45.193  45.491  24.119  1.00  0.00    -0.488 OA
BRANCH  25  26
ATOM     26  C   UNL A   1      45.263  46.076  22.438  1.00  0.00     0.265 C 
BRANCH  26  27
ATOM     27  C   UNL A   1      45.802  47.307  21.363  1.00  0.00    -0.010 A 
ATOM     28  C   UNL A   1      47.119  47.668  21.108  1.00  0.00     0.007 A 
ATOM     29  C   UNL A   1      45.023  47.916  20.352  1.00  0.00     0.017 A 
ATOM     30  C   UNL A   1      47.425  48.613  20.047  1.00  0.00     0.001 A 
ATOM     31  C   UNL A   1      45.082  49.087  19.555  1.00  0.00    -0.002 A 
ATOM     32  C   UNL A   1      46.420  49.341  19.304  1.00  0.00     0.010 A 
BRANCH  31  33
ATOM     33  C   UNL A   1      43.722  49.739  18.624  1.00  0.00     0.071 C 
ATOM     34  O   UNL A   1      43.597  50.930  19.050  1.00  0.00    -0.545 OA
ATOM     35  O   UNL A   1      42.511  48.846  17.287  1.00  0.00    -0.545 OA
ENDBRANCH  31  33
ENDBRANCH  26  27
ENDBRANCH  25  26
ENDBRANCH  21  25
ENDBRANCH  11  19
ENDBRANCH   2   3
ENDBRANCH   1   2
BRANCH   1  36
ATOM     36  C   UNL A   1      43.585  40.235  27.663  1.00  0.00     0.274 C 
BRANCH  36  37
ATOM     37  O   UNL A   1      43.170  38.982  28.496  1.00  0.00    -0.458 OA
BRANCH  37  38
ATOM     38  C   UNL A   1      43.537  37.808  29.143  1.00  0.00     0.338 C 
ATOM     39  O   UNL A   1      44.319  37.863  30.088  1.00  0.00    -0.246 OA
BRANCH  38  40
ATOM     40  C   UNL A   1      43.113  36.350  28.734  1.00  0.00     0.060 A 
ATOM     41  C   UNL A   1      43.686  35.751  27.096  1.00  0.00     0.016 A 
ATOM     42  C   UNL A   1      42.770  34.815  29.939  1.00  0.00     0.016 A 
ATOM     43  C   UNL A   1      44.023  33.940  26.962  1.00  0.00     0.010 A 
ATOM     44  C   UNL A   1      43.393  33.253  29.616  1.00  0.00     0.010 A 
ATOM     45  C   UNL A   1      43.935  32.775  28.339  1.00  0.00    -0.014 A 
BRANCH  45  46
ATOM     46  C   UNL A   1      44.060  31.198  29.080  1.00  0.00     0.031 A 
ATOM     47  C   UNL A   1      45.012  30.482  28.307  1.00  0.00     0.074 A 
ATOM     48  C   UNL A   1      43.174  30.178  29.693  1.00  0.00     0.049 A 
ATOM     49  N   UNL A   1      45.131  28.841  28.249  1.00  0.00    -0.248 NA
ATOM     50  C   UNL A   1      46.543  31.307  27.262  1.00  0.00     0.031 C 
ATOM     51  C   UNL A   1      43.404  28.959  30.545  1.00  0.00     0.029 A 
ATOM     52  N   UNL A   1      41.762  30.063  29.750  1.00  0.00    -0.354 N 
ATOM     53  C   UNL A   1      46.756  28.330  27.501  1.00  0.00     0.074 A 
ATOM     54  C   UNL A   1      47.560  30.022  26.851  1.00  0.00     0.031 C 
ATOM     55  C   UNL A   1      42.241  28.282  30.825  1.00  0.00     0.029 A 
ATOM     56  C   UNL A   1      41.108  28.921  30.173  1.00  0.00     0.049 A 
ATOM     57  H   UNL A   1      41.219  30.837  29.474  1.00  0.00     0.167 HD
ATOM     58  C   UNL A   1      47.231  27.278  28.264  1.00  0.00     0.037 A 
ATOM     59  C   UNL A   1      39.867  28.463  29.737  1.00  0.00     0.037 A 
ATOM     60  C   UNL A   1      46.053  26.577  28.818  1.00  0.00     0.049 A 
ATOM     61  C   UNL A   1      40.201  27.233  28.954  1.00  0.00     0.074 A 
ATOM     62  C   UNL A   1      45.521  26.414  30.093  1.00  0.00     0.029 A 
ATOM     63  N   UNL A   1      45.011  26.255  27.951  1.00  0.00    -0.354 N 
ATOM     64  N   UNL A   1      41.444  26.961  28.696  1.00  0.00    -0.248 NA
ATOM     65  C   UNL A   1      39.281  26.229  28.434  1.00  0.00     0.031 C 
ATOM     66  C   UNL A   1      44.198  25.893  29.964  1.00  0.00     0.029 A 
ATOM     67  C   UNL A   1      43.897  25.789  28.616  1.00  0.00     0.049 A 
ATOM     68  H   UNL A   1      45.065  26.350  26.973  1.00  0.00     0.167 HD
ATOM     69  C   UNL A   1      41.544  25.754  28.114  1.00  0.00     0.074 A 
ATOM     70  C   UNL A   1      40.162  25.332  27.949  1.00  0.00     0.031 C 
ATOM     71  C   UNL A   1      42.775  25.247  27.845  1.00  0.00     0.037 A 
BRANCH  58  72
ATOM     72  C   UNL A   1      48.624  27.110  28.849  1.00  0.00     0.057 A 
ATOM     73  C   UNL A   1      49.324  25.887  28.708  1.00  0.00     0.134 A 
ATOM     74  C   UNL A   1      49.322  28.065  29.604  1.00  0.00     0.134 A 
ATOM     75  F   UNL A   1      48.808  24.848  28.040  1.00  0.00    -0.206 F 
ATOM     76  C   UNL A   1      50.597  25.653  29.249  1.00  0.00     0.040 A 
ATOM     77  C   UNL A   1      50.601  27.850  30.147  1.00  0.00     0.040 A 
ATOM     78  F   UNL A   1      48.804  29.261  29.875  1.00  0.00    -0.206 F 
ATOM     79  C   UNL A   1      51.251  26.642  29.961  1.00  0.00     0.006 A 
ENDBRANCH  58  72
BRANCH  59  80
ATOM     80  C   UNL A   1      38.654  29.360  29.403  1.00  0.00     0.057 A 
ATOM     81  C   UNL A   1      38.366  29.610  28.047  1.00  0.00     0.134 A 
ATOM     82  C   UNL A   1      37.582  29.646  30.279  1.00  0.00     0.134 A 
ATOM     83  F   UNL A   1      39.365  29.672  27.154  1.00  0.00    -0.206 F 
ATOM     84  C   UNL A   1      37.051  29.748  27.558  1.00  0.00     0.040 A 
ATOM     85  C   UNL A   1      36.242  29.750  29.798  1.00  0.00     0.040 A 
ATOM     86  F   UNL A   1      37.736  29.510  31.603  1.00  0.00    -0.206 F 
ATOM     87  C   UNL A   1      35.973  29.702  28.430  1.00  0.00     0.006 A 
ENDBRANCH  59  80
BRANCH  71  88
ATOM     88  C   UNL A   1      43.022  24.128  26.888  1.00  0.00     0.057 A 
ATOM     89  C   UNL A   1      43.209  24.302  25.514  1.00  0.00     0.134 A 
ATOM     90  C   UNL A   1      43.204  22.809  27.358  1.00  0.00     0.134 A 
ATOM     91  F   UNL A   1      43.284  25.511  24.943  1.00  0.00    -0.206 F 
ATOM     92  C   UNL A   1      43.397  23.226  24.652  1.00  0.00     0.040 A 
ATOM     93  C   UNL A   1      43.525  21.751  26.523  1.00  0.00     0.040 A 
ATOM     94  F   UNL A   1      43.101  22.472  28.651  1.00  0.00    -0.206 F 
ATOM     95  C   UNL A   1      43.568  21.945  25.157  1.00  0.00     0.006 A 
ENDBRANCH  71  88
ENDBRANCH  45  46
ENDBRANCH  38  40
ENDBRANCH  37  38
ENDBRANCH  36  37
ENDBRANCH   1  36
TORSDOF 16
ENDMDL
MODEL 2
REMARK VINA RESULT:     -14.3     10.096     14.515
REMARK SMILES Cc1ccc(N2C(=O)N=C(OCCOC(=O)c3ccc(-c4c5nc(c(-c6c(F)cccc6F)c6ccc([nH]6)c(-c6c(F)cccc6F)c6nc(c(-c7c(F)cccc7F)c7ccc4[nH]7)C=C6)C=C5)cc3)/C(=C\c3ccccc3OCc3cccc(C(=O)[O-])c3)C2=O)cc1
REMARK SMILES IDX 12 1 11 2 10 3 6 4 7 5 90 6 8 7 9 8 71 9 91 10 72 11 5 12
REMARK SMILES IDX 1 13 2 14 3 15 93 16 4 17 92 18 73 19 74 20 78 21 75 22
REMARK SMILES IDX 77 23 76 24 79 25 80 26 81 27 82 28 89 29 83 30 85 31 84 32
REMARK SMILES IDX 86 33 87 34 88 35 13 36 14 37 15 38 16 39 17 40 18 41 70 42
REMARK SMILES IDX 19 43 69 44 20 45 21 46 22 47 63 48 23 49 68 50 62 51 64 52
REMARK SMILES IDX 24 53 67 54 61 55 60 56 25 58 51 59 34 60 50 61 35 62 38 63
REMARK SMILES IDX 49 64 65 65 36 66 37 67 48 69 66 70 39 71 26 72 27 73 32 74
REMARK SMILES IDX 28 75 29 76 31 77 33 78 30 79 52 80 53 81 58 82 54 83 55 84
REMARK SMILES IDX 57 85 59 86 56 87 40 88 41 89 46 90 42 91 43 92 45 93 47 94
REMARK SMILES IDX 44 95
REMARK H PARENT 64 57 38 68
REMARK Flexibility Score: inf
ROOT
ATOM      1  C   UNL A   1      45.860  28.885  27.588  1.00  0.00     0.273 C 
ENDROOT
BRANCH   1   2
ATOM      2  O   UNL A   1      44.927  28.141  28.282  1.00  0.00    -0.473 OA
BRANCH   2   3
ATOM      3  C   UNL A   1      43.917  28.893  28.697  1.00  0.00     0.231 C 
ATOM      4  N   UNL A   1      41.610  31.029  30.432  1.00  0.00    -0.226 N 
ATOM      5  C   UNL A   1      42.835  31.704  29.286  1.00  0.00     0.358 C 
ATOM      6  C   UNL A   1      41.366  29.323  30.676  1.00  0.00     0.272 C 
ATOM      7  O   UNL A   1      42.799  32.951  29.159  1.00  0.00    -0.245 OA
ATOM      8  N   UNL A   1      44.088  30.354  28.567  1.00  0.00    -0.156 NA
ATOM      9  C   UNL A   1      42.370  28.130  29.558  1.00  0.00     0.103 C 
ATOM     10  O   UNL A   1      40.352  28.844  31.193  1.00  0.00    -0.268 OA
ATOM     11  C   UNL A   1      41.412  27.430  28.839  1.00  0.00     0.031 C 
BRANCH   4  12
ATOM     12  C   UNL A   1      40.644  31.945  31.121  1.00  0.00     0.054 A 
ATOM     13  C   UNL A   1      37.987  34.684  33.362  1.00  0.00     0.044 C 
ATOM     14  C   UNL A   1      38.878  33.746  32.592  1.00  0.00    -0.051 A 
ATOM     15  C   UNL A   1      38.403  32.944  31.554  1.00  0.00     0.005 A 
ATOM     16  C   UNL A   1      40.233  33.649  32.886  1.00  0.00     0.005 A 
ATOM     17  C   UNL A   1      39.273  32.078  30.823  1.00  0.00     0.027 A 
ATOM     18  C   UNL A   1      41.080  32.775  32.167  1.00  0.00     0.027 A 
ENDBRANCH   4  12
BRANCH  11  19
ATOM     19  C   UNL A   1      41.394  27.279  27.358  1.00  0.00     0.018 A 
ATOM     20  C   UNL A   1      41.880  26.078  26.798  1.00  0.00     0.012 A 
ATOM     21  C   UNL A   1      41.149  28.376  26.523  1.00  0.00     0.127 A 
ATOM     22  C   UNL A   1      42.543  26.059  25.569  1.00  0.00     0.001 A 
ATOM     23  C   UNL A   1      41.934  28.350  25.312  1.00  0.00     0.047 A 
ATOM     24  C   UNL A   1      42.710  27.249  24.900  1.00  0.00     0.004 A 
BRANCH  21  25
ATOM     25  O   UNL A   1      40.069  29.293  26.899  1.00  0.00    -0.488 OA
BRANCH  25  26
ATOM     26  C   UNL A   1      38.550  29.532  27.799  1.00  0.00     0.265 C 
BRANCH  26  27
ATOM     27  C   UNL A   1      36.921  30.084  27.754  1.00  0.00    -0.010 A 
ATOM     28  C   UNL A   1      35.834  29.418  27.205  1.00  0.00     0.007 A 
ATOM     29  C   UNL A   1      36.386  31.135  28.536  1.00  0.00     0.017 A 
ATOM     30  C   UNL A   1      34.488  29.936  27.393  1.00  0.00     0.001 A 
ATOM     31  C   UNL A   1      35.240  31.968  28.516  1.00  0.00    -0.002 A 
ATOM     32  C   UNL A   1      34.197  31.212  28.009  1.00  0.00     0.010 A 
BRANCH  31  33
ATOM     33  C   UNL A   1      35.061  33.456  29.462  1.00  0.00     0.071 C 
ATOM     34  O   UNL A   1      35.844  34.281  28.893  1.00  0.00    -0.545 OA
ATOM     35  O   UNL A   1      34.006  33.817  31.137  1.00  0.00    -0.545 OA
ENDBRANCH  31  33
ENDBRANCH  26  27
ENDBRANCH  25  26
ENDBRANCH  21  25
ENDBRANCH  11  19
ENDBRANCH   2   3
ENDBRANCH   1   2
BRANCH   1  36
ATOM     36  C   UNL A   1      45.987  28.414  26.131  1.00  0.00     0.274 C 
BRANCH  36  37
ATOM     37  O   UNL A   1      46.010  26.901  25.749  1.00  0.00    -0.458 OA
BRANCH  37  38
ATOM     38  C   UNL A   1      46.164  25.577  26.141  1.00  0.00     0.338 C 
ATOM     39  O   UNL A   1      46.096  24.689  25.295  1.00  0.00    -0.246 OA
BRANCH  38  40
ATOM     40  C   UNL A   1      46.340  25.058  27.615  1.00  0.00     0.060 A 
ATOM     41  C   UNL A   1      47.745  25.751  28.574  1.00  0.00     0.016 A 
ATOM     42  C   UNL A   1      44.920  24.429  28.846  1.00  0.00     0.016 A 
ATOM     43  C   UNL A   1      47.485  25.918  30.395  1.00  0.00     0.010 A 
ATOM     44  C   UNL A   1      44.855  24.927  30.483  1.00  0.00     0.010 A 
ATOM     45  C   UNL A   1      45.936  25.558  31.249  1.00  0.00    -0.014 A 
BRANCH  45  46
ATOM     46  C   UNL A   1      44.898  25.441  32.649  1.00  0.00     0.031 A 
ATOM     47  C   UNL A   1      44.844  26.748  33.200  1.00  0.00     0.074 A 
ATOM     48  C   UNL A   1      44.638  24.506  33.772  1.00  0.00     0.049 A 
ATOM     49  N   UNL A   1      44.441  27.093  34.760  1.00  0.00    -0.248 NA
ATOM     50  C   UNL A   1      45.061  28.476  32.161  1.00  0.00     0.031 C 
ATOM     51  C   UNL A   1      43.539  24.364  34.789  1.00  0.00     0.029 A 
ATOM     52  N   UNL A   1      45.324  23.349  34.217  1.00  0.00    -0.354 N 
ATOM     53  C   UNL A   1      44.054  28.902  34.948  1.00  0.00     0.074 A 
ATOM     54  C   UNL A   1      44.545  29.703  33.202  1.00  0.00     0.031 C 
ATOM     55  C   UNL A   1      43.779  23.352  35.689  1.00  0.00     0.029 A 
ATOM     56  C   UNL A   1      45.066  22.727  35.424  1.00  0.00     0.049 A 
ATOM     57  H   UNL A   1      46.022  22.967  33.635  1.00  0.00     0.167 HD
ATOM     58  C   UNL A   1      42.933  28.986  35.756  1.00  0.00     0.037 A 
ATOM     59  C   UNL A   1      45.978  22.035  36.216  1.00  0.00     0.037 A 
ATOM     60  C   UNL A   1      42.953  27.808  36.650  1.00  0.00     0.049 A 
ATOM     61  C   UNL A   1      46.144  22.917  37.413  1.00  0.00     0.074 A 
ATOM     62  C   UNL A   1      42.169  26.668  36.783  1.00  0.00     0.029 A 
ATOM     63  N   UNL A   1      44.141  27.507  37.314  1.00  0.00    -0.354 N 
ATOM     64  N   UNL A   1      45.621  24.104  37.406  1.00  0.00    -0.248 NA
ATOM     65  C   UNL A   1      46.824  22.605  38.665  1.00  0.00     0.031 C 
ATOM     66  C   UNL A   1      42.863  25.742  37.619  1.00  0.00     0.029 A 
ATOM     67  C   UNL A   1      44.091  26.287  37.953  1.00  0.00     0.049 A 
ATOM     68  H   UNL A   1      44.926  28.100  37.326  1.00  0.00     0.167 HD
ATOM     69  C   UNL A   1      45.755  24.678  38.614  1.00  0.00     0.074 A 
ATOM     70  C   UNL A   1      46.532  23.712  39.374  1.00  0.00     0.031 C 
ATOM     71  C   UNL A   1      45.192  25.894  38.837  1.00  0.00     0.037 A 
BRANCH  58  72
ATOM     72  C   UNL A   1      41.671  29.798  35.513  1.00  0.00     0.057 A 
ATOM     73  C   UNL A   1      41.424  30.986  36.241  1.00  0.00     0.134 A 
ATOM     74  C   UNL A   1      40.631  29.460  34.632  1.00  0.00     0.134 A 
ATOM     75  F   UNL A   1      42.292  31.457  37.145  1.00  0.00    -0.206 F 
ATOM     76  C   UNL A   1      40.267  31.766  36.089  1.00  0.00     0.040 A 
ATOM     77  C   UNL A   1      39.469  30.233  34.463  1.00  0.00     0.040 A 
ATOM     78  F   UNL A   1      40.668  28.354  33.892  1.00  0.00    -0.206 F 
ATOM     79  C   UNL A   1      39.287  31.399  35.186  1.00  0.00     0.006 A 
ENDBRANCH  58  72
BRANCH  59  80
ATOM     80  C   UNL A   1      47.112  21.129  35.685  1.00  0.00     0.057 A 
ATOM     81  C   UNL A   1      46.755  19.964  34.980  1.00  0.00     0.134 A 
ATOM     82  C   UNL A   1      48.455  21.526  35.494  1.00  0.00     0.134 A 
ATOM     83  F   UNL A   1      45.627  19.312  35.296  1.00  0.00    -0.206 F 
ATOM     84  C   UNL A   1      47.509  19.463  33.898  1.00  0.00     0.040 A 
ATOM     85  C   UNL A   1      49.214  21.056  34.381  1.00  0.00     0.040 A 
ATOM     86  F   UNL A   1      48.946  22.586  36.151  1.00  0.00    -0.206 F 
ATOM     87  C   UNL A   1      48.692  20.086  33.525  1.00  0.00     0.006 A 
ENDBRANCH  59  80
BRANCH  71  88
ATOM     88  C   UNL A   1      45.571  26.791  39.969  1.00  0.00     0.057 A 
ATOM     89  C   UNL A   1      46.593  27.741  39.904  1.00  0.00     0.134 A 
ATOM     90  C   UNL A   1      44.811  26.804  41.159  1.00  0.00     0.134 A 
ATOM     91  F   UNL A   1      47.264  28.004  38.775  1.00  0.00    -0.206 F 
ATOM     92  C   UNL A   1      46.940  28.529  40.998  1.00  0.00     0.040 A 
ATOM     93  C   UNL A   1      45.065  27.680  42.203  1.00  0.00     0.040 A 
ATOM     94  F   UNL A   1      43.770  25.988  41.372  1.00  0.00    -0.206 F 
ATOM     95  C   UNL A   1      46.167  28.509  42.149  1.00  0.00     0.006 A 
ENDBRANCH  71  88
ENDBRANCH  45  46
ENDBRANCH  38  40
ENDBRANCH  37  38
ENDBRANCH  36  37
ENDBRANCH   1  36
TORSDOF 16
ENDMDL
MODEL 3
REMARK VINA RESULT:     -14.0     11.008     15.998
REMARK SMILES Cc1ccc(N2C(=O)N=C(OCCOC(=O)c3ccc(-c4c5nc(c(-c6c(F)cccc6F)c6ccc([nH]6)c(-c6c(F)cccc6F)c6nc(c(-c7c(F)cccc7F)c7ccc4[nH]7)C=C6)C=C5)cc3)/C(=C\c3ccccc3OCc3cccc(C(=O)[O-])c3)C2=O)cc1
REMARK SMILES IDX 12 1 11 2 10 3 6 4 7 5 90 6 8 7 9 8 71 9 91 10 72 11 5 12
REMARK SMILES IDX 1 13 2 14 3 15 93 16 4 17 92 18 73 19 74 20 78 21 75 22
REMARK SMILES IDX 77 23 76 24 79 25 80 26 81 27 82 28 89 29 83 30 85 31 84 32
REMARK SMILES IDX 86 33 87 34 88 35 13 36 14 37 15 38 16 39 17 40 18 41 70 42
REMARK SMILES IDX 19 43 69 44 20 45 21 46 22 47 63 48 23 49 68 50 62 51 64 52
REMARK SMILES IDX 24 53 67 54 61 55 60 56 25 58 51 59 34 60 50 61 35 62 38 63
REMARK SMILES IDX 49 64 65 65 36 66 37 67 48 69 66 70 39 71 26 72 27 73 32 74
REMARK SMILES IDX 28 75 29 76 31 77 33 78 30 79 52 80 53 81 58 82 54 83 55 84
REMARK SMILES IDX 57 85 59 86 56 87 40 88 41 89 46 90 42 91 43 92 45 93 47 94
REMARK SMILES IDX 44 95
REMARK H PARENT 64 57 38 68
REMARK Flexibility Score: inf
ROOT
ATOM      1  C   UNL A   1      45.241  27.360  24.976  1.00  0.00     0.273 C 
ENDROOT
BRANCH   1   2
ATOM      2  O   UNL A   1      45.880  26.137  25.011  1.00  0.00    -0.473 OA
BRANCH   2   3
ATOM      3  C   UNL A   1      47.081  26.232  25.567  1.00  0.00     0.231 C 
ATOM      4  N   UNL A   1      50.547  26.072  26.485  1.00  0.00    -0.226 N 
ATOM      5  C   UNL A   1      49.907  27.422  25.469  1.00  0.00     0.358 C 
ATOM      6  C   UNL A   1      49.537  24.846  27.195  1.00  0.00     0.272 C 
ATOM      7  O   UNL A   1      50.765  28.272  25.129  1.00  0.00    -0.245 OA
ATOM      8  N   UNL A   1      48.004  27.218  24.971  1.00  0.00    -0.156 NA
ATOM      9  C   UNL A   1      47.641  25.048  26.981  1.00  0.00     0.103 C 
ATOM     10  O   UNL A   1      49.894  24.120  28.129  1.00  0.00    -0.268 OA
ATOM     11  C   UNL A   1      47.151  25.178  28.272  1.00  0.00     0.031 C 
BRANCH   4  12
ATOM     12  C   UNL A   1      51.995  26.047  26.872  1.00  0.00     0.054 A 
ATOM     13  C   UNL A   1      56.310  25.770  27.820  1.00  0.00     0.044 C 
ATOM     14  C   UNL A   1      54.839  25.870  27.513  1.00  0.00    -0.051 A 
ATOM     15  C   UNL A   1      53.941  26.531  28.351  1.00  0.00     0.005 A 
ATOM     16  C   UNL A   1      54.314  25.307  26.357  1.00  0.00     0.005 A 
ATOM     17  C   UNL A   1      52.554  26.634  28.026  1.00  0.00     0.027 A 
ATOM     18  C   UNL A   1      52.936  25.399  26.054  1.00  0.00     0.027 A 
ENDBRANCH   4  12
BRANCH  11  19
ATOM     19  C   UNL A   1      46.256  26.271  28.742  1.00  0.00     0.018 A 
ATOM     20  C   UNL A   1      46.803  27.560  28.916  1.00  0.00     0.012 A 
ATOM     21  C   UNL A   1      44.978  25.994  29.245  1.00  0.00     0.127 A 
ATOM     22  C   UNL A   1      46.354  28.416  29.924  1.00  0.00     0.001 A 
ATOM     23  C   UNL A   1      44.609  26.848  30.348  1.00  0.00     0.047 A 
ATOM     24  C   UNL A   1      45.348  27.976  30.753  1.00  0.00     0.004 A 
BRANCH  21  25
ATOM     25  O   UNL A   1      44.159  25.014  28.526  1.00  0.00    -0.488 OA
BRANCH  25  26
ATOM     26  C   UNL A   1      42.575  24.214  28.365  1.00  0.00     0.265 C 
BRANCH  26  27
ATOM     27  C   UNL A   1      41.681  22.916  27.673  1.00  0.00    -0.010 A 
ATOM     28  C   UNL A   1      40.315  22.886  27.430  1.00  0.00     0.007 A 
ATOM     29  C   UNL A   1      42.232  21.824  26.963  1.00  0.00     0.017 A 
ATOM     30  C   UNL A   1      39.729  21.785  26.683  1.00  0.00     0.001 A 
ATOM     31  C   UNL A   1      41.819  20.531  26.557  1.00  0.00    -0.002 A 
ATOM     32  C   UNL A   1      40.463  20.605  26.284  1.00  0.00     0.010 A 
BRANCH  31  33
ATOM     33  C   UNL A   1      42.912  19.259  25.984  1.00  0.00     0.071 C 
ATOM     34  O   UNL A   1      43.304  19.675  24.848  1.00  0.00    -0.545 OA
ATOM     35  O   UNL A   1      43.380  17.479  26.798  1.00  0.00    -0.545 OA
ENDBRANCH  31  33
ENDBRANCH  26  27
ENDBRANCH  25  26
ENDBRANCH  21  25
ENDBRANCH  11  19
ENDBRANCH   2   3
ENDBRANCH   1   2
BRANCH   1  36
ATOM     36  C   UNL A   1      44.053  27.405  25.950  1.00  0.00     0.274 C 
BRANCH  36  37
ATOM     37  O   UNL A   1      42.713  26.661  25.656  1.00  0.00    -0.458 OA
BRANCH  37  38
ATOM     38  C   UNL A   1      41.361  26.492  25.928  1.00  0.00     0.338 C 
ATOM     39  O   UNL A   1      40.738  25.612  25.341  1.00  0.00    -0.246 OA
BRANCH  38  40
ATOM     40  C   UNL A   1      40.485  27.388  26.877  1.00  0.00     0.060 A 
ATOM     41  C   UNL A   1      39.592  26.530  28.233  1.00  0.00     0.016 A 
ATOM     42  C   UNL A   1      40.788  29.287  27.357  1.00  0.00     0.016 A 
ATOM     43  C   UNL A   1      39.353  27.494  29.790  1.00  0.00     0.010 A 
ATOM     44  C   UNL A   1      40.660  29.845  28.971  1.00  0.00     0.010 A 
ATOM     45  C   UNL A   1      40.025  29.142  30.092  1.00  0.00    -0.014 A 
BRANCH  45  46
ATOM     46  C   UNL A   1      40.309  30.578  31.043  1.00  0.00     0.031 A 
ATOM     47  C   UNL A   1      40.848  30.125  32.276  1.00  0.00     0.074 A 
ATOM     48  C   UNL A   1      39.650  31.876  31.332  1.00  0.00     0.049 A 
ATOM     49  N   UNL A   1      40.821  30.981  33.683  1.00  0.00    -0.248 NA
ATOM     50  C   UNL A   1      41.927  28.428  32.539  1.00  0.00     0.031 C 
ATOM     51  C   UNL A   1      40.097  33.167  31.962  1.00  0.00     0.029 A 
ATOM     52  N   UNL A   1      38.359  32.371  31.019  1.00  0.00    -0.354 N 
ATOM     53  C   UNL A   1      42.005  30.247  34.916  1.00  0.00     0.074 A 
ATOM     54  C   UNL A   1      42.622  28.562  34.074  1.00  0.00     0.031 C 
ATOM     55  C   UNL A   1      39.080  34.087  32.064  1.00  0.00     0.029 A 
ATOM     56  C   UNL A   1      37.833  33.526  31.566  1.00  0.00     0.049 A 
ATOM     57  H   UNL A   1      37.808  31.865  30.378  1.00  0.00     0.167 HD
ATOM     58  C   UNL A   1      42.657  31.307  35.520  1.00  0.00     0.037 A 
ATOM     59  C   UNL A   1      36.491  33.787  31.829  1.00  0.00     0.037 A 
ATOM     60  C   UNL A   1      41.728  32.457  35.499  1.00  0.00     0.049 A 
ATOM     61  C   UNL A   1      36.419  33.787  33.322  1.00  0.00     0.074 A 
ATOM     62  C   UNL A   1      41.704  33.685  34.845  1.00  0.00     0.029 A 
ATOM     63  N   UNL A   1      40.416  32.251  35.922  1.00  0.00    -0.354 N 
ATOM     64  N   UNL A   1      37.450  33.401  34.009  1.00  0.00    -0.248 NA
ATOM     65  C   UNL A   1      35.302  34.204  34.163  1.00  0.00     0.031 C 
ATOM     66  C   UNL A   1      40.397  34.241  34.983  1.00  0.00     0.029 A 
ATOM     67  C   UNL A   1      39.604  33.336  35.669  1.00  0.00     0.049 A 
ATOM     68  H   UNL A   1      40.105  31.423  36.353  1.00  0.00     0.167 HD
ATOM     69  C   UNL A   1      37.239  33.608  35.320  1.00  0.00     0.074 A 
ATOM     70  C   UNL A   1      35.871  34.097  35.379  1.00  0.00     0.031 C 
ATOM     71  C   UNL A   1      38.240  33.351  36.202  1.00  0.00     0.037 A 
BRANCH  58  72
ATOM     72  C   UNL A   1      44.152  31.477  35.736  1.00  0.00     0.057 A 
ATOM     73  C   UNL A   1      44.780  30.948  36.889  1.00  0.00     0.134 A 
ATOM     74  C   UNL A   1      45.031  32.184  34.901  1.00  0.00     0.134 A 
ATOM     75  F   UNL A   1      44.100  30.261  37.816  1.00  0.00    -0.206 F 
ATOM     76  C   UNL A   1      46.148  31.095  37.167  1.00  0.00     0.040 A 
ATOM     77  C   UNL A   1      46.404  32.335  35.160  1.00  0.00     0.040 A 
ATOM     78  F   UNL A   1      44.612  32.785  33.789  1.00  0.00    -0.206 F 
ATOM     79  C   UNL A   1      46.972  31.779  36.293  1.00  0.00     0.006 A 
ENDBRANCH  58  72
BRANCH  59  80
ATOM     80  C   UNL A   1      35.307  33.349  30.936  1.00  0.00     0.057 A 
ATOM     81  C   UNL A   1      34.457  34.347  30.424  1.00  0.00     0.134 A 
ATOM     82  C   UNL A   1      35.202  32.107  30.269  1.00  0.00     0.134 A 
ATOM     83  F   UNL A   1      34.233  35.462  31.134  1.00  0.00    -0.206 F 
ATOM     84  C   UNL A   1      33.858  34.261  29.150  1.00  0.00     0.040 A 
ATOM     85  C   UNL A   1      34.632  32.016  28.964  1.00  0.00     0.040 A 
ATOM     86  F   UNL A   1      35.911  31.051  30.690  1.00  0.00    -0.206 F 
ATOM     87  C   UNL A   1      34.042  33.130  28.367  1.00  0.00     0.006 A 
ENDBRANCH  59  80
BRANCH  71  88
ATOM     88  C   UNL A   1      38.030  33.177  37.670  1.00  0.00     0.057 A 
ATOM     89  C   UNL A   1      37.561  31.999  38.257  1.00  0.00     0.134 A 
ATOM     90  C   UNL A   1      38.422  34.187  38.576  1.00  0.00     0.134 A 
ATOM     91  F   UNL A   1      37.352  30.876  37.557  1.00  0.00    -0.206 F 
ATOM     92  C   UNL A   1      37.341  31.893  39.628  1.00  0.00     0.040 A 
ATOM     93  C   UNL A   1      38.332  34.039  39.952  1.00  0.00     0.040 A 
ATOM     94  F   UNL A   1      38.930  35.363  38.185  1.00  0.00    -0.206 F 
ATOM     95  C   UNL A   1      37.739  32.911  40.482  1.00  0.00     0.006 A 
ENDBRANCH  71  88
ENDBRANCH  45  46
ENDBRANCH  38  40
ENDBRANCH  37  38
ENDBRANCH  36  37
ENDBRANCH   1  36
TORSDOF 16
ENDMDL
