MODEL 1
REMARK VINA RESULT:      -9.7      0.000      0.000
REMARK SMILES O=C(CC1(CC(=O)OCCOC(=O)c2ccc(-c3c4nc(c(-c5c(F)cccc5F)c5ccc([nH]5)c(-c5c(F)cccc5F)c5nc(c(-c6c(F)cccc6F)c6ccc3[nH]6)C=C5)C=C4)cc2)CCCCC1)Nc1ccc2ccccc2n1
REMARK SMILES IDX 9 1 8 2 6 3 7 4 5 5 4 6 68 7 72 8 69 9 71 10 70 11 3 12 2 13
REMARK SMILES IDX 1 14 73 15 74 17 75 18 83 19 76 20 82 21 77 22 81 23 78 24
REMARK SMILES IDX 80 25 79 26 10 27 11 28 12 29 13 30 14 31 15 32 67 33 16 34
REMARK SMILES IDX 66 35 17 36 18 37 19 38 60 39 20 40 65 41 59 42 61 43 21 44
REMARK SMILES IDX 64 45 58 46 57 47 22 49 48 50 31 51 47 52 32 53 35 54 46 55
REMARK SMILES IDX 62 56 33 57 34 58 45 60 63 61 36 62 23 63 24 64 29 65 25 66
REMARK SMILES IDX 26 67 28 68 30 69 27 70 49 71 50 72 55 73 51 74 52 75 54 76
REMARK SMILES IDX 56 77 53 78 37 79 38 80 43 81 39 82 40 83 42 84 44 85 41 86
REMARK H PARENT 73 16 61 48 35 59
REMARK Flexibility Score: inf
ROOT
ATOM      1  C   UNL A   1      47.227  24.518  25.006  1.00  0.00     0.274 C 
ENDROOT
BRANCH   1   2
ATOM      2  O   UNL A   1      46.720  25.707  24.363  1.00  0.00    -0.462 OA
BRANCH   2   3
ATOM      3  C   UNL A   1      47.439  26.828  24.563  1.00  0.00     0.306 C 
ATOM      4  O   UNL A   1      47.523  27.751  23.756  1.00  0.00    -0.252 OA
BRANCH   3   5
ATOM      5  C   UNL A   1      48.164  26.909  25.888  1.00  0.00     0.130 C 
BRANCH   5   6
ATOM      6  C   UNL A   1      47.687  27.725  27.134  1.00  0.00    -0.010 C 
ATOM      7  C   UNL A   1      48.572  27.307  28.356  1.00  0.00     0.008 C 
ATOM      8  C   UNL A   1      46.212  27.415  27.504  1.00  0.00     0.008 C 
ATOM      9  C   UNL A   1      48.325  25.881  28.850  1.00  0.00     0.001 C 
ATOM     10  C   UNL A   1      45.991  25.960  27.873  1.00  0.00     0.001 C 
ATOM     11  C   UNL A   1      46.847  25.590  29.076  1.00  0.00     0.000 C 
BRANCH   6  12
ATOM     12  C   UNL A   1      47.741  29.271  27.014  1.00  0.00     0.108 C 
BRANCH  12  13
ATOM     13  C   UNL A   1      46.547  30.105  26.634  1.00  0.00     0.226 C 
ATOM     14  O   UNL A   1      46.310  30.301  25.441  1.00  0.00    -0.275 OA
ATOM     15  N   UNL A   1      45.791  30.588  27.673  1.00  0.00    -0.311 N 
ATOM     16  H   UNL A   1      45.776  30.106  28.530  1.00  0.00     0.171 HD
BRANCH  15  17
ATOM     17  C   UNL A   1      45.048  31.749  27.525  1.00  0.00     0.133 A 
ATOM     18  C   UNL A   1      45.662  32.838  27.323  1.00  0.00     0.048 A 
ATOM     19  N   UNL A   1      44.034  32.086  28.416  1.00  0.00    -0.231 NA
ATOM     20  C   UNL A   1      45.152  33.501  28.466  1.00  0.00     0.014 A 
ATOM     21  C   UNL A   1      42.803  33.017  29.601  1.00  0.00     0.073 A 
ATOM     22  C   UNL A   1      43.602  33.824  29.758  1.00  0.00     0.000 A 
ATOM     23  C   UNL A   1      41.378  33.153  30.358  1.00  0.00     0.029 A 
ATOM     24  C   UNL A   1      43.118  34.772  31.050  1.00  0.00     0.010 A 
ATOM     25  C   UNL A   1      40.970  34.038  31.345  1.00  0.00     0.002 A 
ATOM     26  C   UNL A   1      41.938  34.865  31.774  1.00  0.00     0.001 A 
ENDBRANCH  15  17
ENDBRANCH  12  13
ENDBRANCH   6  12
ENDBRANCH   5   6
ENDBRANCH   3   5
ENDBRANCH   2   3
ENDBRANCH   1   2
BRANCH   1  27
ATOM     27  C   UNL A   1      46.240  23.379  24.795  1.00  0.00     0.275 C 
BRANCH  27  28
ATOM     28  O   UNL A   1      45.081  23.901  24.126  1.00  0.00    -0.458 OA
BRANCH  28  29
ATOM     29  C   UNL A   1      43.895  23.431  24.581  1.00  0.00     0.338 C 
ATOM     30  O   UNL A   1      43.287  22.453  24.190  1.00  0.00    -0.246 OA
BRANCH  29  31
ATOM     31  C   UNL A   1      43.414  24.355  25.615  1.00  0.00     0.060 A 
ATOM     32  C   UNL A   1      43.329  26.274  25.062  1.00  0.00     0.016 A 
ATOM     33  C   UNL A   1      42.825  23.451  27.278  1.00  0.00     0.016 A 
ATOM     34  C   UNL A   1      42.677  27.375  26.616  1.00  0.00     0.010 A 
ATOM     35  C   UNL A   1      41.926  24.543  28.730  1.00  0.00     0.010 A 
ATOM     36  C   UNL A   1      42.032  26.494  28.278  1.00  0.00    -0.014 A 
BRANCH  36  37
ATOM     37  C   UNL A   1      41.668  27.458  29.409  1.00  0.00     0.031 A 
ATOM     38  C   UNL A   1      42.552  27.623  30.631  1.00  0.00     0.074 A 
ATOM     39  C   UNL A   1      40.580  28.250  29.297  1.00  0.00     0.049 A 
ATOM     40  N   UNL A   1      42.296  28.227  31.768  1.00  0.00    -0.248 NA
ATOM     41  C   UNL A   1      43.880  27.009  30.623  1.00  0.00     0.031 C 
ATOM     42  C   UNL A   1      39.598  28.203  28.219  1.00  0.00     0.029 A 
ATOM     43  N   UNL A   1      40.134  29.297  30.069  1.00  0.00    -0.354 N 
ATOM     44  C   UNL A   1      43.380  27.955  32.604  1.00  0.00     0.074 A 
ATOM     45  C   UNL A   1      44.295  27.139  31.865  1.00  0.00     0.031 C 
ATOM     46  C   UNL A   1      38.828  29.296  28.255  1.00  0.00     0.029 A 
ATOM     47  C   UNL A   1      39.055  29.962  29.525  1.00  0.00     0.049 A 
ATOM     48  H   UNL A   1      40.544  29.549  30.928  1.00  0.00     0.167 HD
ATOM     49  C   UNL A   1      43.607  28.344  33.878  1.00  0.00     0.037 A 
ATOM     50  C   UNL A   1      38.254  30.919  30.030  1.00  0.00     0.037 A 
ATOM     51  C   UNL A   1      42.723  29.222  34.582  1.00  0.00     0.049 A 
ATOM     52  C   UNL A   1      38.476  31.306  31.461  1.00  0.00     0.074 A 
ATOM     53  C   UNL A   1      42.793  29.662  35.888  1.00  0.00     0.029 A 
ATOM     54  N   UNL A   1      41.603  29.808  34.009  1.00  0.00    -0.354 N 
ATOM     55  N   UNL A   1      39.427  30.921  32.280  1.00  0.00    -0.248 NA
ATOM     56  C   UNL A   1      37.477  32.191  32.065  1.00  0.00     0.031 C 
ATOM     57  C   UNL A   1      41.681  30.477  36.121  1.00  0.00     0.029 A 
ATOM     58  C   UNL A   1      40.961  30.600  34.940  1.00  0.00     0.049 A 
ATOM     59  H   UNL A   1      41.310  29.679  33.078  1.00  0.00     0.167 HD
ATOM     60  C   UNL A   1      39.134  31.504  33.503  1.00  0.00     0.074 A 
ATOM     61  C   UNL A   1      37.936  32.299  33.304  1.00  0.00     0.031 C 
ATOM     62  C   UNL A   1      39.779  31.382  34.688  1.00  0.00     0.037 A 
BRANCH  49  63
ATOM     63  C   UNL A   1      44.794  27.739  34.584  1.00  0.00     0.057 A 
ATOM     64  C   UNL A   1      46.089  28.269  34.500  1.00  0.00     0.134 A 
ATOM     65  C   UNL A   1      44.641  26.538  35.292  1.00  0.00     0.134 A 
ATOM     66  F   UNL A   1      46.321  29.394  33.806  1.00  0.00    -0.206 F 
ATOM     67  C   UNL A   1      47.192  27.603  35.046  1.00  0.00     0.040 A 
ATOM     68  C   UNL A   1      45.729  25.884  35.875  1.00  0.00     0.040 A 
ATOM     69  F   UNL A   1      43.433  25.966  35.409  1.00  0.00    -0.206 F 
ATOM     70  C   UNL A   1      47.011  26.407  35.737  1.00  0.00     0.006 A 
ENDBRANCH  49  63
BRANCH  50  71
ATOM     71  C   UNL A   1      37.096  31.438  29.243  1.00  0.00     0.057 A 
ATOM     72  C   UNL A   1      35.914  30.701  29.100  1.00  0.00     0.134 A 
ATOM     73  C   UNL A   1      37.129  32.704  28.635  1.00  0.00     0.134 A 
ATOM     74  F   UNL A   1      35.820  29.467  29.615  1.00  0.00    -0.206 F 
ATOM     75  C   UNL A   1      34.811  31.210  28.404  1.00  0.00     0.040 A 
ATOM     76  C   UNL A   1      36.020  33.242  27.981  1.00  0.00     0.040 A 
ATOM     77  F   UNL A   1      38.232  33.463  28.707  1.00  0.00    -0.206 F 
ATOM     78  C   UNL A   1      34.856  32.492  27.860  1.00  0.00     0.006 A 
ENDBRANCH  50  71
BRANCH  62  79
ATOM     79  C   UNL A   1      39.233  32.173  35.831  1.00  0.00     0.057 A 
ATOM     80  C   UNL A   1      39.586  33.511  36.043  1.00  0.00     0.134 A 
ATOM     81  C   UNL A   1      38.307  31.591  36.704  1.00  0.00     0.134 A 
ATOM     82  F   UNL A   1      40.478  34.115  35.244  1.00  0.00    -0.206 F 
ATOM     83  C   UNL A   1      39.054  34.236  37.107  1.00  0.00     0.040 A 
ATOM     84  C   UNL A   1      37.744  32.316  37.751  1.00  0.00     0.040 A 
ATOM     85  F   UNL A   1      37.923  30.316  36.540  1.00  0.00    -0.206 F 
ATOM     86  C   UNL A   1      38.125  33.640  37.959  1.00  0.00     0.006 A 
ENDBRANCH  62  79
ENDBRANCH  36  37
ENDBRANCH  29  31
ENDBRANCH  28  29
ENDBRANCH  27  28
ENDBRANCH   1  27
TORSDOF 15
ENDMDL
MODEL 2
REMARK VINA RESULT:      -9.6      6.122     12.062
REMARK SMILES O=C(CC1(CC(=O)OCCOC(=O)c2ccc(-c3c4nc(c(-c5c(F)cccc5F)c5ccc([nH]5)c(-c5c(F)cccc5F)c5nc(c(-c6c(F)cccc6F)c6ccc3[nH]6)C=C5)C=C4)cc2)CCCCC1)Nc1ccc2ccccc2n1
REMARK SMILES IDX 9 1 8 2 6 3 7 4 5 5 4 6 68 7 72 8 69 9 71 10 70 11 3 12 2 13
REMARK SMILES IDX 1 14 73 15 74 17 75 18 83 19 76 20 82 21 77 22 81 23 78 24
REMARK SMILES IDX 80 25 79 26 10 27 11 28 12 29 13 30 14 31 15 32 67 33 16 34
REMARK SMILES IDX 66 35 17 36 18 37 19 38 60 39 20 40 65 41 59 42 61 43 21 44
REMARK SMILES IDX 64 45 58 46 57 47 22 49 48 50 31 51 47 52 32 53 35 54 46 55
REMARK SMILES IDX 62 56 33 57 34 58 45 60 63 61 36 62 23 63 24 64 29 65 25 66
REMARK SMILES IDX 26 67 28 68 30 69 27 70 49 71 50 72 55 73 51 74 52 75 54 76
REMARK SMILES IDX 56 77 53 78 37 79 38 80 43 81 39 82 40 83 42 84 44 85 41 86
REMARK H PARENT 73 16 61 48 35 59
REMARK Flexibility Score: inf
ROOT
ATOM      1  C   UNL A   1      35.410  23.978  23.904  1.00  0.00     0.274 C 
ENDROOT
BRANCH   1   2
ATOM      2  O   UNL A   1      34.416  23.888  22.862  1.00  0.00    -0.462 OA
BRANCH   2   3
ATOM      3  C   UNL A   1      33.525  24.897  22.819  1.00  0.00     0.306 C 
ATOM      4  O   UNL A   1      32.776  25.121  21.871  1.00  0.00    -0.252 OA
BRANCH   3   5
ATOM      5  C   UNL A   1      33.479  25.778  24.048  1.00  0.00     0.130 C 
BRANCH   5   6
ATOM      6  C   UNL A   1      32.200  26.477  24.616  1.00  0.00    -0.010 C 
ATOM      7  C   UNL A   1      31.903  27.736  23.734  1.00  0.00     0.008 C 
ATOM      8  C   UNL A   1      32.404  26.971  26.073  1.00  0.00     0.008 C 
ATOM      9  C   UNL A   1      32.924  28.864  23.887  1.00  0.00     0.001 C 
ATOM     10  C   UNL A   1      33.509  28.003  26.195  1.00  0.00     0.001 C 
ATOM     11  C   UNL A   1      33.181  29.223  25.345  1.00  0.00     0.000 C 
BRANCH   6  12
ATOM     12  C   UNL A   1      30.908  25.620  24.673  1.00  0.00     0.108 C 
BRANCH  12  13
ATOM     13  C   UNL A   1      30.801  24.354  25.481  1.00  0.00     0.226 C 
ATOM     14  O   UNL A   1      30.261  24.394  26.587  1.00  0.00    -0.275 OA
ATOM     15  N   UNL A   1      31.319  23.222  24.903  1.00  0.00    -0.311 N 
ATOM     16  H   UNL A   1      31.368  23.154  23.923  1.00  0.00     0.171 HD
BRANCH  15  17
ATOM     17  C   UNL A   1      31.775  22.174  25.687  1.00  0.00     0.133 A 
ATOM     18  C   UNL A   1      32.795  22.362  26.415  1.00  0.00     0.048 A 
ATOM     19  N   UNL A   1      31.954  20.896  25.168  1.00  0.00    -0.231 NA
ATOM     20  C   UNL A   1      33.573  21.331  25.834  1.00  0.00     0.014 A 
ATOM     21  C   UNL A   1      32.611  19.118  24.731  1.00  0.00     0.073 A 
ATOM     22  C   UNL A   1      33.670  19.470  24.995  1.00  0.00     0.000 A 
ATOM     23  C   UNL A   1      32.382  17.592  24.235  1.00  0.00     0.029 A 
ATOM     24  C   UNL A   1      34.743  18.310  24.442  1.00  0.00     0.010 A 
ATOM     25  C   UNL A   1      33.305  16.613  23.901  1.00  0.00     0.002 A 
ATOM     26  C   UNL A   1      34.582  17.027  23.939  1.00  0.00     0.001 A 
ENDBRANCH  15  17
ENDBRANCH  12  13
ENDBRANCH   6  12
ENDBRANCH   5   6
ENDBRANCH   3   5
ENDBRANCH   2   3
ENDBRANCH   1   2
BRANCH   1  27
ATOM     27  C   UNL A   1      36.287  22.734  23.864  1.00  0.00     0.275 C 
BRANCH  27  28
ATOM     28  O   UNL A   1      37.535  23.037  24.506  1.00  0.00    -0.458 OA
BRANCH  28  29
ATOM     29  C   UNL A   1      37.824  22.276  25.588  1.00  0.00     0.338 C 
ATOM     30  O   UNL A   1      37.171  21.356  26.042  1.00  0.00    -0.246 OA
BRANCH  29  31
ATOM     31  C   UNL A   1      39.062  22.794  26.182  1.00  0.00     0.060 A 
ATOM     32  C   UNL A   1      38.880  24.547  27.124  1.00  0.00     0.016 A 
ATOM     33  C   UNL A   1      40.600  21.551  26.027  1.00  0.00     0.016 A 
ATOM     34  C   UNL A   1      40.679  25.097  27.841  1.00  0.00     0.010 A 
ATOM     35  C   UNL A   1      42.331  22.000  26.982  1.00  0.00     0.010 A 
ATOM     36  C   UNL A   1      42.227  23.852  27.746  1.00  0.00    -0.014 A 
BRANCH  36  37
ATOM     37  C   UNL A   1      43.551  24.444  28.232  1.00  0.00     0.031 A 
ATOM     38  C   UNL A   1      44.021  24.278  29.665  1.00  0.00     0.074 A 
ATOM     39  C   UNL A   1      44.376  25.061  27.358  1.00  0.00     0.049 A 
ATOM     40  N   UNL A   1      45.000  24.884  30.296  1.00  0.00    -0.248 NA
ATOM     41  C   UNL A   1      43.296  23.354  30.537  1.00  0.00     0.031 C 
ATOM     42  C   UNL A   1      44.076  25.345  25.958  1.00  0.00     0.029 A 
ATOM     43  N   UNL A   1      45.666  25.518  27.492  1.00  0.00    -0.354 N 
ATOM     44  C   UNL A   1      44.907  24.484  31.629  1.00  0.00     0.074 A 
ATOM     45  C   UNL A   1      43.791  23.593  31.732  1.00  0.00     0.031 C 
ATOM     46  C   UNL A   1      45.196  25.691  25.313  1.00  0.00     0.029 A 
ATOM     47  C   UNL A   1      46.223  25.949  26.306  1.00  0.00     0.049 A 
ATOM     48  H   UNL A   1      46.146  25.537  28.351  1.00  0.00     0.167 HD
ATOM     49  C   UNL A   1      45.677  24.822  32.687  1.00  0.00     0.037 A 
ATOM     50  C   UNL A   1      47.378  26.591  26.049  1.00  0.00     0.037 A 
ATOM     51  C   UNL A   1      46.835  25.654  32.560  1.00  0.00     0.049 A 
ATOM     52  C   UNL A   1      48.200  27.011  27.230  1.00  0.00     0.074 A 
ATOM     53  C   UNL A   1      47.681  26.122  33.545  1.00  0.00     0.029 A 
ATOM     54  N   UNL A   1      47.314  26.125  31.346  1.00  0.00    -0.354 N 
ATOM     55  N   UNL A   1      48.012  26.744  28.501  1.00  0.00    -0.248 NA
ATOM     56  C   UNL A   1      49.344  27.886  26.957  1.00  0.00     0.031 C 
ATOM     57  C   UNL A   1      48.646  26.923  32.928  1.00  0.00     0.029 A 
ATOM     58  C   UNL A   1      48.441  26.894  31.555  1.00  0.00     0.049 A 
ATOM     59  H   UNL A   1      46.911  25.940  30.468  1.00  0.00     0.167 HD
ATOM     60  C   UNL A   1      49.003  27.430  29.185  1.00  0.00     0.074 A 
ATOM     61  C   UNL A   1      49.813  28.094  28.179  1.00  0.00     0.031 C 
ATOM     62  C   UNL A   1      49.219  27.522  30.519  1.00  0.00     0.037 A 
BRANCH  49  63
ATOM     63  C   UNL A   1      45.218  24.367  34.049  1.00  0.00     0.057 A 
ATOM     64  C   UNL A   1      44.377  25.132  34.871  1.00  0.00     0.134 A 
ATOM     65  C   UNL A   1      45.710  23.167  34.582  1.00  0.00     0.134 A 
ATOM     66  F   UNL A   1      43.898  26.311  34.445  1.00  0.00    -0.206 F 
ATOM     67  C   UNL A   1      44.088  24.748  36.185  1.00  0.00     0.040 A 
ATOM     68  C   UNL A   1      45.397  22.755  35.879  1.00  0.00     0.040 A 
ATOM     69  F   UNL A   1      46.526  22.385  33.858  1.00  0.00    -0.206 F 
ATOM     70  C   UNL A   1      44.598  23.555  36.691  1.00  0.00     0.006 A 
ENDBRANCH  49  63
BRANCH  50  71
ATOM     71  C   UNL A   1      47.726  27.007  24.658  1.00  0.00     0.057 A 
ATOM     72  C   UNL A   1      48.743  26.375  23.933  1.00  0.00     0.134 A 
ATOM     73  C   UNL A   1      47.026  28.032  24.001  1.00  0.00     0.134 A 
ATOM     74  F   UNL A   1      49.485  25.415  24.504  1.00  0.00    -0.206 F 
ATOM     75  C   UNL A   1      49.035  26.732  22.611  1.00  0.00     0.040 A 
ATOM     76  C   UNL A   1      47.273  28.364  22.668  1.00  0.00     0.040 A 
ATOM     77  F   UNL A   1      46.052  28.703  24.634  1.00  0.00    -0.206 F 
ATOM     78  C   UNL A   1      48.284  27.716  21.969  1.00  0.00     0.006 A 
ENDBRANCH  50  71
BRANCH  62  79
ATOM     79  C   UNL A   1      50.407  28.318  30.951  1.00  0.00     0.057 A 
ATOM     80  C   UNL A   1      51.680  27.748  31.065  1.00  0.00     0.134 A 
ATOM     81  C   UNL A   1      50.273  29.686  31.214  1.00  0.00     0.134 A 
ATOM     82  F   UNL A   1      51.863  26.439  30.837  1.00  0.00    -0.206 F 
ATOM     83  C   UNL A   1      52.778  28.510  31.455  1.00  0.00     0.040 A 
ATOM     84  C   UNL A   1      51.370  30.465  31.571  1.00  0.00     0.040 A 
ATOM     85  F   UNL A   1      49.079  30.288  31.106  1.00  0.00    -0.206 F 
ATOM     86  C   UNL A   1      52.625  29.874  31.702  1.00  0.00     0.006 A 
ENDBRANCH  62  79
ENDBRANCH  36  37
ENDBRANCH  29  31
ENDBRANCH  28  29
ENDBRANCH  27  28
ENDBRANCH   1  27
TORSDOF 15
ENDMDL
MODEL 3
REMARK VINA RESULT:      -9.5      6.130     12.044
REMARK SMILES O=C(CC1(CC(=O)OCCOC(=O)c2ccc(-c3c4nc(c(-c5c(F)cccc5F)c5ccc([nH]5)c(-c5c(F)cccc5F)c5nc(c(-c6c(F)cccc6F)c6ccc3[nH]6)C=C5)C=C4)cc2)CCCCC1)Nc1ccc2ccccc2n1
REMARK SMILES IDX 9 1 8 2 6 3 7 4 5 5 4 6 68 7 72 8 69 9 71 10 70 11 3 12 2 13
REMARK SMILES IDX 1 14 73 15 74 17 75 18 83 19 76 20 82 21 77 22 81 23 78 24
REMARK SMILES IDX 80 25 79 26 10 27 11 28 12 29 13 30 14 31 15 32 67 33 16 34
REMARK SMILES IDX 66 35 17 36 18 37 19 38 60 39 20 40 65 41 59 42 61 43 21 44
REMARK SMILES IDX 64 45 58 46 57 47 22 49 48 50 31 51 47 52 32 53 35 54 46 55
REMARK SMILES IDX 62 56 33 57 34 58 45 60 63 61 36 62 23 63 24 64 29 65 25 66
REMARK SMILES IDX 26 67 28 68 30 69 27 70 49 71 50 72 55 73 51 74 52 75 54 76
REMARK SMILES IDX 56 77 53 78 37 79 38 80 43 81 39 82 40 83 42 84 44 85 41 86
REMARK H PARENT 73 16 61 48 35 59
REMARK Flexibility Score: inf
ROOT
ATOM      1  C   UNL A   1      38.965  21.522  25.668  1.00  0.00     0.274 C 
ENDROOT
BRANCH   1   2
ATOM      2  O   UNL A   1      37.648  22.065  25.904  1.00  0.00    -0.462 OA
BRANCH   2   3
ATOM      3  C   UNL A   1      36.972  22.452  24.805  1.00  0.00     0.306 C 
ATOM      4  O   UNL A   1      37.358  23.317  24.022  1.00  0.00    -0.252 OA
BRANCH   3   5
ATOM      5  C   UNL A   1      35.662  21.736  24.562  1.00  0.00     0.130 C 
BRANCH   5   6
ATOM      6  C   UNL A   1      34.244  22.392  24.632  1.00  0.00    -0.010 C 
ATOM      7  C   UNL A   1      34.242  23.417  25.816  1.00  0.00     0.008 C 
ATOM      8  C   UNL A   1      33.133  21.348  24.924  1.00  0.00     0.008 C 
ATOM      9  C   UNL A   1      34.318  22.775  27.202  1.00  0.00     0.001 C 
ATOM     10  C   UNL A   1      33.317  20.650  26.258  1.00  0.00     0.001 C 
ATOM     11  C   UNL A   1      33.288  21.668  27.389  1.00  0.00     0.000 C 
BRANCH   6  12
ATOM     12  C   UNL A   1      33.757  23.133  23.360  1.00  0.00     0.108 C 
BRANCH  12  13
ATOM     13  C   UNL A   1      33.177  24.523  23.394  1.00  0.00     0.226 C 
ATOM     14  O   UNL A   1      33.903  25.480  23.126  1.00  0.00    -0.275 OA
ATOM     15  N   UNL A   1      31.847  24.615  23.721  1.00  0.00    -0.311 N 
ATOM     16  H   UNL A   1      31.247  23.857  23.540  1.00  0.00     0.171 HD
BRANCH  15  17
ATOM     17  C   UNL A   1      31.342  25.766  24.305  1.00  0.00     0.133 A 
ATOM     18  C   UNL A   1      30.411  25.653  25.158  1.00  0.00     0.048 A 
ATOM     19  N   UNL A   1      30.979  26.873  23.545  1.00  0.00    -0.231 NA
ATOM     20  C   UNL A   1      29.478  26.452  24.453  1.00  0.00     0.014 A 
ATOM     21  C   UNL A   1      30.094  28.440  22.808  1.00  0.00     0.073 A 
ATOM     22  C   UNL A   1      29.106  28.061  23.249  1.00  0.00     0.000 A 
ATOM     23  C   UNL A   1      30.109  29.830  21.975  1.00  0.00     0.029 A 
ATOM     24  C   UNL A   1      27.869  28.964  22.574  1.00  0.00     0.010 A 
ATOM     25  C   UNL A   1      29.059  30.621  21.536  1.00  0.00     0.002 A 
ATOM     26  C   UNL A   1      27.843  30.111  21.794  1.00  0.00     0.001 A 
ENDBRANCH  15  17
ENDBRANCH  12  13
ENDBRANCH   6  12
ENDBRANCH   5   6
ENDBRANCH   3   5
ENDBRANCH   2   3
ENDBRANCH   1   2
BRANCH   1  27
ATOM     27  C   UNL A   1      39.797  21.670  26.934  1.00  0.00     0.275 C 
BRANCH  27  28
ATOM     28  O   UNL A   1      40.804  22.668  26.702  1.00  0.00    -0.458 OA
BRANCH  28  29
ATOM     29  C   UNL A   1      42.054  22.325  27.094  1.00  0.00     0.338 C 
ATOM     30  O   UNL A   1      42.424  21.255  27.536  1.00  0.00    -0.246 OA
BRANCH  29  31
ATOM     31  C   UNL A   1      42.908  23.510  26.951  1.00  0.00     0.060 A 
ATOM     32  C   UNL A   1      43.114  24.185  25.082  1.00  0.00     0.016 A 
ATOM     33  C   UNL A   1      43.541  24.247  28.680  1.00  0.00     0.016 A 
ATOM     34  C   UNL A   1      44.334  25.787  25.094  1.00  0.00     0.010 A 
ATOM     35  C   UNL A   1      44.546  26.007  28.694  1.00  0.00     0.010 A 
ATOM     36  C   UNL A   1      44.944  26.579  26.813  1.00  0.00    -0.014 A 
BRANCH  36  37
ATOM     37  C   UNL A   1      45.949  27.722  26.666  1.00  0.00     0.031 A 
ATOM     38  C   UNL A   1      47.397  27.468  26.291  1.00  0.00     0.074 A 
ATOM     39  C   UNL A   1      45.537  29.003  26.788  1.00  0.00     0.049 A 
ATOM     40  N   UNL A   1      48.423  28.287  26.328  1.00  0.00    -0.248 NA
ATOM     41  C   UNL A   1      47.782  26.127  25.853  1.00  0.00     0.031 C 
ATOM     42  C   UNL A   1      44.200  29.435  27.182  1.00  0.00     0.029 A 
ATOM     43  N   UNL A   1      46.181  30.193  26.541  1.00  0.00    -0.354 N 
ATOM     44  C   UNL A   1      49.546  27.514  26.031  1.00  0.00     0.074 A 
ATOM     45  C   UNL A   1      49.096  26.172  25.815  1.00  0.00     0.031 C 
ATOM     46  C   UNL A   1      44.046  30.738  26.921  1.00  0.00     0.029 A 
ATOM     47  C   UNL A   1      45.356  31.294  26.634  1.00  0.00     0.049 A 
ATOM     48  H   UNL A   1      47.138  30.254  26.320  1.00  0.00     0.167 HD
ATOM     49  C   UNL A   1      50.844  27.877  25.941  1.00  0.00     0.037 A 
ATOM     50  C   UNL A   1      45.628  32.613  26.614  1.00  0.00     0.037 A 
ATOM     51  C   UNL A   1      51.274  29.235  26.084  1.00  0.00     0.049 A 
ATOM     52  C   UNL A   1      47.073  33.008  26.569  1.00  0.00     0.074 A 
ATOM     53  C   UNL A   1      52.556  29.747  26.069  1.00  0.00     0.029 A 
ATOM     54  N   UNL A   1      50.404  30.303  26.251  1.00  0.00    -0.354 N 
ATOM     55  N   UNL A   1      48.132  32.244  26.435  1.00  0.00    -0.248 NA
ATOM     56  C   UNL A   1      47.372  34.430  26.756  1.00  0.00     0.031 C 
ATOM     57  C   UNL A   1      52.463  31.125  26.281  1.00  0.00     0.029 A 
ATOM     58  C   UNL A   1      51.122  31.478  26.356  1.00  0.00     0.049 A 
ATOM     59  H   UNL A   1      49.424  30.235  26.291  1.00  0.00     0.167 HD
ATOM     60  C   UNL A   1      49.226  33.089  26.535  1.00  0.00     0.074 A 
ATOM     61  C   UNL A   1      48.697  34.430  26.704  1.00  0.00     0.031 C 
ATOM     62  C   UNL A   1      50.547  32.788  26.510  1.00  0.00     0.037 A 
BRANCH  49  63
ATOM     63  C   UNL A   1      51.860  26.774  25.778  1.00  0.00     0.057 A 
ATOM     64  C   UNL A   1      52.483  26.139  26.862  1.00  0.00     0.134 A 
ATOM     65  C   UNL A   1      52.286  26.409  24.493  1.00  0.00     0.134 A 
ATOM     66  F   UNL A   1      52.156  26.465  28.122  1.00  0.00    -0.206 F 
ATOM     67  C   UNL A   1      53.525  25.224  26.676  1.00  0.00     0.040 A 
ATOM     68  C   UNL A   1      53.299  25.468  24.295  1.00  0.00     0.040 A 
ATOM     69  F   UNL A   1      51.742  26.979  23.408  1.00  0.00    -0.206 F 
ATOM     70  C   UNL A   1      53.934  24.885  25.388  1.00  0.00     0.006 A 
ENDBRANCH  49  63
BRANCH  50  71
ATOM     71  C   UNL A   1      44.540  33.619  26.798  1.00  0.00     0.057 A 
ATOM     72  C   UNL A   1      44.181  34.090  28.066  1.00  0.00     0.134 A 
ATOM     73  C   UNL A   1      43.848  34.161  25.703  1.00  0.00     0.134 A 
ATOM     74  F   UNL A   1      44.766  33.592  29.164  1.00  0.00    -0.206 F 
ATOM     75  C   UNL A   1      43.195  35.071  28.234  1.00  0.00     0.040 A 
ATOM     76  C   UNL A   1      42.899  35.174  25.853  1.00  0.00     0.040 A 
ATOM     77  F   UNL A   1      44.117  33.746  24.456  1.00  0.00    -0.206 F 
ATOM     78  C   UNL A   1      42.567  35.629  27.123  1.00  0.00     0.006 A 
ENDBRANCH  50  71
BRANCH  62  79
ATOM     79  C   UNL A   1      51.496  33.939  26.607  1.00  0.00     0.057 A 
ATOM     80  C   UNL A   1      52.021  34.366  27.832  1.00  0.00     0.134 A 
ATOM     81  C   UNL A   1      51.916  34.596  25.445  1.00  0.00     0.134 A 
ATOM     82  F   UNL A   1      51.643  33.779  28.977  1.00  0.00    -0.206 F 
ATOM     83  C   UNL A   1      52.915  35.431  27.899  1.00  0.00     0.040 A 
ATOM     84  C   UNL A   1      52.836  35.640  25.497  1.00  0.00     0.040 A 
ATOM     85  F   UNL A   1      51.455  34.219  24.243  1.00  0.00    -0.206 F 
ATOM     86  C   UNL A   1      53.330  36.066  26.729  1.00  0.00     0.006 A 
ENDBRANCH  62  79
ENDBRANCH  36  37
ENDBRANCH  29  31
ENDBRANCH  28  29
ENDBRANCH  27  28
ENDBRANCH   1  27
TORSDOF 15
ENDMDL
