MODEL 1
REMARK VINA RESULT:     -12.2      0.000      0.000
REMARK SMILES C[C@@H](NC(=O)[C@H]1CC=CC[C@@H]1C(=O)OCCOC(=O)c1ccc(-c2c3nc(c(-c4c(F)cccc4F)c4ccc([nH]4)c(-c4c(F)cccc4F)c4nc(c(-c5c(F)cccc5F)c5ccc2[nH]5)C=C4)C=C3)cc1)c1ccc(-n2ccnc2)cc1
REMARK SMILES IDX 15 1 14 2 12 3 13 4 11 5 6 6 7 7 8 8 10 9 9 10 4 11 3 12
REMARK SMILES IDX 5 14 2 15 1 16 74 17 75 18 84 19 76 20 83 21 77 22 78 23
REMARK SMILES IDX 79 24 82 25 80 26 81 27 16 28 17 29 18 30 19 31 20 32 21 33
REMARK SMILES IDX 73 34 22 35 72 36 23 37 24 38 25 39 66 40 26 41 71 42 65 43
REMARK SMILES IDX 67 44 27 45 70 46 64 47 63 48 28 50 54 51 37 52 53 53 38 54
REMARK SMILES IDX 41 55 52 56 68 57 39 58 40 59 51 61 69 62 42 63 29 64 30 65
REMARK SMILES IDX 35 66 31 67 32 68 34 69 36 70 33 71 55 72 56 73 61 74 57 75
REMARK SMILES IDX 58 76 60 77 62 78 59 79 43 80 44 81 49 82 45 83 46 84 48 85
REMARK SMILES IDX 50 86 47 87
REMARK H PARENT 3 13 67 49 41 60
REMARK Flexibility Score: inf
ROOT
ATOM      1  C   UNL A   1      31.733  29.092  27.313  1.00  0.00     0.274 C 
ENDROOT
BRANCH   1   2
ATOM      2  O   UNL A   1      31.463  27.900  26.539  1.00  0.00    -0.462 OA
BRANCH   2   3
ATOM      3  C   UNL A   1      32.578  27.369  25.929  1.00  0.00     0.310 C 
ATOM      4  O   UNL A   1      33.690  27.364  26.439  1.00  0.00    -0.252 OA
BRANCH   3   5
ATOM      5  C   UNL A   1      32.236  26.757  24.564  1.00  0.00     0.115 C 
ATOM      6  C   UNL A   1      33.474  26.854  23.658  1.00  0.00     0.097 C 
ATOM      7  C   UNL A   1      33.691  28.220  23.003  1.00  0.00     0.041 C 
ATOM      8  C   UNL A   1      32.447  28.972  22.676  1.00  0.00    -0.030 C 
ATOM      9  C   UNL A   1      30.983  27.392  23.947  1.00  0.00     0.043 C 
ATOM     10  C   UNL A   1      31.233  28.596  23.089  1.00  0.00    -0.030 C 
BRANCH   6  11
ATOM     11  C   UNL A   1      33.639  25.695  22.685  1.00  0.00     0.224 C 
ATOM     12  N   UNL A   1      33.738  24.398  23.114  1.00  0.00    -0.349 N 
ATOM     13  H   UNL A   1      33.544  23.755  22.395  1.00  0.00     0.164 HD
ATOM     14  O   UNL A   1      33.604  25.878  21.465  1.00  0.00    -0.275 OA
BRANCH  12  15
ATOM     15  C   UNL A   1      34.068  23.723  24.396  1.00  0.00     0.109 C 
ATOM     16  C   UNL A   1      35.453  24.199  24.859  1.00  0.00     0.036 C 
BRANCH  15  17
ATOM     17  C   UNL A   1      34.029  22.211  24.377  1.00  0.00    -0.026 A 
ATOM     18  C   UNL A   1      35.139  21.433  24.734  1.00  0.00     0.008 A 
ATOM     19  C   UNL A   1      32.844  21.549  24.089  1.00  0.00     0.008 A 
ATOM     20  C   UNL A   1      35.027  20.038  24.899  1.00  0.00     0.027 A 
ATOM     21  C   UNL A   1      32.713  20.183  24.329  1.00  0.00     0.027 A 
ATOM     22  C   UNL A   1      33.798  19.400  24.697  1.00  0.00     0.046 A 
BRANCH  22  23
ATOM     23  N   UNL A   1      33.645  17.984  24.770  1.00  0.00    -0.306 N 
ATOM     24  C   UNL A   1      32.766  17.277  25.566  1.00  0.00     0.113 A 
ATOM     25  C   UNL A   1      34.278  17.029  24.006  1.00  0.00     0.204 A 
ATOM     26  C   UNL A   1      32.866  15.962  25.188  1.00  0.00     0.131 A 
ATOM     27  N   UNL A   1      33.815  15.815  24.221  1.00  0.00    -0.245 NA
ENDBRANCH  22  23
ENDBRANCH  15  17
ENDBRANCH  12  15
ENDBRANCH   6  11
ENDBRANCH   3   5
ENDBRANCH   2   3
ENDBRANCH   1   2
BRANCH   1  28
ATOM     28  C   UNL A   1      31.897  30.334  26.418  1.00  0.00     0.275 C 
BRANCH  28  29
ATOM     29  O   UNL A   1      33.260  30.819  26.473  1.00  0.00    -0.458 OA
BRANCH  29  30
ATOM     30  C   UNL A   1      33.519  31.886  27.277  1.00  0.00     0.338 C 
ATOM     31  O   UNL A   1      32.765  32.800  27.538  1.00  0.00    -0.246 OA
BRANCH  30  32
ATOM     32  C   UNL A   1      34.799  31.633  28.001  1.00  0.00     0.060 A 
ATOM     33  C   UNL A   1      35.004  30.337  28.473  1.00  0.00     0.016 A 
ATOM     34  C   UNL A   1      35.849  32.562  28.067  1.00  0.00     0.016 A 
ATOM     35  C   UNL A   1      36.282  29.941  28.883  1.00  0.00     0.010 A 
ATOM     36  C   UNL A   1      37.122  32.174  28.535  1.00  0.00     0.010 A 
ATOM     37  C   UNL A   1      37.364  30.848  28.919  1.00  0.00    -0.014 A 
BRANCH  37  38
ATOM     38  C   UNL A   1      38.644  30.372  29.536  1.00  0.00     0.031 A 
ATOM     39  C   UNL A   1      38.905  30.794  30.953  1.00  0.00     0.074 A 
ATOM     40  C   UNL A   1      39.506  29.506  28.959  1.00  0.00     0.049 A 
ATOM     41  N   UNL A   1      39.750  30.314  31.827  1.00  0.00    -0.248 NA
ATOM     42  C   UNL A   1      38.055  31.884  31.461  1.00  0.00     0.031 C 
ATOM     43  C   UNL A   1      39.417  29.008  27.598  1.00  0.00     0.029 A 
ATOM     44  N   UNL A   1      40.610  28.852  29.468  1.00  0.00    -0.354 N 
ATOM     45  C   UNL A   1      39.491  31.006  32.999  1.00  0.00     0.074 A 
ATOM     46  C   UNL A   1      38.391  31.909  32.737  1.00  0.00     0.031 C 
ATOM     47  C   UNL A   1      40.350  28.057  27.400  1.00  0.00     0.029 A 
ATOM     48  C   UNL A   1      41.160  27.922  28.608  1.00  0.00     0.049 A 
ATOM     49  H   UNL A   1      40.974  29.033  30.365  1.00  0.00     0.167 HD
ATOM     50  C   UNL A   1      40.145  30.955  34.180  1.00  0.00     0.037 A 
ATOM     51  C   UNL A   1      42.199  27.074  28.773  1.00  0.00     0.037 A 
ATOM     52  C   UNL A   1      41.364  30.238  34.398  1.00  0.00     0.049 A 
ATOM     53  C   UNL A   1      42.998  27.141  30.054  1.00  0.00     0.074 A 
ATOM     54  C   UNL A   1      42.207  30.286  35.493  1.00  0.00     0.029 A 
ATOM     55  N   UNL A   1      41.953  29.392  33.472  1.00  0.00    -0.354 N 
ATOM     56  N   UNL A   1      42.736  27.792  31.161  1.00  0.00    -0.248 NA
ATOM     57  C   UNL A   1      44.268  26.396  30.087  1.00  0.00     0.031 C 
ATOM     58  C   UNL A   1      43.339  29.518  35.203  1.00  0.00     0.029 A 
ATOM     59  C   UNL A   1      43.169  28.942  33.953  1.00  0.00     0.049 A 
ATOM     60  H   UNL A   1      41.564  29.148  32.601  1.00  0.00     0.167 HD
ATOM     61  C   UNL A   1      43.810  27.550  32.009  1.00  0.00     0.074 A 
ATOM     62  C   UNL A   1      44.704  26.650  31.311  1.00  0.00     0.031 C 
ATOM     63  C   UNL A   1      44.049  28.049  33.246  1.00  0.00     0.037 A 
BRANCH  50  64
ATOM     64  C   UNL A   1      39.602  31.845  35.249  1.00  0.00     0.057 A 
ATOM     65  C   UNL A   1      38.600  31.411  36.125  1.00  0.00     0.134 A 
ATOM     66  C   UNL A   1      39.993  33.188  35.310  1.00  0.00     0.134 A 
ATOM     67  F   UNL A   1      38.153  30.146  36.074  1.00  0.00    -0.206 F 
ATOM     68  C   UNL A   1      37.984  32.294  37.011  1.00  0.00     0.040 A 
ATOM     69  C   UNL A   1      39.393  34.076  36.201  1.00  0.00     0.040 A 
ATOM     70  F   UNL A   1      40.924  33.665  34.470  1.00  0.00    -0.206 F 
ATOM     71  C   UNL A   1      38.379  33.631  37.047  1.00  0.00     0.006 A 
ENDBRANCH  50  64
BRANCH  51  72
ATOM     72  C   UNL A   1      42.618  26.114  27.706  1.00  0.00     0.057 A 
ATOM     73  C   UNL A   1      43.522  26.496  26.703  1.00  0.00     0.134 A 
ATOM     74  C   UNL A   1      42.051  24.838  27.592  1.00  0.00     0.134 A 
ATOM     75  F   UNL A   1      44.076  27.717  26.724  1.00  0.00    -0.206 F 
ATOM     76  C   UNL A   1      43.824  25.661  25.623  1.00  0.00     0.040 A 
ATOM     77  C   UNL A   1      42.369  23.980  26.535  1.00  0.00     0.040 A 
ATOM     78  F   UNL A   1      41.163  24.409  28.500  1.00  0.00    -0.206 F 
ATOM     79  C   UNL A   1      43.249  24.396  25.539  1.00  0.00     0.006 A 
ENDBRANCH  51  72
BRANCH  63  80
ATOM     80  C   UNL A   1      45.325  27.650  33.927  1.00  0.00     0.057 A 
ATOM     81  C   UNL A   1      46.491  28.419  33.813  1.00  0.00     0.134 A 
ATOM     82  C   UNL A   1      45.365  26.534  34.771  1.00  0.00     0.134 A 
ATOM     83  F   UNL A   1      46.521  29.496  33.014  1.00  0.00    -0.206 F 
ATOM     84  C   UNL A   1      47.655  28.084  34.508  1.00  0.00     0.040 A 
ATOM     85  C   UNL A   1      46.515  26.203  35.488  1.00  0.00     0.040 A 
ATOM     86  F   UNL A   1      44.279  25.763  34.930  1.00  0.00    -0.206 F 
ATOM     87  C   UNL A   1      47.665  26.978  35.356  1.00  0.00     0.006 A 
ENDBRANCH  63  80
ENDBRANCH  37  38
ENDBRANCH  30  32
ENDBRANCH  29  30
ENDBRANCH  28  29
ENDBRANCH   1  28
TORSDOF 15
ENDMDL
MODEL 2
REMARK VINA RESULT:     -12.0      3.225      8.017
REMARK SMILES C[C@@H](NC(=O)[C@H]1CC=CC[C@@H]1C(=O)OCCOC(=O)c1ccc(-c2c3nc(c(-c4c(F)cccc4F)c4ccc([nH]4)c(-c4c(F)cccc4F)c4nc(c(-c5c(F)cccc5F)c5ccc2[nH]5)C=C4)C=C3)cc1)c1ccc(-n2ccnc2)cc1
REMARK SMILES IDX 15 1 14 2 12 3 13 4 11 5 6 6 7 7 8 8 10 9 9 10 4 11 3 12
REMARK SMILES IDX 5 14 2 15 1 16 74 17 75 18 84 19 76 20 83 21 77 22 78 23
REMARK SMILES IDX 79 24 82 25 80 26 81 27 16 28 17 29 18 30 19 31 20 32 21 33
REMARK SMILES IDX 73 34 22 35 72 36 23 37 24 38 25 39 66 40 26 41 71 42 65 43
REMARK SMILES IDX 67 44 27 45 70 46 64 47 63 48 28 50 54 51 37 52 53 53 38 54
REMARK SMILES IDX 41 55 52 56 68 57 39 58 40 59 51 61 69 62 42 63 29 64 30 65
REMARK SMILES IDX 35 66 31 67 32 68 34 69 36 70 33 71 55 72 56 73 61 74 57 75
REMARK SMILES IDX 58 76 60 77 62 78 59 79 43 80 44 81 49 82 45 83 46 84 48 85
REMARK SMILES IDX 50 86 47 87
REMARK H PARENT 3 13 67 49 41 60
REMARK Flexibility Score: inf
ROOT
ATOM      1  C   UNL A   1      37.112  23.229  24.699  1.00  0.00     0.274 C 
ENDROOT
BRANCH   1   2
ATOM      2  O   UNL A   1      36.177  22.171  24.385  1.00  0.00    -0.462 OA
BRANCH   2   3
ATOM      3  C   UNL A   1      35.019  22.611  23.785  1.00  0.00     0.310 C 
ATOM      4  O   UNL A   1      35.001  23.332  22.796  1.00  0.00    -0.252 OA
BRANCH   3   5
ATOM      5  C   UNL A   1      33.772  22.052  24.483  1.00  0.00     0.115 C 
ATOM      6  C   UNL A   1      32.984  23.221  25.093  1.00  0.00     0.097 C 
ATOM      7  C   UNL A   1      33.519  23.733  26.433  1.00  0.00     0.041 C 
ATOM      8  C   UNL A   1      34.141  22.698  27.305  1.00  0.00    -0.030 C 
ATOM      9  C   UNL A   1      34.126  20.962  25.504  1.00  0.00     0.043 C 
ATOM     10  C   UNL A   1      34.405  21.454  26.893  1.00  0.00    -0.030 C 
BRANCH   6  11
ATOM     11  C   UNL A   1      31.473  23.038  25.086  1.00  0.00     0.224 C 
ATOM     12  N   UNL A   1      30.657  23.785  24.279  1.00  0.00    -0.349 N 
ATOM     13  H   UNL A   1      29.772  23.369  24.161  1.00  0.00     0.164 HD
ATOM     14  O   UNL A   1      30.936  22.148  25.751  1.00  0.00    -0.275 OA
BRANCH  12  15
ATOM     15  C   UNL A   1      30.776  25.067  23.539  1.00  0.00     0.109 C 
ATOM     16  C   UNL A   1      31.630  24.833  22.284  1.00  0.00     0.036 C 
BRANCH  15  17
ATOM     17  C   UNL A   1      31.334  26.235  24.323  1.00  0.00    -0.026 A 
ATOM     18  C   UNL A   1      30.760  26.666  25.527  1.00  0.00     0.008 A 
ATOM     19  C   UNL A   1      32.502  26.858  23.908  1.00  0.00     0.008 A 
ATOM     20  C   UNL A   1      31.402  27.622  26.339  1.00  0.00     0.027 A 
ATOM     21  C   UNL A   1      33.177  27.743  24.747  1.00  0.00     0.027 A 
ATOM     22  C   UNL A   1      32.629  28.168  25.949  1.00  0.00     0.046 A 
BRANCH  22  23
ATOM     23  N   UNL A   1      33.283  29.197  26.688  1.00  0.00    -0.306 N 
ATOM     24  C   UNL A   1      34.578  29.188  27.170  1.00  0.00     0.113 A 
ATOM     25  C   UNL A   1      32.796  30.445  27.006  1.00  0.00     0.204 A 
ATOM     26  C   UNL A   1      34.816  30.440  27.678  1.00  0.00     0.131 A 
ATOM     27  N   UNL A   1      33.699  31.214  27.578  1.00  0.00    -0.245 NA
ENDBRANCH  22  23
ENDBRANCH  15  17
ENDBRANCH  12  15
ENDBRANCH   6  11
ENDBRANCH   3   5
ENDBRANCH   2   3
ENDBRANCH   1   2
BRANCH   1  28
ATOM     28  C   UNL A   1      37.991  22.879  25.913  1.00  0.00     0.275 C 
BRANCH  28  29
ATOM     29  O   UNL A   1      38.344  24.078  26.644  1.00  0.00    -0.458 OA
BRANCH  29  30
ATOM     30  C   UNL A   1      39.653  24.450  26.651  1.00  0.00     0.338 C 
ATOM     31  O   UNL A   1      40.531  24.035  25.923  1.00  0.00    -0.246 OA
BRANCH  30  32
ATOM     32  C   UNL A   1      39.801  25.643  27.535  1.00  0.00     0.060 A 
ATOM     33  C   UNL A   1      38.983  25.688  28.664  1.00  0.00     0.016 A 
ATOM     34  C   UNL A   1      40.817  26.598  27.384  1.00  0.00     0.016 A 
ATOM     35  C   UNL A   1      39.266  26.597  29.690  1.00  0.00     0.010 A 
ATOM     36  C   UNL A   1      41.062  27.551  28.396  1.00  0.00     0.010 A 
ATOM     37  C   UNL A   1      40.309  27.541  29.578  1.00  0.00    -0.014 A 
BRANCH  37  38
ATOM     38  C   UNL A   1      40.418  28.580  30.653  1.00  0.00     0.031 A 
ATOM     39  C   UNL A   1      39.443  29.720  30.587  1.00  0.00     0.074 A 
ATOM     40  C   UNL A   1      41.237  28.502  31.725  1.00  0.00     0.049 A 
ATOM     41  N   UNL A   1      39.104  30.585  31.506  1.00  0.00    -0.248 NA
ATOM     42  C   UNL A   1      38.721  29.868  29.312  1.00  0.00     0.031 C 
ATOM     43  C   UNL A   1      42.248  27.482  31.942  1.00  0.00     0.029 A 
ATOM     44  N   UNL A   1      41.315  29.278  32.863  1.00  0.00    -0.354 N 
ATOM     45  C   UNL A   1      38.091  31.340  30.936  1.00  0.00     0.074 A 
ATOM     46  C   UNL A   1      37.846  30.810  29.612  1.00  0.00     0.031 C 
ATOM     47  C   UNL A   1      42.778  27.622  33.171  1.00  0.00     0.029 A 
ATOM     48  C   UNL A   1      42.192  28.795  33.815  1.00  0.00     0.049 A 
ATOM     49  H   UNL A   1      40.793  30.103  32.987  1.00  0.00     0.167 HD
ATOM     50  C   UNL A   1      37.456  32.424  31.433  1.00  0.00     0.037 A 
ATOM     51  C   UNL A   1      42.493  29.252  35.050  1.00  0.00     0.037 A 
ATOM     52  C   UNL A   1      37.829  33.098  32.639  1.00  0.00     0.049 A 
ATOM     53  C   UNL A   1      41.870  30.547  35.519  1.00  0.00     0.074 A 
ATOM     54  C   UNL A   1      37.380  34.314  33.120  1.00  0.00     0.029 A 
ATOM     55  N   UNL A   1      38.793  32.644  33.524  1.00  0.00    -0.354 N 
ATOM     56  N   UNL A   1      40.903  31.246  34.976  1.00  0.00    -0.248 NA
ATOM     57  C   UNL A   1      42.420  31.144  36.749  1.00  0.00     0.031 C 
ATOM     58  C   UNL A   1      38.121  34.627  34.264  1.00  0.00     0.029 A 
ATOM     59  C   UNL A   1      38.984  33.575  34.529  1.00  0.00     0.049 A 
ATOM     60  H   UNL A   1      39.271  31.786  33.449  1.00  0.00     0.167 HD
ATOM     61  C   UNL A   1      40.743  32.367  35.783  1.00  0.00     0.074 A 
ATOM     62  C   UNL A   1      41.675  32.231  36.883  1.00  0.00     0.031 C 
ATOM     63  C   UNL A   1      39.917  33.427  35.615  1.00  0.00     0.037 A 
BRANCH  50  64
ATOM     64  C   UNL A   1      36.404  33.008  30.548  1.00  0.00     0.057 A 
ATOM     65  C   UNL A   1      36.733  33.841  29.471  1.00  0.00     0.134 A 
ATOM     66  C   UNL A   1      35.050  32.842  30.862  1.00  0.00     0.134 A 
ATOM     67  F   UNL A   1      38.018  34.073  29.159  1.00  0.00    -0.206 F 
ATOM     68  C   UNL A   1      35.746  34.512  28.750  1.00  0.00     0.040 A 
ATOM     69  C   UNL A   1      34.055  33.498  30.139  1.00  0.00     0.040 A 
ATOM     70  F   UNL A   1      34.682  32.084  31.905  1.00  0.00    -0.206 F 
ATOM     71  C   UNL A   1      34.403  34.343  29.087  1.00  0.00     0.006 A 
ENDBRANCH  50  64
BRANCH  51  72
ATOM     72  C   UNL A   1      43.466  28.551  35.942  1.00  0.00     0.057 A 
ATOM     73  C   UNL A   1      44.831  28.880  35.925  1.00  0.00     0.134 A 
ATOM     74  C   UNL A   1      43.088  27.469  36.747  1.00  0.00     0.134 A 
ATOM     75  F   UNL A   1      45.274  29.880  35.149  1.00  0.00    -0.206 F 
ATOM     76  C   UNL A   1      45.777  28.149  36.650  1.00  0.00     0.040 A 
ATOM     77  C   UNL A   1      44.018  26.750  37.502  1.00  0.00     0.040 A 
ATOM     78  F   UNL A   1      41.806  27.081  36.799  1.00  0.00    -0.206 F 
ATOM     79  C   UNL A   1      45.370  27.080  37.445  1.00  0.00     0.006 A 
ENDBRANCH  51  72
BRANCH  63  80
ATOM     80  C   UNL A   1      39.982  34.533  36.628  1.00  0.00     0.057 A 
ATOM     81  C   UNL A   1      39.116  34.572  37.729  1.00  0.00     0.134 A 
ATOM     82  C   UNL A   1      40.971  35.520  36.545  1.00  0.00     0.134 A 
ATOM     83  F   UNL A   1      38.141  33.660  37.862  1.00  0.00    -0.206 F 
ATOM     84  C   UNL A   1      39.227  35.562  38.708  1.00  0.00     0.040 A 
ATOM     85  C   UNL A   1      41.107  36.499  37.530  1.00  0.00     0.040 A 
ATOM     86  F   UNL A   1      41.836  35.531  35.521  1.00  0.00    -0.206 F 
ATOM     87  C   UNL A   1      40.232  36.522  38.615  1.00  0.00     0.006 A 
ENDBRANCH  63  80
ENDBRANCH  37  38
ENDBRANCH  30  32
ENDBRANCH  29  30
ENDBRANCH  28  29
ENDBRANCH   1  28
TORSDOF 15
ENDMDL
MODEL 3
REMARK VINA RESULT:     -11.9      4.123      7.908
REMARK SMILES C[C@@H](NC(=O)[C@H]1CC=CC[C@@H]1C(=O)OCCOC(=O)c1ccc(-c2c3nc(c(-c4c(F)cccc4F)c4ccc([nH]4)c(-c4c(F)cccc4F)c4nc(c(-c5c(F)cccc5F)c5ccc2[nH]5)C=C4)C=C3)cc1)c1ccc(-n2ccnc2)cc1
REMARK SMILES IDX 15 1 14 2 12 3 13 4 11 5 6 6 7 7 8 8 10 9 9 10 4 11 3 12
REMARK SMILES IDX 5 14 2 15 1 16 74 17 75 18 84 19 76 20 83 21 77 22 78 23
REMARK SMILES IDX 79 24 82 25 80 26 81 27 16 28 17 29 18 30 19 31 20 32 21 33
REMARK SMILES IDX 73 34 22 35 72 36 23 37 24 38 25 39 66 40 26 41 71 42 65 43
REMARK SMILES IDX 67 44 27 45 70 46 64 47 63 48 28 50 54 51 37 52 53 53 38 54
REMARK SMILES IDX 41 55 52 56 68 57 39 58 40 59 51 61 69 62 42 63 29 64 30 65
REMARK SMILES IDX 35 66 31 67 32 68 34 69 36 70 33 71 55 72 56 73 61 74 57 75
REMARK SMILES IDX 58 76 60 77 62 78 59 79 43 80 44 81 49 82 45 83 46 84 48 85
REMARK SMILES IDX 50 86 47 87
REMARK H PARENT 3 13 67 49 41 60
REMARK Flexibility Score: inf
ROOT
ATOM      1  C   UNL A   1      36.546  22.551  23.832  1.00  0.00     0.274 C 
ENDROOT
BRANCH   1   2
ATOM      2  O   UNL A   1      35.118  22.672  23.627  1.00  0.00    -0.462 OA
BRANCH   2   3
ATOM      3  C   UNL A   1      34.558  23.767  24.244  1.00  0.00     0.310 C 
ATOM      4  O   UNL A   1      35.102  24.863  24.302  1.00  0.00    -0.252 OA
BRANCH   3   5
ATOM      5  C   UNL A   1      33.166  23.450  24.804  1.00  0.00     0.115 C 
ATOM      6  C   UNL A   1      33.102  23.923  26.264  1.00  0.00     0.097 C 
ATOM      7  C   UNL A   1      33.739  22.973  27.280  1.00  0.00     0.041 C 
ATOM      8  C   UNL A   1      33.639  21.525  26.945  1.00  0.00    -0.030 C 
ATOM      9  C   UNL A   1      32.801  21.969  24.631  1.00  0.00     0.043 C 
ATOM     10  C   UNL A   1      33.209  21.074  25.763  1.00  0.00    -0.030 C 
BRANCH   6  11
ATOM     11  C   UNL A   1      31.739  24.439  26.704  1.00  0.00     0.224 C 
ATOM     12  N   UNL A   1      31.325  25.715  26.432  1.00  0.00    -0.349 N 
ATOM     13  H   UNL A   1      30.348  25.811  26.505  1.00  0.00     0.164 HD
ATOM     14  O   UNL A   1      30.922  23.693  27.250  1.00  0.00    -0.275 OA
BRANCH  12  15
ATOM     15  C   UNL A   1      31.987  26.991  26.056  1.00  0.00     0.109 C 
ATOM     16  C   UNL A   1      32.236  27.811  27.331  1.00  0.00     0.036 C 
BRANCH  15  17
ATOM     17  C   UNL A   1      31.257  27.840  25.038  1.00  0.00    -0.026 A 
ATOM     18  C   UNL A   1      30.290  27.305  24.176  1.00  0.00     0.008 A 
ATOM     19  C   UNL A   1      31.466  29.211  24.999  1.00  0.00     0.008 A 
ATOM     20  C   UNL A   1      29.486  28.140  23.376  1.00  0.00     0.027 A 
ATOM     21  C   UNL A   1      30.618  30.043  24.269  1.00  0.00     0.027 A 
ATOM     22  C   UNL A   1      29.646  29.529  23.422  1.00  0.00     0.046 A 
BRANCH  22  23
ATOM     23  N   UNL A   1      28.918  30.416  22.575  1.00  0.00    -0.306 N 
ATOM     24  C   UNL A   1      28.941  31.796  22.593  1.00  0.00     0.113 A 
ATOM     25  C   UNL A   1      28.107  30.088  21.511  1.00  0.00     0.204 A 
ATOM     26  C   UNL A   1      28.211  32.214  21.508  1.00  0.00     0.131 A 
ATOM     27  N   UNL A   1      27.690  31.144  20.845  1.00  0.00    -0.245 NA
ENDBRANCH  22  23
ENDBRANCH  15  17
ENDBRANCH  12  15
ENDBRANCH   6  11
ENDBRANCH   3   5
ENDBRANCH   2   3
ENDBRANCH   1   2
BRANCH   1  28
ATOM     28  C   UNL A   1      36.884  22.059  25.250  1.00  0.00     0.275 C 
BRANCH  28  29
ATOM     29  O   UNL A   1      37.599  23.082  25.983  1.00  0.00    -0.458 OA
BRANCH  29  30
ATOM     30  C   UNL A   1      38.820  22.760  26.489  1.00  0.00     0.338 C 
ATOM     31  O   UNL A   1      39.393  21.695  26.383  1.00  0.00    -0.246 OA
BRANCH  30  32
ATOM     32  C   UNL A   1      39.470  24.007  26.989  1.00  0.00     0.060 A 
ATOM     33  C   UNL A   1      40.089  24.813  26.034  1.00  0.00     0.016 A 
ATOM     34  C   UNL A   1      39.335  24.478  28.303  1.00  0.00     0.016 A 
ATOM     35  C   UNL A   1      40.448  26.126  26.361  1.00  0.00     0.010 A 
ATOM     36  C   UNL A   1      39.750  25.783  28.643  1.00  0.00     0.010 A 
ATOM     37  C   UNL A   1      40.284  26.636  27.667  1.00  0.00    -0.014 A 
BRANCH  37  38
ATOM     38  C   UNL A   1      40.857  27.990  27.957  1.00  0.00     0.031 A 
ATOM     39  C   UNL A   1      39.907  29.021  28.494  1.00  0.00     0.074 A 
ATOM     40  C   UNL A   1      42.169  28.307  27.885  1.00  0.00     0.049 A 
ATOM     41  N   UNL A   1      40.155  30.152  29.099  1.00  0.00    -0.248 NA
ATOM     42  C   UNL A   1      38.476  28.699  28.364  1.00  0.00     0.031 C 
ATOM     43  C   UNL A   1      43.219  27.442  27.377  1.00  0.00     0.029 A 
ATOM     44  N   UNL A   1      42.851  29.438  28.286  1.00  0.00    -0.354 N 
ATOM     45  C   UNL A   1      38.914  30.645  29.470  1.00  0.00     0.074 A 
ATOM     46  C   UNL A   1      37.921  29.676  29.056  1.00  0.00     0.031 C 
ATOM     47  C   UNL A   1      44.419  28.016  27.584  1.00  0.00     0.029 A 
ATOM     48  C   UNL A   1      44.224  29.334  28.181  1.00  0.00     0.049 A 
ATOM     49  H   UNL A   1      42.399  30.247  28.618  1.00  0.00     0.167 HD
ATOM     50  C   UNL A   1      38.604  31.827  30.046  1.00  0.00     0.037 A 
ATOM     51  C   UNL A   1      45.203  30.204  28.515  1.00  0.00     0.037 A 
ATOM     52  C   UNL A   1      39.538  32.889  30.263  1.00  0.00     0.049 A 
ATOM     53  C   UNL A   1      44.817  31.573  29.025  1.00  0.00     0.074 A 
ATOM     54  C   UNL A   1      39.285  34.192  30.651  1.00  0.00     0.029 A 
ATOM     55  N   UNL A   1      40.902  32.790  30.044  1.00  0.00    -0.354 N 
ATOM     56  N   UNL A   1      43.639  32.023  29.382  1.00  0.00    -0.248 NA
ATOM     57  C   UNL A   1      45.893  32.575  29.125  1.00  0.00     0.031 C 
ATOM     58  C   UNL A   1      40.491  34.899  30.605  1.00  0.00     0.029 A 
ATOM     59  C   UNL A   1      41.502  34.020  30.250  1.00  0.00     0.049 A 
ATOM     60  H   UNL A   1      41.375  31.967  29.781  1.00  0.00     0.167 HD
ATOM     61  C   UNL A   1      43.829  33.356  29.731  1.00  0.00     0.074 A 
ATOM     62  C   UNL A   1      45.244  33.630  29.593  1.00  0.00     0.031 C 
ATOM     63  C   UNL A   1      42.910  34.278  30.106  1.00  0.00     0.037 A 
BRANCH  50  64
ATOM     64  C   UNL A   1      37.150  32.046  30.310  1.00  0.00     0.057 A 
ATOM     65  C   UNL A   1      36.315  32.640  29.356  1.00  0.00     0.134 A 
ATOM     66  C   UNL A   1      36.620  31.784  31.578  1.00  0.00     0.134 A 
ATOM     67  F   UNL A   1      36.787  32.959  28.141  1.00  0.00    -0.206 F 
ATOM     68  C   UNL A   1      35.001  32.991  29.667  1.00  0.00     0.040 A 
ATOM     69  C   UNL A   1      35.305  32.118  31.894  1.00  0.00     0.040 A 
ATOM     70  F   UNL A   1      37.387  31.248  32.539  1.00  0.00    -0.206 F 
ATOM     71  C   UNL A   1      34.495  32.732  30.940  1.00  0.00     0.006 A 
ENDBRANCH  50  64
BRANCH  51  72
ATOM     72  C   UNL A   1      46.651  29.876  28.342  1.00  0.00     0.057 A 
ATOM     73  C   UNL A   1      47.275  29.996  27.090  1.00  0.00     0.134 A 
ATOM     74  C   UNL A   1      47.418  29.335  29.381  1.00  0.00     0.134 A 
ATOM     75  F   UNL A   1      46.592  30.470  26.038  1.00  0.00    -0.206 F 
ATOM     76  C   UNL A   1      48.589  29.569  26.876  1.00  0.00     0.040 A 
ATOM     77  C   UNL A   1      48.743  28.934  29.189  1.00  0.00     0.040 A 
ATOM     78  F   UNL A   1      46.886  29.170  30.600  1.00  0.00    -0.206 F 
ATOM     79  C   UNL A   1      49.329  29.038  27.929  1.00  0.00     0.006 A 
ENDBRANCH  51  72
BRANCH  63  80
ATOM     80  C   UNL A   1      43.391  35.672  30.386  1.00  0.00     0.057 A 
ATOM     81  C   UNL A   1      43.407  36.658  29.392  1.00  0.00     0.134 A 
ATOM     82  C   UNL A   1      43.763  36.051  31.681  1.00  0.00     0.134 A 
ATOM     83  F   UNL A   1      43.070  36.356  28.128  1.00  0.00    -0.206 F 
ATOM     84  C   UNL A   1      43.786  37.972  29.674  1.00  0.00     0.040 A 
ATOM     85  C   UNL A   1      44.120  37.366  31.981  1.00  0.00     0.040 A 
ATOM     86  F   UNL A   1      43.760  35.156  32.680  1.00  0.00    -0.206 F 
ATOM     87  C   UNL A   1      44.134  38.331  30.975  1.00  0.00     0.006 A 
ENDBRANCH  63  80
ENDBRANCH  37  38
ENDBRANCH  30  32
ENDBRANCH  29  30
ENDBRANCH  28  29
ENDBRANCH   1  28
TORSDOF 15
ENDMDL
