MODEL 1
REMARK VINA RESULT:     -11.3      0.000      0.000
REMARK SMILES C[C@]1(C(=O)N2CCC(CC(=O)OCCOC(=O)c3ccc(-c4c5nc(c(-c6c(F)cccc6F)c6ccc([nH]6)c(-c6c(F)cccc6F)c6nc(c(-c7c(F)cccc7F)c7ccc4[nH]7)C=C6)C=C5)cc3)CC2)CCC[NH2+]1
REMARK SMILES IDX 13 1 12 2 10 3 11 4 9 5 8 6 3 7 4 8 5 9 6 10 73 11 7 12
REMARK SMILES IDX 72 13 2 14 1 15 74 16 77 17 75 18 76 19 14 22 15 23 16 24
REMARK SMILES IDX 17 25 18 26 19 27 71 28 20 29 70 30 21 31 22 32 23 33 64 34
REMARK SMILES IDX 24 35 69 36 63 37 65 38 25 39 68 40 62 41 61 42 26 44 52 45
REMARK SMILES IDX 35 46 51 47 36 48 39 49 50 50 66 51 37 52 38 53 49 55 67 56
REMARK SMILES IDX 40 57 27 58 28 59 33 60 29 61 30 62 32 63 34 64 31 65 53 66
REMARK SMILES IDX 54 67 59 68 55 69 56 70 58 71 60 72 57 73 41 74 42 75 47 76
REMARK SMILES IDX 43 77 44 78 46 79 48 80 45 81
REMARK H PARENT 77 20 77 21 65 43 39 54
REMARK Flexibility Score: inf
ROOT
ATOM      1  C   UNL A   1      43.497  21.244  25.821  1.00  0.00     0.274 C 
ENDROOT
BRANCH   1   2
ATOM      2  O   UNL A   1      42.070  21.068  25.756  1.00  0.00    -0.462 OA
BRANCH   2   3
ATOM      3  C   UNL A   1      41.422  20.797  26.916  1.00  0.00     0.306 C 
ATOM      4  O   UNL A   1      41.616  19.807  27.609  1.00  0.00    -0.252 OA
BRANCH   3   5
ATOM      5  C   UNL A   1      40.362  21.832  27.240  1.00  0.00     0.126 C 
BRANCH   5   6
ATOM      6  C   UNL A   1      39.407  22.202  26.091  1.00  0.00     0.003 C 
ATOM      7  C   UNL A   1      35.493  22.298  25.672  1.00  0.00     0.283 C 
ATOM      8  O   UNL A   1      35.417  21.455  26.569  1.00  0.00    -0.268 OA
ATOM      9  N   UNL A   1      36.707  22.564  25.051  1.00  0.00    -0.337 N 
ATOM     10  C   UNL A   1      37.503  21.431  24.618  1.00  0.00     0.120 C 
ATOM     11  C   UNL A   1      37.466  23.742  25.442  1.00  0.00     0.120 C 
ATOM     12  C   UNL A   1      38.515  21.018  25.679  1.00  0.00     0.026 C 
ATOM     13  C   UNL A   1      38.520  23.400  26.502  1.00  0.00     0.026 C 
BRANCH   7  14
ATOM     14  C   UNL A   1      34.238  22.972  25.032  1.00  0.00     0.173 C 
ATOM     15  C   UNL A   1      33.928  24.386  25.548  1.00  0.00     0.090 C 
ATOM     16  C   UNL A   1      34.433  22.974  23.512  1.00  0.00     0.084 C 
ATOM     17  N   UNL A   1      33.054  22.098  25.211  1.00  0.00    -0.334 N 
ATOM     18  C   UNL A   1      33.024  22.935  22.957  1.00  0.00     0.068 C 
ATOM     19  C   UNL A   1      32.222  22.187  24.010  1.00  0.00     0.261 C 
ATOM     20  H   UNL A   1      32.519  22.407  26.023  1.00  0.00     0.347 HD
ATOM     21  H   UNL A   1      33.352  21.134  25.359  1.00  0.00     0.347 HD
ENDBRANCH   7  14
ENDBRANCH   5   6
ENDBRANCH   3   5
ENDBRANCH   2   3
ENDBRANCH   1   2
BRANCH   1  22
ATOM     22  C   UNL A   1      44.017  22.099  24.662  1.00  0.00     0.275 C 
BRANCH  22  23
ATOM     23  O   UNL A   1      43.374  23.387  24.638  1.00  0.00    -0.458 OA
BRANCH  23  24
ATOM     24  C   UNL A   1      44.148  24.422  25.038  1.00  0.00     0.338 C 
ATOM     25  O   UNL A   1      45.252  24.722  24.620  1.00  0.00    -0.246 OA
BRANCH  24  26
ATOM     26  C   UNL A   1      43.410  25.248  26.006  1.00  0.00     0.060 A 
ATOM     27  C   UNL A   1      43.832  26.568  26.199  1.00  0.00     0.016 A 
ATOM     28  C   UNL A   1      42.379  24.711  26.779  1.00  0.00     0.016 A 
ATOM     29  C   UNL A   1      43.241  27.349  27.188  1.00  0.00     0.010 A 
ATOM     30  C   UNL A   1      41.787  25.496  27.773  1.00  0.00     0.010 A 
ATOM     31  C   UNL A   1      42.233  26.810  27.999  1.00  0.00    -0.014 A 
BRANCH  31  32
ATOM     32  C   UNL A   1      41.728  27.597  29.150  1.00  0.00     0.031 A 
ATOM     33  C   UNL A   1      42.437  27.510  30.472  1.00  0.00     0.074 A 
ATOM     34  C   UNL A   1      40.670  28.413  29.003  1.00  0.00     0.049 A 
ATOM     35  N   UNL A   1      42.159  28.106  31.603  1.00  0.00    -0.248 NA
ATOM     36  C   UNL A   1      43.618  26.633  30.528  1.00  0.00     0.031 C 
ATOM     37  C   UNL A   1      39.917  28.605  27.764  1.00  0.00     0.029 A 
ATOM     38  N   UNL A   1      40.049  29.237  29.907  1.00  0.00    -0.354 N 
ATOM     39  C   UNL A   1      43.119  27.670  32.507  1.00  0.00     0.074 A 
ATOM     40  C   UNL A   1      43.974  26.740  31.800  1.00  0.00     0.031 C 
ATOM     41  C   UNL A   1      38.934  29.495  27.987  1.00  0.00     0.029 A 
ATOM     42  C   UNL A   1      38.976  29.914  29.386  1.00  0.00     0.049 A 
ATOM     43  H   UNL A   1      40.346  29.333  30.841  1.00  0.00     0.167 HD
ATOM     44  C   UNL A   1      43.279  28.018  33.806  1.00  0.00     0.037 A 
ATOM     45  C   UNL A   1      38.119  30.769  29.974  1.00  0.00     0.037 A 
ATOM     46  C   UNL A   1      42.436  28.949  34.508  1.00  0.00     0.049 A 
ATOM     47  C   UNL A   1      38.304  31.122  31.425  1.00  0.00     0.074 A 
ATOM     48  C   UNL A   1      42.518  29.366  35.826  1.00  0.00     0.029 A 
ATOM     49  N   UNL A   1      41.355  29.612  33.946  1.00  0.00    -0.354 N 
ATOM     50  N   UNL A   1      39.221  30.710  32.267  1.00  0.00    -0.248 NA
ATOM     51  C   UNL A   1      37.339  32.068  32.003  1.00  0.00     0.031 C 
ATOM     52  C   UNL A   1      41.468  30.260  36.069  1.00  0.00     0.029 A 
ATOM     53  C   UNL A   1      40.758  30.429  34.892  1.00  0.00     0.049 A 
ATOM     54  H   UNL A   1      41.056  29.515  33.013  1.00  0.00     0.167 HD
ATOM     55  C   UNL A   1      38.961  31.365  33.463  1.00  0.00     0.074 A 
ATOM     56  C   UNL A   1      37.807  32.211  33.236  1.00  0.00     0.031 C 
ATOM     57  C   UNL A   1      39.620  31.275  34.645  1.00  0.00     0.037 A 
BRANCH  44  58
ATOM     58  C   UNL A   1      44.403  27.367  34.556  1.00  0.00     0.057 A 
ATOM     59  C   UNL A   1      44.238  26.146  35.220  1.00  0.00     0.134 A 
ATOM     60  C   UNL A   1      45.670  27.961  34.598  1.00  0.00     0.134 A 
ATOM     61  F   UNL A   1      43.043  25.534  35.231  1.00  0.00    -0.206 F 
ATOM     62  C   UNL A   1      45.288  25.548  35.919  1.00  0.00     0.040 A 
ATOM     63  C   UNL A   1      46.734  27.363  35.274  1.00  0.00     0.040 A 
ATOM     64  F   UNL A   1      45.894  29.131  33.980  1.00  0.00    -0.206 F 
ATOM     65  C   UNL A   1      46.542  26.154  35.942  1.00  0.00     0.006 A 
ENDBRANCH  44  58
BRANCH  45  66
ATOM     66  C   UNL A   1      37.007  31.362  29.191  1.00  0.00     0.057 A 
ATOM     67  C   UNL A   1      35.876  30.610  28.854  1.00  0.00     0.134 A 
ATOM     68  C   UNL A   1      37.059  32.689  28.747  1.00  0.00     0.134 A 
ATOM     69  F   UNL A   1      35.781  29.327  29.232  1.00  0.00    -0.206 F 
ATOM     70  C   UNL A   1      34.842  31.152  28.089  1.00  0.00     0.040 A 
ATOM     71  C   UNL A   1      36.022  33.248  28.000  1.00  0.00     0.040 A 
ATOM     72  F   UNL A   1      38.117  33.460  29.038  1.00  0.00    -0.206 F 
ATOM     73  C   UNL A   1      34.912  32.476  27.663  1.00  0.00     0.006 A 
ENDBRANCH  45  66
BRANCH  57  74
ATOM     74  C   UNL A   1      39.135  32.148  35.764  1.00  0.00     0.057 A 
ATOM     75  C   UNL A   1      38.249  31.677  36.741  1.00  0.00     0.134 A 
ATOM     76  C   UNL A   1      39.578  33.472  35.875  1.00  0.00     0.134 A 
ATOM     77  F   UNL A   1      37.779  30.422  36.683  1.00  0.00    -0.206 F 
ATOM     78  C   UNL A   1      37.800  32.501  37.775  1.00  0.00     0.040 A 
ATOM     79  C   UNL A   1      39.154  34.298  36.917  1.00  0.00     0.040 A 
ATOM     80  F   UNL A   1      40.433  33.982  34.976  1.00  0.00    -0.206 F 
ATOM     81  C   UNL A   1      38.257  33.815  37.866  1.00  0.00     0.006 A 
ENDBRANCH  57  74
ENDBRANCH  31  32
ENDBRANCH  24  26
ENDBRANCH  23  24
ENDBRANCH  22  23
ENDBRANCH   1  22
TORSDOF 13
ENDMDL
MODEL 2
REMARK VINA RESULT:     -11.1      5.170     10.283
REMARK SMILES C[C@]1(C(=O)N2CCC(CC(=O)OCCOC(=O)c3ccc(-c4c5nc(c(-c6c(F)cccc6F)c6ccc([nH]6)c(-c6c(F)cccc6F)c6nc(c(-c7c(F)cccc7F)c7ccc4[nH]7)C=C6)C=C5)cc3)CC2)CCC[NH2+]1
REMARK SMILES IDX 13 1 12 2 10 3 11 4 9 5 8 6 3 7 4 8 5 9 6 10 73 11 7 12
REMARK SMILES IDX 72 13 2 14 1 15 74 16 77 17 75 18 76 19 14 22 15 23 16 24
REMARK SMILES IDX 17 25 18 26 19 27 71 28 20 29 70 30 21 31 22 32 23 33 64 34
REMARK SMILES IDX 24 35 69 36 63 37 65 38 25 39 68 40 62 41 61 42 26 44 52 45
REMARK SMILES IDX 35 46 51 47 36 48 39 49 50 50 66 51 37 52 38 53 49 55 67 56
REMARK SMILES IDX 40 57 27 58 28 59 33 60 29 61 30 62 32 63 34 64 31 65 53 66
REMARK SMILES IDX 54 67 59 68 55 69 56 70 58 71 60 72 57 73 41 74 42 75 47 76
REMARK SMILES IDX 43 77 44 78 46 79 48 80 45 81
REMARK H PARENT 77 20 77 21 65 43 39 54
REMARK Flexibility Score: inf
ROOT
ATOM      1  C   UNL A   1      34.539  34.220  30.538  1.00  0.00     0.274 C 
ENDROOT
BRANCH   1   2
ATOM      2  O   UNL A   1      34.085  33.245  29.581  1.00  0.00    -0.462 OA
BRANCH   2   3
ATOM      3  C   UNL A   1      34.570  33.337  28.319  1.00  0.00     0.306 C 
ATOM      4  O   UNL A   1      34.603  34.367  27.658  1.00  0.00    -0.252 OA
BRANCH   3   5
ATOM      5  C   UNL A   1      35.014  31.995  27.772  1.00  0.00     0.126 C 
BRANCH   5   6
ATOM      6  C   UNL A   1      33.964  30.870  27.810  1.00  0.00     0.003 C 
ATOM      7  C   UNL A   1      32.366  28.487  25.113  1.00  0.00     0.283 C 
ATOM      8  O   UNL A   1      32.632  29.339  24.262  1.00  0.00    -0.268 OA
ATOM      9  N   UNL A   1      32.411  28.799  26.466  1.00  0.00    -0.337 N 
ATOM     10  C   UNL A   1      31.764  30.025  26.895  1.00  0.00     0.120 C 
ATOM     11  C   UNL A   1      33.569  28.401  27.252  1.00  0.00     0.120 C 
ATOM     12  C   UNL A   1      32.742  31.192  26.933  1.00  0.00     0.026 C 
ATOM     13  C   UNL A   1      34.595  29.537  27.347  1.00  0.00     0.026 C 
BRANCH   7  14
ATOM     14  C   UNL A   1      31.774  27.087  24.756  1.00  0.00     0.173 C 
ATOM     15  C   UNL A   1      32.809  26.036  24.326  1.00  0.00     0.090 C 
ATOM     16  C   UNL A   1      30.968  26.598  25.965  1.00  0.00     0.084 C 
ATOM     17  N   UNL A   1      30.737  27.234  23.707  1.00  0.00    -0.334 N 
ATOM     18  C   UNL A   1      29.903  25.704  25.365  1.00  0.00     0.068 C 
ATOM     19  C   UNL A   1      29.658  26.284  23.981  1.00  0.00     0.261 C 
ATOM     20  H   UNL A   1      31.144  27.037  22.792  1.00  0.00     0.347 HD
ATOM     21  H   UNL A   1      30.372  28.186  23.709  1.00  0.00     0.347 HD
ENDBRANCH   7  14
ENDBRANCH   5   6
ENDBRANCH   3   5
ENDBRANCH   2   3
ENDBRANCH   1   2
BRANCH   1  22
ATOM     22  C   UNL A   1      34.399  33.712  31.976  1.00  0.00     0.275 C 
BRANCH  22  23
ATOM     23  O   UNL A   1      34.812  32.338  32.084  1.00  0.00    -0.458 OA
BRANCH  23  24
ATOM     24  C   UNL A   1      35.907  32.127  32.850  1.00  0.00     0.338 C 
ATOM     25  O   UNL A   1      36.037  32.372  34.037  1.00  0.00    -0.246 OA
BRANCH  24  26
ATOM     26  C   UNL A   1      36.934  31.424  32.065  1.00  0.00     0.060 A 
ATOM     27  C   UNL A   1      38.012  30.856  32.751  1.00  0.00     0.016 A 
ATOM     28  C   UNL A   1      36.889  31.403  30.669  1.00  0.00     0.016 A 
ATOM     29  C   UNL A   1      39.066  30.286  32.043  1.00  0.00     0.010 A 
ATOM     30  C   UNL A   1      37.949  30.831  29.959  1.00  0.00     0.010 A 
ATOM     31  C   UNL A   1      39.055  30.294  30.641  1.00  0.00    -0.014 A 
BRANCH  31  32
ATOM     32  C   UNL A   1      40.254  29.832  29.902  1.00  0.00     0.031 A 
ATOM     33  C   UNL A   1      41.398  30.780  29.684  1.00  0.00     0.074 A 
ATOM     34  C   UNL A   1      40.335  28.563  29.466  1.00  0.00     0.049 A 
ATOM     35  N   UNL A   1      42.532  30.583  29.061  1.00  0.00    -0.248 NA
ATOM     36  C   UNL A   1      41.244  32.134  30.242  1.00  0.00     0.031 C 
ATOM     37  C   UNL A   1      39.304  27.541  29.642  1.00  0.00     0.029 A 
ATOM     38  N   UNL A   1      41.338  27.918  28.788  1.00  0.00    -0.354 N 
ATOM     39  C   UNL A   1      43.221  31.786  29.141  1.00  0.00     0.074 A 
ATOM     40  C   UNL A   1      42.369  32.716  29.851  1.00  0.00     0.031 C 
ATOM     41  C   UNL A   1      39.731  26.393  29.086  1.00  0.00     0.029 A 
ATOM     42  C   UNL A   1      41.050  26.608  28.497  1.00  0.00     0.049 A 
ATOM     43  H   UNL A   1      42.184  28.353  28.534  1.00  0.00     0.167 HD
ATOM     44  C   UNL A   1      44.455  32.088  28.671  1.00  0.00     0.037 A 
ATOM     45  C   UNL A   1      41.767  25.690  27.823  1.00  0.00     0.037 A 
ATOM     46  C   UNL A   1      45.308  31.162  27.972  1.00  0.00     0.049 A 
ATOM     47  C   UNL A   1      43.126  26.056  27.291  1.00  0.00     0.074 A 
ATOM     48  C   UNL A   1      46.575  31.374  27.457  1.00  0.00     0.029 A 
ATOM     49  N   UNL A   1      44.978  29.844  27.692  1.00  0.00    -0.354 N 
ATOM     50  N   UNL A   1      43.771  27.194  27.380  1.00  0.00    -0.248 NA
ATOM     51  C   UNL A   1      43.860  25.005  26.573  1.00  0.00     0.031 C 
ATOM     52  C   UNL A   1      47.001  30.192  26.840  1.00  0.00     0.029 A 
ATOM     53  C   UNL A   1      46.014  29.233  27.007  1.00  0.00     0.049 A 
ATOM     54  H   UNL A   1      44.132  29.409  27.944  1.00  0.00     0.167 HD
ATOM     55  C   UNL A   1      44.994  26.988  26.756  1.00  0.00     0.074 A 
ATOM     56  C   UNL A   1      45.006  25.613  26.301  1.00  0.00     0.031 C 
ATOM     57  C   UNL A   1      46.016  27.859  26.575  1.00  0.00     0.037 A 
BRANCH  44  58
ATOM     58  C   UNL A   1      44.946  33.488  28.884  1.00  0.00     0.057 A 
ATOM     59  C   UNL A   1      45.708  33.842  30.005  1.00  0.00     0.134 A 
ATOM     60  C   UNL A   1      44.669  34.491  27.947  1.00  0.00     0.134 A 
ATOM     61  F   UNL A   1      45.993  32.930  30.948  1.00  0.00    -0.206 F 
ATOM     62  C   UNL A   1      46.158  35.149  30.197  1.00  0.00     0.040 A 
ATOM     63  C   UNL A   1      45.133  35.796  28.117  1.00  0.00     0.040 A 
ATOM     64  F   UNL A   1      43.946  34.218  26.851  1.00  0.00    -0.206 F 
ATOM     65  C   UNL A   1      45.876  36.129  29.249  1.00  0.00     0.006 A 
ENDBRANCH  44  58
BRANCH  45  66
ATOM     66  C   UNL A   1      41.220  24.326  27.617  1.00  0.00     0.057 A 
ATOM     67  C   UNL A   1      41.703  23.234  28.347  1.00  0.00     0.134 A 
ATOM     68  C   UNL A   1      40.213  24.083  26.676  1.00  0.00     0.134 A 
ATOM     69  F   UNL A   1      42.683  23.403  29.246  1.00  0.00    -0.206 F 
ATOM     70  C   UNL A   1      41.216  21.943  28.135  1.00  0.00     0.040 A 
ATOM     71  C   UNL A   1      39.702  22.801  26.470  1.00  0.00     0.040 A 
ATOM     72  F   UNL A   1      39.709  25.089  25.946  1.00  0.00    -0.206 F 
ATOM     73  C   UNL A   1      40.209  21.724  27.196  1.00  0.00     0.006 A 
ENDBRANCH  45  66
BRANCH  57  74
ATOM     74  C   UNL A   1      47.248  27.336  25.899  1.00  0.00     0.057 A 
ATOM     75  C   UNL A   1      47.436  27.440  24.515  1.00  0.00     0.134 A 
ATOM     76  C   UNL A   1      48.269  26.737  26.648  1.00  0.00     0.134 A 
ATOM     77  F   UNL A   1      46.489  27.992  23.741  1.00  0.00    -0.206 F 
ATOM     78  C   UNL A   1      48.584  26.943  23.896  1.00  0.00     0.040 A 
ATOM     79  C   UNL A   1      49.432  26.257  26.043  1.00  0.00     0.040 A 
ATOM     80  F   UNL A   1      48.155  26.613  27.979  1.00  0.00    -0.206 F 
ATOM     81  C   UNL A   1      49.588  26.353  24.663  1.00  0.00     0.006 A 
ENDBRANCH  57  74
ENDBRANCH  31  32
ENDBRANCH  24  26
ENDBRANCH  23  24
ENDBRANCH  22  23
ENDBRANCH   1  22
TORSDOF 13
ENDMDL
MODEL 3
REMARK VINA RESULT:     -10.7      3.279      8.320
REMARK SMILES C[C@]1(C(=O)N2CCC(CC(=O)OCCOC(=O)c3ccc(-c4c5nc(c(-c6c(F)cccc6F)c6ccc([nH]6)c(-c6c(F)cccc6F)c6nc(c(-c7c(F)cccc7F)c7ccc4[nH]7)C=C6)C=C5)cc3)CC2)CCC[NH2+]1
REMARK SMILES IDX 13 1 12 2 10 3 11 4 9 5 8 6 3 7 4 8 5 9 6 10 73 11 7 12
REMARK SMILES IDX 72 13 2 14 1 15 74 16 77 17 75 18 76 19 14 22 15 23 16 24
REMARK SMILES IDX 17 25 18 26 19 27 71 28 20 29 70 30 21 31 22 32 23 33 64 34
REMARK SMILES IDX 24 35 69 36 63 37 65 38 25 39 68 40 62 41 61 42 26 44 52 45
REMARK SMILES IDX 35 46 51 47 36 48 39 49 50 50 66 51 37 52 38 53 49 55 67 56
REMARK SMILES IDX 40 57 27 58 28 59 33 60 29 61 30 62 32 63 34 64 31 65 53 66
REMARK SMILES IDX 54 67 59 68 55 69 56 70 58 71 60 72 57 73 41 74 42 75 47 76
REMARK SMILES IDX 43 77 44 78 46 79 48 80 45 81
REMARK H PARENT 77 20 77 21 65 43 39 54
REMARK Flexibility Score: inf
ROOT
ATOM      1  C   UNL A   1      31.342  32.040  26.636  1.00  0.00     0.274 C 
ENDROOT
BRANCH   1   2
ATOM      2  O   UNL A   1      31.850  30.819  26.066  1.00  0.00    -0.462 OA
BRANCH   2   3
ATOM      3  C   UNL A   1      32.551  29.995  26.883  1.00  0.00     0.306 C 
ATOM      4  O   UNL A   1      33.631  30.268  27.392  1.00  0.00    -0.252 OA
BRANCH   3   5
ATOM      5  C   UNL A   1      31.881  28.645  27.054  1.00  0.00     0.126 C 
BRANCH   5   6
ATOM      6  C   UNL A   1      31.922  27.713  25.829  1.00  0.00     0.003 C 
ATOM      7  C   UNL A   1      33.156  24.028  25.199  1.00  0.00     0.283 C 
ATOM      8  O   UNL A   1      33.919  24.162  26.159  1.00  0.00    -0.268 OA
ATOM      9  N   UNL A   1      32.541  25.132  24.622  1.00  0.00    -0.337 N 
ATOM     10  C   UNL A   1      33.370  26.285  24.329  1.00  0.00     0.120 C 
ATOM     11  C   UNL A   1      31.156  25.431  24.952  1.00  0.00     0.120 C 
ATOM     12  C   UNL A   1      33.357  27.292  25.472  1.00  0.00     0.026 C 
ATOM     13  C   UNL A   1      31.063  26.454  26.090  1.00  0.00     0.026 C 
BRANCH   7  14
ATOM     14  C   UNL A   1      32.977  22.674  24.440  1.00  0.00     0.173 C 
ATOM     15  C   UNL A   1      32.703  22.807  22.935  1.00  0.00     0.090 C 
ATOM     16  C   UNL A   1      34.228  21.826  24.697  1.00  0.00     0.084 C 
ATOM     17  N   UNL A   1      31.903  21.878  25.081  1.00  0.00    -0.334 N 
ATOM     18  C   UNL A   1      33.735  20.397  24.597  1.00  0.00     0.068 C 
ATOM     19  C   UNL A   1      32.283  20.466  25.044  1.00  0.00     0.261 C 
ATOM     20  H   UNL A   1      31.028  22.012  24.574  1.00  0.00     0.347 HD
ATOM     21  H   UNL A   1      31.775  22.180  26.047  1.00  0.00     0.347 HD
ENDBRANCH   7  14
ENDBRANCH   5   6
ENDBRANCH   3   5
ENDBRANCH   2   3
ENDBRANCH   1   2
BRANCH   1  22
ATOM     22  C   UNL A   1      32.459  33.056  26.890  1.00  0.00     0.275 C 
BRANCH  22  23
ATOM     23  O   UNL A   1      32.167  33.871  28.039  1.00  0.00    -0.458 OA
BRANCH  23  24
ATOM     24  C   UNL A   1      33.188  34.650  28.464  1.00  0.00     0.338 C 
ATOM     25  O   UNL A   1      33.171  35.855  28.646  1.00  0.00    -0.246 OA
BRANCH  24  26
ATOM     26  C   UNL A   1      34.346  33.809  28.806  1.00  0.00     0.060 A 
ATOM     27  C   UNL A   1      34.134  32.709  29.643  1.00  0.00     0.016 A 
ATOM     28  C   UNL A   1      35.634  34.146  28.386  1.00  0.00     0.016 A 
ATOM     29  C   UNL A   1      35.217  31.955  30.088  1.00  0.00     0.010 A 
ATOM     30  C   UNL A   1      36.720  33.388  28.835  1.00  0.00     0.010 A 
ATOM     31  C   UNL A   1      36.519  32.306  29.709  1.00  0.00    -0.014 A 
BRANCH  31  32
ATOM     32  C   UNL A   1      37.669  31.596  30.318  1.00  0.00     0.031 A 
ATOM     33  C   UNL A   1      38.027  31.865  31.753  1.00  0.00     0.074 A 
ATOM     34  C   UNL A   1      38.362  30.690  29.608  1.00  0.00     0.049 A 
ATOM     35  N   UNL A   1      38.995  31.361  32.475  1.00  0.00    -0.248 NA
ATOM     36  C   UNL A   1      37.182  32.834  32.470  1.00  0.00     0.031 C 
ATOM     37  C   UNL A   1      38.094  30.321  28.219  1.00  0.00     0.029 A 
ATOM     38  N   UNL A   1      39.433  29.910  29.963  1.00  0.00    -0.354 N 
ATOM     39  C   UNL A   1      38.884  31.956  33.725  1.00  0.00     0.074 A 
ATOM     40  C   UNL A   1      37.770  32.878  33.657  1.00  0.00     0.031 C 
ATOM     41  C   UNL A   1      38.978  29.381  27.839  1.00  0.00     0.029 A 
ATOM     42  C   UNL A   1      39.886  29.104  28.950  1.00  0.00     0.049 A 
ATOM     43  H   UNL A   1      39.839  29.928  30.861  1.00  0.00     0.167 HD
ATOM     44  C   UNL A   1      39.636  31.748  34.832  1.00  0.00     0.037 A 
ATOM     45  C   UNL A   1      40.922  28.245  28.920  1.00  0.00     0.037 A 
ATOM     46  C   UNL A   1      40.738  30.825  34.904  1.00  0.00     0.049 A 
ATOM     47  C   UNL A   1      41.757  28.049  30.155  1.00  0.00     0.074 A 
ATOM     48  C   UNL A   1      41.563  30.545  35.981  1.00  0.00     0.029 A 
ATOM     49  N   UNL A   1      41.170  30.029  33.853  1.00  0.00    -0.354 N 
ATOM     50  N   UNL A   1      41.637  28.610  31.333  1.00  0.00    -0.248 NA
ATOM     51  C   UNL A   1      42.867  27.090  30.057  1.00  0.00     0.031 C 
ATOM     52  C   UNL A   1      42.510  29.599  35.573  1.00  0.00     0.029 A 
ATOM     53  C   UNL A   1      42.251  29.263  34.254  1.00  0.00     0.049 A 
ATOM     54  H   UNL A   1      40.767  30.012  32.955  1.00  0.00     0.167 HD
ATOM     55  C   UNL A   1      42.635  28.055  32.123  1.00  0.00     0.074 A 
ATOM     56  C   UNL A   1      43.345  27.103  31.294  1.00  0.00     0.031 C 
ATOM     57  C   UNL A   1      42.936  28.309  33.420  1.00  0.00     0.037 A 
BRANCH  44  58
ATOM     58  C   UNL A   1      39.300  32.554  36.050  1.00  0.00     0.057 A 
ATOM     59  C   UNL A   1      38.441  32.067  37.044  1.00  0.00     0.134 A 
ATOM     60  C   UNL A   1      39.856  33.825  36.241  1.00  0.00     0.134 A 
ATOM     61  F   UNL A   1      37.862  30.863  36.912  1.00  0.00    -0.206 F 
ATOM     62  C   UNL A   1      38.130  32.825  38.174  1.00  0.00     0.040 A 
ATOM     63  C   UNL A   1      39.571  34.582  37.377  1.00  0.00     0.040 A 
ATOM     64  F   UNL A   1      40.688  34.348  35.328  1.00  0.00    -0.206 F 
ATOM     65  C   UNL A   1      38.700  34.084  38.346  1.00  0.00     0.006 A 
ENDBRANCH  44  58
BRANCH  45  66
ATOM     66  C   UNL A   1      41.226  27.494  27.677  1.00  0.00     0.057 A 
ATOM     67  C   UNL A   1      40.663  26.236  27.433  1.00  0.00     0.134 A 
ATOM     68  C   UNL A   1      42.100  28.010  26.713  1.00  0.00     0.134 A 
ATOM     69  F   UNL A   1      39.837  25.681  28.331  1.00  0.00    -0.206 F 
ATOM     70  C   UNL A   1      40.972  25.510  26.282  1.00  0.00     0.040 A 
ATOM     71  C   UNL A   1      42.400  27.304  25.547  1.00  0.00     0.040 A 
ATOM     72  F   UNL A   1      42.672  29.210  26.889  1.00  0.00    -0.206 F 
ATOM     73  C   UNL A   1      41.839  26.045  25.333  1.00  0.00     0.006 A 
ENDBRANCH  45  66
BRANCH  57  74
ATOM     74  C   UNL A   1      44.051  27.513  34.031  1.00  0.00     0.057 A 
ATOM     75  C   UNL A   1      43.833  26.261  34.619  1.00  0.00     0.134 A 
ATOM     76  C   UNL A   1      45.365  28.000  34.010  1.00  0.00     0.134 A 
ATOM     77  F   UNL A   1      42.596  25.747  34.682  1.00  0.00    -0.206 F 
ATOM     78  C   UNL A   1      44.878  25.533  35.190  1.00  0.00     0.040 A 
ATOM     79  C   UNL A   1      46.421  27.270  34.557  1.00  0.00     0.040 A 
ATOM     80  F   UNL A   1      45.642  29.189  33.454  1.00  0.00    -0.206 F 
ATOM     81  C   UNL A   1      46.178  26.036  35.156  1.00  0.00     0.006 A 
ENDBRANCH  57  74
ENDBRANCH  31  32
ENDBRANCH  24  26
ENDBRANCH  23  24
ENDBRANCH  22  23
ENDBRANCH   1  22
TORSDOF 13
ENDMDL
