MODEL 1
REMARK VINA RESULT:      -9.1      0.000      0.000
REMARK SMILES CC(C)[C@@H](C[NH+](C)C)C(=O)OCCOC(=O)c1ccc(-c2c3nc(c(-c4c(F)cccc4F)c4ccc([nH]4)c(-c4c(F)cccc4F)c4nc(c(-c5c(F)cccc5F)c5ccc2[nH]5)C=C4)C=C3)cc1
REMARK SMILES IDX 12 1 11 2 9 3 10 4 4 5 2 6 1 7 3 8 5 9 6 10 7 11 8 12 13 14
REMARK SMILES IDX 14 15 15 16 16 17 17 18 18 19 70 20 19 21 69 22 20 23 21 24
REMARK SMILES IDX 22 25 63 26 23 27 68 28 62 29 64 30 24 31 67 32 61 33 60 34
REMARK SMILES IDX 25 36 51 37 34 38 50 39 35 40 38 41 49 42 65 43 36 44 37 45
REMARK SMILES IDX 48 47 66 48 39 49 26 50 27 51 32 52 28 53 29 54 31 55 33 56
REMARK SMILES IDX 30 57 52 58 53 59 58 60 54 61 55 62 57 63 59 64 56 65 40 66
REMARK SMILES IDX 41 67 46 68 42 69 43 70 45 71 47 72 44 73
REMARK H PARENT 6 13 64 35 38 46
REMARK Flexibility Score: inf
ROOT
ATOM      1  C   UNL A   1      44.497  22.154  25.068  1.00  0.00     0.274 C 
ENDROOT
BRANCH   1   2
ATOM      2  O   UNL A   1      43.129  22.075  25.510  1.00  0.00    -0.462 OA
BRANCH   2   3
ATOM      3  C   UNL A   1      42.971  21.899  26.848  1.00  0.00     0.315 C 
ATOM      4  O   UNL A   1      43.662  22.433  27.713  1.00  0.00    -0.252 OA
BRANCH   3   5
ATOM      5  C   UNL A   1      41.858  20.930  27.209  1.00  0.00     0.156 C 
BRANCH   5   6
ATOM      6  C   UNL A   1      40.420  21.506  27.295  1.00  0.00     0.003 C 
ATOM      7  C   UNL A   1      40.432  22.975  27.740  1.00  0.00     0.008 C 
ATOM      8  C   UNL A   1      39.687  21.432  25.947  1.00  0.00     0.008 C 
ENDBRANCH   5   6
BRANCH   5   9
ATOM      9  C   UNL A   1      42.073  19.672  26.334  1.00  0.00     0.277 C 
BRANCH   9  10
ATOM     10  N   UNL A   1      43.371  18.977  26.423  1.00  0.00    -0.339 N 
ATOM     11  C   UNL A   1      43.202  17.709  27.142  1.00  0.00     0.332 C 
ATOM     12  C   UNL A   1      43.997  18.729  25.127  1.00  0.00     0.332 C 
ATOM     13  H   UNL A   1      44.000  19.599  26.930  1.00  0.00     0.347 HD
ENDBRANCH   9  10
ENDBRANCH   5   9
ENDBRANCH   3   5
ENDBRANCH   2   3
ENDBRANCH   1   2
BRANCH   1  14
ATOM     14  C   UNL A   1      44.751  23.435  24.275  1.00  0.00     0.275 C 
BRANCH  14  15
ATOM     15  O   UNL A   1      43.941  24.504  24.790  1.00  0.00    -0.458 OA
BRANCH  15  16
ATOM     16  C   UNL A   1      44.604  25.625  25.148  1.00  0.00     0.338 C 
ATOM     17  O   UNL A   1      45.653  26.046  24.692  1.00  0.00    -0.246 OA
BRANCH  16  18
ATOM     18  C   UNL A   1      43.882  26.301  26.240  1.00  0.00     0.060 A 
ATOM     19  C   UNL A   1      44.149  27.634  26.565  1.00  0.00     0.016 A 
ATOM     20  C   UNL A   1      42.996  25.551  27.014  1.00  0.00     0.016 A 
ATOM     21  C   UNL A   1      43.563  28.210  27.692  1.00  0.00     0.010 A 
ATOM     22  C   UNL A   1      42.366  26.146  28.108  1.00  0.00     0.010 A 
ATOM     23  C   UNL A   1      42.663  27.471  28.470  1.00  0.00    -0.014 A 
BRANCH  23  24
ATOM     24  C   UNL A   1      42.044  28.052  29.686  1.00  0.00     0.031 A 
ATOM     25  C   UNL A   1      40.762  28.827  29.571  1.00  0.00     0.074 A 
ATOM     26  C   UNL A   1      42.651  27.924  30.880  1.00  0.00     0.049 A 
ATOM     27  N   UNL A   1      40.168  29.581  30.459  1.00  0.00    -0.248 NA
ATOM     28  C   UNL A   1      40.062  28.751  28.279  1.00  0.00     0.031 C 
ATOM     29  C   UNL A   1      43.878  27.167  31.129  1.00  0.00     0.029 A 
ATOM     30  N   UNL A   1      42.327  28.450  32.104  1.00  0.00    -0.354 N 
ATOM     31  C   UNL A   1      39.047  30.100  29.825  1.00  0.00     0.074 A 
ATOM     32  C   UNL A   1      39.044  29.577  28.475  1.00  0.00     0.031 C 
ATOM     33  C   UNL A   1      44.206  27.280  32.426  1.00  0.00     0.029 A 
ATOM     34  C   UNL A   1      43.248  28.165  33.081  1.00  0.00     0.049 A 
ATOM     35  H   UNL A   1      41.512  28.978  32.267  1.00  0.00     0.167 HD
ATOM     36  C   UNL A   1      38.109  30.940  30.324  1.00  0.00     0.037 A 
ATOM     37  C   UNL A   1      43.337  28.605  34.350  1.00  0.00     0.037 A 
ATOM     38  C   UNL A   1      38.102  31.435  31.676  1.00  0.00     0.049 A 
ATOM     39  C   UNL A   1      42.307  29.567  34.870  1.00  0.00     0.074 A 
ATOM     40  C   UNL A   1      37.186  32.276  32.283  1.00  0.00     0.029 A 
ATOM     41  N   UNL A   1      39.057  31.125  32.632  1.00  0.00    -0.354 N 
ATOM     42  N   UNL A   1      41.268  30.075  34.254  1.00  0.00    -0.248 NA
ATOM     43  C   UNL A   1      42.473  30.027  36.256  1.00  0.00     0.031 C 
ATOM     44  C   UNL A   1      37.602  32.498  33.600  1.00  0.00     0.029 A 
ATOM     45  C   UNL A   1      38.759  31.769  33.822  1.00  0.00     0.049 A 
ATOM     46  H   UNL A   1      39.832  30.536  32.488  1.00  0.00     0.167 HD
ATOM     47  C   UNL A   1      40.647  30.905  35.179  1.00  0.00     0.074 A 
ATOM     48  C   UNL A   1      41.419  30.821  36.402  1.00  0.00     0.031 C 
ATOM     49  C   UNL A   1      39.539  31.670  35.028  1.00  0.00     0.037 A 
BRANCH  36  50
ATOM     50  C   UNL A   1      37.028  31.399  29.394  1.00  0.00     0.057 A 
ATOM     51  C   UNL A   1      35.946  30.579  29.054  1.00  0.00     0.134 A 
ATOM     52  C   UNL A   1      37.056  32.693  28.857  1.00  0.00     0.134 A 
ATOM     53  F   UNL A   1      35.869  29.325  29.523  1.00  0.00    -0.206 F 
ATOM     54  C   UNL A   1      34.935  31.024  28.199  1.00  0.00     0.040 A 
ATOM     55  C   UNL A   1      36.042  33.155  28.017  1.00  0.00     0.040 A 
ATOM     56  F   UNL A   1      38.064  33.529  29.146  1.00  0.00    -0.206 F 
ATOM     57  C   UNL A   1      34.979  32.319  27.683  1.00  0.00     0.006 A 
ENDBRANCH  36  50
BRANCH  37  58
ATOM     58  C   UNL A   1      44.464  28.164  35.205  1.00  0.00     0.057 A 
ATOM     59  C   UNL A   1      44.359  27.023  36.006  1.00  0.00     0.134 A 
ATOM     60  C   UNL A   1      45.676  28.866  35.234  1.00  0.00     0.134 A 
ATOM     61  F   UNL A   1      43.215  26.323  36.037  1.00  0.00    -0.206 F 
ATOM     62  C   UNL A   1      45.416  26.597  36.813  1.00  0.00     0.040 A 
ATOM     63  C   UNL A   1      46.748  28.441  36.019  1.00  0.00     0.040 A 
ATOM     64  F   UNL A   1      45.837  29.968  34.486  1.00  0.00    -0.206 F 
ATOM     65  C   UNL A   1      46.617  27.305  36.814  1.00  0.00     0.006 A 
ENDBRANCH  37  58
BRANCH  49  66
ATOM     66  C   UNL A   1      39.087  32.452  36.222  1.00  0.00     0.057 A 
ATOM     67  C   UNL A   1      39.506  33.770  36.438  1.00  0.00     0.134 A 
ATOM     68  C   UNL A   1      38.199  31.891  37.147  1.00  0.00     0.134 A 
ATOM     69  F   UNL A   1      40.368  34.357  35.593  1.00  0.00    -0.206 F 
ATOM     70  C   UNL A   1      39.071  34.499  37.545  1.00  0.00     0.040 A 
ATOM     71  C   UNL A   1      37.742  32.615  38.249  1.00  0.00     0.040 A 
ATOM     72  F   UNL A   1      37.757  30.634  36.992  1.00  0.00    -0.206 F 
ATOM     73  C   UNL A   1      38.181  33.923  38.452  1.00  0.00     0.006 A 
ENDBRANCH  49  66
ENDBRANCH  23  24
ENDBRANCH  16  18
ENDBRANCH  15  16
ENDBRANCH  14  15
ENDBRANCH   1  14
TORSDOF 14
ENDMDL
MODEL 2
REMARK VINA RESULT:      -9.0      1.946      7.422
REMARK SMILES CC(C)[C@@H](C[NH+](C)C)C(=O)OCCOC(=O)c1ccc(-c2c3nc(c(-c4c(F)cccc4F)c4ccc([nH]4)c(-c4c(F)cccc4F)c4nc(c(-c5c(F)cccc5F)c5ccc2[nH]5)C=C4)C=C3)cc1
REMARK SMILES IDX 12 1 11 2 9 3 10 4 4 5 2 6 1 7 3 8 5 9 6 10 7 11 8 12 13 14
REMARK SMILES IDX 14 15 15 16 16 17 17 18 18 19 70 20 19 21 69 22 20 23 21 24
REMARK SMILES IDX 22 25 63 26 23 27 68 28 62 29 64 30 24 31 67 32 61 33 60 34
REMARK SMILES IDX 25 36 51 37 34 38 50 39 35 40 38 41 49 42 65 43 36 44 37 45
REMARK SMILES IDX 48 47 66 48 39 49 26 50 27 51 32 52 28 53 29 54 31 55 33 56
REMARK SMILES IDX 30 57 52 58 53 59 58 60 54 61 55 62 57 63 59 64 56 65 40 66
REMARK SMILES IDX 41 67 46 68 42 69 43 70 45 71 47 72 44 73
REMARK H PARENT 6 13 64 35 38 46
REMARK Flexibility Score: inf
ROOT
ATOM      1  C   UNL A   1      45.887  23.400  24.921  1.00  0.00     0.274 C 
ENDROOT
BRANCH   1   2
ATOM      2  O   UNL A   1      46.048  24.831  24.887  1.00  0.00    -0.462 OA
BRANCH   2   3
ATOM      3  C   UNL A   1      47.076  25.307  25.636  1.00  0.00     0.315 C 
ATOM      4  O   UNL A   1      48.256  25.304  25.292  1.00  0.00    -0.252 OA
BRANCH   3   5
ATOM      5  C   UNL A   1      46.648  25.832  26.995  1.00  0.00     0.156 C 
BRANCH   5   6
ATOM      6  C   UNL A   1      46.672  24.831  28.180  1.00  0.00     0.003 C 
ATOM      7  C   UNL A   1      46.975  25.541  29.506  1.00  0.00     0.008 C 
ATOM      8  C   UNL A   1      45.332  24.095  28.340  1.00  0.00     0.008 C 
ENDBRANCH   5   6
BRANCH   5   9
ATOM      9  C   UNL A   1      47.372  27.185  27.190  1.00  0.00     0.277 C 
BRANCH   9  10
ATOM     10  N   UNL A   1      46.572  28.422  27.098  1.00  0.00    -0.339 N 
ATOM     11  C   UNL A   1      45.570  28.282  26.037  1.00  0.00     0.332 C 
ATOM     12  C   UNL A   1      45.917  28.794  28.349  1.00  0.00     0.332 C 
ATOM     13  H   UNL A   1      47.225  29.175  26.882  1.00  0.00     0.347 HD
ENDBRANCH   9  10
ENDBRANCH   5   9
ENDBRANCH   3   5
ENDBRANCH   2   3
ENDBRANCH   1   2
BRANCH   1  14
ATOM     14  C   UNL A   1      44.732  22.950  24.028  1.00  0.00     0.275 C 
BRANCH  14  15
ATOM     15  O   UNL A   1      43.560  23.734  24.303  1.00  0.00    -0.458 OA
BRANCH  15  16
ATOM     16  C   UNL A   1      42.740  23.251  25.262  1.00  0.00     0.338 C 
ATOM     17  O   UNL A   1      42.325  22.111  25.380  1.00  0.00    -0.246 OA
BRANCH  16  18
ATOM     18  C   UNL A   1      42.362  24.336  26.184  1.00  0.00     0.060 A 
ATOM     19  C   UNL A   1      42.899  25.619  26.046  1.00  0.00     0.016 A 
ATOM     20  C   UNL A   1      41.534  24.031  27.264  1.00  0.00     0.016 A 
ATOM     21  C   UNL A   1      42.643  26.591  27.013  1.00  0.00     0.010 A 
ATOM     22  C   UNL A   1      41.233  25.021  28.200  1.00  0.00     0.010 A 
ATOM     23  C   UNL A   1      41.805  26.301  28.096  1.00  0.00    -0.014 A 
BRANCH  23  24
ATOM     24  C   UNL A   1      41.535  27.309  29.150  1.00  0.00     0.031 A 
ATOM     25  C   UNL A   1      42.332  27.286  30.423  1.00  0.00     0.074 A 
ATOM     26  C   UNL A   1      40.552  28.211  28.984  1.00  0.00     0.049 A 
ATOM     27  N   UNL A   1      42.125  27.934  31.540  1.00  0.00    -0.248 NA
ATOM     28  C   UNL A   1      43.512  26.408  30.444  1.00  0.00     0.031 C 
ATOM     29  C   UNL A   1      39.732  28.360  27.781  1.00  0.00     0.029 A 
ATOM     30  N   UNL A   1      40.061  29.160  29.844  1.00  0.00    -0.354 N 
ATOM     31  C   UNL A   1      43.123  27.515  32.410  1.00  0.00     0.074 A 
ATOM     32  C   UNL A   1      43.935  26.556  31.692  1.00  0.00     0.031 C 
ATOM     33  C   UNL A   1      38.836  29.339  27.980  1.00  0.00     0.029 A 
ATOM     34  C   UNL A   1      38.980  29.843  29.342  1.00  0.00     0.049 A 
ATOM     35  H   UNL A   1      40.446  29.336  30.733  1.00  0.00     0.167 HD
ATOM     36  C   UNL A   1      43.338  27.895  33.692  1.00  0.00     0.037 A 
ATOM     37  C   UNL A   1      38.167  30.740  29.931  1.00  0.00     0.037 A 
ATOM     38  C   UNL A   1      42.545  28.872  34.392  1.00  0.00     0.049 A 
ATOM     39  C   UNL A   1      38.401  31.118  31.366  1.00  0.00     0.074 A 
ATOM     40  C   UNL A   1      42.694  29.338  35.686  1.00  0.00     0.029 A 
ATOM     41  N   UNL A   1      41.457  29.536  33.849  1.00  0.00    -0.354 N 
ATOM     42  N   UNL A   1      39.329  30.694  32.189  1.00  0.00    -0.248 NA
ATOM     43  C   UNL A   1      37.466  32.085  31.956  1.00  0.00     0.031 C 
ATOM     44  C   UNL A   1      41.676  30.265  35.936  1.00  0.00     0.029 A 
ATOM     45  C   UNL A   1      40.915  30.400  34.786  1.00  0.00     0.049 A 
ATOM     46  H   UNL A   1      41.118  29.413  32.933  1.00  0.00     0.167 HD
ATOM     47  C   UNL A   1      39.099  31.351  33.390  1.00  0.00     0.074 A 
ATOM     48  C   UNL A   1      37.952  32.212  33.184  1.00  0.00     0.031 C 
ATOM     49  C   UNL A   1      39.775  31.250  34.560  1.00  0.00     0.037 A 
BRANCH  36  50
ATOM     50  C   UNL A   1      44.462  27.232  34.429  1.00  0.00     0.057 A 
ATOM     51  C   UNL A   1      45.750  27.778  34.465  1.00  0.00     0.134 A 
ATOM     52  C   UNL A   1      44.240  26.046  35.142  1.00  0.00     0.134 A 
ATOM     53  F   UNL A   1      46.030  28.904  33.791  1.00  0.00    -0.206 F 
ATOM     54  C   UNL A   1      46.785  27.159  35.169  1.00  0.00     0.040 A 
ATOM     55  C   UNL A   1      45.261  25.428  35.865  1.00  0.00     0.040 A 
ATOM     56  F   UNL A   1      43.027  25.473  35.150  1.00  0.00    -0.206 F 
ATOM     57  C   UNL A   1      46.539  25.984  35.878  1.00  0.00     0.006 A 
ENDBRANCH  36  50
BRANCH  37  58
ATOM     58  C   UNL A   1      37.034  31.317  29.169  1.00  0.00     0.057 A 
ATOM     59  C   UNL A   1      35.881  30.569  28.913  1.00  0.00     0.134 A 
ATOM     60  C   UNL A   1      37.073  32.632  28.688  1.00  0.00     0.134 A 
ATOM     61  F   UNL A   1      35.795  29.297  29.330  1.00  0.00    -0.206 F 
ATOM     62  C   UNL A   1      34.807  31.103  28.199  1.00  0.00     0.040 A 
ATOM     63  C   UNL A   1      35.999  33.187  27.992  1.00  0.00     0.040 A 
ATOM     64  F   UNL A   1      38.152  33.399  28.904  1.00  0.00    -0.206 F 
ATOM     65  C   UNL A   1      34.863  32.420  27.742  1.00  0.00     0.006 A 
ENDBRANCH  37  58
BRANCH  49  66
ATOM     66  C   UNL A   1      39.305  32.108  35.692  1.00  0.00     0.057 A 
ATOM     67  C   UNL A   1      39.802  33.403  35.889  1.00  0.00     0.134 A 
ATOM     68  C   UNL A   1      38.323  31.647  36.577  1.00  0.00     0.134 A 
ATOM     69  F   UNL A   1      40.755  33.894  35.082  1.00  0.00    -0.206 F 
ATOM     70  C   UNL A   1      39.351  34.203  36.939  1.00  0.00     0.040 A 
ATOM     71  C   UNL A   1      37.849  32.444  37.619  1.00  0.00     0.040 A 
ATOM     72  F   UNL A   1      37.803  30.419  36.437  1.00  0.00    -0.206 F 
ATOM     73  C   UNL A   1      38.367  33.726  37.805  1.00  0.00     0.006 A 
ENDBRANCH  49  66
ENDBRANCH  23  24
ENDBRANCH  16  18
ENDBRANCH  15  16
ENDBRANCH  14  15
ENDBRANCH   1  14
TORSDOF 14
ENDMDL
MODEL 3
REMARK VINA RESULT:      -9.0      3.140      7.775
REMARK SMILES CC(C)[C@@H](C[NH+](C)C)C(=O)OCCOC(=O)c1ccc(-c2c3nc(c(-c4c(F)cccc4F)c4ccc([nH]4)c(-c4c(F)cccc4F)c4nc(c(-c5c(F)cccc5F)c5ccc2[nH]5)C=C4)C=C3)cc1
REMARK SMILES IDX 12 1 11 2 9 3 10 4 4 5 2 6 1 7 3 8 5 9 6 10 7 11 8 12 13 14
REMARK SMILES IDX 14 15 15 16 16 17 17 18 18 19 70 20 19 21 69 22 20 23 21 24
REMARK SMILES IDX 22 25 63 26 23 27 68 28 62 29 64 30 24 31 67 32 61 33 60 34
REMARK SMILES IDX 25 36 51 37 34 38 50 39 35 40 38 41 49 42 65 43 36 44 37 45
REMARK SMILES IDX 48 47 66 48 39 49 26 50 27 51 32 52 28 53 29 54 31 55 33 56
REMARK SMILES IDX 30 57 52 58 53 59 58 60 54 61 55 62 57 63 59 64 56 65 40 66
REMARK SMILES IDX 41 67 46 68 42 69 43 70 45 71 47 72 44 73
REMARK H PARENT 6 13 64 35 38 46
REMARK Flexibility Score: inf
ROOT
ATOM      1  C   UNL A   1      37.767  21.871  25.032  1.00  0.00     0.274 C 
ENDROOT
BRANCH   1   2
ATOM      2  O   UNL A   1      36.518  21.477  25.631  1.00  0.00    -0.462 OA
BRANCH   2   3
ATOM      3  C   UNL A   1      35.987  20.328  25.139  1.00  0.00     0.315 C 
ATOM      4  O   UNL A   1      36.641  19.377  24.717  1.00  0.00    -0.252 OA
BRANCH   3   5
ATOM      5  C   UNL A   1      34.469  20.320  25.115  1.00  0.00     0.156 C 
BRANCH   5   6
ATOM      6  C   UNL A   1      33.762  21.604  24.607  1.00  0.00     0.003 C 
ATOM      7  C   UNL A   1      32.683  21.273  23.565  1.00  0.00     0.008 C 
ATOM      8  C   UNL A   1      33.087  22.380  25.748  1.00  0.00     0.008 C 
ENDBRANCH   5   6
BRANCH   5   9
ATOM      9  C   UNL A   1      34.048  18.974  24.477  1.00  0.00     0.277 C 
BRANCH   9  10
ATOM     10  N   UNL A   1      33.980  17.784  25.347  1.00  0.00    -0.339 N 
ATOM     11  C   UNL A   1      32.578  17.461  25.629  1.00  0.00     0.332 C 
ATOM     12  C   UNL A   1      34.655  16.612  24.795  1.00  0.00     0.332 C 
ATOM     13  H   UNL A   1      34.477  18.022  26.205  1.00  0.00     0.347 HD
ENDBRANCH   9  10
ENDBRANCH   5   9
ENDBRANCH   3   5
ENDBRANCH   2   3
ENDBRANCH   1   2
BRANCH   1  14
ATOM     14  C   UNL A   1      38.856  22.056  26.088  1.00  0.00     0.275 C 
BRANCH  14  15
ATOM     15  O   UNL A   1      39.018  23.452  26.390  1.00  0.00    -0.458 OA
BRANCH  15  16
ATOM     16  C   UNL A   1      40.285  23.859  26.623  1.00  0.00     0.338 C 
ATOM     17  O   UNL A   1      41.318  23.310  26.282  1.00  0.00    -0.246 OA
BRANCH  16  18
ATOM     18  C   UNL A   1      40.268  25.104  27.411  1.00  0.00     0.060 A 
ATOM     19  C   UNL A   1      41.220  26.105  27.198  1.00  0.00     0.016 A 
ATOM     20  C   UNL A   1      39.342  25.222  28.447  1.00  0.00     0.016 A 
ATOM     21  C   UNL A   1      41.276  27.208  28.050  1.00  0.00     0.010 A 
ATOM     22  C   UNL A   1      39.363  26.353  29.263  1.00  0.00     0.010 A 
ATOM     23  C   UNL A   1      40.346  27.343  29.087  1.00  0.00    -0.014 A 
BRANCH  23  24
ATOM     24  C   UNL A   1      40.398  28.494  30.021  1.00  0.00     0.031 A 
ATOM     25  C   UNL A   1      41.408  28.506  31.132  1.00  0.00     0.074 A 
ATOM     26  C   UNL A   1      39.515  29.502  29.899  1.00  0.00     0.049 A 
ATOM     27  N   UNL A   1      41.491  29.302  32.167  1.00  0.00    -0.248 NA
ATOM     28  C   UNL A   1      42.459  27.478  31.076  1.00  0.00     0.031 C 
ATOM     29  C   UNL A   1      38.510  29.625  28.843  1.00  0.00     0.029 A 
ATOM     30  N   UNL A   1      39.308  30.604  30.689  1.00  0.00    -0.354 N 
ATOM     31  C   UNL A   1      42.576  28.849  32.906  1.00  0.00     0.074 A 
ATOM     32  C   UNL A   1      43.121  27.707  32.202  1.00  0.00     0.031 C 
ATOM     33  C   UNL A   1      37.790  30.738  29.052  1.00  0.00     0.029 A 
ATOM     34  C   UNL A   1      38.242  31.371  30.287  1.00  0.00     0.049 A 
ATOM     35  H   UNL A   1      39.870  30.825  31.467  1.00  0.00     0.167 HD
ATOM     36  C   UNL A   1      43.069  29.340  34.068  1.00  0.00     0.037 A 
ATOM     37  C   UNL A   1      37.665  32.436  30.873  1.00  0.00     0.037 A 
ATOM     38  C   UNL A   1      42.541  30.494  34.748  1.00  0.00     0.049 A 
ATOM     39  C   UNL A   1      38.205  32.940  32.181  1.00  0.00     0.074 A 
ATOM     40  C   UNL A   1      42.981  31.081  35.922  1.00  0.00     0.029 A 
ATOM     41  N   UNL A   1      41.457  31.239  34.309  1.00  0.00    -0.354 N 
ATOM     42  N   UNL A   1      39.212  32.487  32.887  1.00  0.00    -0.248 NA
ATOM     43  C   UNL A   1      37.517  34.092  32.780  1.00  0.00     0.031 C 
ATOM     44  C   UNL A   1      42.146  32.166  36.208  1.00  0.00     0.029 A 
ATOM     45  C   UNL A   1      41.206  32.273  35.195  1.00  0.00     0.049 A 
ATOM     46  H   UNL A   1      40.942  31.059  33.490  1.00  0.00     0.167 HD
ATOM     47  C   UNL A   1      39.289  33.305  34.006  1.00  0.00     0.074 A 
ATOM     48  C   UNL A   1      38.234  34.290  33.879  1.00  0.00     0.031 C 
ATOM     49  C   UNL A   1      40.153  33.244  35.048  1.00  0.00     0.037 A 
BRANCH  36  50
ATOM     50  C   UNL A   1      44.222  28.614  34.690  1.00  0.00     0.057 A 
ATOM     51  C   UNL A   1      44.034  27.555  35.586  1.00  0.00     0.134 A 
ATOM     52  C   UNL A   1      45.539  28.959  34.360  1.00  0.00     0.134 A 
ATOM     53  F   UNL A   1      42.798  27.186  35.953  1.00  0.00    -0.206 F 
ATOM     54  C   UNL A   1      45.117  26.874  36.147  1.00  0.00     0.040 A 
ATOM     55  C   UNL A   1      46.629  28.274  34.899  1.00  0.00     0.040 A 
ATOM     56  F   UNL A   1      45.786  29.963  33.506  1.00  0.00    -0.206 F 
ATOM     57  C   UNL A   1      46.419  27.230  35.797  1.00  0.00     0.006 A 
ENDBRANCH  36  50
BRANCH  37  58
ATOM     58  C   UNL A   1      36.488  33.076  30.240  1.00  0.00     0.057 A 
ATOM     59  C   UNL A   1      36.638  33.974  29.179  1.00  0.00     0.134 A 
ATOM     60  C   UNL A   1      35.186  32.798  30.674  1.00  0.00     0.134 A 
ATOM     61  F   UNL A   1      37.862  34.296  28.735  1.00  0.00    -0.206 F 
ATOM     62  C   UNL A   1      35.536  34.581  28.574  1.00  0.00     0.040 A 
ATOM     63  C   UNL A   1      34.073  33.379  30.065  1.00  0.00     0.040 A 
ATOM     64  F   UNL A   1      34.978  31.943  31.686  1.00  0.00    -0.206 F 
ATOM     65  C   UNL A   1      34.248  34.277  29.014  1.00  0.00     0.006 A 
ENDBRANCH  37  58
BRANCH  49  66
ATOM     66  C   UNL A   1      40.006  34.286  36.113  1.00  0.00     0.057 A 
ATOM     67  C   UNL A   1      39.249  34.055  37.268  1.00  0.00     0.134 A 
ATOM     68  C   UNL A   1      40.655  35.521  35.996  1.00  0.00     0.134 A 
ATOM     69  F   UNL A   1      38.592  32.896  37.428  1.00  0.00    -0.206 F 
ATOM     70  C   UNL A   1      39.126  35.025  38.263  1.00  0.00     0.040 A 
ATOM     71  C   UNL A   1      40.556  36.492  36.993  1.00  0.00     0.040 A 
ATOM     72  F   UNL A   1      41.400  35.800  34.917  1.00  0.00    -0.206 F 
ATOM     73  C   UNL A   1      39.786  36.247  38.129  1.00  0.00     0.006 A 
ENDBRANCH  49  66
ENDBRANCH  23  24
ENDBRANCH  16  18
ENDBRANCH  15  16
ENDBRANCH  14  15
ENDBRANCH   1  14
TORSDOF 14
ENDMDL
