MODEL 1
REMARK VINA RESULT:      -9.8      0.000      0.000
REMARK SMILES CC(=O)Nc1ccc(/N=C2\C(=O)N(c3ccc(NC(C)=O)cc3)[C@H](c3ccccc3)[C@H]2CC(=O)OCCOC(=O)c2ccc(-c3c4nc(c(-c5c(F)cccc5F)c5ccc([nH]5)c(-c5c(F)cccc5F)c5nc(c(-c6c(F)cccc6F)c6ccc3[nH]6)C=C5)C=C4)cc2)cc1
REMARK SMILES IDX 36 1 35 2 33 3 34 4 32 5 31 6 9 7 10 8 11 9 12 10 13 11
REMARK SMILES IDX 24 12 8 13 5 14 6 15 96 16 7 17 95 18 4 19 1 20 2 21 3 22
REMARK SMILES IDX 14 24 15 25 23 26 16 27 22 28 17 29 18 30 19 31 20 33 21 34
REMARK SMILES IDX 25 35 26 36 30 37 27 38 29 39 28 40 37 41 38 42 39 43 40 44
REMARK SMILES IDX 41 45 42 46 94 47 43 48 93 49 44 50 45 51 46 52 87 53 47 54
REMARK SMILES IDX 92 55 86 56 88 57 48 58 91 59 85 60 84 61 49 63 75 64 58 65
REMARK SMILES IDX 74 66 59 67 62 68 73 69 89 70 60 71 61 72 72 74 90 75 63 76
REMARK SMILES IDX 50 77 51 78 56 79 52 80 53 81 55 82 57 83 54 84 76 85 77 86
REMARK SMILES IDX 82 87 78 88 79 89 81 90 83 91 80 92 64 93 65 94 70 95 66 96
REMARK SMILES IDX 67 97 69 98 71 99 68 100
REMARK H PARENT 4 23 18 32 88 62 62 73
REMARK Flexibility Score: inf
ROOT
ATOM      1  C   UNL A   1      35.124  33.935  30.810  1.00  0.00     0.274 C 
ENDROOT
BRANCH   1   2
ATOM      2  O   UNL A   1      36.265  34.079  31.677  1.00  0.00    -0.462 OA
BRANCH   2   3
ATOM      3  C   UNL A   1      36.033  34.359  32.982  1.00  0.00     0.306 C 
ATOM      4  O   UNL A   1      35.591  35.414  33.416  1.00  0.00    -0.252 OA
BRANCH   3   5
ATOM      5  C   UNL A   1      36.426  33.197  33.863  1.00  0.00     0.135 C 
BRANCH   5   6
ATOM      6  C   UNL A   1      37.873  33.329  34.339  1.00  0.00     0.083 C 
ATOM      7  N   UNL A   1      37.827  33.683  36.756  1.00  0.00    -0.247 NA
ATOM      8  C   UNL A   1      37.992  32.867  35.761  1.00  0.00     0.112 C 
ATOM      9  C   UNL A   1      38.449  31.436  35.770  1.00  0.00     0.273 C 
ATOM     10  O   UNL A   1      38.201  30.657  36.671  1.00  0.00    -0.267 OA
ATOM     11  N   UNL A   1      39.190  31.290  34.610  1.00  0.00    -0.299 N 
ATOM     12  C   UNL A   1      38.863  32.344  33.643  1.00  0.00     0.131 C 
BRANCH   7  13
ATOM     13  C   UNL A   1      38.026  33.322  38.095  1.00  0.00     0.064 A 
ATOM     14  C   UNL A   1      38.600  32.572  40.769  1.00  0.00     0.041 A 
ATOM     15  C   UNL A   1      39.617  33.009  39.908  1.00  0.00     0.028 A 
ATOM     16  C   UNL A   1      37.304  32.458  40.262  1.00  0.00     0.028 A 
ATOM     17  C   UNL A   1      39.331  33.392  38.593  1.00  0.00     0.030 A 
ATOM     18  C   UNL A   1      37.028  32.801  38.928  1.00  0.00     0.030 A 
BRANCH  14  19
ATOM     19  N   UNL A   1      38.992  32.244  42.080  1.00  0.00    -0.326 N 
ATOM     20  C   UNL A   1      38.229  29.875  42.325  1.00  0.00     0.114 C 
ATOM     21  C   UNL A   1      38.954  31.096  42.809  1.00  0.00     0.221 C 
ATOM     22  O   UNL A   1      39.513  31.087  43.911  1.00  0.00    -0.275 OA
ATOM     23  H   UNL A   1      39.374  33.006  42.573  1.00  0.00     0.169 HD
ENDBRANCH  14  19
ENDBRANCH   7  13
BRANCH  11  24
ATOM     24  C   UNL A   1      40.041  30.174  34.381  1.00  0.00     0.045 A 
ATOM     25  C   UNL A   1      41.289  30.091  35.015  1.00  0.00     0.028 A 
ATOM     26  C   UNL A   1      39.746  29.208  33.413  1.00  0.00     0.028 A 
ATOM     27  C   UNL A   1      42.226  29.103  34.670  1.00  0.00     0.028 A 
ATOM     28  C   UNL A   1      40.687  28.235  33.049  1.00  0.00     0.028 A 
ATOM     29  C   UNL A   1      41.943  28.189  33.658  1.00  0.00     0.041 A 
BRANCH  29  30
ATOM     30  N   UNL A   1      42.866  27.252  33.153  1.00  0.00    -0.326 N 
ATOM     31  C   UNL A   1      43.599  27.346  31.985  1.00  0.00     0.221 C 
ATOM     32  H   UNL A   1      43.003  26.439  33.691  1.00  0.00     0.169 HD
ATOM     33  C   UNL A   1      44.364  26.086  31.666  1.00  0.00     0.114 C 
ATOM     34  O   UNL A   1      43.672  28.318  31.241  1.00  0.00    -0.275 OA
ENDBRANCH  29  30
ENDBRANCH  11  24
BRANCH  12  35
ATOM     35  C   UNL A   1      40.015  33.085  32.987  1.00  0.00    -0.024 A 
ATOM     36  C   UNL A   1      41.034  33.632  33.792  1.00  0.00     0.006 A 
ATOM     37  C   UNL A   1      40.105  33.239  31.593  1.00  0.00     0.006 A 
ATOM     38  C   UNL A   1      42.107  34.319  33.220  1.00  0.00     0.000 A 
ATOM     39  C   UNL A   1      41.187  33.914  31.023  1.00  0.00     0.000 A 
ATOM     40  C   UNL A   1      42.183  34.458  31.835  1.00  0.00     0.000 A 
ENDBRANCH  12  35
ENDBRANCH   5   6
ENDBRANCH   3   5
ENDBRANCH   2   3
ENDBRANCH   1   2
BRANCH   1  41
ATOM     41  C   UNL A   1      34.845  32.469  30.482  1.00  0.00     0.275 C 
BRANCH  41  42
ATOM     42  O   UNL A   1      36.083  31.772  30.253  1.00  0.00    -0.458 OA
BRANCH  42  43
ATOM     43  C   UNL A   1      36.071  30.848  29.265  1.00  0.00     0.338 C 
ATOM     44  O   UNL A   1      35.121  30.529  28.571  1.00  0.00    -0.246 OA
BRANCH  43  45
ATOM     45  C   UNL A   1      37.442  30.347  29.035  1.00  0.00     0.060 A 
ATOM     46  C   UNL A   1      38.320  30.310  30.125  1.00  0.00     0.016 A 
ATOM     47  C   UNL A   1      37.867  29.916  27.774  1.00  0.00     0.016 A 
ATOM     48  C   UNL A   1      39.614  29.819  29.959  1.00  0.00     0.010 A 
ATOM     49  C   UNL A   1      39.171  29.450  27.604  1.00  0.00     0.010 A 
ATOM     50  C   UNL A   1      40.051  29.398  28.696  1.00  0.00    -0.014 A 
BRANCH  50  51
ATOM     51  C   UNL A   1      41.448  28.944  28.519  1.00  0.00     0.031 A 
ATOM     52  C   UNL A   1      41.736  27.495  28.259  1.00  0.00     0.074 A 
ATOM     53  C   UNL A   1      42.456  29.834  28.565  1.00  0.00     0.049 A 
ATOM     54  N   UNL A   1      42.874  26.917  27.974  1.00  0.00    -0.248 NA
ATOM     55  C   UNL A   1      40.587  26.576  28.314  1.00  0.00     0.031 C 
ATOM     56  C   UNL A   1      42.310  31.271  28.796  1.00  0.00     0.029 A 
ATOM     57  N   UNL A   1      43.806  29.651  28.412  1.00  0.00    -0.354 N 
ATOM     58  C   UNL A   1      42.576  25.578  27.777  1.00  0.00     0.074 A 
ATOM     59  C   UNL A   1      41.153  25.419  28.000  1.00  0.00     0.031 C 
ATOM     60  C   UNL A   1      43.528  31.839  28.782  1.00  0.00     0.029 A 
ATOM     61  C   UNL A   1      44.533  30.809  28.531  1.00  0.00     0.049 A 
ATOM     62  H   UNL A   1      44.215  28.773  28.235  1.00  0.00     0.167 HD
ATOM     63  C   UNL A   1      43.411  24.571  27.430  1.00  0.00     0.037 A 
ATOM     64  C   UNL A   1      45.859  31.012  28.441  1.00  0.00     0.037 A 
ATOM     65  C   UNL A   1      44.829  24.707  27.247  1.00  0.00     0.049 A 
ATOM     66  C   UNL A   1      46.775  29.861  28.146  1.00  0.00     0.074 A 
ATOM     67  C   UNL A   1      45.750  23.742  26.877  1.00  0.00     0.029 A 
ATOM     68  N   UNL A   1      45.534  25.883  27.442  1.00  0.00    -0.354 N 
ATOM     69  N   UNL A   1      46.473  28.608  27.907  1.00  0.00    -0.248 NA
ATOM     70  C   UNL A   1      48.214  30.155  28.107  1.00  0.00     0.031 C 
ATOM     71  C   UNL A   1      47.021  24.333  26.868  1.00  0.00     0.029 A 
ATOM     72  C   UNL A   1      46.884  25.665  27.225  1.00  0.00     0.049 A 
ATOM     73  H   UNL A   1      45.135  26.745  27.698  1.00  0.00     0.167 HD
ATOM     74  C   UNL A   1      47.681  27.967  27.675  1.00  0.00     0.074 A 
ATOM     75  C   UNL A   1      48.722  28.966  27.810  1.00  0.00     0.031 C 
ATOM     76  C   UNL A   1      47.904  26.666  27.371  1.00  0.00     0.037 A 
BRANCH  63  77
ATOM     77  C   UNL A   1      42.789  23.229  27.221  1.00  0.00     0.057 A 
ATOM     78  C   UNL A   1      42.546  22.377  28.304  1.00  0.00     0.134 A 
ATOM     79  C   UNL A   1      42.435  22.785  25.944  1.00  0.00     0.134 A 
ATOM     80  F   UNL A   1      42.880  22.747  29.550  1.00  0.00    -0.206 F 
ATOM     81  C   UNL A   1      41.970  21.120  28.121  1.00  0.00     0.040 A 
ATOM     82  C   UNL A   1      41.859  21.531  25.748  1.00  0.00     0.040 A 
ATOM     83  F   UNL A   1      42.660  23.556  24.869  1.00  0.00    -0.206 F 
ATOM     84  C   UNL A   1      41.624  20.694  26.839  1.00  0.00     0.006 A 
ENDBRANCH  63  77
BRANCH  64  85
ATOM     85  C   UNL A   1      46.404  32.372  28.627  1.00  0.00     0.057 A 
ATOM     86  C   UNL A   1      46.734  32.848  29.899  1.00  0.00     0.134 A 
ATOM     87  C   UNL A   1      46.605  33.224  27.536  1.00  0.00     0.134 A 
ATOM     88  F   UNL A   1      46.548  32.075  30.978  1.00  0.00    -0.206 F 
ATOM     89  C   UNL A   1      47.247  34.132  30.082  1.00  0.00     0.040 A 
ATOM     90  C   UNL A   1      47.120  34.509  27.704  1.00  0.00     0.040 A 
ATOM     91  F   UNL A   1      46.296  32.817  26.296  1.00  0.00    -0.206 F 
ATOM     92  C   UNL A   1      47.443  34.966  28.981  1.00  0.00     0.006 A 
ENDBRANCH  64  85
BRANCH  76  93
ATOM     93  C   UNL A   1      49.326  26.258  27.161  1.00  0.00     0.057 A 
ATOM     94  C   UNL A   1      49.870  26.171  25.875  1.00  0.00     0.134 A 
ATOM     95  C   UNL A   1      50.160  25.974  28.247  1.00  0.00     0.134 A 
ATOM     96  F   UNL A   1      49.111  26.421  24.797  1.00  0.00    -0.206 F 
ATOM     97  C   UNL A   1      51.202  25.810  25.675  1.00  0.00     0.040 A 
ATOM     98  C   UNL A   1      51.496  25.616  28.061  1.00  0.00     0.040 A 
ATOM     99  F   UNL A   1      49.689  26.037  29.502  1.00  0.00    -0.206 F 
ATOM    100  C   UNL A   1      52.019  25.534  26.771  1.00  0.00     0.006 A 
ENDBRANCH  76  93
ENDBRANCH  50  51
ENDBRANCH  43  45
ENDBRANCH  42  43
ENDBRANCH  41  42
ENDBRANCH   1  41
TORSDOF 17
ENDMDL
MODEL 2
REMARK VINA RESULT:      -9.7      3.308      8.977
REMARK SMILES CC(=O)Nc1ccc(/N=C2\C(=O)N(c3ccc(NC(C)=O)cc3)[C@H](c3ccccc3)[C@H]2CC(=O)OCCOC(=O)c2ccc(-c3c4nc(c(-c5c(F)cccc5F)c5ccc([nH]5)c(-c5c(F)cccc5F)c5nc(c(-c6c(F)cccc6F)c6ccc3[nH]6)C=C5)C=C4)cc2)cc1
REMARK SMILES IDX 36 1 35 2 33 3 34 4 32 5 31 6 9 7 10 8 11 9 12 10 13 11
REMARK SMILES IDX 24 12 8 13 5 14 6 15 96 16 7 17 95 18 4 19 1 20 2 21 3 22
REMARK SMILES IDX 14 24 15 25 23 26 16 27 22 28 17 29 18 30 19 31 20 33 21 34
REMARK SMILES IDX 25 35 26 36 30 37 27 38 29 39 28 40 37 41 38 42 39 43 40 44
REMARK SMILES IDX 41 45 42 46 94 47 43 48 93 49 44 50 45 51 46 52 87 53 47 54
REMARK SMILES IDX 92 55 86 56 88 57 48 58 91 59 85 60 84 61 49 63 75 64 58 65
REMARK SMILES IDX 74 66 59 67 62 68 73 69 89 70 60 71 61 72 72 74 90 75 63 76
REMARK SMILES IDX 50 77 51 78 56 79 52 80 53 81 55 82 57 83 54 84 76 85 77 86
REMARK SMILES IDX 82 87 78 88 79 89 81 90 83 91 80 92 64 93 65 94 70 95 66 96
REMARK SMILES IDX 67 97 69 98 71 99 68 100
REMARK H PARENT 4 23 18 32 88 62 62 73
REMARK Flexibility Score: inf
ROOT
ATOM      1  C   UNL A   1      39.420  24.840  28.296  1.00  0.00     0.274 C 
ENDROOT
BRANCH   1   2
ATOM      2  O   UNL A   1      39.026  26.119  27.766  1.00  0.00    -0.462 OA
BRANCH   2   3
ATOM      3  C   UNL A   1      39.627  27.223  28.272  1.00  0.00     0.306 C 
ATOM      4  O   UNL A   1      40.780  27.568  28.056  1.00  0.00    -0.252 OA
BRANCH   3   5
ATOM      5  C   UNL A   1      38.690  27.980  29.184  1.00  0.00     0.135 C 
BRANCH   5   6
ATOM      6  C   UNL A   1      39.118  29.441  29.327  1.00  0.00     0.083 C 
ATOM      7  N   UNL A   1      37.425  30.817  28.227  1.00  0.00    -0.247 NA
ATOM      8  C   UNL A   1      37.912  30.333  29.328  1.00  0.00     0.112 C 
ATOM      9  C   UNL A   1      37.531  30.632  30.750  1.00  0.00     0.273 C 
ATOM     10  O   UNL A   1      36.398  30.907  31.099  1.00  0.00    -0.267 OA
ATOM     11  N   UNL A   1      38.716  30.558  31.461  1.00  0.00    -0.299 N 
ATOM     12  C   UNL A   1      39.725  29.791  30.721  1.00  0.00     0.131 C 
BRANCH   7  13
ATOM     13  C   UNL A   1      36.365  31.732  28.187  1.00  0.00     0.064 A 
ATOM     14  C   UNL A   1      34.320  33.697  28.194  1.00  0.00     0.041 A 
ATOM     15  C   UNL A   1      35.654  34.043  28.455  1.00  0.00     0.028 A 
ATOM     16  C   UNL A   1      34.011  32.351  27.988  1.00  0.00     0.028 A 
ATOM     17  C   UNL A   1      36.664  33.074  28.438  1.00  0.00     0.030 A 
ATOM     18  C   UNL A   1      35.022  31.376  28.014  1.00  0.00     0.030 A 
BRANCH  14  19
ATOM     19  N   UNL A   1      33.390  34.753  28.203  1.00  0.00    -0.326 N 
ATOM     20  C   UNL A   1      33.299  35.410  30.615  1.00  0.00     0.114 C 
ATOM     21  C   UNL A   1      32.947  35.603  29.169  1.00  0.00     0.221 C 
ATOM     22  O   UNL A   1      32.213  36.537  28.832  1.00  0.00    -0.275 OA
ATOM     23  H   UNL A   1      32.972  34.909  27.326  1.00  0.00     0.169 HD
ENDBRANCH  14  19
ENDBRANCH   7  13
BRANCH  11  24
ATOM     24  C   UNL A   1      38.846  31.058  32.786  1.00  0.00     0.045 A 
ATOM     25  C   UNL A   1      38.801  30.186  33.883  1.00  0.00     0.028 A 
ATOM     26  C   UNL A   1      38.865  32.431  33.056  1.00  0.00     0.028 A 
ATOM     27  C   UNL A   1      38.739  30.663  35.201  1.00  0.00     0.028 A 
ATOM     28  C   UNL A   1      38.780  32.912  34.370  1.00  0.00     0.028 A 
ATOM     29  C   UNL A   1      38.693  32.033  35.452  1.00  0.00     0.041 A 
BRANCH  29  30
ATOM     30  N   UNL A   1      38.497  32.602  36.726  1.00  0.00    -0.326 N 
ATOM     31  C   UNL A   1      37.791  32.061  37.784  1.00  0.00     0.221 C 
ATOM     32  H   UNL A   1      38.907  33.484  36.879  1.00  0.00     0.169 HD
ATOM     33  C   UNL A   1      37.642  33.015  38.942  1.00  0.00     0.114 C 
ATOM     34  O   UNL A   1      37.314  30.933  37.847  1.00  0.00    -0.275 OA
ENDBRANCH  29  30
ENDBRANCH  11  24
BRANCH  12  35
ATOM     35  C   UNL A   1      41.113  30.392  30.587  1.00  0.00    -0.024 A 
ATOM     36  C   UNL A   1      42.242  29.554  30.687  1.00  0.00     0.006 A 
ATOM     37  C   UNL A   1      41.313  31.763  30.356  1.00  0.00     0.006 A 
ATOM     38  C   UNL A   1      43.533  30.074  30.568  1.00  0.00     0.000 A 
ATOM     39  C   UNL A   1      42.605  32.278  30.223  1.00  0.00     0.000 A 
ATOM     40  C   UNL A   1      43.712  31.436  30.334  1.00  0.00     0.000 A 
ENDBRANCH  12  35
ENDBRANCH   5   6
ENDBRANCH   3   5
ENDBRANCH   2   3
ENDBRANCH   1   2
BRANCH   1  41
ATOM     41  C   UNL A   1      39.755  23.847  27.185  1.00  0.00     0.275 C 
BRANCH  41  42
ATOM     42  O   UNL A   1      41.123  24.013  26.771  1.00  0.00    -0.458 OA
BRANCH  42  43
ATOM     43  C   UNL A   1      42.055  23.917  27.747  1.00  0.00     0.338 C 
ATOM     44  O   UNL A   1      42.145  23.042  28.591  1.00  0.00    -0.246 OA
BRANCH  43  45
ATOM     45  C   UNL A   1      43.070  24.977  27.572  1.00  0.00     0.060 A 
ATOM     46  C   UNL A   1      43.466  25.300  26.269  1.00  0.00     0.016 A 
ATOM     47  C   UNL A   1      43.626  25.651  28.665  1.00  0.00     0.016 A 
ATOM     48  C   UNL A   1      44.400  26.313  26.057  1.00  0.00     0.010 A 
ATOM     49  C   UNL A   1      44.580  26.646  28.452  1.00  0.00     0.010 A 
ATOM     50  C   UNL A   1      44.972  26.984  27.148  1.00  0.00    -0.014 A 
BRANCH  50  51
ATOM     51  C   UNL A   1      46.013  28.008  26.912  1.00  0.00     0.031 A 
ATOM     52  C   UNL A   1      45.631  29.457  26.841  1.00  0.00     0.074 A 
ATOM     53  C   UNL A   1      47.301  27.643  26.790  1.00  0.00     0.049 A 
ATOM     54  N   UNL A   1      46.402  30.510  26.747  1.00  0.00    -0.248 NA
ATOM     55  C   UNL A   1      44.193  29.762  26.894  1.00  0.00     0.031 C 
ATOM     56  C   UNL A   1      47.805  26.271  26.855  1.00  0.00     0.029 A 
ATOM     57  N   UNL A   1      48.423  28.406  26.590  1.00  0.00    -0.354 N 
ATOM     58  C   UNL A   1      45.549  31.602  26.770  1.00  0.00     0.074 A 
ATOM     59  C   UNL A   1      44.197  31.088  26.860  1.00  0.00     0.031 C 
ATOM     60  C   UNL A   1      49.138  26.290  26.684  1.00  0.00     0.029 A 
ATOM     61  C   UNL A   1      49.579  27.671  26.510  1.00  0.00     0.049 A 
ATOM     62  H   UNL A   1      48.400  29.387  26.510  1.00  0.00     0.167 HD
ATOM     63  C   UNL A   1      45.863  32.918  26.731  1.00  0.00     0.037 A 
ATOM     64  C   UNL A   1      50.848  28.073  26.324  1.00  0.00     0.037 A 
ATOM     65  C   UNL A   1      47.194  33.441  26.600  1.00  0.00     0.049 A 
ATOM     66  C   UNL A   1      51.161  29.534  26.191  1.00  0.00     0.074 A 
ATOM     67  C   UNL A   1      47.607  34.762  26.570  1.00  0.00     0.029 A 
ATOM     68  N   UNL A   1      48.330  32.661  26.456  1.00  0.00    -0.354 N 
ATOM     69  N   UNL A   1      50.350  30.560  26.270  1.00  0.00    -0.248 NA
ATOM     70  C   UNL A   1      52.566  29.890  25.945  1.00  0.00     0.031 C 
ATOM     71  C   UNL A   1      48.996  34.780  26.387  1.00  0.00     0.029 A 
ATOM     72  C   UNL A   1      49.443  33.472  26.310  1.00  0.00     0.049 A 
ATOM     73  H   UNL A   1      48.343  31.677  26.455  1.00  0.00     0.167 HD
ATOM     74  C   UNL A   1      51.145  31.684  26.098  1.00  0.00     0.074 A 
ATOM     75  C   UNL A   1      52.503  31.215  25.902  1.00  0.00     0.031 C 
ATOM     76  C   UNL A   1      50.782  32.988  26.109  1.00  0.00     0.037 A 
BRANCH  63  77
ATOM     77  C   UNL A   1      44.726  33.880  26.841  1.00  0.00     0.057 A 
ATOM     78  C   UNL A   1      44.410  34.478  28.067  1.00  0.00     0.134 A 
ATOM     79  C   UNL A   1      43.944  34.209  25.730  1.00  0.00     0.134 A 
ATOM     80  F   UNL A   1      45.119  34.186  29.168  1.00  0.00    -0.206 F 
ATOM     81  C   UNL A   1      43.349  35.374  28.184  1.00  0.00     0.040 A 
ATOM     82  C   UNL A   1      42.880  35.104  25.834  1.00  0.00     0.040 A 
ATOM     83  F   UNL A   1      44.193  33.654  24.534  1.00  0.00    -0.206 F 
ATOM     84  C   UNL A   1      42.579  35.690  27.064  1.00  0.00     0.006 A 
ENDBRANCH  63  77
BRANCH  64  85
ATOM     85  C   UNL A   1      51.930  27.068  26.257  1.00  0.00     0.057 A 
ATOM     86  C   UNL A   1      52.217  26.396  25.065  1.00  0.00     0.134 A 
ATOM     87  C   UNL A   1      52.697  26.759  27.385  1.00  0.00     0.134 A 
ATOM     88  F   UNL A   1      51.501  26.648  23.959  1.00  0.00    -0.206 F 
ATOM     89  C   UNL A   1      53.235  25.445  24.996  1.00  0.00     0.040 A 
ATOM     90  C   UNL A   1      53.721  25.813  27.329  1.00  0.00     0.040 A 
ATOM     91  F   UNL A   1      52.455  27.370  28.554  1.00  0.00    -0.206 F 
ATOM     92  C   UNL A   1      53.990  25.153  26.131  1.00  0.00     0.006 A 
ENDBRANCH  64  85
BRANCH  76  93
ATOM     93  C   UNL A   1      51.869  33.993  25.908  1.00  0.00     0.057 A 
ATOM     94  C   UNL A   1      52.504  34.598  26.998  1.00  0.00     0.134 A 
ATOM     95  C   UNL A   1      52.300  34.338  24.623  1.00  0.00     0.134 A 
ATOM     96  F   UNL A   1      52.123  34.312  28.252  1.00  0.00    -0.206 F 
ATOM     97  C   UNL A   1      53.533  35.521  26.815  1.00  0.00     0.040 A 
ATOM     98  C   UNL A   1      53.331  35.256  24.427  1.00  0.00     0.040 A 
ATOM     99  F   UNL A   1      51.722  33.792  23.542  1.00  0.00    -0.206 F 
ATOM    100  C   UNL A   1      53.951  35.850  25.526  1.00  0.00     0.006 A 
ENDBRANCH  76  93
ENDBRANCH  50  51
ENDBRANCH  43  45
ENDBRANCH  42  43
ENDBRANCH  41  42
ENDBRANCH   1  41
TORSDOF 17
ENDMDL
MODEL 3
REMARK VINA RESULT:      -9.6      3.212      8.227
REMARK SMILES CC(=O)Nc1ccc(/N=C2\C(=O)N(c3ccc(NC(C)=O)cc3)[C@H](c3ccccc3)[C@H]2CC(=O)OCCOC(=O)c2ccc(-c3c4nc(c(-c5c(F)cccc5F)c5ccc([nH]5)c(-c5c(F)cccc5F)c5nc(c(-c6c(F)cccc6F)c6ccc3[nH]6)C=C5)C=C4)cc2)cc1
REMARK SMILES IDX 36 1 35 2 33 3 34 4 32 5 31 6 9 7 10 8 11 9 12 10 13 11
REMARK SMILES IDX 24 12 8 13 5 14 6 15 96 16 7 17 95 18 4 19 1 20 2 21 3 22
REMARK SMILES IDX 14 24 15 25 23 26 16 27 22 28 17 29 18 30 19 31 20 33 21 34
REMARK SMILES IDX 25 35 26 36 30 37 27 38 29 39 28 40 37 41 38 42 39 43 40 44
REMARK SMILES IDX 41 45 42 46 94 47 43 48 93 49 44 50 45 51 46 52 87 53 47 54
REMARK SMILES IDX 92 55 86 56 88 57 48 58 91 59 85 60 84 61 49 63 75 64 58 65
REMARK SMILES IDX 74 66 59 67 62 68 73 69 89 70 60 71 61 72 72 74 90 75 63 76
REMARK SMILES IDX 50 77 51 78 56 79 52 80 53 81 55 82 57 83 54 84 76 85 77 86
REMARK SMILES IDX 82 87 78 88 79 89 81 90 83 91 80 92 64 93 65 94 70 95 66 96
REMARK SMILES IDX 67 97 69 98 71 99 68 100
REMARK H PARENT 4 23 18 32 88 62 62 73
REMARK Flexibility Score: inf
ROOT
ATOM      1  C   UNL A   1      39.008  24.862  27.341  1.00  0.00     0.274 C 
ENDROOT
BRANCH   1   2
ATOM      2  O   UNL A   1      39.357  25.606  28.523  1.00  0.00    -0.462 OA
BRANCH   2   3
ATOM      3  C   UNL A   1      39.564  26.938  28.390  1.00  0.00     0.306 C 
ATOM      4  O   UNL A   1      40.166  27.478  27.472  1.00  0.00    -0.252 OA
BRANCH   3   5
ATOM      5  C   UNL A   1      38.977  27.697  29.558  1.00  0.00     0.135 C 
BRANCH   5   6
ATOM      6  C   UNL A   1      39.566  29.104  29.655  1.00  0.00     0.083 C 
ATOM      7  N   UNL A   1      37.988  30.640  28.596  1.00  0.00    -0.247 NA
ATOM      8  C   UNL A   1      38.465  30.122  29.686  1.00  0.00     0.112 C 
ATOM      9  C   UNL A   1      38.178  30.482  31.116  1.00  0.00     0.273 C 
ATOM     10  O   UNL A   1      37.097  30.885  31.504  1.00  0.00    -0.267 OA
ATOM     11  N   UNL A   1      39.376  30.291  31.781  1.00  0.00    -0.299 N 
ATOM     12  C   UNL A   1      40.264  29.407  31.017  1.00  0.00     0.131 C 
BRANCH   7  13
ATOM     13  C   UNL A   1      37.033  31.665  28.580  1.00  0.00     0.064 A 
ATOM     14  C   UNL A   1      35.000  33.637  28.442  1.00  0.00     0.041 A 
ATOM     15  C   UNL A   1      34.736  32.304  28.095  1.00  0.00     0.028 A 
ATOM     16  C   UNL A   1      36.304  33.984  28.800  1.00  0.00     0.028 A 
ATOM     17  C   UNL A   1      35.737  31.328  28.177  1.00  0.00     0.030 A 
ATOM     18  C   UNL A   1      37.316  33.011  28.839  1.00  0.00     0.030 A 
BRANCH  14  19
ATOM     19  N   UNL A   1      33.915  34.529  28.356  1.00  0.00    -0.326 N 
ATOM     20  C   UNL A   1      33.527  35.182  30.739  1.00  0.00     0.114 C 
ATOM     21  C   UNL A   1      33.265  35.304  29.267  1.00  0.00     0.221 C 
ATOM     22  O   UNL A   1      32.420  36.104  28.854  1.00  0.00    -0.275 OA
ATOM     23  H   UNL A   1      33.548  34.608  27.447  1.00  0.00     0.169 HD
ENDBRANCH  14  19
ENDBRANCH   7  13
BRANCH  11  24
ATOM     24  C   UNL A   1      39.614  30.794  33.090  1.00  0.00     0.045 A 
ATOM     25  C   UNL A   1      39.764  29.916  34.173  1.00  0.00     0.028 A 
ATOM     26  C   UNL A   1      39.552  32.162  33.375  1.00  0.00     0.028 A 
ATOM     27  C   UNL A   1      39.813  30.380  35.496  1.00  0.00     0.028 A 
ATOM     28  C   UNL A   1      39.577  32.629  34.697  1.00  0.00     0.028 A 
ATOM     29  C   UNL A   1      39.685  31.740  35.769  1.00  0.00     0.041 A 
BRANCH  29  30
ATOM     30  N   UNL A   1      39.588  32.286  37.065  1.00  0.00    -0.326 N 
ATOM     31  C   UNL A   1      38.441  32.463  37.814  1.00  0.00     0.221 C 
ATOM     32  H   UNL A   1      40.432  32.573  37.483  1.00  0.00     0.169 HD
ATOM     33  C   UNL A   1      38.683  33.230  39.090  1.00  0.00     0.114 C 
ATOM     34  O   UNL A   1      37.315  32.064  37.538  1.00  0.00    -0.275 OA
ENDBRANCH  29  30
ENDBRANCH  11  24
BRANCH  12  35
ATOM     35  C   UNL A   1      41.703  29.851  30.817  1.00  0.00    -0.024 A 
ATOM     36  C   UNL A   1      42.018  31.224  30.867  1.00  0.00     0.006 A 
ATOM     37  C   UNL A   1      42.741  28.932  30.591  1.00  0.00     0.006 A 
ATOM     38  C   UNL A   1      43.331  31.665  30.687  1.00  0.00     0.000 A 
ATOM     39  C   UNL A   1      44.056  29.376  30.426  1.00  0.00     0.000 A 
ATOM     40  C   UNL A   1      44.349  30.739  30.469  1.00  0.00     0.000 A 
ENDBRANCH  12  35
ENDBRANCH   5   6
ENDBRANCH   3   5
ENDBRANCH   2   3
ENDBRANCH   1   2
BRANCH   1  41
ATOM     41  C   UNL A   1      39.868  23.609  27.187  1.00  0.00     0.275 C 
BRANCH  41  42
ATOM     42  O   UNL A   1      40.993  23.886  26.334  1.00  0.00    -0.458 OA
BRANCH  42  43
ATOM     43  C   UNL A   1      42.201  23.487  26.794  1.00  0.00     0.338 C 
ATOM     44  O   UNL A   1      42.551  22.346  27.042  1.00  0.00    -0.246 OA
BRANCH  43  45
ATOM     45  C   UNL A   1      43.124  24.641  26.835  1.00  0.00     0.060 A 
ATOM     46  C   UNL A   1      43.659  25.098  25.625  1.00  0.00     0.016 A 
ATOM     47  C   UNL A   1      43.459  25.272  28.037  1.00  0.00     0.016 A 
ATOM     48  C   UNL A   1      44.512  26.201  25.615  1.00  0.00     0.010 A 
ATOM     49  C   UNL A   1      44.334  26.360  28.028  1.00  0.00     0.010 A 
ATOM     50  C   UNL A   1      44.864  26.831  26.817  1.00  0.00    -0.014 A 
BRANCH  50  51
ATOM     51  C   UNL A   1      45.824  27.956  26.799  1.00  0.00     0.031 A 
ATOM     52  C   UNL A   1      47.298  27.679  26.741  1.00  0.00     0.074 A 
ATOM     53  C   UNL A   1      45.376  29.224  26.806  1.00  0.00     0.049 A 
ATOM     54  N   UNL A   1      48.291  28.521  26.612  1.00  0.00    -0.248 NA
ATOM     55  C   UNL A   1      47.706  26.268  26.827  1.00  0.00     0.031 C 
ATOM     56  C   UNL A   1      43.970  29.627  26.847  1.00  0.00     0.029 A 
ATOM     57  N   UNL A   1      46.067  30.408  26.775  1.00  0.00    -0.354 N 
ATOM     58  C   UNL A   1      49.437  27.742  26.562  1.00  0.00     0.074 A 
ATOM     59  C   UNL A   1      49.022  26.361  26.700  1.00  0.00     0.031 C 
ATOM     60  C   UNL A   1      43.904  30.970  26.850  1.00  0.00     0.029 A 
ATOM     61  C   UNL A   1      45.258  31.515  26.802  1.00  0.00     0.049 A 
ATOM     62  H   UNL A   1      47.050  30.458  26.738  1.00  0.00     0.167 HD
ATOM     63  C   UNL A   1      50.720  28.141  26.404  1.00  0.00     0.037 A 
ATOM     64  C   UNL A   1      45.578  32.822  26.782  1.00  0.00     0.037 A 
ATOM     65  C   UNL A   1      51.149  29.508  26.308  1.00  0.00     0.049 A 
ATOM     66  C   UNL A   1      47.016  33.240  26.699  1.00  0.00     0.074 A 
ATOM     67  C   UNL A   1      52.429  30.003  26.128  1.00  0.00     0.029 A 
ATOM     68  N   UNL A   1      50.305  30.602  26.406  1.00  0.00    -0.354 N 
ATOM     69  N   UNL A   1      48.087  32.492  26.596  1.00  0.00    -0.248 NA
ATOM     70  C   UNL A   1      47.287  34.684  26.727  1.00  0.00     0.031 C 
ATOM     71  C   UNL A   1      52.360  31.404  26.137  1.00  0.00     0.029 A 
ATOM     72  C   UNL A   1      51.037  31.773  26.316  1.00  0.00     0.049 A 
ATOM     73  H   UNL A   1      49.329  30.553  26.523  1.00  0.00     0.167 HD
ATOM     74  C   UNL A   1      49.157  33.372  26.533  1.00  0.00     0.074 A 
ATOM     75  C   UNL A   1      48.609  34.711  26.617  1.00  0.00     0.031 C 
ATOM     76  C   UNL A   1      50.476  33.093  26.409  1.00  0.00     0.037 A 
BRANCH  63  77
ATOM     77  C   UNL A   1      51.750  27.062  26.318  1.00  0.00     0.057 A 
ATOM     78  C   UNL A   1      52.006  26.412  25.105  1.00  0.00     0.134 A 
ATOM     79  C   UNL A   1      52.483  26.668  27.441  1.00  0.00     0.134 A 
ATOM     80  F   UNL A   1      51.320  26.741  23.999  1.00  0.00    -0.206 F 
ATOM     81  C   UNL A   1      52.961  25.401  25.013  1.00  0.00     0.040 A 
ATOM     82  C   UNL A   1      53.441  25.658  27.361  1.00  0.00     0.040 A 
ATOM     83  F   UNL A   1      52.268  27.247  28.632  1.00  0.00    -0.206 F 
ATOM     84  C   UNL A   1      53.682  25.021  26.144  1.00  0.00     0.006 A 
ENDBRANCH  63  77
BRANCH  64  85
ATOM     85  C   UNL A   1      44.506  33.837  26.838  1.00  0.00     0.057 A 
ATOM     86  C   UNL A   1      44.117  34.409  28.052  1.00  0.00     0.134 A 
ATOM     87  C   UNL A   1      43.848  34.254  25.676  1.00  0.00     0.134 A 
ATOM     88  F   UNL A   1      44.708  34.033  29.195  1.00  0.00    -0.206 F 
ATOM     89  C   UNL A   1      43.104  35.366  28.112  1.00  0.00     0.040 A 
ATOM     90  C   UNL A   1      42.836  35.213  25.720  1.00  0.00     0.040 A 
ATOM     91  F   UNL A   1      44.178  33.729  24.488  1.00  0.00    -0.206 F 
ATOM     92  C   UNL A   1      42.462  35.771  26.942  1.00  0.00     0.006 A 
ENDBRANCH  64  85
BRANCH  76  93
ATOM     93  C   UNL A   1      51.410  34.259  26.354  1.00  0.00     0.057 A 
ATOM     94  C   UNL A   1      51.814  34.803  25.130  1.00  0.00     0.134 A 
ATOM     95  C   UNL A   1      51.886  34.854  27.526  1.00  0.00     0.134 A 
ATOM     96  F   UNL A   1      51.396  34.264  23.975  1.00  0.00    -0.206 F 
ATOM     97  C   UNL A   1      52.669  35.904  25.075  1.00  0.00     0.040 A 
ATOM     98  C   UNL A   1      52.737  35.958  27.484  1.00  0.00     0.040 A 
ATOM     99  F   UNL A   1      51.534  34.370  28.727  1.00  0.00    -0.206 F 
ATOM    100  C   UNL A   1      53.130  36.486  26.254  1.00  0.00     0.006 A 
ENDBRANCH  76  93
ENDBRANCH  50  51
ENDBRANCH  43  45
ENDBRANCH  42  43
ENDBRANCH  41  42
ENDBRANCH   1  41
TORSDOF 17
ENDMDL
