MODEL 1
REMARK VINA RESULT:     -10.9      0.000      0.000
REMARK SMILES Cc1cc(Br)c(C)c([C@@H]2[NH2+][C@H](C(=O)OCCOC(=O)c3ccc(-c4c5nc(c(-c6c(F)cccc6F)c6ccc([nH]6)c(-c6c(F)cccc6F)c6nc(c(-c7c(F)cccc7F)c7ccc4[nH]7)C=C6)C=C5)cc3)CS2)c1O
REMARK SMILES IDX 15 1 14 2 12 3 13 4 11 5 9 6 10 7 75 8 74 11 8 12 1 13 2 14
REMARK SMILES IDX 3 15 76 16 4 17 5 18 6 19 7 20 77 21 16 23 17 24 18 25 19 26
REMARK SMILES IDX 20 27 21 28 73 29 22 30 72 31 23 32 24 33 25 34 66 35 26 36
REMARK SMILES IDX 71 37 65 38 67 39 27 40 70 41 64 42 63 43 28 45 54 46 37 47
REMARK SMILES IDX 53 48 38 49 41 50 52 51 68 52 39 53 40 54 51 56 69 57 42 58
REMARK SMILES IDX 29 59 30 60 35 61 31 62 32 63 34 64 36 65 33 66 55 67 56 68
REMARK SMILES IDX 61 69 57 70 58 71 60 72 62 73 59 74 43 75 44 76 49 77 45 78
REMARK SMILES IDX 46 79 48 80 50 81 47 82
REMARK H PARENT 10 9 10 10 77 22 67 44 41 55
REMARK Flexibility Score: inf
ROOT
ATOM      1  C   UNL A   1      37.835  21.541  25.263  1.00  0.00     0.274 C 
ENDROOT
BRANCH   1   2
ATOM      2  O   UNL A   1      36.442  21.421  24.919  1.00  0.00    -0.458 OA
BRANCH   2   3
ATOM      3  C   UNL A   1      35.516  21.868  25.808  1.00  0.00     0.365 C 
ATOM      4  O   UNL A   1      35.535  22.989  26.311  1.00  0.00    -0.245 OA
BRANCH   3   5
ATOM      5  C   UNL A   1      34.375  20.869  26.071  1.00  0.00     0.304 C 
ATOM      6  C   UNL A   1      32.176  21.707  25.604  1.00  0.00     0.278 C 
ATOM      7  N   UNL A   1      33.147  21.452  26.672  1.00  0.00    -0.319 N 
ATOM      8  S   UNL A   1      32.344  20.401  24.376  1.00  0.00    -0.087 SA
ATOM      9  H   UNL A   1      32.750  20.796  27.346  1.00  0.00     0.348 HD
ATOM     10  H   UNL A   1      33.374  22.322  27.152  1.00  0.00     0.348 HD
ATOM     11  C   UNL A   1      34.053  20.028  24.835  1.00  0.00     0.153 C 
BRANCH   6  12
ATOM     12  C   UNL A   1      32.192  23.168  25.150  1.00  0.00     0.066 A 
ATOM     13  C   UNL A   1      31.246  26.670  26.484  1.00  0.00     0.048 C 
ATOM     14  C   UNL A   1      31.692  25.552  25.583  1.00  0.00    -0.008 A 
ATOM     15  C   UNL A   1      31.975  25.843  24.248  1.00  0.00     0.023 A 
ATOM     16  C   UNL A   1      31.849  24.230  26.027  1.00  0.00     0.128 A 
ATOM     17  C   UNL A   1      32.357  24.835  23.363  1.00  0.00     0.021 A 
ATOM     18  Br  UNL A   1      32.759  25.397  21.585  1.00  0.00    -0.051 Br
ATOM     19  C   UNL A   1      32.432  23.486  23.774  1.00  0.00    -0.023 A 
ATOM     20  C   UNL A   1      32.805  22.436  22.749  1.00  0.00     0.046 C 
BRANCH  16  21
ATOM     21  O   UNL A   1      31.622  23.943  27.347  1.00  0.00    -0.507 OA
ATOM     22  H   UNL A   1      32.301  23.560  27.867  1.00  0.00     0.293 HD
ENDBRANCH  16  21
ENDBRANCH   6  12
ENDBRANCH   3   5
ENDBRANCH   2   3
ENDBRANCH   1   2
BRANCH   1  23
ATOM     23  C   UNL A   1      38.531  20.197  25.057  1.00  0.00     0.275 C 
BRANCH  23  24
ATOM     24  O   UNL A   1      39.240  19.832  26.252  1.00  0.00    -0.458 OA
BRANCH  24  25
ATOM     25  C   UNL A   1      40.584  19.780  26.126  1.00  0.00     0.338 C 
ATOM     26  O   UNL A   1      41.263  18.930  25.575  1.00  0.00    -0.246 OA
BRANCH  25  27
ATOM     27  C   UNL A   1      41.125  21.048  26.624  1.00  0.00     0.060 A 
ATOM     28  C   UNL A   1      41.692  21.974  25.750  1.00  0.00     0.016 A 
ATOM     29  C   UNL A   1      41.043  21.308  27.993  1.00  0.00     0.016 A 
ATOM     30  C   UNL A   1      42.180  23.173  26.262  1.00  0.00     0.010 A 
ATOM     31  C   UNL A   1      41.529  22.502  28.507  1.00  0.00     0.010 A 
ATOM     32  C   UNL A   1      42.093  23.444  27.640  1.00  0.00    -0.014 A 
BRANCH  32  33
ATOM     33  C   UNL A   1      42.491  24.764  28.166  1.00  0.00     0.031 A 
ATOM     34  C   UNL A   1      43.920  25.057  28.505  1.00  0.00     0.074 A 
ATOM     35  C   UNL A   1      41.522  25.675  28.370  1.00  0.00     0.049 A 
ATOM     36  N   UNL A   1      44.444  26.175  28.935  1.00  0.00    -0.248 NA
ATOM     37  C   UNL A   1      44.884  23.954  28.360  1.00  0.00     0.031 C 
ATOM     38  C   UNL A   1      40.094  25.447  28.136  1.00  0.00     0.029 A 
ATOM     39  N   UNL A   1      41.586  26.968  28.816  1.00  0.00    -0.354 N 
ATOM     40  C   UNL A   1      45.798  25.919  29.096  1.00  0.00     0.074 A 
ATOM     41  C   UNL A   1      46.011  24.527  28.766  1.00  0.00     0.031 C 
ATOM     42  C   UNL A   1      39.419  26.572  28.413  1.00  0.00     0.029 A 
ATOM     43  C   UNL A   1      40.362  27.589  28.865  1.00  0.00     0.049 A 
ATOM     44  H   UNL A   1      42.426  27.408  29.075  1.00  0.00     0.167 HD
ATOM     45  C   UNL A   1      46.771  26.784  29.465  1.00  0.00     0.037 A 
ATOM     46  C   UNL A   1      40.043  28.844  29.228  1.00  0.00     0.037 A 
ATOM     47  C   UNL A   1      46.535  28.167  29.790  1.00  0.00     0.049 A 
ATOM     48  C   UNL A   1      41.147  29.780  29.624  1.00  0.00     0.074 A 
ATOM     49  C   UNL A   1      47.456  29.141  30.130  1.00  0.00     0.029 A 
ATOM     50  N   UNL A   1      45.285  28.770  29.816  1.00  0.00    -0.354 N 
ATOM     51  N   UNL A   1      42.437  29.551  29.690  1.00  0.00    -0.248 NA
ATOM     52  C   UNL A   1      40.759  31.150  29.982  1.00  0.00     0.031 C 
ATOM     53  C   UNL A   1      46.761  30.322  30.403  1.00  0.00     0.029 A 
ATOM     54  C   UNL A   1      45.412  30.099  30.183  1.00  0.00     0.049 A 
ATOM     55  H   UNL A   1      44.436  28.320  29.605  1.00  0.00     0.167 HD
ATOM     56  C   UNL A   1      43.017  30.751  30.074  1.00  0.00     0.074 A 
ATOM     57  C   UNL A   1      41.940  31.711  30.206  1.00  0.00     0.031 C 
ATOM     58  C   UNL A   1      44.323  31.034  30.302  1.00  0.00     0.037 A 
BRANCH  45  59
ATOM     59  C   UNL A   1      48.184  26.283  29.517  1.00  0.00     0.057 A 
ATOM     60  C   UNL A   1      49.039  26.398  28.413  1.00  0.00     0.134 A 
ATOM     61  C   UNL A   1      48.731  25.792  30.710  1.00  0.00     0.134 A 
ATOM     62  F   UNL A   1      48.576  26.854  27.240  1.00  0.00    -0.206 F 
ATOM     63  C   UNL A   1      50.388  26.045  28.494  1.00  0.00     0.040 A 
ATOM     64  C   UNL A   1      50.083  25.456  30.808  1.00  0.00     0.040 A 
ATOM     65  F   UNL A   1      47.970  25.663  31.806  1.00  0.00    -0.206 F 
ATOM     66  C   UNL A   1      50.915  25.585  29.698  1.00  0.00     0.006 A 
ENDBRANCH  45  59
BRANCH  46  67
ATOM     67  C   UNL A   1      38.627  29.286  29.194  1.00  0.00     0.057 A 
ATOM     68  C   UNL A   1      38.034  29.724  28.005  1.00  0.00     0.134 A 
ATOM     69  C   UNL A   1      37.828  29.266  30.343  1.00  0.00     0.134 A 
ATOM     70  F   UNL A   1      38.751  29.777  26.872  1.00  0.00    -0.206 F 
ATOM     71  C   UNL A   1      36.705  30.146  27.962  1.00  0.00     0.040 A 
ATOM     72  C   UNL A   1      36.489  29.658  30.311  1.00  0.00     0.040 A 
ATOM     73  F   UNL A   1      38.331  28.843  31.512  1.00  0.00    -0.206 F 
ATOM     74  C   UNL A   1      35.926  30.108  29.118  1.00  0.00     0.006 A 
ENDBRANCH  46  67
BRANCH  58  75
ATOM     75  C   UNL A   1      44.659  32.442  30.695  1.00  0.00     0.057 A 
ATOM     76  C   UNL A   1      44.909  33.432  29.739  1.00  0.00     0.134 A 
ATOM     77  C   UNL A   1      44.678  32.819  32.043  1.00  0.00     0.134 A 
ATOM     78  F   UNL A   1      44.914  33.131  28.431  1.00  0.00    -0.206 F 
ATOM     79  C   UNL A   1      45.186  34.748  30.111  1.00  0.00     0.040 A 
ATOM     80  C   UNL A   1      44.927  34.136  32.427  1.00  0.00     0.040 A 
ATOM     81  F   UNL A   1      44.436  31.918  33.008  1.00  0.00    -0.206 F 
ATOM     82  C   UNL A   1      45.187  35.104  31.459  1.00  0.00     0.006 A 
ENDBRANCH  58  75
ENDBRANCH  32  33
ENDBRANCH  25  27
ENDBRANCH  24  25
ENDBRANCH  23  24
ENDBRANCH   1  23
TORSDOF 13
ENDMDL
MODEL 2
REMARK VINA RESULT:     -10.9      4.291      8.264
REMARK SMILES Cc1cc(Br)c(C)c([C@@H]2[NH2+][C@H](C(=O)OCCOC(=O)c3ccc(-c4c5nc(c(-c6c(F)cccc6F)c6ccc([nH]6)c(-c6c(F)cccc6F)c6nc(c(-c7c(F)cccc7F)c7ccc4[nH]7)C=C6)C=C5)cc3)CS2)c1O
REMARK SMILES IDX 15 1 14 2 12 3 13 4 11 5 9 6 10 7 75 8 74 11 8 12 1 13 2 14
REMARK SMILES IDX 3 15 76 16 4 17 5 18 6 19 7 20 77 21 16 23 17 24 18 25 19 26
REMARK SMILES IDX 20 27 21 28 73 29 22 30 72 31 23 32 24 33 25 34 66 35 26 36
REMARK SMILES IDX 71 37 65 38 67 39 27 40 70 41 64 42 63 43 28 45 54 46 37 47
REMARK SMILES IDX 53 48 38 49 41 50 52 51 68 52 39 53 40 54 51 56 69 57 42 58
REMARK SMILES IDX 29 59 30 60 35 61 31 62 32 63 34 64 36 65 33 66 55 67 56 68
REMARK SMILES IDX 61 69 57 70 58 71 60 72 62 73 59 74 43 75 44 76 49 77 45 78
REMARK SMILES IDX 46 79 48 80 50 81 47 82
REMARK H PARENT 10 9 10 10 77 22 67 44 41 55
REMARK Flexibility Score: inf
ROOT
ATOM      1  C   UNL A   1      37.361  22.891  25.146  1.00  0.00     0.274 C 
ENDROOT
BRANCH   1   2
ATOM      2  O   UNL A   1      36.434  21.891  25.607  1.00  0.00    -0.458 OA
BRANCH   2   3
ATOM      3  C   UNL A   1      35.290  22.301  26.214  1.00  0.00     0.365 C 
ATOM      4  O   UNL A   1      35.102  23.446  26.620  1.00  0.00    -0.245 OA
BRANCH   3   5
ATOM      5  C   UNL A   1      34.196  21.219  26.274  1.00  0.00     0.304 C 
ATOM      6  C   UNL A   1      32.050  21.912  25.456  1.00  0.00     0.278 C 
ATOM      7  N   UNL A   1      32.846  21.702  26.668  1.00  0.00    -0.319 N 
ATOM      8  S   UNL A   1      32.512  20.647  24.261  1.00  0.00    -0.087 SA
ATOM      9  H   UNL A   1      32.393  21.006  27.261  1.00  0.00     0.348 HD
ATOM     10  H   UNL A   1      32.928  22.576  27.187  1.00  0.00     0.348 HD
ATOM     11  C   UNL A   1      34.144  20.385  24.993  1.00  0.00     0.153 C 
BRANCH   6  12
ATOM     12  C   UNL A   1      32.034  23.379  25.026  1.00  0.00     0.066 A 
ATOM     13  C   UNL A   1      30.992  26.836  26.404  1.00  0.00     0.048 C 
ATOM     14  C   UNL A   1      31.472  25.744  25.491  1.00  0.00    -0.008 A 
ATOM     15  C   UNL A   1      31.760  26.062  24.163  1.00  0.00     0.023 A 
ATOM     16  C   UNL A   1      31.658  24.419  25.915  1.00  0.00     0.128 A 
ATOM     17  C   UNL A   1      32.174  25.077  23.265  1.00  0.00     0.021 A 
ATOM     18  Br  UNL A   1      32.578  25.677  21.501  1.00  0.00    -0.051 Br
ATOM     19  C   UNL A   1      32.278  23.725  23.657  1.00  0.00    -0.023 A 
ATOM     20  C   UNL A   1      32.686  22.700  22.619  1.00  0.00     0.046 C 
BRANCH  16  21
ATOM     21  O   UNL A   1      31.426  24.106  27.228  1.00  0.00    -0.507 OA
ATOM     22  H   UNL A   1      32.011  23.534  27.685  1.00  0.00     0.293 HD
ENDBRANCH  16  21
ENDBRANCH   6  12
ENDBRANCH   3   5
ENDBRANCH   2   3
ENDBRANCH   1   2
BRANCH   1  23
ATOM     23  C   UNL A   1      38.526  23.002  26.126  1.00  0.00     0.275 C 
BRANCH  23  24
ATOM     24  O   UNL A   1      38.832  24.386  26.359  1.00  0.00    -0.458 OA
BRANCH  24  25
ATOM     25  C   UNL A   1      40.135  24.652  26.597  1.00  0.00     0.338 C 
ATOM     26  O   UNL A   1      41.114  24.262  25.983  1.00  0.00    -0.246 OA
BRANCH  25  27
ATOM     27  C   UNL A   1      40.195  25.669  27.649  1.00  0.00     0.060 A 
ATOM     28  C   UNL A   1      41.106  26.721  27.574  1.00  0.00     0.016 A 
ATOM     29  C   UNL A   1      39.305  25.563  28.720  1.00  0.00     0.016 A 
ATOM     30  C   UNL A   1      41.119  27.675  28.589  1.00  0.00     0.010 A 
ATOM     31  C   UNL A   1      39.316  26.512  29.733  1.00  0.00     0.010 A 
ATOM     32  C   UNL A   1      40.219  27.578  29.666  1.00  0.00    -0.014 A 
BRANCH  32  33
ATOM     33  C   UNL A   1      40.144  28.654  30.673  1.00  0.00     0.031 A 
ATOM     34  C   UNL A   1      39.172  29.782  30.521  1.00  0.00     0.074 A 
ATOM     35  C   UNL A   1      41.007  28.607  31.705  1.00  0.00     0.049 A 
ATOM     36  N   UNL A   1      38.948  30.782  31.334  1.00  0.00    -0.248 NA
ATOM     37  C   UNL A   1      38.357  29.805  29.296  1.00  0.00     0.031 C 
ATOM     38  C   UNL A   1      42.038  27.582  31.890  1.00  0.00     0.029 A 
ATOM     39  N   UNL A   1      41.157  29.432  32.786  1.00  0.00    -0.354 N 
ATOM     40  C   UNL A   1      37.956  31.543  30.730  1.00  0.00     0.074 A 
ATOM     41  C   UNL A   1      37.654  30.920  29.460  1.00  0.00     0.031 C 
ATOM     42  C   UNL A   1      42.695  27.823  33.034  1.00  0.00     0.029 A 
ATOM     43  C   UNL A   1      42.149  29.029  33.646  1.00  0.00     0.049 A 
ATOM     44  H   UNL A   1      40.607  30.235  32.933  1.00  0.00     0.167 HD
ATOM     45  C   UNL A   1      37.344  32.649  31.215  1.00  0.00     0.037 A 
ATOM     46  C   UNL A   1      42.563  29.573  34.805  1.00  0.00     0.037 A 
ATOM     47  C   UNL A   1      37.663  33.251  32.484  1.00  0.00     0.049 A 
ATOM     48  C   UNL A   1      41.857  30.795  35.318  1.00  0.00     0.074 A 
ATOM     49  C   UNL A   1      37.071  34.344  33.090  1.00  0.00     0.029 A 
ATOM     50  N   UNL A   1      38.662  32.810  33.339  1.00  0.00    -0.354 N 
ATOM     51  N   UNL A   1      40.861  31.457  34.780  1.00  0.00    -0.248 NA
ATOM     52  C   UNL A   1      42.318  31.337  36.602  1.00  0.00     0.031 C 
ATOM     53  C   UNL A   1      37.739  34.591  34.292  1.00  0.00     0.029 A 
ATOM     54  C   UNL A   1      38.714  33.622  34.460  1.00  0.00     0.049 A 
ATOM     55  H   UNL A   1      39.248  32.037  33.174  1.00  0.00     0.167 HD
ATOM     56  C   UNL A   1      40.561  32.479  35.668  1.00  0.00     0.074 A 
ATOM     57  C   UNL A   1      41.467  32.336  36.790  1.00  0.00     0.031 C 
ATOM     58  C   UNL A   1      39.623  33.453  35.565  1.00  0.00     0.037 A 
BRANCH  45  59
ATOM     59  C   UNL A   1      36.253  33.272  30.397  1.00  0.00     0.057 A 
ATOM     60  C   UNL A   1      36.542  34.059  29.275  1.00  0.00     0.134 A 
ATOM     61  C   UNL A   1      34.906  32.990  30.660  1.00  0.00     0.134 A 
ATOM     62  F   UNL A   1      37.811  34.372  28.973  1.00  0.00    -0.206 F 
ATOM     63  C   UNL A   1      35.531  34.541  28.441  1.00  0.00     0.040 A 
ATOM     64  C   UNL A   1      33.888  33.449  29.821  1.00  0.00     0.040 A 
ATOM     65  F   UNL A   1      34.560  32.238  31.714  1.00  0.00    -0.206 F 
ATOM     66  C   UNL A   1      34.200  34.225  28.706  1.00  0.00     0.006 A 
ENDBRANCH  45  59
BRANCH  46  67
ATOM     67  C   UNL A   1      43.669  28.941  35.565  1.00  0.00     0.057 A 
ATOM     68  C   UNL A   1      43.420  27.935  36.504  1.00  0.00     0.134 A 
ATOM     69  C   UNL A   1      45.002  29.315  35.359  1.00  0.00     0.134 A 
ATOM     70  F   UNL A   1      42.162  27.540  36.753  1.00  0.00    -0.206 F 
ATOM     71  C   UNL A   1      44.453  27.336  37.227  1.00  0.00     0.040 A 
ATOM     72  C   UNL A   1      46.049  28.707  36.054  1.00  0.00     0.040 A 
ATOM     73  F   UNL A   1      45.310  30.263  34.462  1.00  0.00    -0.206 F 
ATOM     74  C   UNL A   1      45.774  27.719  36.998  1.00  0.00     0.006 A 
ENDBRANCH  46  67
BRANCH  58  75
ATOM     75  C   UNL A   1      39.517  34.423  36.703  1.00  0.00     0.057 A 
ATOM     76  C   UNL A   1      38.806  34.115  37.868  1.00  0.00     0.134 A 
ATOM     77  C   UNL A   1      40.179  35.656  36.651  1.00  0.00     0.134 A 
ATOM     78  F   UNL A   1      38.142  32.954  37.974  1.00  0.00    -0.206 F 
ATOM     79  C   UNL A   1      38.740  35.009  38.938  1.00  0.00     0.040 A 
ATOM     80  C   UNL A   1      40.143  36.546  37.724  1.00  0.00     0.040 A 
ATOM     81  F   UNL A   1      40.887  36.006  35.566  1.00  0.00    -0.206 F 
ATOM     82  C   UNL A   1      39.418  36.226  38.870  1.00  0.00     0.006 A 
ENDBRANCH  58  75
ENDBRANCH  32  33
ENDBRANCH  25  27
ENDBRANCH  24  25
ENDBRANCH  23  24
ENDBRANCH   1  23
TORSDOF 13
ENDMDL
MODEL 3
REMARK VINA RESULT:     -10.9      4.962      9.121
REMARK SMILES Cc1cc(Br)c(C)c([C@@H]2[NH2+][C@H](C(=O)OCCOC(=O)c3ccc(-c4c5nc(c(-c6c(F)cccc6F)c6ccc([nH]6)c(-c6c(F)cccc6F)c6nc(c(-c7c(F)cccc7F)c7ccc4[nH]7)C=C6)C=C5)cc3)CS2)c1O
REMARK SMILES IDX 15 1 14 2 12 3 13 4 11 5 9 6 10 7 75 8 74 11 8 12 1 13 2 14
REMARK SMILES IDX 3 15 76 16 4 17 5 18 6 19 7 20 77 21 16 23 17 24 18 25 19 26
REMARK SMILES IDX 20 27 21 28 73 29 22 30 72 31 23 32 24 33 25 34 66 35 26 36
REMARK SMILES IDX 71 37 65 38 67 39 27 40 70 41 64 42 63 43 28 45 54 46 37 47
REMARK SMILES IDX 53 48 38 49 41 50 52 51 68 52 39 53 40 54 51 56 69 57 42 58
REMARK SMILES IDX 29 59 30 60 35 61 31 62 32 63 34 64 36 65 33 66 55 67 56 68
REMARK SMILES IDX 61 69 57 70 58 71 60 72 62 73 59 74 43 75 44 76 49 77 45 78
REMARK SMILES IDX 46 79 48 80 50 81 47 82
REMARK H PARENT 10 9 10 10 77 22 67 44 41 55
REMARK Flexibility Score: inf
ROOT
ATOM      1  C   UNL A   1      31.000  31.055  25.606  1.00  0.00     0.274 C 
ENDROOT
BRANCH   1   2
ATOM      2  O   UNL A   1      32.131  30.185  25.411  1.00  0.00    -0.458 OA
BRANCH   2   3
ATOM      3  C   UNL A   1      32.039  28.901  25.845  1.00  0.00     0.365 C 
ATOM      4  O   UNL A   1      31.403  28.557  26.839  1.00  0.00    -0.245 OA
BRANCH   3   5
ATOM      5  C   UNL A   1      32.739  27.883  24.925  1.00  0.00     0.304 C 
ATOM      6  C   UNL A   1      31.616  27.469  22.846  1.00  0.00     0.278 C 
ATOM      7  N   UNL A   1      31.832  26.955  24.201  1.00  0.00    -0.319 N 
ATOM      8  S   UNL A   1      33.147  28.241  22.295  1.00  0.00    -0.087 SA
ATOM      9  H   UNL A   1      32.257  26.028  24.153  1.00  0.00     0.348 HD
ATOM     10  H   UNL A   1      30.941  26.884  24.693  1.00  0.00     0.348 HD
ATOM     11  C   UNL A   1      33.732  28.555  23.977  1.00  0.00     0.153 C 
BRANCH   6  12
ATOM     12  C   UNL A   1      30.302  28.243  22.727  1.00  0.00     0.066 A 
ATOM     13  C   UNL A   1      29.040  31.754  21.720  1.00  0.00     0.048 C 
ATOM     14  C   UNL A   1      29.086  30.338  22.220  1.00  0.00    -0.008 A 
ATOM     15  C   UNL A   1      27.921  29.774  22.739  1.00  0.00     0.023 A 
ATOM     16  C   UNL A   1      30.248  29.551  22.179  1.00  0.00     0.128 A 
ATOM     17  C   UNL A   1      27.920  28.475  23.250  1.00  0.00     0.021 A 
ATOM     18  Br  UNL A   1      26.240  27.827  23.876  1.00  0.00    -0.051 Br
ATOM     19  C   UNL A   1      29.103  27.705  23.296  1.00  0.00    -0.023 A 
ATOM     20  C   UNL A   1      29.042  26.322  23.909  1.00  0.00     0.046 C 
BRANCH  16  21
ATOM     21  O   UNL A   1      31.385  30.078  21.626  1.00  0.00    -0.507 OA
ATOM     22  H   UNL A   1      31.378  30.948  21.278  1.00  0.00     0.293 HD
ENDBRANCH  16  21
ENDBRANCH   6  12
ENDBRANCH   3   5
ENDBRANCH   2   3
ENDBRANCH   1   2
BRANCH   1  23
ATOM     23  C   UNL A   1      31.403  32.225  26.501  1.00  0.00     0.275 C 
BRANCH  23  24
ATOM     24  O   UNL A   1      32.591  31.886  27.234  1.00  0.00    -0.458 OA
BRANCH  24  25
ATOM     25  C   UNL A   1      33.344  32.939  27.621  1.00  0.00     0.338 C 
ATOM     26  O   UNL A   1      33.044  34.121  27.642  1.00  0.00    -0.246 OA
BRANCH  25  27
ATOM     27  C   UNL A   1      34.579  32.409  28.205  1.00  0.00     0.060 A 
ATOM     28  C   UNL A   1      35.698  33.223  28.368  1.00  0.00     0.016 A 
ATOM     29  C   UNL A   1      34.598  31.071  28.605  1.00  0.00     0.016 A 
ATOM     30  C   UNL A   1      36.847  32.682  28.941  1.00  0.00     0.010 A 
ATOM     31  C   UNL A   1      35.740  30.530  29.176  1.00  0.00     0.010 A 
ATOM     32  C   UNL A   1      36.868  31.338  29.355  1.00  0.00    -0.014 A 
BRANCH  32  33
ATOM     33  C   UNL A   1      38.037  30.800  30.077  1.00  0.00     0.031 A 
ATOM     34  C   UNL A   1      38.316  31.198  31.493  1.00  0.00     0.074 A 
ATOM     35  C   UNL A   1      38.862  29.976  29.407  1.00  0.00     0.049 A 
ATOM     36  N   UNL A   1      39.271  30.786  32.285  1.00  0.00    -0.248 NA
ATOM     37  C   UNL A   1      37.420  32.198  32.098  1.00  0.00     0.031 C 
ATOM     38  C   UNL A   1      38.706  29.594  28.000  1.00  0.00     0.029 A 
ATOM     39  N   UNL A   1      39.990  29.313  29.810  1.00  0.00    -0.354 N 
ATOM     40  C   UNL A   1      39.084  31.460  33.483  1.00  0.00     0.074 A 
ATOM     41  C   UNL A   1      37.955  32.345  33.304  1.00  0.00     0.031 C 
ATOM     42  C   UNL A   1      39.685  28.740  27.667  1.00  0.00     0.029 A 
ATOM     43  C   UNL A   1      40.548  28.536  28.825  1.00  0.00     0.049 A 
ATOM     44  H   UNL A   1      40.364  29.386  30.717  1.00  0.00     0.167 HD
ATOM     45  C   UNL A   1      39.787  31.325  34.633  1.00  0.00     0.037 A 
ATOM     46  C   UNL A   1      41.633  27.741  28.860  1.00  0.00     0.037 A 
ATOM     47  C   UNL A   1      40.909  30.435  34.788  1.00  0.00     0.049 A 
ATOM     48  C   UNL A   1      42.384  27.608  30.153  1.00  0.00     0.074 A 
ATOM     49  C   UNL A   1      41.660  30.187  35.923  1.00  0.00     0.029 A 
ATOM     50  N   UNL A   1      41.440  29.650  33.775  1.00  0.00    -0.354 N 
ATOM     51  N   UNL A   1      42.146  28.184  31.306  1.00  0.00    -0.248 NA
ATOM     52  C   UNL A   1      43.542  26.705  30.157  1.00  0.00     0.031 C 
ATOM     53  C   UNL A   1      42.672  29.284  35.586  1.00  0.00     0.029 A 
ATOM     54  C   UNL A   1      42.521  28.930  34.256  1.00  0.00     0.049 A 
ATOM     55  H   UNL A   1      41.100  29.610  32.852  1.00  0.00     0.167 HD
ATOM     56  C   UNL A   1      43.109  27.699  32.179  1.00  0.00     0.074 A 
ATOM     57  C   UNL A   1      43.921  26.764  31.426  1.00  0.00     0.031 C 
ATOM     58  C   UNL A   1      43.309  28.002  33.485  1.00  0.00     0.037 A 
BRANCH  45  59
ATOM     59  C   UNL A   1      39.359  32.128  35.825  1.00  0.00     0.057 A 
ATOM     60  C   UNL A   1      38.413  31.637  36.734  1.00  0.00     0.134 A 
ATOM     61  C   UNL A   1      39.979  33.346  36.132  1.00  0.00     0.134 A 
ATOM     62  F   UNL A   1      37.778  30.480  36.495  1.00  0.00    -0.206 F 
ATOM     63  C   UNL A   1      38.102  32.326  37.908  1.00  0.00     0.040 A 
ATOM     64  C   UNL A   1      39.691  34.035  37.312  1.00  0.00     0.040 A 
ATOM     65  F   UNL A   1      40.899  33.870  35.307  1.00  0.00    -0.206 F 
ATOM     66  C   UNL A   1      38.752  33.523  38.205  1.00  0.00     0.006 A 
ENDBRANCH  45  59
BRANCH  46  67
ATOM     67  C   UNL A   1      42.039  26.990  27.647  1.00  0.00     0.057 A 
ATOM     68  C   UNL A   1      41.670  25.653  27.466  1.00  0.00     0.134 A 
ATOM     69  C   UNL A   1      42.790  27.594  26.632  1.00  0.00     0.134 A 
ATOM     70  F   UNL A   1      40.958  25.016  28.408  1.00  0.00    -0.206 F 
ATOM     71  C   UNL A   1      42.049  24.936  26.330  1.00  0.00     0.040 A 
ATOM     72  C   UNL A   1      43.154  26.898  25.478  1.00  0.00     0.040 A 
ATOM     73  F   UNL A   1      43.164  28.878  26.737  1.00  0.00    -0.206 F 
ATOM     74  C   UNL A   1      42.790  25.561  25.328  1.00  0.00     0.006 A 
ENDBRANCH  46  67
BRANCH  58  75
ATOM     75  C   UNL A   1      44.433  27.300  34.186  1.00  0.00     0.057 A 
ATOM     76  C   UNL A   1      44.257  26.049  34.788  1.00  0.00     0.134 A 
ATOM     77  C   UNL A   1      45.716  27.858  34.210  1.00  0.00     0.134 A 
ATOM     78  F   UNL A   1      43.049  25.466  34.807  1.00  0.00    -0.206 F 
ATOM     79  C   UNL A   1      45.316  25.385  35.409  1.00  0.00     0.040 A 
ATOM     80  C   UNL A   1      46.789  27.193  34.803  1.00  0.00     0.040 A 
ATOM     81  F   UNL A   1      45.953  29.051  33.641  1.00  0.00    -0.206 F 
ATOM     82  C   UNL A   1      46.589  25.954  35.409  1.00  0.00     0.006 A 
ENDBRANCH  58  75
ENDBRANCH  32  33
ENDBRANCH  25  27
ENDBRANCH  24  25
ENDBRANCH  23  24
ENDBRANCH   1  23
TORSDOF 13
ENDMDL
