MODEL 1
REMARK VINA RESULT:     -14.3      0.000      0.000
REMARK SMILES O=C(OCCOC(=O)c1ccc(-c2c3nc(c(-c4c(F)cccc4F)c4ccc([nH]4)c(-c4c(F)cccc4F)c4nc(c(-c5c(F)cccc5F)c5ccc2[nH]5)C=C4)C=C3)cc1)C1=Cc2cc(Cl)c(Cl)c(Cl)c2O[C@@H]1C(F)(F)F
REMARK SMILES IDX 5 1 4 2 3 3 2 4 1 5 63 6 64 7 75 8 65 9 74 10 66 11 73 12
REMARK SMILES IDX 67 13 71 14 68 15 69 16 72 17 70 18 76 19 77 20 78 21 79 22
REMARK SMILES IDX 6 23 7 24 8 25 9 26 10 27 62 28 11 29 61 30 12 31 13 32
REMARK SMILES IDX 14 33 55 34 15 35 60 36 54 37 56 38 16 39 59 40 53 41 52 42
REMARK SMILES IDX 17 44 43 45 26 46 42 47 27 48 30 49 41 50 57 51 28 52 29 53
REMARK SMILES IDX 40 55 58 56 31 57 18 58 19 59 24 60 20 61 21 62 23 63 25 64
REMARK SMILES IDX 22 65 44 66 45 67 50 68 46 69 47 70 49 71 51 72 48 73 32 74
REMARK SMILES IDX 33 75 38 76 34 77 35 78 37 79 39 80 36 81
REMARK H PARENT 56 43 30 54
REMARK Flexibility Score: inf
ROOT
ATOM      1  C   UNL A   1      31.325  32.095  26.745  1.00  0.00     0.275 C 
ENDROOT
BRANCH   1   2
ATOM      2  C   UNL A   1      32.089  30.216  25.981  1.00  0.00     0.275 C 
BRANCH   2   3
ATOM      3  O   UNL A   1      32.370  28.932  26.812  1.00  0.00    -0.459 OA
BRANCH   3   4
ATOM      4  C   UNL A   1      31.671  27.868  26.397  1.00  0.00     0.338 C 
ATOM      5  O   UNL A   1      30.929  27.141  27.006  1.00  0.00    -0.246 OA
BRANCH   4   6
ATOM      6  C   UNL A   1      32.428  27.686  25.183  1.00  0.00     0.087 C 
ATOM      7  C   UNL A   1      33.721  27.038  25.414  1.00  0.00     0.027 C 
ATOM      8  C   UNL A   1      30.968  26.947  24.158  1.00  0.00     0.316 C 
ATOM      9  C   UNL A   1      34.071  25.341  24.929  1.00  0.00     0.020 A 
ATOM     10  O   UNL A   1      31.307  25.104  23.684  1.00  0.00    -0.474 OA
ATOM     11  C   UNL A   1      35.224  24.782  25.399  1.00  0.00     0.034 A 
ATOM     12  C   UNL A   1      32.891  24.325  24.169  1.00  0.00     0.148 A 
ATOM     13  C   UNL A   1      35.324  23.388  25.242  1.00  0.00     0.062 A 
ATOM     14  C   UNL A   1      33.067  22.966  24.054  1.00  0.00     0.103 A 
ATOM     15  Cl  UNL A   1      36.790  22.722  25.922  1.00  0.00    -0.083 Cl
ATOM     16  C   UNL A   1      34.306  22.517  24.619  1.00  0.00     0.082 A 
ATOM     17  Cl  UNL A   1      31.885  21.936  23.385  1.00  0.00    -0.079 Cl
ATOM     18  Cl  UNL A   1      34.637  20.795  24.631  1.00  0.00    -0.081 Cl
BRANCH   8  19
ATOM     19  C   UNL A   1      30.681  28.275  23.340  1.00  0.00     0.430 C 
ATOM     20  F   UNL A   1      31.804  28.801  22.834  1.00  0.00    -0.167 F 
ATOM     21  F   UNL A   1      29.950  27.954  22.225  1.00  0.00    -0.167 F 
ATOM     22  F   UNL A   1      29.914  29.215  23.914  1.00  0.00    -0.167 F 
ENDBRANCH   8  19
ENDBRANCH   4   6
ENDBRANCH   3   4
ENDBRANCH   2   3
ENDBRANCH   1   2
BRANCH   1  23
ATOM     23  O   UNL A   1      32.292  33.465  27.188  1.00  0.00    -0.458 OA
BRANCH  23  24
ATOM     24  C   UNL A   1      33.097  33.983  28.179  1.00  0.00     0.338 C 
ATOM     25  O   UNL A   1      32.810  34.709  29.113  1.00  0.00    -0.246 OA
BRANCH  24  26
ATOM     26  C   UNL A   1      34.342  33.147  28.176  1.00  0.00     0.060 A 
ATOM     27  C   UNL A   1      35.585  33.799  28.285  1.00  0.00     0.016 A 
ATOM     28  C   UNL A   1      34.252  31.787  28.467  1.00  0.00     0.016 A 
ATOM     29  C   UNL A   1      36.663  33.149  28.920  1.00  0.00     0.010 A 
ATOM     30  C   UNL A   1      35.330  31.142  29.085  1.00  0.00     0.010 A 
ATOM     31  C   UNL A   1      36.515  31.837  29.392  1.00  0.00    -0.014 A 
BRANCH  31  32
ATOM     32  C   UNL A   1      37.658  31.088  29.984  1.00  0.00     0.031 A 
ATOM     33  C   UNL A   1      37.965  31.407  31.416  1.00  0.00     0.074 A 
ATOM     34  C   UNL A   1      38.450  30.233  29.298  1.00  0.00     0.049 A 
ATOM     35  N   UNL A   1      38.945  30.999  32.176  1.00  0.00    -0.248 NA
ATOM     36  C   UNL A   1      37.043  32.354  32.066  1.00  0.00     0.031 C 
ATOM     37  C   UNL A   1      38.287  29.834  27.900  1.00  0.00     0.029 A 
ATOM     38  N   UNL A   1      39.582  29.553  29.698  1.00  0.00    -0.354 N 
ATOM     39  C   UNL A   1      38.749  31.635  33.392  1.00  0.00     0.074 A 
ATOM     40  C   UNL A   1      37.609  32.510  33.246  1.00  0.00     0.031 C 
ATOM     41  C   UNL A   1      39.284  28.992  27.559  1.00  0.00     0.029 A 
ATOM     42  C   UNL A   1      40.171  28.797  28.706  1.00  0.00     0.049 A 
ATOM     43  H   UNL A   1      39.940  29.604  30.614  1.00  0.00     0.167 HD
ATOM     44  C   UNL A   1      39.434  31.488  34.546  1.00  0.00     0.037 A 
ATOM     45  C   UNL A   1      41.293  28.043  28.731  1.00  0.00     0.037 A 
ATOM     46  C   UNL A   1      40.585  30.648  34.693  1.00  0.00     0.049 A 
ATOM     47  C   UNL A   1      42.092  27.952  30.017  1.00  0.00     0.074 A 
ATOM     48  C   UNL A   1      41.357  30.435  35.819  1.00  0.00     0.029 A 
ATOM     49  N   UNL A   1      41.137  29.893  33.670  1.00  0.00    -0.354 N 
ATOM     50  N   UNL A   1      41.852  28.497  31.187  1.00  0.00    -0.248 NA
ATOM     51  C   UNL A   1      43.315  27.131  29.990  1.00  0.00     0.031 C 
ATOM     52  C   UNL A   1      42.405  29.581  35.466  1.00  0.00     0.029 A 
ATOM     53  C   UNL A   1      42.252  29.221  34.136  1.00  0.00     0.049 A 
ATOM     54  H   UNL A   1      40.788  29.842  32.751  1.00  0.00     0.167 HD
ATOM     55  C   UNL A   1      42.860  28.050  32.036  1.00  0.00     0.074 A 
ATOM     56  C   UNL A   1      43.710  27.180  31.253  1.00  0.00     0.031 C 
ATOM     57  C   UNL A   1      43.066  28.333  33.346  1.00  0.00     0.037 A 
BRANCH  44  58
ATOM     58  C   UNL A   1      38.934  32.278  35.715  1.00  0.00     0.057 A 
ATOM     59  C   UNL A   1      39.303  33.618  35.901  1.00  0.00     0.134 A 
ATOM     60  C   UNL A   1      38.138  31.678  36.697  1.00  0.00     0.134 A 
ATOM     61  F   UNL A   1      40.096  34.234  35.011  1.00  0.00    -0.206 F 
ATOM     62  C   UNL A   1      38.933  34.322  37.046  1.00  0.00     0.040 A 
ATOM     63  C   UNL A   1      37.735  32.383  37.831  1.00  0.00     0.040 A 
ATOM     64  F   UNL A   1      37.762  30.396  36.583  1.00  0.00    -0.206 F 
ATOM     65  C   UNL A   1      38.143  33.704  38.014  1.00  0.00     0.006 A 
ENDBRANCH  44  58
BRANCH  45  66
ATOM     66  C   UNL A   1      41.767  27.291  27.528  1.00  0.00     0.057 A 
ATOM     67  C   UNL A   1      42.487  27.933  26.509  1.00  0.00     0.134 A 
ATOM     68  C   UNL A   1      41.416  25.953  27.308  1.00  0.00     0.134 A 
ATOM     69  F   UNL A   1      42.823  29.226  26.632  1.00  0.00    -0.206 F 
ATOM     70  C   UNL A   1      42.805  27.289  25.308  1.00  0.00     0.040 A 
ATOM     71  C   UNL A   1      41.752  25.288  26.122  1.00  0.00     0.040 A 
ATOM     72  F   UNL A   1      40.716  25.276  28.229  1.00  0.00    -0.206 F 
ATOM     73  C   UNL A   1      42.437  25.961  25.113  1.00  0.00     0.006 A 
ENDBRANCH  45  66
BRANCH  57  74
ATOM     74  C   UNL A   1      44.214  27.657  34.039  1.00  0.00     0.057 A 
ATOM     75  C   UNL A   1      44.090  26.388  34.620  1.00  0.00     0.134 A 
ATOM     76  C   UNL A   1      45.482  28.253  34.052  1.00  0.00     0.134 A 
ATOM     77  F   UNL A   1      42.903  25.765  34.647  1.00  0.00    -0.206 F 
ATOM     78  C   UNL A   1      45.185  25.744  35.203  1.00  0.00     0.040 A 
ATOM     79  C   UNL A   1      46.588  27.607  34.605  1.00  0.00     0.040 A 
ATOM     80  F   UNL A   1      45.673  29.461  33.501  1.00  0.00    -0.206 F 
ATOM     81  C   UNL A   1      46.440  26.350  35.187  1.00  0.00     0.006 A 
ENDBRANCH  57  74
ENDBRANCH  31  32
ENDBRANCH  24  26
ENDBRANCH  23  24
ENDBRANCH   1  23
TORSDOF 12
ENDMDL
MODEL 2
REMARK VINA RESULT:     -14.2      0.946      1.426
REMARK SMILES O=C(OCCOC(=O)c1ccc(-c2c3nc(c(-c4c(F)cccc4F)c4ccc([nH]4)c(-c4c(F)cccc4F)c4nc(c(-c5c(F)cccc5F)c5ccc2[nH]5)C=C4)C=C3)cc1)C1=Cc2cc(Cl)c(Cl)c(Cl)c2O[C@@H]1C(F)(F)F
REMARK SMILES IDX 5 1 4 2 3 3 2 4 1 5 63 6 64 7 75 8 65 9 74 10 66 11 73 12
REMARK SMILES IDX 67 13 71 14 68 15 69 16 72 17 70 18 76 19 77 20 78 21 79 22
REMARK SMILES IDX 6 23 7 24 8 25 9 26 10 27 62 28 11 29 61 30 12 31 13 32
REMARK SMILES IDX 14 33 55 34 15 35 60 36 54 37 56 38 16 39 59 40 53 41 52 42
REMARK SMILES IDX 17 44 43 45 26 46 42 47 27 48 30 49 41 50 57 51 28 52 29 53
REMARK SMILES IDX 40 55 58 56 31 57 18 58 19 59 24 60 20 61 21 62 23 63 25 64
REMARK SMILES IDX 22 65 44 66 45 67 50 68 46 69 47 70 49 71 51 72 48 73 32 74
REMARK SMILES IDX 33 75 38 76 34 77 35 78 37 79 39 80 36 81
REMARK H PARENT 56 43 30 54
REMARK Flexibility Score: inf
ROOT
ATOM      1  C   UNL A   1      31.251  32.012  26.848  1.00  0.00     0.275 C 
ENDROOT
BRANCH   1   2
ATOM      2  C   UNL A   1      31.683  30.329  25.553  1.00  0.00     0.275 C 
BRANCH   2   3
ATOM      3  O   UNL A   1      32.491  29.057  25.937  1.00  0.00    -0.459 OA
BRANCH   3   4
ATOM      4  C   UNL A   1      32.013  27.937  25.380  1.00  0.00     0.338 C 
ATOM      5  O   UNL A   1      30.929  27.422  25.477  1.00  0.00    -0.246 OA
BRANCH   4   6
ATOM      6  C   UNL A   1      33.309  27.410  25.026  1.00  0.00     0.087 C 
ATOM      7  C   UNL A   1      33.764  26.364  25.944  1.00  0.00     0.027 C 
ATOM      8  C   UNL A   1      32.909  27.167  23.153  1.00  0.00     0.316 C 
ATOM      9  C   UNL A   1      33.832  24.623  25.493  1.00  0.00     0.020 A 
ATOM     10  O   UNL A   1      32.919  25.295  22.672  1.00  0.00    -0.474 OA
ATOM     11  C   UNL A   1      34.053  23.726  26.498  1.00  0.00     0.034 A 
ATOM     12  C   UNL A   1      33.335  24.040  23.938  1.00  0.00     0.148 A 
ATOM     13  C   UNL A   1      33.816  22.380  26.165  1.00  0.00     0.062 A 
ATOM     14  C   UNL A   1      33.127  22.703  23.695  1.00  0.00     0.103 A 
ATOM     15  Cl  UNL A   1      34.053  21.287  27.509  1.00  0.00    -0.083 Cl
ATOM     16  C   UNL A   1      33.367  21.886  24.847  1.00  0.00     0.082 A 
ATOM     17  Cl  UNL A   1      32.560  22.115  22.198  1.00  0.00    -0.079 Cl
ATOM     18  Cl  UNL A   1      33.058  20.164  24.722  1.00  0.00    -0.081 Cl
BRANCH   8  19
ATOM     19  C   UNL A   1      33.710  28.447  22.667  1.00  0.00     0.430 C 
ATOM     20  F   UNL A   1      34.842  28.619  23.362  1.00  0.00    -0.167 F 
ATOM     21  F   UNL A   1      34.150  28.230  21.388  1.00  0.00    -0.167 F 
ATOM     22  F   UNL A   1      33.034  29.600  22.537  1.00  0.00    -0.167 F 
ENDBRANCH   8  19
ENDBRANCH   4   6
ENDBRANCH   3   4
ENDBRANCH   2   3
ENDBRANCH   1   2
BRANCH   1  23
ATOM     23  O   UNL A   1      32.317  33.347  27.148  1.00  0.00    -0.458 OA
BRANCH  23  24
ATOM     24  C   UNL A   1      33.144  33.919  28.089  1.00  0.00     0.338 C 
ATOM     25  O   UNL A   1      32.877  34.692  28.991  1.00  0.00    -0.246 OA
BRANCH  24  26
ATOM     26  C   UNL A   1      34.392  33.088  28.100  1.00  0.00     0.060 A 
ATOM     27  C   UNL A   1      35.631  33.745  28.231  1.00  0.00     0.016 A 
ATOM     28  C   UNL A   1      34.304  31.726  28.380  1.00  0.00     0.016 A 
ATOM     29  C   UNL A   1      36.702  33.095  28.877  1.00  0.00     0.010 A 
ATOM     30  C   UNL A   1      35.376  31.082  29.009  1.00  0.00     0.010 A 
ATOM     31  C   UNL A   1      36.553  31.779  29.338  1.00  0.00    -0.014 A 
BRANCH  31  32
ATOM     32  C   UNL A   1      37.690  31.031  29.941  1.00  0.00     0.031 A 
ATOM     33  C   UNL A   1      37.985  31.352  31.375  1.00  0.00     0.074 A 
ATOM     34  C   UNL A   1      38.488  30.175  29.264  1.00  0.00     0.049 A 
ATOM     35  N   UNL A   1      38.957  30.945  32.145  1.00  0.00    -0.248 NA
ATOM     36  C   UNL A   1      37.057  32.301  32.016  1.00  0.00     0.031 C 
ATOM     37  C   UNL A   1      38.338  29.773  27.866  1.00  0.00     0.029 A 
ATOM     38  N   UNL A   1      39.617  29.495  29.676  1.00  0.00    -0.354 N 
ATOM     39  C   UNL A   1      38.751  31.583  33.358  1.00  0.00     0.074 A 
ATOM     40  C   UNL A   1      37.612  32.459  33.201  1.00  0.00     0.031 C 
ATOM     41  C   UNL A   1      39.338  28.930  27.535  1.00  0.00     0.029 A 
ATOM     42  C   UNL A   1      40.214  28.737  28.690  1.00  0.00     0.049 A 
ATOM     43  H   UNL A   1      39.967  29.547  30.594  1.00  0.00     0.167 HD
ATOM     44  C   UNL A   1      39.426  31.439  34.519  1.00  0.00     0.037 A 
ATOM     45  C   UNL A   1      41.336  27.983  28.727  1.00  0.00     0.037 A 
ATOM     46  C   UNL A   1      40.575  30.599  34.678  1.00  0.00     0.049 A 
ATOM     47  C   UNL A   1      42.123  27.893  30.020  1.00  0.00     0.074 A 
ATOM     48  C   UNL A   1      41.336  30.387  35.811  1.00  0.00     0.029 A 
ATOM     49  N   UNL A   1      41.136  29.842  33.661  1.00  0.00    -0.354 N 
ATOM     50  N   UNL A   1      41.872  28.441  31.187  1.00  0.00    -0.248 NA
ATOM     51  C   UNL A   1      43.346  27.072  30.005  1.00  0.00     0.031 C 
ATOM     52  C   UNL A   1      42.388  29.532  35.469  1.00  0.00     0.029 A 
ATOM     53  C   UNL A   1      42.246  29.170  34.138  1.00  0.00     0.049 A 
ATOM     54  H   UNL A   1      40.795  29.789  32.739  1.00  0.00     0.167 HD
ATOM     55  C   UNL A   1      42.873  27.995  32.045  1.00  0.00     0.074 A 
ATOM     56  C   UNL A   1      43.730  27.123  31.272  1.00  0.00     0.031 C 
ATOM     57  C   UNL A   1      43.067  28.281  33.357  1.00  0.00     0.037 A 
BRANCH  44  58
ATOM     58  C   UNL A   1      38.915  32.230  35.682  1.00  0.00     0.057 A 
ATOM     59  C   UNL A   1      39.264  33.578  35.855  1.00  0.00     0.134 A 
ATOM     60  C   UNL A   1      38.131  31.627  36.671  1.00  0.00     0.134 A 
ATOM     61  F   UNL A   1      40.045  34.199  34.959  1.00  0.00    -0.206 F 
ATOM     62  C   UNL A   1      38.884  34.286  36.995  1.00  0.00     0.040 A 
ATOM     63  C   UNL A   1      37.719  32.335  37.799  1.00  0.00     0.040 A 
ATOM     64  F   UNL A   1      37.775  30.338  36.568  1.00  0.00    -0.206 F 
ATOM     65  C   UNL A   1      38.106  33.664  37.969  1.00  0.00     0.006 A 
ENDBRANCH  44  58
BRANCH  45  66
ATOM     66  C   UNL A   1      41.820  27.228  27.529  1.00  0.00     0.057 A 
ATOM     67  C   UNL A   1      42.558  27.866  26.520  1.00  0.00     0.134 A 
ATOM     68  C   UNL A   1      41.463  25.893  27.303  1.00  0.00     0.134 A 
ATOM     69  F   UNL A   1      42.901  29.157  26.649  1.00  0.00    -0.206 F 
ATOM     70  C   UNL A   1      42.887  27.222  25.323  1.00  0.00     0.040 A 
ATOM     71  C   UNL A   1      41.811  25.227  26.122  1.00  0.00     0.040 A 
ATOM     72  F   UNL A   1      40.747  25.220  28.215  1.00  0.00    -0.206 F 
ATOM     73  C   UNL A   1      42.513  25.896  25.122  1.00  0.00     0.006 A 
ENDBRANCH  45  66
BRANCH  57  74
ATOM     74  C   UNL A   1      44.209  27.605  34.062  1.00  0.00     0.057 A 
ATOM     75  C   UNL A   1      45.469  28.204  34.183  1.00  0.00     0.134 A 
ATOM     76  C   UNL A   1      44.015  26.371  34.698  1.00  0.00     0.134 A 
ATOM     77  F   UNL A   1      45.723  29.381  33.592  1.00  0.00    -0.206 F 
ATOM     78  C   UNL A   1      46.500  27.591  34.898  1.00  0.00     0.040 A 
ATOM     79  C   UNL A   1      45.028  25.764  35.440  1.00  0.00     0.040 A 
ATOM     80  F   UNL A   1      42.827  25.750  34.634  1.00  0.00    -0.206 F 
ATOM     81  C   UNL A   1      46.277  26.372  35.538  1.00  0.00     0.006 A 
ENDBRANCH  57  74
ENDBRANCH  31  32
ENDBRANCH  24  26
ENDBRANCH  23  24
ENDBRANCH   1  23
TORSDOF 12
ENDMDL
MODEL 3
REMARK VINA RESULT:     -14.2      0.193      1.328
REMARK SMILES O=C(OCCOC(=O)c1ccc(-c2c3nc(c(-c4c(F)cccc4F)c4ccc([nH]4)c(-c4c(F)cccc4F)c4nc(c(-c5c(F)cccc5F)c5ccc2[nH]5)C=C4)C=C3)cc1)C1=Cc2cc(Cl)c(Cl)c(Cl)c2O[C@@H]1C(F)(F)F
REMARK SMILES IDX 5 1 4 2 3 3 2 4 1 5 63 6 64 7 75 8 65 9 74 10 66 11 73 12
REMARK SMILES IDX 67 13 71 14 68 15 69 16 72 17 70 18 76 19 77 20 78 21 79 22
REMARK SMILES IDX 6 23 7 24 8 25 9 26 10 27 62 28 11 29 61 30 12 31 13 32
REMARK SMILES IDX 14 33 55 34 15 35 60 36 54 37 56 38 16 39 59 40 53 41 52 42
REMARK SMILES IDX 17 44 43 45 26 46 42 47 27 48 30 49 41 50 57 51 28 52 29 53
REMARK SMILES IDX 40 55 58 56 31 57 18 58 19 59 24 60 20 61 21 62 23 63 25 64
REMARK SMILES IDX 22 65 44 66 45 67 50 68 46 69 47 70 49 71 51 72 48 73 32 74
REMARK SMILES IDX 33 75 38 76 34 77 35 78 37 79 39 80 36 81
REMARK H PARENT 56 43 30 54
REMARK Flexibility Score: inf
ROOT
ATOM      1  C   UNL A   1      31.325  32.286  26.838  1.00  0.00     0.275 C 
ENDROOT
BRANCH   1   2
ATOM      2  C   UNL A   1      32.168  30.441  26.073  1.00  0.00     0.275 C 
BRANCH   2   3
ATOM      3  O   UNL A   1      32.468  29.157  26.895  1.00  0.00    -0.459 OA
BRANCH   3   4
ATOM      4  C   UNL A   1      31.749  28.097  26.505  1.00  0.00     0.338 C 
ATOM      5  O   UNL A   1      31.015  27.381  27.136  1.00  0.00    -0.246 OA
BRANCH   4   6
ATOM      6  C   UNL A   1      32.475  27.899  25.274  1.00  0.00     0.087 C 
ATOM      7  C   UNL A   1      33.750  27.206  25.475  1.00  0.00     0.027 C 
ATOM      8  C   UNL A   1      30.970  27.217  24.274  1.00  0.00     0.316 C 
ATOM      9  C   UNL A   1      34.033  25.502  24.971  1.00  0.00     0.020 A 
ATOM     10  O   UNL A   1      31.238  25.367  23.781  1.00  0.00    -0.474 OA
ATOM     11  C   UNL A   1      35.175  24.901  25.414  1.00  0.00     0.034 A 
ATOM     12  C   UNL A   1      32.803  24.531  24.228  1.00  0.00     0.148 A 
ATOM     13  C   UNL A   1      35.225  23.505  25.245  1.00  0.00     0.062 A 
ATOM     14  C   UNL A   1      32.932  23.168  24.100  1.00  0.00     0.103 A 
ATOM     15  Cl  UNL A   1      36.681  22.786  25.890  1.00  0.00    -0.083 Cl
ATOM     16  C   UNL A   1      34.165  22.674  24.637  1.00  0.00     0.082 A 
ATOM     17  Cl  UNL A   1      31.702  22.183  23.448  1.00  0.00    -0.079 Cl
ATOM     18  Cl  UNL A   1      34.439  20.942  24.630  1.00  0.00    -0.081 Cl
BRANCH   8  19
ATOM     19  C   UNL A   1      30.712  28.559  23.471  1.00  0.00     0.430 C 
ATOM     20  F   UNL A   1      31.845  29.063  22.964  1.00  0.00    -0.167 F 
ATOM     21  F   UNL A   1      29.967  28.268  22.358  1.00  0.00    -0.167 F 
ATOM     22  F   UNL A   1      29.971  29.512  24.059  1.00  0.00    -0.167 F 
ENDBRANCH   8  19
ENDBRANCH   4   6
ENDBRANCH   3   4
ENDBRANCH   2   3
ENDBRANCH   1   2
BRANCH   1  23
ATOM     23  O   UNL A   1      32.235  33.687  27.305  1.00  0.00    -0.458 OA
BRANCH  23  24
ATOM     24  C   UNL A   1      33.100  34.184  28.255  1.00  0.00     0.338 C 
ATOM     25  O   UNL A   1      32.883  34.944  29.181  1.00  0.00    -0.246 OA
BRANCH  24  26
ATOM     26  C   UNL A   1      34.300  33.284  28.230  1.00  0.00     0.060 A 
ATOM     27  C   UNL A   1      35.578  33.875  28.245  1.00  0.00     0.016 A 
ATOM     28  C   UNL A   1      34.157  31.945  28.589  1.00  0.00     0.016 A 
ATOM     29  C   UNL A   1      36.654  33.198  28.855  1.00  0.00     0.010 A 
ATOM     30  C   UNL A   1      35.233  31.274  29.183  1.00  0.00     0.010 A 
ATOM     31  C   UNL A   1      36.465  31.919  29.396  1.00  0.00    -0.014 A 
BRANCH  31  32
ATOM     32  C   UNL A   1      37.599  31.139  29.965  1.00  0.00     0.031 A 
ATOM     33  C   UNL A   1      37.925  31.427  31.399  1.00  0.00     0.074 A 
ATOM     34  C   UNL A   1      38.368  30.280  29.258  1.00  0.00     0.049 A 
ATOM     35  N   UNL A   1      38.904  30.988  32.143  1.00  0.00    -0.248 NA
ATOM     36  C   UNL A   1      37.027  32.382  32.073  1.00  0.00     0.031 C 
ATOM     37  C   UNL A   1      38.185  29.907  27.855  1.00  0.00     0.029 A 
ATOM     38  N   UNL A   1      39.491  29.572  29.636  1.00  0.00    -0.354 N 
ATOM     39  C   UNL A   1      38.731  31.608  33.371  1.00  0.00     0.074 A 
ATOM     40  C   UNL A   1      37.607  32.507  33.251  1.00  0.00     0.031 C 
ATOM     41  C   UNL A   1      39.162  29.052  27.491  1.00  0.00     0.029 A 
ATOM     42  C   UNL A   1      40.055  28.821  28.626  1.00  0.00     0.049 A 
ATOM     43  H   UNL A   1      39.858  29.601  30.549  1.00  0.00     0.167 HD
ATOM     44  C   UNL A   1      39.424  31.429  34.516  1.00  0.00     0.037 A 
ATOM     45  C   UNL A   1      41.164  28.046  28.628  1.00  0.00     0.037 A 
ATOM     46  C   UNL A   1      40.560  30.565  34.639  1.00  0.00     0.049 A 
ATOM     47  C   UNL A   1      41.972  27.918  29.905  1.00  0.00     0.074 A 
ATOM     48  C   UNL A   1      41.338  30.318  35.753  1.00  0.00     0.029 A 
ATOM     49  N   UNL A   1      41.088  29.817  33.599  1.00  0.00    -0.354 N 
ATOM     50  N   UNL A   1      41.753  28.449  31.086  1.00  0.00    -0.248 NA
ATOM     51  C   UNL A   1      43.179  27.074  29.853  1.00  0.00     0.031 C 
ATOM     52  C   UNL A   1      42.366  29.451  35.377  1.00  0.00     0.029 A 
ATOM     53  C   UNL A   1      42.194  29.116  34.043  1.00  0.00     0.049 A 
ATOM     54  H   UNL A   1      40.730  29.788  32.682  1.00  0.00     0.167 HD
ATOM     55  C   UNL A   1      42.760  27.968  31.918  1.00  0.00     0.074 A 
ATOM     56  C   UNL A   1      43.586  27.095  31.113  1.00  0.00     0.031 C 
ATOM     57  C   UNL A   1      42.984  28.226  33.230  1.00  0.00     0.037 A 
BRANCH  44  58
ATOM     58  C   UNL A   1      38.950  32.209  35.703  1.00  0.00     0.057 A 
ATOM     59  C   UNL A   1      39.334  33.543  35.899  1.00  0.00     0.134 A 
ATOM     60  C   UNL A   1      38.165  31.605  36.690  1.00  0.00     0.134 A 
ATOM     61  F   UNL A   1      40.119  34.163  35.004  1.00  0.00    -0.206 F 
ATOM     62  C   UNL A   1      38.989  34.236  37.058  1.00  0.00     0.040 A 
ATOM     63  C   UNL A   1      37.786  32.299  37.838  1.00  0.00     0.040 A 
ATOM     64  F   UNL A   1      37.775  30.327  36.566  1.00  0.00    -0.206 F 
ATOM     65  C   UNL A   1      38.209  33.614  38.031  1.00  0.00     0.006 A 
ENDBRANCH  44  58
BRANCH  45  66
ATOM     66  C   UNL A   1      41.612  27.304  27.409  1.00  0.00     0.057 A 
ATOM     67  C   UNL A   1      41.318  25.943  27.240  1.00  0.00     0.134 A 
ATOM     68  C   UNL A   1      42.437  27.897  26.445  1.00  0.00     0.134 A 
ATOM     69  F   UNL A   1      40.566  25.298  28.145  1.00  0.00    -0.206 F 
ATOM     70  C   UNL A   1      41.855  25.193  26.188  1.00  0.00     0.040 A 
ATOM     71  C   UNL A   1      42.959  27.166  25.372  1.00  0.00     0.040 A 
ATOM     72  F   UNL A   1      42.774  29.190  26.545  1.00  0.00    -0.206 F 
ATOM     73  C   UNL A   1      42.679  25.806  25.249  1.00  0.00     0.006 A 
ENDBRANCH  45  66
BRANCH  57  74
ATOM     74  C   UNL A   1      44.124  27.516  33.902  1.00  0.00     0.057 A 
ATOM     75  C   UNL A   1      45.401  28.084  34.001  1.00  0.00     0.134 A 
ATOM     76  C   UNL A   1      43.916  26.280  34.529  1.00  0.00     0.134 A 
ATOM     77  F   UNL A   1      45.669  29.261  33.417  1.00  0.00    -0.206 F 
ATOM     78  C   UNL A   1      46.433  27.440  34.686  1.00  0.00     0.040 A 
ATOM     79  C   UNL A   1      44.932  25.642  35.242  1.00  0.00     0.040 A 
ATOM     80  F   UNL A   1      42.714  25.687  34.485  1.00  0.00    -0.206 F 
ATOM     81  C   UNL A   1      46.197  26.220  35.317  1.00  0.00     0.006 A 
ENDBRANCH  57  74
ENDBRANCH  31  32
ENDBRANCH  24  26
ENDBRANCH  23  24
ENDBRANCH   1  23
TORSDOF 12
ENDMDL
