MODEL 1
REMARK VINA RESULT:     -10.7      0.000      0.000
REMARK SMILES O=C(Cc1cccn(C(F)F)c1=O)OCCOC(=O)c1ccc(-c2c3nc(c(-c4c(F)cccc4F)c4ccc([nH]4)c(-c4c(F)cccc4F)c4nc(c(-c5c(F)cccc5F)c5ccc2[nH]5)C=C4)C=C3)cc1
REMARK SMILES IDX 15 1 14 2 2 3 1 4 3 5 4 6 5 7 12 8 6 9 8 10 13 11 7 12 9 13
REMARK SMILES IDX 10 14 11 15 16 16 17 17 18 18 19 19 20 20 21 21 73 22 22 23
REMARK SMILES IDX 72 24 23 25 24 26 25 27 66 28 26 29 71 30 65 31 67 32 27 33
REMARK SMILES IDX 70 34 64 35 63 36 28 38 54 39 37 40 53 41 38 42 41 43 52 44
REMARK SMILES IDX 68 45 39 46 40 47 51 49 69 50 42 51 29 52 30 53 35 54 31 55
REMARK SMILES IDX 32 56 34 57 36 58 33 59 55 60 56 61 61 62 57 63 58 64 60 65
REMARK SMILES IDX 62 66 59 67 43 68 44 69 49 70 45 71 46 72 48 73 50 74 47 75
REMARK H PARENT 67 37 41 48
REMARK Flexibility Score: inf
ROOT
ATOM      1  C   UNL A   1      44.439  21.245  25.290  1.00  0.00     0.274 C 
ENDROOT
BRANCH   1   2
ATOM      2  O   UNL A   1      43.243  20.482  25.021  1.00  0.00    -0.462 OA
BRANCH   2   3
ATOM      3  C   UNL A   1      42.811  19.431  25.755  1.00  0.00     0.310 C 
ATOM      4  O   UNL A   1      43.117  18.283  25.429  1.00  0.00    -0.252 OA
BRANCH   3   5
ATOM      5  C   UNL A   1      41.913  19.671  26.951  1.00  0.00     0.164 C 
BRANCH   5   6
ATOM      6  C   UNL A   1      40.826  20.666  26.696  1.00  0.00     0.029 A 
ATOM      7  C   UNL A   1      40.828  21.920  27.177  1.00  0.00     0.011 A 
ATOM      8  C   UNL A   1      39.641  20.194  25.901  1.00  0.00     0.258 A 
ATOM      9  C   UNL A   1      39.742  22.824  26.900  1.00  0.00     0.019 A 
ATOM     10  N   UNL A   1      38.663  21.134  25.644  1.00  0.00    -0.258 N 
ATOM     11  O   UNL A   1      39.583  19.031  25.507  1.00  0.00    -0.269 OA
ATOM     12  C   UNL A   1      38.714  22.420  26.145  1.00  0.00     0.095 A 
BRANCH  10  13
ATOM     13  C   UNL A   1      37.549  20.729  24.826  1.00  0.00     0.451 C 
ATOM     14  F   UNL A   1      36.425  20.660  25.587  1.00  0.00    -0.185 F 
ATOM     15  F   UNL A   1      37.312  21.680  23.882  1.00  0.00    -0.185 F 
ENDBRANCH  10  13
ENDBRANCH   5   6
ENDBRANCH   3   5
ENDBRANCH   2   3
ENDBRANCH   1   2
BRANCH   1  16
ATOM     16  C   UNL A   1      44.472  22.561  24.512  1.00  0.00     0.275 C 
BRANCH  16  17
ATOM     17  O   UNL A   1      43.761  23.585  25.225  1.00  0.00    -0.458 OA
BRANCH  17  18
ATOM     18  C   UNL A   1      44.404  24.770  25.365  1.00  0.00     0.338 C 
ATOM     19  O   UNL A   1      45.246  25.237  24.619  1.00  0.00    -0.246 OA
BRANCH  18  20
ATOM     20  C   UNL A   1      43.762  25.533  26.463  1.00  0.00     0.060 A 
ATOM     21  C   UNL A   1      42.780  24.967  27.284  1.00  0.00     0.016 A 
ATOM     22  C   UNL A   1      44.107  26.882  26.612  1.00  0.00     0.016 A 
ATOM     23  C   UNL A   1      42.154  25.749  28.259  1.00  0.00     0.010 A 
ATOM     24  C   UNL A   1      43.479  27.662  27.585  1.00  0.00     0.010 A 
ATOM     25  C   UNL A   1      42.506  27.098  28.422  1.00  0.00    -0.014 A 
BRANCH  25  26
ATOM     26  C   UNL A   1      41.957  27.880  29.553  1.00  0.00     0.031 A 
ATOM     27  C   UNL A   1      40.745  28.750  29.402  1.00  0.00     0.074 A 
ATOM     28  C   UNL A   1      42.587  27.804  30.740  1.00  0.00     0.049 A 
ATOM     29  N   UNL A   1      40.127  29.462  30.312  1.00  0.00    -0.248 NA
ATOM     30  C   UNL A   1      40.148  28.831  28.063  1.00  0.00     0.031 C 
ATOM     31  C   UNL A   1      43.779  26.998  31.007  1.00  0.00     0.029 A 
ATOM     32  N   UNL A   1      42.315  28.411  31.937  1.00  0.00    -0.354 N 
ATOM     33  C   UNL A   1      39.054  30.058  29.665  1.00  0.00     0.074 A 
ATOM     34  C   UNL A   1      39.129  29.656  28.274  1.00  0.00     0.031 C 
ATOM     35  C   UNL A   1      44.130  27.152  32.293  1.00  0.00     0.029 A 
ATOM     36  C   UNL A   1      43.205  28.084  32.930  1.00  0.00     0.049 A 
ATOM     37  H   UNL A   1      41.555  29.023  32.073  1.00  0.00     0.167 HD
ATOM     38  C   UNL A   1      38.088  30.851  30.191  1.00  0.00     0.037 A 
ATOM     39  C   UNL A   1      43.270  28.490  34.210  1.00  0.00     0.037 A 
ATOM     40  C   UNL A   1      38.031  31.273  31.569  1.00  0.00     0.049 A 
ATOM     41  C   UNL A   1      42.238  29.443  34.739  1.00  0.00     0.074 A 
ATOM     42  C   UNL A   1      37.067  32.048  32.195  1.00  0.00     0.029 A 
ATOM     43  N   UNL A   1      38.983  30.973  32.530  1.00  0.00    -0.354 N 
ATOM     44  N   UNL A   1      41.191  29.946  34.133  1.00  0.00    -0.248 NA
ATOM     45  C   UNL A   1      42.399  29.881  36.132  1.00  0.00     0.031 C 
ATOM     46  C   UNL A   1      37.462  32.255  33.522  1.00  0.00     0.029 A 
ATOM     47  C   UNL A   1      38.648  31.573  33.736  1.00  0.00     0.049 A 
ATOM     48  H   UNL A   1      39.780  30.416  32.380  1.00  0.00     0.167 HD
ATOM     49  C   UNL A   1      40.554  30.740  35.077  1.00  0.00     0.074 A 
ATOM     50  C   UNL A   1      41.327  30.641  36.299  1.00  0.00     0.031 C 
ATOM     51  C   UNL A   1      39.426  31.480  34.944  1.00  0.00     0.037 A 
BRANCH  38  52
ATOM     52  C   UNL A   1      36.999  31.319  29.270  1.00  0.00     0.057 A 
ATOM     53  C   UNL A   1      37.002  32.620  28.752  1.00  0.00     0.134 A 
ATOM     54  C   UNL A   1      35.907  30.499  28.957  1.00  0.00     0.134 A 
ATOM     55  F   UNL A   1      38.013  33.459  29.022  1.00  0.00    -0.206 F 
ATOM     56  C   UNL A   1      35.954  33.092  27.960  1.00  0.00     0.040 A 
ATOM     57  C   UNL A   1      34.861  30.954  28.151  1.00  0.00     0.040 A 
ATOM     58  F   UNL A   1      35.846  29.242  29.418  1.00  0.00    -0.206 F 
ATOM     59  C   UNL A   1      34.880  32.257  27.655  1.00  0.00     0.006 A 
ENDBRANCH  38  52
BRANCH  39  60
ATOM     60  C   UNL A   1      44.346  27.982  35.091  1.00  0.00     0.057 A 
ATOM     61  C   UNL A   1      44.192  26.802  35.826  1.00  0.00     0.134 A 
ATOM     62  C   UNL A   1      45.561  28.666  35.207  1.00  0.00     0.134 A 
ATOM     63  F   UNL A   1      43.047  26.106  35.758  1.00  0.00    -0.206 F 
ATOM     64  C   UNL A   1      45.207  26.321  36.652  1.00  0.00     0.040 A 
ATOM     65  C   UNL A   1      46.593  28.185  36.012  1.00  0.00     0.040 A 
ATOM     66  F   UNL A   1      45.770  29.793  34.510  1.00  0.00    -0.206 F 
ATOM     67  C   UNL A   1      46.415  27.010  36.741  1.00  0.00     0.006 A 
ENDBRANCH  39  60
BRANCH  51  68
ATOM     68  C   UNL A   1      38.955  32.222  36.159  1.00  0.00     0.057 A 
ATOM     69  C   UNL A   1      38.118  31.603  37.096  1.00  0.00     0.134 A 
ATOM     70  C   UNL A   1      39.330  33.549  36.404  1.00  0.00     0.134 A 
ATOM     71  F   UNL A   1      37.719  30.335  36.920  1.00  0.00    -0.206 F 
ATOM     72  C   UNL A   1      37.672  32.277  38.234  1.00  0.00     0.040 A 
ATOM     73  C   UNL A   1      38.910  34.225  37.551  1.00  0.00     0.040 A 
ATOM     74  F   UNL A   1      40.145  34.192  35.556  1.00  0.00    -0.206 F 
ATOM     75  C   UNL A   1      38.075  33.590  38.468  1.00  0.00     0.006 A 
ENDBRANCH  51  68
ENDBRANCH  25  26
ENDBRANCH  18  20
ENDBRANCH  17  18
ENDBRANCH  16  17
ENDBRANCH   1  16
TORSDOF 13
ENDMDL
MODEL 2
REMARK VINA RESULT:     -10.7      0.325      6.553
REMARK SMILES O=C(Cc1cccn(C(F)F)c1=O)OCCOC(=O)c1ccc(-c2c3nc(c(-c4c(F)cccc4F)c4ccc([nH]4)c(-c4c(F)cccc4F)c4nc(c(-c5c(F)cccc5F)c5ccc2[nH]5)C=C4)C=C3)cc1
REMARK SMILES IDX 15 1 14 2 2 3 1 4 3 5 4 6 5 7 12 8 6 9 8 10 13 11 7 12 9 13
REMARK SMILES IDX 10 14 11 15 16 16 17 17 18 18 19 19 20 20 21 21 73 22 22 23
REMARK SMILES IDX 72 24 23 25 24 26 25 27 66 28 26 29 71 30 65 31 67 32 27 33
REMARK SMILES IDX 70 34 64 35 63 36 28 38 54 39 37 40 53 41 38 42 41 43 52 44
REMARK SMILES IDX 68 45 39 46 40 47 51 49 69 50 42 51 29 52 30 53 35 54 31 55
REMARK SMILES IDX 32 56 34 57 36 58 33 59 55 60 56 61 61 62 57 63 58 64 60 65
REMARK SMILES IDX 62 66 59 67 43 68 44 69 49 70 45 71 46 72 48 73 50 74 47 75
REMARK H PARENT 67 37 41 48
REMARK Flexibility Score: inf
ROOT
ATOM      1  C   UNL A   1      44.313  21.114  25.262  1.00  0.00     0.274 C 
ENDROOT
BRANCH   1   2
ATOM      2  O   UNL A   1      43.188  20.256  24.971  1.00  0.00    -0.462 OA
BRANCH   2   3
ATOM      3  C   UNL A   1      42.759  19.244  25.759  1.00  0.00     0.310 C 
ATOM      4  O   UNL A   1      43.041  18.079  25.476  1.00  0.00    -0.252 OA
BRANCH   3   5
ATOM      5  C   UNL A   1      41.893  19.548  26.964  1.00  0.00     0.164 C 
BRANCH   5   6
ATOM      6  C   UNL A   1      40.835  20.572  26.700  1.00  0.00     0.029 A 
ATOM      7  C   UNL A   1      40.882  21.836  27.155  1.00  0.00     0.011 A 
ATOM      8  C   UNL A   1      39.627  20.122  25.929  1.00  0.00     0.258 A 
ATOM      9  C   UNL A   1      39.822  22.768  26.871  1.00  0.00     0.019 A 
ATOM     10  N   UNL A   1      38.676  21.088  25.663  1.00  0.00    -0.258 N 
ATOM     11  O   UNL A   1      39.527  18.954  25.560  1.00  0.00    -0.269 OA
ATOM     12  C   UNL A   1      38.774  22.381  26.136  1.00  0.00     0.095 A 
BRANCH  10  13
ATOM     13  C   UNL A   1      37.540  20.702  24.866  1.00  0.00     0.451 C 
ATOM     14  F   UNL A   1      36.401  20.855  25.591  1.00  0.00    -0.185 F 
ATOM     15  F   UNL A   1      37.430  21.541  23.801  1.00  0.00    -0.185 F 
ENDBRANCH  10  13
ENDBRANCH   5   6
ENDBRANCH   3   5
ENDBRANCH   2   3
ENDBRANCH   1   2
BRANCH   1  16
ATOM     16  C   UNL A   1      44.293  22.395  24.427  1.00  0.00     0.275 C 
BRANCH  16  17
ATOM     17  O   UNL A   1      43.645  23.455  25.147  1.00  0.00    -0.458 OA
BRANCH  17  18
ATOM     18  C   UNL A   1      44.375  24.583  25.333  1.00  0.00     0.338 C 
ATOM     19  O   UNL A   1      45.255  25.012  24.607  1.00  0.00    -0.246 OA
BRANCH  18  20
ATOM     20  C   UNL A   1      43.786  25.351  26.456  1.00  0.00     0.060 A 
ATOM     21  C   UNL A   1      42.830  24.795  27.315  1.00  0.00     0.016 A 
ATOM     22  C   UNL A   1      44.153  26.695  26.594  1.00  0.00     0.016 A 
ATOM     23  C   UNL A   1      42.253  25.582  28.314  1.00  0.00     0.010 A 
ATOM     24  C   UNL A   1      43.573  27.481  27.592  1.00  0.00     0.010 A 
ATOM     25  C   UNL A   1      42.627  26.927  28.465  1.00  0.00    -0.014 A 
BRANCH  25  26
ATOM     26  C   UNL A   1      42.132  27.713  29.619  1.00  0.00     0.031 A 
ATOM     27  C   UNL A   1      42.799  27.659  30.960  1.00  0.00     0.074 A 
ATOM     28  C   UNL A   1      41.042  28.482  29.439  1.00  0.00     0.049 A 
ATOM     29  N   UNL A   1      42.502  28.319  32.052  1.00  0.00    -0.248 NA
ATOM     30  C   UNL A   1      43.945  26.750  31.096  1.00  0.00     0.031 C 
ATOM     31  C   UNL A   1      40.303  28.610  28.183  1.00  0.00     0.029 A 
ATOM     32  N   UNL A   1      40.369  29.296  30.312  1.00  0.00    -0.354 N 
ATOM     33  C   UNL A   1      43.437  27.929  33.000  1.00  0.00     0.074 A 
ATOM     34  C   UNL A   1      44.287  26.940  32.366  1.00  0.00     0.031 C 
ATOM     35  C   UNL A   1      39.283  29.463  28.362  1.00  0.00     0.029 A 
ATOM     36  C   UNL A   1      39.283  29.919  29.749  1.00  0.00     0.049 A 
ATOM     37  H   UNL A   1      40.637  29.421  31.251  1.00  0.00     0.167 HD
ATOM     38  C   UNL A   1      43.580  28.369  34.274  1.00  0.00     0.037 A 
ATOM     39  C   UNL A   1      38.387  30.763  30.290  1.00  0.00     0.037 A 
ATOM     40  C   UNL A   1      42.717  29.332  34.912  1.00  0.00     0.049 A 
ATOM     41  C   UNL A   1      38.518  31.161  31.730  1.00  0.00     0.074 A 
ATOM     42  C   UNL A   1      42.810  29.862  36.190  1.00  0.00     0.029 A 
ATOM     43  N   UNL A   1      41.591  29.895  34.332  1.00  0.00    -0.354 N 
ATOM     44  N   UNL A   1      39.446  30.835  32.596  1.00  0.00    -0.248 NA
ATOM     45  C   UNL A   1      37.476  32.048  32.266  1.00  0.00     0.031 C 
ATOM     46  C   UNL A   1      41.715  30.709  36.397  1.00  0.00     0.029 A 
ATOM     47  C   UNL A   1      40.963  30.742  35.234  1.00  0.00     0.049 A 
ATOM     48  H   UNL A   1      41.282  29.721  33.414  1.00  0.00     0.167 HD
ATOM     49  C   UNL A   1      39.114  31.495  33.771  1.00  0.00     0.074 A 
ATOM     50  C   UNL A   1      37.906  32.250  33.503  1.00  0.00     0.031 C 
ATOM     51  C   UNL A   1      39.757  31.481  34.964  1.00  0.00     0.037 A 
BRANCH  38  52
ATOM     52  C   UNL A   1      44.724  27.817  35.073  1.00  0.00     0.057 A 
ATOM     53  C   UNL A   1      44.559  26.682  35.877  1.00  0.00     0.134 A 
ATOM     54  C   UNL A   1      45.970  28.456  35.102  1.00  0.00     0.134 A 
ATOM     55  F   UNL A   1      43.388  26.029  35.904  1.00  0.00    -0.206 F 
ATOM     56  C   UNL A   1      45.592  26.206  36.687  1.00  0.00     0.040 A 
ATOM     57  C   UNL A   1      47.016  27.979  35.894  1.00  0.00     0.040 A 
ATOM     58  F   UNL A   1      46.193  29.545  34.353  1.00  0.00    -0.206 F 
ATOM     59  C   UNL A   1      46.826  26.854  36.695  1.00  0.00     0.006 A 
ENDBRANCH  38  52
BRANCH  39  60
ATOM     60  C   UNL A   1      37.289  31.306  29.456  1.00  0.00     0.057 A 
ATOM     61  C   UNL A   1      37.351  32.596  28.917  1.00  0.00     0.134 A 
ATOM     62  C   UNL A   1      36.156  30.537  29.173  1.00  0.00     0.134 A 
ATOM     63  F   UNL A   1      38.411  33.381  29.158  1.00  0.00    -0.206 F 
ATOM     64  C   UNL A   1      36.320  33.105  28.129  1.00  0.00     0.040 A 
ATOM     65  C   UNL A   1      35.127  31.025  28.368  1.00  0.00     0.040 A 
ATOM     66  F   UNL A   1      36.053  29.286  29.648  1.00  0.00    -0.206 F 
ATOM     67  C   UNL A   1      35.206  32.315  27.846  1.00  0.00     0.006 A 
ENDBRANCH  39  60
BRANCH  51  68
ATOM     68  C   UNL A   1      39.172  32.324  36.059  1.00  0.00     0.057 A 
ATOM     69  C   UNL A   1      38.213  31.797  36.933  1.00  0.00     0.134 A 
ATOM     70  C   UNL A   1      39.559  33.657  36.250  1.00  0.00     0.134 A 
ATOM     71  F   UNL A   1      37.796  30.529  36.804  1.00  0.00    -0.206 F 
ATOM     72  C   UNL A   1      37.661  32.566  37.959  1.00  0.00     0.040 A 
ATOM     73  C   UNL A   1      39.031  34.428  37.287  1.00  0.00     0.040 A 
ATOM     74  F   UNL A   1      40.487  34.214  35.458  1.00  0.00    -0.206 F 
ATOM     75  C   UNL A   1      38.077  33.883  38.143  1.00  0.00     0.006 A 
ENDBRANCH  51  68
ENDBRANCH  25  26
ENDBRANCH  18  20
ENDBRANCH  17  18
ENDBRANCH  16  17
ENDBRANCH   1  16
TORSDOF 13
ENDMDL
MODEL 3
REMARK VINA RESULT:     -10.6      5.895     11.667
REMARK SMILES O=C(Cc1cccn(C(F)F)c1=O)OCCOC(=O)c1ccc(-c2c3nc(c(-c4c(F)cccc4F)c4ccc([nH]4)c(-c4c(F)cccc4F)c4nc(c(-c5c(F)cccc5F)c5ccc2[nH]5)C=C4)C=C3)cc1
REMARK SMILES IDX 15 1 14 2 2 3 1 4 3 5 4 6 5 7 12 8 6 9 8 10 13 11 7 12 9 13
REMARK SMILES IDX 10 14 11 15 16 16 17 17 18 18 19 19 20 20 21 21 73 22 22 23
REMARK SMILES IDX 72 24 23 25 24 26 25 27 66 28 26 29 71 30 65 31 67 32 27 33
REMARK SMILES IDX 70 34 64 35 63 36 28 38 54 39 37 40 53 41 38 42 41 43 52 44
REMARK SMILES IDX 68 45 39 46 40 47 51 49 69 50 42 51 29 52 30 53 35 54 31 55
REMARK SMILES IDX 32 56 34 57 36 58 33 59 55 60 56 61 61 62 57 63 58 64 60 65
REMARK SMILES IDX 62 66 59 67 43 68 44 69 49 70 45 71 46 72 48 73 50 74 47 75
REMARK H PARENT 67 37 41 48
REMARK Flexibility Score: inf
ROOT
ATOM      1  C   UNL A   1      34.554  34.278  31.503  1.00  0.00     0.274 C 
ENDROOT
BRANCH   1   2
ATOM      2  O   UNL A   1      33.356  34.442  30.714  1.00  0.00    -0.462 OA
BRANCH   2   3
ATOM      3  C   UNL A   1      33.244  35.243  29.630  1.00  0.00     0.310 C 
ATOM      4  O   UNL A   1      32.444  36.179  29.634  1.00  0.00    -0.252 OA
BRANCH   3   5
ATOM      5  C   UNL A   1      34.075  34.955  28.396  1.00  0.00     0.164 C 
BRANCH   5   6
ATOM      6  C   UNL A   1      34.174  33.501  28.065  1.00  0.00     0.029 A 
ATOM      7  C   UNL A   1      35.296  32.774  28.200  1.00  0.00     0.011 A 
ATOM      8  C   UNL A   1      32.949  32.847  27.489  1.00  0.00     0.258 A 
ATOM      9  C   UNL A   1      35.323  31.377  27.852  1.00  0.00     0.019 A 
ATOM     10  N   UNL A   1      33.046  31.496  27.222  1.00  0.00    -0.258 N 
ATOM     11  O   UNL A   1      31.931  33.506  27.291  1.00  0.00    -0.269 OA
ATOM     12  C   UNL A   1      34.216  30.783  27.393  1.00  0.00     0.095 A 
BRANCH  10  13
ATOM     13  C   UNL A   1      31.866  30.828  26.734  1.00  0.00     0.451 C 
ATOM     14  F   UNL A   1      32.065  30.429  25.450  1.00  0.00    -0.185 F 
ATOM     15  F   UNL A   1      31.658  29.695  27.458  1.00  0.00    -0.185 F 
ENDBRANCH  10  13
ENDBRANCH   5   6
ENDBRANCH   3   5
ENDBRANCH   2   3
ENDBRANCH   1   2
BRANCH   1  16
ATOM     16  C   UNL A   1      34.358  33.287  32.652  1.00  0.00     0.275 C 
BRANCH  16  17
ATOM     17  O   UNL A   1      35.239  32.163  32.504  1.00  0.00    -0.458 OA
BRANCH  17  18
ATOM     18  C   UNL A   1      36.385  32.205  33.226  1.00  0.00     0.338 C 
ATOM     19  O   UNL A   1      36.488  32.425  34.420  1.00  0.00    -0.246 OA
BRANCH  18  20
ATOM     20  C   UNL A   1      37.499  31.715  32.379  1.00  0.00     0.060 A 
ATOM     21  C   UNL A   1      37.456  31.788  30.982  1.00  0.00     0.016 A 
ATOM     22  C   UNL A   1      38.581  31.094  33.014  1.00  0.00     0.016 A 
ATOM     23  C   UNL A   1      38.500  31.248  30.226  1.00  0.00     0.010 A 
ATOM     24  C   UNL A   1      39.622  30.553  32.257  1.00  0.00     0.010 A 
ATOM     25  C   UNL A   1      39.594  30.636  30.858  1.00  0.00    -0.014 A 
BRANCH  25  26
ATOM     26  C   UNL A   1      40.768  30.206  30.065  1.00  0.00     0.031 A 
ATOM     27  C   UNL A   1      41.903  31.136  29.760  1.00  0.00     0.074 A 
ATOM     28  C   UNL A   1      40.792  28.942  29.603  1.00  0.00     0.049 A 
ATOM     29  N   UNL A   1      43.014  30.891  29.111  1.00  0.00    -0.248 NA
ATOM     30  C   UNL A   1      41.779  32.517  30.245  1.00  0.00     0.031 C 
ATOM     31  C   UNL A   1      39.742  27.947  29.828  1.00  0.00     0.029 A 
ATOM     32  N   UNL A   1      41.727  28.282  28.850  1.00  0.00    -0.354 N 
ATOM     33  C   UNL A   1      43.736  32.076  29.129  1.00  0.00     0.074 A 
ATOM     34  C   UNL A   1      42.916  33.054  29.818  1.00  0.00     0.031 C 
ATOM     35  C   UNL A   1      40.097  26.797  29.234  1.00  0.00     0.029 A 
ATOM     36  C   UNL A   1      41.383  26.983  28.569  1.00  0.00     0.049 A 
ATOM     37  H   UNL A   1      42.563  28.699  28.540  1.00  0.00     0.167 HD
ATOM     38  C   UNL A   1      44.973  32.317  28.631  1.00  0.00     0.037 A 
ATOM     39  C   UNL A   1      42.031  26.047  27.853  1.00  0.00     0.037 A 
ATOM     40  C   UNL A   1      45.775  31.352  27.921  1.00  0.00     0.049 A 
ATOM     41  C   UNL A   1      43.359  26.373  27.235  1.00  0.00     0.074 A 
ATOM     42  C   UNL A   1      47.056  31.501  27.412  1.00  0.00     0.029 A 
ATOM     43  N   UNL A   1      45.370  30.066  27.600  1.00  0.00    -0.354 N 
ATOM     44  N   UNL A   1      44.059  27.477  27.316  1.00  0.00    -0.248 NA
ATOM     45  C   UNL A   1      43.986  25.317  26.428  1.00  0.00     0.031 C 
ATOM     46  C   UNL A   1      47.405  30.320  26.744  1.00  0.00     0.029 A 
ATOM     47  C   UNL A   1      46.361  29.421  26.875  1.00  0.00     0.049 A 
ATOM     48  H   UNL A   1      44.506  29.668  27.851  1.00  0.00     0.167 HD
ATOM     49  C   UNL A   1      45.220  27.242  26.592  1.00  0.00     0.074 A 
ATOM     50  C   UNL A   1      45.134  25.886  26.089  1.00  0.00     0.031 C 
ATOM     51  C   UNL A   1      46.265  28.076  26.369  1.00  0.00     0.037 A 
BRANCH  38  52
ATOM     52  C   UNL A   1      45.549  33.688  28.839  1.00  0.00     0.057 A 
ATOM     53  C   UNL A   1      45.385  34.692  27.878  1.00  0.00     0.134 A 
ATOM     54  C   UNL A   1      46.331  33.987  29.963  1.00  0.00     0.134 A 
ATOM     55  F   UNL A   1      44.657  34.467  26.774  1.00  0.00    -0.206 F 
ATOM     56  C   UNL A   1      45.983  35.945  28.023  1.00  0.00     0.040 A 
ATOM     57  C   UNL A   1      46.919  35.242  30.128  1.00  0.00     0.040 A 
ATOM     58  F   UNL A   1      46.523  33.070  30.921  1.00  0.00    -0.206 F 
ATOM     59  C   UNL A   1      46.751  36.224  29.153  1.00  0.00     0.006 A 
ENDBRANCH  38  52
BRANCH  39  60
ATOM     60  C   UNL A   1      41.438  24.699  27.696  1.00  0.00     0.057 A 
ATOM     61  C   UNL A   1      41.865  23.618  28.476  1.00  0.00     0.134 A 
ATOM     62  C   UNL A   1      40.421  24.467  26.764  1.00  0.00     0.134 A 
ATOM     63  F   UNL A   1      42.840  23.780  29.382  1.00  0.00    -0.206 F 
ATOM     64  C   UNL A   1      41.304  22.350  28.331  1.00  0.00     0.040 A 
ATOM     65  C   UNL A   1      39.836  23.209  26.624  1.00  0.00     0.040 A 
ATOM     66  F   UNL A   1      39.961  25.472  26.004  1.00  0.00    -0.206 F 
ATOM     67  C   UNL A   1      40.281  22.144  27.407  1.00  0.00     0.006 A 
ENDBRANCH  39  60
BRANCH  51  68
ATOM     68  C   UNL A   1      47.406  27.530  25.562  1.00  0.00     0.057 A 
ATOM     69  C   UNL A   1      48.477  26.880  26.186  1.00  0.00     0.134 A 
ATOM     70  C   UNL A   1      47.445  27.647  24.166  1.00  0.00     0.134 A 
ATOM     71  F   UNL A   1      48.504  26.736  27.520  1.00  0.00    -0.206 F 
ATOM     72  C   UNL A   1      49.546  26.363  25.451  1.00  0.00     0.040 A 
ATOM     73  C   UNL A   1      48.496  27.114  23.419  1.00  0.00     0.040 A 
ATOM     74  F   UNL A   1      46.440  28.242  23.507  1.00  0.00    -0.206 F 
ATOM     75  C   UNL A   1      49.553  26.473  24.062  1.00  0.00     0.006 A 
ENDBRANCH  51  68
ENDBRANCH  25  26
ENDBRANCH  18  20
ENDBRANCH  17  18
ENDBRANCH  16  17
ENDBRANCH   1  16
TORSDOF 13
ENDMDL
