MODEL 1
REMARK VINA RESULT:     -11.7      0.000      0.000
REMARK SMILES O=C(Cc1cccn1-c1ccc2c(c1)OCCO2)OCCOC(=O)c1ccc(-c2c3nc(c(-c4c(F)cccc4F)c4ccc([nH]4)c(-c4c(F)cccc4F)c4nc(c(-c5c(F)cccc5F)c5ccc2[nH]5)C=C4)C=C3)cc1
REMARK SMILES IDX 20 1 19 2 2 3 1 4 3 5 4 6 5 7 8 8 6 9 7 10 9 11 10 12 14 13
REMARK SMILES IDX 11 14 13 15 12 16 15 17 18 18 16 19 17 20 21 21 22 22 23 23
REMARK SMILES IDX 24 24 25 25 26 26 78 27 27 28 77 29 28 30 29 31 30 32 71 33
REMARK SMILES IDX 31 34 76 35 70 36 72 37 32 38 75 39 69 40 68 41 33 43 59 44
REMARK SMILES IDX 42 45 58 46 43 47 46 48 57 49 73 50 44 51 45 52 56 54 74 55
REMARK SMILES IDX 47 56 34 57 35 58 40 59 36 60 37 61 39 62 41 63 38 64 60 65
REMARK SMILES IDX 61 66 66 67 62 68 63 69 65 70 67 71 64 72 48 73 49 74 54 75
REMARK SMILES IDX 50 76 51 77 53 78 55 79 52 80
REMARK H PARENT 72 42 46 53
REMARK Flexibility Score: inf
ROOT
ATOM      1  C   UNL A   1      39.155  21.416  25.857  1.00  0.00     0.274 C 
ENDROOT
BRANCH   1   2
ATOM      2  O   UNL A   1      37.737  21.639  25.780  1.00  0.00    -0.462 OA
BRANCH   2   3
ATOM      3  C   UNL A   1      37.153  22.720  25.200  1.00  0.00     0.311 C 
ATOM      4  O   UNL A   1      37.355  23.841  25.668  1.00  0.00    -0.252 OA
BRANCH   3   5
ATOM      5  C   UNL A   1      36.199  22.524  24.028  1.00  0.00     0.177 C 
BRANCH   5   6
ATOM      6  C   UNL A   1      34.845  22.048  24.460  1.00  0.00     0.034 A 
ATOM      7  C   UNL A   1      34.474  20.741  24.738  1.00  0.00     0.024 A 
ATOM      8  N   UNL A   1      33.746  22.860  24.722  1.00  0.00    -0.320 N 
ATOM      9  C   UNL A   1      33.158  20.758  25.241  1.00  0.00     0.020 A 
ATOM     10  C   UNL A   1      32.754  22.071  25.265  1.00  0.00     0.091 A 
BRANCH   8  11
ATOM     11  C   UNL A   1      33.643  24.268  24.599  1.00  0.00     0.049 A 
ATOM     12  C   UNL A   1      33.695  25.038  25.772  1.00  0.00     0.031 A 
ATOM     13  C   UNL A   1      33.598  24.886  23.343  1.00  0.00     0.077 A 
ATOM     14  C   UNL A   1      33.783  26.428  25.680  1.00  0.00     0.052 A 
ATOM     15  C   UNL A   1      33.650  26.283  23.265  1.00  0.00     0.163 A 
ATOM     16  C   UNL A   1      33.756  27.049  24.432  1.00  0.00     0.161 A 
ATOM     17  O   UNL A   1      33.615  26.836  22.010  1.00  0.00    -0.486 OA
ATOM     18  O   UNL A   1      33.880  28.413  24.431  1.00  0.00    -0.486 OA
ATOM     19  C   UNL A   1      34.052  28.200  22.011  1.00  0.00     0.271 C 
ATOM     20  C   UNL A   1      33.475  28.980  23.183  1.00  0.00     0.271 C 
ENDBRANCH   8  11
ENDBRANCH   5   6
ENDBRANCH   3   5
ENDBRANCH   2   3
ENDBRANCH   1   2
BRANCH   1  21
ATOM     21  C   UNL A   1      39.610  20.006  25.495  1.00  0.00     0.275 C 
BRANCH  21  22
ATOM     22  O   UNL A   1      40.381  19.397  26.527  1.00  0.00    -0.458 OA
BRANCH  22  23
ATOM     23  C   UNL A   1      41.685  19.241  26.200  1.00  0.00     0.338 C 
ATOM     24  O   UNL A   1      42.226  18.229  25.812  1.00  0.00    -0.246 OA
BRANCH  23  25
ATOM     25  C   UNL A   1      42.426  20.471  26.500  1.00  0.00     0.060 A 
ATOM     26  C   UNL A   1      42.346  20.912  27.823  1.00  0.00     0.016 A 
ATOM     27  C   UNL A   1      42.946  21.274  25.475  1.00  0.00     0.016 A 
ATOM     28  C   UNL A   1      42.607  22.234  28.093  1.00  0.00     0.010 A 
ATOM     29  C   UNL A   1      43.184  22.607  25.740  1.00  0.00     0.010 A 
ATOM     30  C   UNL A   1      42.958  23.081  27.036  1.00  0.00    -0.014 A 
BRANCH  30  31
ATOM     31  C   UNL A   1      43.222  24.479  27.381  1.00  0.00     0.031 A 
ATOM     32  C   UNL A   1      41.875  25.227  27.513  1.00  0.00     0.074 A 
ATOM     33  C   UNL A   1      44.552  24.824  27.399  1.00  0.00     0.049 A 
ATOM     34  N   UNL A   1      41.593  26.471  27.298  1.00  0.00    -0.248 NA
ATOM     35  C   UNL A   1      40.634  24.469  27.866  1.00  0.00     0.031 C 
ATOM     36  C   UNL A   1      45.691  23.872  27.284  1.00  0.00     0.029 A 
ATOM     37  N   UNL A   1      45.236  26.017  27.499  1.00  0.00    -0.354 N 
ATOM     38  C   UNL A   1      40.258  26.692  27.713  1.00  0.00     0.074 A 
ATOM     39  C   UNL A   1      39.683  25.403  27.927  1.00  0.00     0.031 C 
ATOM     40  C   UNL A   1      46.876  24.524  27.212  1.00  0.00     0.029 A 
ATOM     41  C   UNL A   1      46.649  25.953  27.288  1.00  0.00     0.049 A 
ATOM     42  H   UNL A   1      44.777  26.864  27.703  1.00  0.00     0.167 HD
ATOM     43  C   UNL A   1      39.777  27.939  27.994  1.00  0.00     0.037 A 
ATOM     44  C   UNL A   1      47.542  26.988  27.136  1.00  0.00     0.037 A 
ATOM     45  C   UNL A   1      40.778  28.903  27.692  1.00  0.00     0.049 A 
ATOM     46  C   UNL A   1      46.742  28.180  27.426  1.00  0.00     0.074 A 
ATOM     47  C   UNL A   1      41.275  29.337  26.491  1.00  0.00     0.029 A 
ATOM     48  N   UNL A   1      41.674  29.187  28.694  1.00  0.00    -0.354 N 
ATOM     49  N   UNL A   1      46.339  28.521  28.612  1.00  0.00    -0.248 NA
ATOM     50  C   UNL A   1      46.247  28.982  26.302  1.00  0.00     0.031 C 
ATOM     51  C   UNL A   1      42.660  29.372  26.734  1.00  0.00     0.029 A 
ATOM     52  C   UNL A   1      42.910  29.289  28.110  1.00  0.00     0.049 A 
ATOM     53  H   UNL A   1      41.468  29.296  29.650  1.00  0.00     0.167 HD
ATOM     54  C   UNL A   1      45.272  29.331  28.324  1.00  0.00     0.074 A 
ATOM     55  C   UNL A   1      45.479  29.831  26.980  1.00  0.00     0.031 C 
ATOM     56  C   UNL A   1      44.078  29.106  28.933  1.00  0.00     0.037 A 
BRANCH  43  57
ATOM     57  C   UNL A   1      38.581  28.424  28.760  1.00  0.00     0.057 A 
ATOM     58  C   UNL A   1      37.838  29.499  28.212  1.00  0.00     0.134 A 
ATOM     59  C   UNL A   1      38.375  28.172  30.117  1.00  0.00     0.134 A 
ATOM     60  F   UNL A   1      37.908  29.795  26.903  1.00  0.00    -0.206 F 
ATOM     61  C   UNL A   1      37.077  30.365  28.998  1.00  0.00     0.040 A 
ATOM     62  C   UNL A   1      37.572  29.007  30.907  1.00  0.00     0.040 A 
ATOM     63  F   UNL A   1      39.014  27.178  30.749  1.00  0.00    -0.206 F 
ATOM     64  C   UNL A   1      36.962  30.134  30.360  1.00  0.00     0.006 A 
ENDBRANCH  43  57
BRANCH  44  65
ATOM     65  C   UNL A   1      48.972  27.263  26.702  1.00  0.00     0.057 A 
ATOM     66  C   UNL A   1      49.475  27.223  25.401  1.00  0.00     0.134 A 
ATOM     67  C   UNL A   1      49.936  27.697  27.665  1.00  0.00     0.134 A 
ATOM     68  F   UNL A   1      48.752  26.716  24.396  1.00  0.00    -0.206 F 
ATOM     69  C   UNL A   1      50.771  27.695  25.076  1.00  0.00     0.040 A 
ATOM     70  C   UNL A   1      51.194  28.221  27.353  1.00  0.00     0.040 A 
ATOM     71  F   UNL A   1      49.701  27.639  28.983  1.00  0.00    -0.206 F 
ATOM     72  C   UNL A   1      51.613  28.241  26.042  1.00  0.00     0.006 A 
ENDBRANCH  44  65
BRANCH  56  73
ATOM     73  C   UNL A   1      44.163  28.350  30.251  1.00  0.00     0.057 A 
ATOM     74  C   UNL A   1      44.883  28.896  31.323  1.00  0.00     0.134 A 
ATOM     75  C   UNL A   1      43.666  27.055  30.471  1.00  0.00     0.134 A 
ATOM     76  F   UNL A   1      45.376  30.140  31.236  1.00  0.00    -0.206 F 
ATOM     77  C   UNL A   1      45.121  28.189  32.512  1.00  0.00     0.040 A 
ATOM     78  C   UNL A   1      43.894  26.330  31.651  1.00  0.00     0.040 A 
ATOM     79  F   UNL A   1      42.933  26.438  29.548  1.00  0.00    -0.206 F 
ATOM     80  C   UNL A   1      44.634  26.897  32.677  1.00  0.00     0.006 A 
ENDBRANCH  56  73
ENDBRANCH  30  31
ENDBRANCH  23  25
ENDBRANCH  22  23
ENDBRANCH  21  22
ENDBRANCH   1  21
TORSDOF 13
ENDMDL
MODEL 2
REMARK VINA RESULT:     -11.5      3.358      7.136
REMARK SMILES O=C(Cc1cccn1-c1ccc2c(c1)OCCO2)OCCOC(=O)c1ccc(-c2c3nc(c(-c4c(F)cccc4F)c4ccc([nH]4)c(-c4c(F)cccc4F)c4nc(c(-c5c(F)cccc5F)c5ccc2[nH]5)C=C4)C=C3)cc1
REMARK SMILES IDX 20 1 19 2 2 3 1 4 3 5 4 6 5 7 8 8 6 9 7 10 9 11 10 12 14 13
REMARK SMILES IDX 11 14 13 15 12 16 15 17 18 18 16 19 17 20 21 21 22 22 23 23
REMARK SMILES IDX 24 24 25 25 26 26 78 27 27 28 77 29 28 30 29 31 30 32 71 33
REMARK SMILES IDX 31 34 76 35 70 36 72 37 32 38 75 39 69 40 68 41 33 43 59 44
REMARK SMILES IDX 42 45 58 46 43 47 46 48 57 49 73 50 44 51 45 52 56 54 74 55
REMARK SMILES IDX 47 56 34 57 35 58 40 59 36 60 37 61 39 62 41 63 38 64 60 65
REMARK SMILES IDX 61 66 66 67 62 68 63 69 65 70 67 71 64 72 48 73 49 74 54 75
REMARK SMILES IDX 50 76 51 77 53 78 55 79 52 80
REMARK H PARENT 72 42 46 53
REMARK Flexibility Score: inf
ROOT
ATOM      1  C   UNL A   1      34.241  28.640  26.435  1.00  0.00     0.274 C 
ENDROOT
BRANCH   1   2
ATOM      2  O   UNL A   1      33.225  27.654  26.687  1.00  0.00    -0.462 OA
BRANCH   2   3
ATOM      3  C   UNL A   1      31.931  27.757  26.288  1.00  0.00     0.311 C 
ATOM      4  O   UNL A   1      31.510  28.836  25.870  1.00  0.00    -0.252 OA
BRANCH   3   5
ATOM      5  C   UNL A   1      30.998  26.561  26.435  1.00  0.00     0.177 C 
BRANCH   5   6
ATOM      6  C   UNL A   1      31.155  25.568  25.324  1.00  0.00     0.034 A 
ATOM      7  C   UNL A   1      31.853  24.370  25.372  1.00  0.00     0.024 A 
ATOM      8  N   UNL A   1      30.560  25.656  24.068  1.00  0.00    -0.320 N 
ATOM      9  C   UNL A   1      31.628  23.685  24.162  1.00  0.00     0.020 A 
ATOM     10  C   UNL A   1      30.796  24.472  23.402  1.00  0.00     0.091 A 
BRANCH   8  11
ATOM     11  C   UNL A   1      29.738  26.689  23.554  1.00  0.00     0.049 A 
ATOM     12  C   UNL A   1      28.384  26.701  23.924  1.00  0.00     0.031 A 
ATOM     13  C   UNL A   1      30.276  27.732  22.788  1.00  0.00     0.077 A 
ATOM     14  C   UNL A   1      27.588  27.798  23.591  1.00  0.00     0.052 A 
ATOM     15  C   UNL A   1      29.458  28.810  22.429  1.00  0.00     0.163 A 
ATOM     16  C   UNL A   1      28.122  28.847  22.843  1.00  0.00     0.161 A 
ATOM     17  O   UNL A   1      30.039  29.809  21.689  1.00  0.00    -0.486 OA
ATOM     18  O   UNL A   1      27.281  29.899  22.589  1.00  0.00    -0.486 OA
ATOM     19  C   UNL A   1      29.259  31.011  21.704  1.00  0.00     0.271 C 
ATOM     20  C   UNL A   1      27.775  30.726  21.533  1.00  0.00     0.271 C 
ENDBRANCH   8  11
ENDBRANCH   5   6
ENDBRANCH   3   5
ENDBRANCH   2   3
ENDBRANCH   1   2
BRANCH   1  21
ATOM     21  C   UNL A   1      34.805  29.321  27.677  1.00  0.00     0.275 C 
BRANCH  21  22
ATOM     22  O   UNL A   1      35.881  30.206  27.376  1.00  0.00    -0.458 OA
BRANCH  22  23
ATOM     23  C   UNL A   1      36.777  30.321  28.384  1.00  0.00     0.338 C 
ATOM     24  O   UNL A   1      36.778  31.145  29.272  1.00  0.00    -0.246 OA
BRANCH  23  25
ATOM     25  C   UNL A   1      37.867  29.358  28.195  1.00  0.00     0.060 A 
ATOM     26  C   UNL A   1      38.165  28.563  29.305  1.00  0.00     0.016 A 
ATOM     27  C   UNL A   1      38.710  29.423  27.077  1.00  0.00     0.016 A 
ATOM     28  C   UNL A   1      39.407  27.981  29.383  1.00  0.00     0.010 A 
ATOM     29  C   UNL A   1      39.966  28.860  27.165  1.00  0.00     0.010 A 
ATOM     30  C   UNL A   1      40.317  28.192  28.342  1.00  0.00    -0.014 A 
BRANCH  30  31
ATOM     31  C   UNL A   1      41.626  27.550  28.480  1.00  0.00     0.031 A 
ATOM     32  C   UNL A   1      41.490  26.051  28.128  1.00  0.00     0.074 A 
ATOM     33  C   UNL A   1      42.614  28.365  28.977  1.00  0.00     0.049 A 
ATOM     34  N   UNL A   1      42.161  25.033  28.560  1.00  0.00    -0.248 NA
ATOM     35  C   UNL A   1      40.397  25.598  27.211  1.00  0.00     0.031 C 
ATOM     36  C   UNL A   1      42.494  29.833  29.195  1.00  0.00     0.029 A 
ATOM     37  N   UNL A   1      43.904  28.155  29.418  1.00  0.00    -0.354 N 
ATOM     38  C   UNL A   1      41.758  23.899  27.816  1.00  0.00     0.074 A 
ATOM     39  C   UNL A   1      40.586  24.282  27.099  1.00  0.00     0.031 C 
ATOM     40  C   UNL A   1      43.592  30.335  29.809  1.00  0.00     0.029 A 
ATOM     41  C   UNL A   1      44.545  29.270  30.043  1.00  0.00     0.049 A 
ATOM     42  H   UNL A   1      44.356  27.287  29.310  1.00  0.00     0.167 HD
ATOM     43  C   UNL A   1      42.523  22.770  27.735  1.00  0.00     0.037 A 
ATOM     44  C   UNL A   1      45.731  29.298  30.740  1.00  0.00     0.037 A 
ATOM     45  C   UNL A   1      43.656  22.913  28.584  1.00  0.00     0.049 A 
ATOM     46  C   UNL A   1      46.284  27.957  30.535  1.00  0.00     0.074 A 
ATOM     47  C   UNL A   1      43.761  22.918  29.949  1.00  0.00     0.029 A 
ATOM     48  N   UNL A   1      44.760  23.518  28.031  1.00  0.00    -0.354 N 
ATOM     49  N   UNL A   1      46.792  27.538  29.416  1.00  0.00    -0.248 NA
ATOM     50  C   UNL A   1      46.148  26.971  31.612  1.00  0.00     0.031 C 
ATOM     51  C   UNL A   1      44.644  23.990  30.179  1.00  0.00     0.029 A 
ATOM     52  C   UNL A   1      45.274  24.358  28.983  1.00  0.00     0.049 A 
ATOM     53  H   UNL A   1      45.112  23.375  27.123  1.00  0.00     0.167 HD
ATOM     54  C   UNL A   1      46.686  26.178  29.552  1.00  0.00     0.074 A 
ATOM     55  C   UNL A   1      46.622  25.905  30.973  1.00  0.00     0.031 C 
ATOM     56  C   UNL A   1      46.112  25.450  28.558  1.00  0.00     0.037 A 
BRANCH  43  57
ATOM     57  C   UNL A   1      42.533  21.608  26.785  1.00  0.00     0.057 A 
ATOM     58  C   UNL A   1      41.868  20.423  27.184  1.00  0.00     0.134 A 
ATOM     59  C   UNL A   1      43.449  21.470  25.741  1.00  0.00     0.134 A 
ATOM     60  F   UNL A   1      40.920  20.447  28.137  1.00  0.00    -0.206 F 
ATOM     61  C   UNL A   1      42.215  19.164  26.694  1.00  0.00     0.040 A 
ATOM     62  C   UNL A   1      43.769  20.214  25.206  1.00  0.00     0.040 A 
ATOM     63  F   UNL A   1      44.136  22.519  25.269  1.00  0.00    -0.206 F 
ATOM     64  C   UNL A   1      43.190  19.054  25.716  1.00  0.00     0.006 A 
ENDBRANCH  43  57
BRANCH  44  65
ATOM     65  C   UNL A   1      46.541  30.193  31.662  1.00  0.00     0.057 A 
ATOM     66  C   UNL A   1      47.712  30.883  31.346  1.00  0.00     0.134 A 
ATOM     67  C   UNL A   1      46.066  30.469  32.983  1.00  0.00     0.134 A 
ATOM     68  F   UNL A   1      48.367  30.645  30.204  1.00  0.00    -0.206 F 
ATOM     69  C   UNL A   1      48.277  31.852  32.211  1.00  0.00     0.040 A 
ATOM     70  C   UNL A   1      46.576  31.464  33.823  1.00  0.00     0.040 A 
ATOM     71  F   UNL A   1      45.059  29.778  33.536  1.00  0.00    -0.206 F 
ATOM     72  C   UNL A   1      47.683  32.181  33.427  1.00  0.00     0.006 A 
ENDBRANCH  44  65
BRANCH  56  73
ATOM     73  C   UNL A   1      46.137  26.107  27.185  1.00  0.00     0.057 A 
ATOM     74  C   UNL A   1      47.363  26.447  26.597  1.00  0.00     0.134 A 
ATOM     75  C   UNL A   1      45.002  26.526  26.473  1.00  0.00     0.134 A 
ATOM     76  F   UNL A   1      48.513  26.069  27.174  1.00  0.00    -0.206 F 
ATOM     77  C   UNL A   1      47.450  27.183  25.404  1.00  0.00     0.040 A 
ATOM     78  C   UNL A   1      45.068  27.263  25.280  1.00  0.00     0.040 A 
ATOM     79  F   UNL A   1      43.777  26.235  26.903  1.00  0.00    -0.206 F 
ATOM     80  C   UNL A   1      46.301  27.603  24.744  1.00  0.00     0.006 A 
ENDBRANCH  56  73
ENDBRANCH  30  31
ENDBRANCH  23  25
ENDBRANCH  22  23
ENDBRANCH  21  22
ENDBRANCH   1  21
TORSDOF 13
ENDMDL
MODEL 3
REMARK VINA RESULT:     -11.5      4.271      8.946
REMARK SMILES O=C(Cc1cccn1-c1ccc2c(c1)OCCO2)OCCOC(=O)c1ccc(-c2c3nc(c(-c4c(F)cccc4F)c4ccc([nH]4)c(-c4c(F)cccc4F)c4nc(c(-c5c(F)cccc5F)c5ccc2[nH]5)C=C4)C=C3)cc1
REMARK SMILES IDX 20 1 19 2 2 3 1 4 3 5 4 6 5 7 8 8 6 9 7 10 9 11 10 12 14 13
REMARK SMILES IDX 11 14 13 15 12 16 15 17 18 18 16 19 17 20 21 21 22 22 23 23
REMARK SMILES IDX 24 24 25 25 26 26 78 27 27 28 77 29 28 30 29 31 30 32 71 33
REMARK SMILES IDX 31 34 76 35 70 36 72 37 32 38 75 39 69 40 68 41 33 43 59 44
REMARK SMILES IDX 42 45 58 46 43 47 46 48 57 49 73 50 44 51 45 52 56 54 74 55
REMARK SMILES IDX 47 56 34 57 35 58 40 59 36 60 37 61 39 62 41 63 38 64 60 65
REMARK SMILES IDX 61 66 66 67 62 68 63 69 65 70 67 71 64 72 48 73 49 74 54 75
REMARK SMILES IDX 50 76 51 77 53 78 55 79 52 80
REMARK H PARENT 72 42 46 53
REMARK Flexibility Score: inf
ROOT
ATOM      1  C   UNL A   1      33.668  30.923  27.476  1.00  0.00     0.274 C 
ENDROOT
BRANCH   1   2
ATOM      2  O   UNL A   1      33.902  32.007  28.391  1.00  0.00    -0.462 OA
BRANCH   2   3
ATOM      3  C   UNL A   1      33.497  33.288  28.194  1.00  0.00     0.311 C 
ATOM      4  O   UNL A   1      32.483  33.508  27.530  1.00  0.00    -0.252 OA
BRANCH   3   5
ATOM      5  C   UNL A   1      34.341  34.438  28.731  1.00  0.00     0.177 C 
BRANCH   5   6
ATOM      6  C   UNL A   1      33.918  34.873  30.101  1.00  0.00     0.034 A 
ATOM      7  C   UNL A   1      32.846  35.694  30.418  1.00  0.00     0.024 A 
ATOM      8  N   UNL A   1      34.499  34.462  31.298  1.00  0.00    -0.320 N 
ATOM      9  C   UNL A   1      32.725  35.731  31.821  1.00  0.00     0.020 A 
ATOM     10  C   UNL A   1      33.719  34.932  32.333  1.00  0.00     0.091 A 
BRANCH   8  11
ATOM     11  C   UNL A   1      35.613  33.606  31.487  1.00  0.00     0.049 A 
ATOM     12  C   UNL A   1      36.889  34.188  31.547  1.00  0.00     0.031 A 
ATOM     13  C   UNL A   1      35.444  32.234  31.715  1.00  0.00     0.077 A 
ATOM     14  C   UNL A   1      37.986  33.406  31.915  1.00  0.00     0.052 A 
ATOM     15  C   UNL A   1      36.557  31.454  32.047  1.00  0.00     0.163 A 
ATOM     16  C   UNL A   1      37.821  32.044  32.159  1.00  0.00     0.161 A 
ATOM     17  O   UNL A   1      36.334  30.119  32.272  1.00  0.00    -0.486 OA
ATOM     18  O   UNL A   1      38.943  31.359  32.547  1.00  0.00    -0.486 OA
ATOM     19  C   UNL A   1      37.425  29.500  32.964  1.00  0.00     0.271 C 
ATOM     20  C   UNL A   1      38.771  29.946  32.413  1.00  0.00     0.271 C 
ENDBRANCH   8  11
ENDBRANCH   5   6
ENDBRANCH   3   5
ENDBRANCH   2   3
ENDBRANCH   1   2
BRANCH   1  21
ATOM     21  C   UNL A   1      34.877  30.036  27.199  1.00  0.00     0.275 C 
BRANCH  21  22
ATOM     22  O   UNL A   1      35.616  29.732  28.379  1.00  0.00    -0.458 OA
BRANCH  22  23
ATOM     23  C   UNL A   1      36.813  30.362  28.437  1.00  0.00     0.338 C 
ATOM     24  O   UNL A   1      37.009  31.552  28.541  1.00  0.00    -0.246 OA
BRANCH  23  25
ATOM     25  C   UNL A   1      37.897  29.395  28.228  1.00  0.00     0.060 A 
ATOM     26  C   UNL A   1      38.190  28.577  29.321  1.00  0.00     0.016 A 
ATOM     27  C   UNL A   1      38.739  29.478  27.110  1.00  0.00     0.016 A 
ATOM     28  C   UNL A   1      39.428  27.985  29.387  1.00  0.00     0.010 A 
ATOM     29  C   UNL A   1      39.992  28.904  27.187  1.00  0.00     0.010 A 
ATOM     30  C   UNL A   1      40.340  28.211  28.349  1.00  0.00    -0.014 A 
BRANCH  30  31
ATOM     31  C   UNL A   1      41.644  27.559  28.473  1.00  0.00     0.031 A 
ATOM     32  C   UNL A   1      41.491  26.060  28.127  1.00  0.00     0.074 A 
ATOM     33  C   UNL A   1      42.645  28.366  28.957  1.00  0.00     0.049 A 
ATOM     34  N   UNL A   1      42.158  25.037  28.555  1.00  0.00    -0.248 NA
ATOM     35  C   UNL A   1      40.383  25.614  27.225  1.00  0.00     0.031 C 
ATOM     36  C   UNL A   1      42.540  29.836  29.172  1.00  0.00     0.029 A 
ATOM     37  N   UNL A   1      43.938  28.146  29.384  1.00  0.00    -0.354 N 
ATOM     38  C   UNL A   1      41.737  23.905  27.818  1.00  0.00     0.074 A 
ATOM     39  C   UNL A   1      40.559  24.296  27.114  1.00  0.00     0.031 C 
ATOM     40  C   UNL A   1      43.650  30.330  29.772  1.00  0.00     0.029 A 
ATOM     41  C   UNL A   1      44.597  29.257  29.998  1.00  0.00     0.049 A 
ATOM     42  H   UNL A   1      44.381  27.274  29.272  1.00  0.00     0.167 HD
ATOM     43  C   UNL A   1      42.491  22.769  27.731  1.00  0.00     0.037 A 
ATOM     44  C   UNL A   1      45.791  29.276  30.680  1.00  0.00     0.037 A 
ATOM     45  C   UNL A   1      43.634  22.903  28.566  1.00  0.00     0.049 A 
ATOM     46  C   UNL A   1      46.330  27.930  30.472  1.00  0.00     0.074 A 
ATOM     47  C   UNL A   1      43.756  22.912  29.930  1.00  0.00     0.029 A 
ATOM     48  N   UNL A   1      44.737  23.498  27.998  1.00  0.00    -0.354 N 
ATOM     49  N   UNL A   1      46.821  27.504  29.348  1.00  0.00    -0.248 NA
ATOM     50  C   UNL A   1      46.197  26.948  31.553  1.00  0.00     0.031 C 
ATOM     51  C   UNL A   1      44.651  23.976  30.146  1.00  0.00     0.029 A 
ATOM     52  C   UNL A   1      45.270  24.336  28.942  1.00  0.00     0.049 A 
ATOM     53  H   UNL A   1      45.077  23.350  27.087  1.00  0.00     0.167 HD
ATOM     54  C   UNL A   1      46.704  26.145  29.489  1.00  0.00     0.074 A 
ATOM     55  C   UNL A   1      46.655  25.876  30.912  1.00  0.00     0.031 C 
ATOM     56  C   UNL A   1      46.112  25.419  28.504  1.00  0.00     0.037 A 
BRANCH  43  57
ATOM     57  C   UNL A   1      42.479  21.605  26.784  1.00  0.00     0.057 A 
ATOM     58  C   UNL A   1      41.788  20.434  27.184  1.00  0.00     0.134 A 
ATOM     59  C   UNL A   1      43.395  21.444  25.743  1.00  0.00     0.134 A 
ATOM     60  F   UNL A   1      40.839  20.480  28.134  1.00  0.00    -0.206 F 
ATOM     61  C   UNL A   1      42.111  19.167  26.698  1.00  0.00     0.040 A 
ATOM     62  C   UNL A   1      43.691  20.180  25.212  1.00  0.00     0.040 A 
ATOM     63  F   UNL A   1      44.105  22.477  25.270  1.00  0.00    -0.206 F 
ATOM     64  C   UNL A   1      43.086  19.034  25.723  1.00  0.00     0.006 A 
ENDBRANCH  43  57
BRANCH  44  65
ATOM     65  C   UNL A   1      46.620  30.166  31.591  1.00  0.00     0.057 A 
ATOM     66  C   UNL A   1      46.307  30.553  32.894  1.00  0.00     0.134 A 
ATOM     67  C   UNL A   1      47.905  30.623  31.162  1.00  0.00     0.134 A 
ATOM     68  F   UNL A   1      45.094  30.326  33.410  1.00  0.00    -0.206 F 
ATOM     69  C   UNL A   1      47.239  31.215  33.731  1.00  0.00     0.040 A 
ATOM     70  C   UNL A   1      48.857  31.222  31.992  1.00  0.00     0.040 A 
ATOM     71  F   UNL A   1      48.315  30.504  29.891  1.00  0.00    -0.206 F 
ATOM     72  C   UNL A   1      48.532  31.505  33.300  1.00  0.00     0.006 A 
ENDBRANCH  44  65
BRANCH  56  73
ATOM     73  C   UNL A   1      46.127  26.073  27.129  1.00  0.00     0.057 A 
ATOM     74  C   UNL A   1      47.348  26.384  26.518  1.00  0.00     0.134 A 
ATOM     75  C   UNL A   1      44.988  26.515  26.436  1.00  0.00     0.134 A 
ATOM     76  F   UNL A   1      48.501  25.983  27.075  1.00  0.00    -0.206 F 
ATOM     77  C   UNL A   1      47.430  27.115  25.322  1.00  0.00     0.040 A 
ATOM     78  C   UNL A   1      45.048  27.248  25.241  1.00  0.00     0.040 A 
ATOM     79  F   UNL A   1      43.766  26.251  26.889  1.00  0.00    -0.206 F 
ATOM     80  C   UNL A   1      46.279  27.559  24.682  1.00  0.00     0.006 A 
ENDBRANCH  56  73
ENDBRANCH  30  31
ENDBRANCH  23  25
ENDBRANCH  22  23
ENDBRANCH  21  22
ENDBRANCH   1  21
TORSDOF 13
ENDMDL
