MODEL 1
REMARK VINA RESULT:     -11.7      0.000      0.000
REMARK SMILES CCc1ccc([C@H](C)[N@@H+]2[C@@H](C(=O)OCCOC(=O)c3ccc(-c4c5nc(c(-c6c(F)cccc6F)c6ccc([nH]6)c(-c6c(F)cccc6F)c6nc(c(-c7c(F)cccc7F)c7ccc4[nH]7)C=C6)C=C5)cc3)C[C@H]3CCCC[C@H]32)s1
REMARK SMILES IDX 14 1 13 2 11 3 12 4 10 5 9 6 79 7 73 9 74 10 78 11 75 12
REMARK SMILES IDX 77 13 76 14 7 15 8 16 6 17 3 18 4 19 80 20 5 21 2 22 1 23
REMARK SMILES IDX 15 24 16 25 17 26 18 27 19 28 20 29 72 30 21 31 71 32 22 33
REMARK SMILES IDX 23 34 24 35 65 36 25 37 70 38 64 39 66 40 26 41 69 42 63 43
REMARK SMILES IDX 62 44 27 46 53 47 36 48 52 49 37 50 40 51 51 52 67 53 38 54
REMARK SMILES IDX 39 55 50 57 68 58 41 59 28 60 29 61 34 62 30 63 31 64 33 65
REMARK SMILES IDX 35 66 32 67 54 68 55 69 60 70 56 71 57 72 59 73 61 74 58 75
REMARK SMILES IDX 42 76 43 77 48 78 44 79 45 80 47 81 49 82 46 83
REMARK H PARENT 9 8 66 45 40 56
REMARK Flexibility Score: inf
ROOT
ATOM      1  C   UNL A   1      31.783  30.022  25.698  1.00  0.00     0.274 C 
ENDROOT
BRANCH   1   2
ATOM      2  O   UNL A   1      31.865  29.120  26.824  1.00  0.00    -0.458 OA
BRANCH   2   3
ATOM      3  C   UNL A   1      31.740  27.792  26.528  1.00  0.00     0.365 C 
ATOM      4  O   UNL A   1      31.124  26.995  27.225  1.00  0.00    -0.245 OA
BRANCH   3   5
ATOM      5  C   UNL A   1      32.561  27.425  25.272  1.00  0.00     0.296 C 
ATOM      6  N   UNL A   1      31.841  26.430  24.416  1.00  0.00    -0.314 N 
ATOM      7  C   UNL A   1      32.565  25.148  24.516  1.00  0.00     0.188 C 
ATOM      8  H   UNL A   1      30.892  26.266  24.752  1.00  0.00     0.349 HD
ATOM      9  C   UNL A   1      33.877  26.769  25.709  1.00  0.00     0.087 C 
ATOM     10  C   UNL A   1      34.009  25.532  24.832  1.00  0.00     0.054 C 
ATOM     11  C   UNL A   1      31.904  24.266  25.593  1.00  0.00     0.065 C 
ATOM     12  C   UNL A   1      34.848  24.404  25.430  1.00  0.00     0.010 C 
ATOM     13  C   UNL A   1      32.789  23.123  26.069  1.00  0.00     0.006 C 
ATOM     14  C   UNL A   1      34.141  23.639  26.542  1.00  0.00     0.001 C 
BRANCH   6  15
ATOM     15  C   UNL A   1      31.573  26.938  23.047  1.00  0.00     0.223 C 
ATOM     16  C   UNL A   1      31.726  25.927  21.902  1.00  0.00     0.082 C 
BRANCH  15  17
ATOM     17  C   UNL A   1      30.263  27.724  22.952  1.00  0.00     0.062 A 
ATOM     18  C   UNL A   1      28.491  29.446  22.611  1.00  0.00     0.005 A 
ATOM     19  C   UNL A   1      27.996  28.285  23.167  1.00  0.00     0.016 A 
ATOM     20  S   UNL A   1      30.172  29.316  22.313  1.00  0.00    -0.139 S 
ATOM     21  C   UNL A   1      29.016  27.317  23.397  1.00  0.00     0.022 A 
BRANCH  18  22
ATOM     22  C   UNL A   1      27.760  30.707  22.241  1.00  0.00     0.043 C 
ATOM     23  C   UNL A   1      27.652  31.688  23.401  1.00  0.00     0.010 C 
ENDBRANCH  18  22
ENDBRANCH  15  17
ENDBRANCH   6  15
ENDBRANCH   3   5
ENDBRANCH   2   3
ENDBRANCH   1   2
BRANCH   1  24
ATOM     24  C   UNL A   1      31.541  31.472  26.118  1.00  0.00     0.275 C 
BRANCH  24  25
ATOM     25  O   UNL A   1      32.047  31.719  27.441  1.00  0.00    -0.458 OA
BRANCH  25  26
ATOM     26  C   UNL A   1      32.862  32.792  27.547  1.00  0.00     0.338 C 
ATOM     27  O   UNL A   1      32.558  33.969  27.447  1.00  0.00    -0.246 OA
BRANCH  26  28
ATOM     28  C   UNL A   1      34.195  32.363  27.988  1.00  0.00     0.060 A 
ATOM     29  C   UNL A   1      34.313  31.029  28.357  1.00  0.00     0.016 A 
ATOM     30  C   UNL A   1      35.259  33.242  28.181  1.00  0.00     0.016 A 
ATOM     31  C   UNL A   1      35.463  30.563  28.975  1.00  0.00     0.010 A 
ATOM     32  C   UNL A   1      36.437  32.767  28.781  1.00  0.00     0.010 A 
ATOM     33  C   UNL A   1      36.532  31.428  29.204  1.00  0.00    -0.014 A 
BRANCH  33  34
ATOM     34  C   UNL A   1      37.684  30.911  29.975  1.00  0.00     0.031 A 
ATOM     35  C   UNL A   1      38.694  30.031  29.300  1.00  0.00     0.074 A 
ATOM     36  C   UNL A   1      37.902  31.343  31.232  1.00  0.00     0.049 A 
ATOM     37  N   UNL A   1      39.769  29.473  29.795  1.00  0.00    -0.248 NA
ATOM     38  C   UNL A   1      38.478  29.762  27.869  1.00  0.00     0.031 C 
ATOM     39  C   UNL A   1      37.069  32.307  31.950  1.00  0.00     0.029 A 
ATOM     40  N   UNL A   1      38.905  31.041  32.117  1.00  0.00    -0.354 N 
ATOM     41  C   UNL A   1      40.356  28.786  28.742  1.00  0.00     0.074 A 
ATOM     42  C   UNL A   1      39.515  28.989  27.581  1.00  0.00     0.031 C 
ATOM     43  C   UNL A   1      37.597  32.517  33.167  1.00  0.00     0.029 A 
ATOM     44  C   UNL A   1      38.773  31.668  33.331  1.00  0.00     0.049 A 
ATOM     45  H   UNL A   1      39.649  30.432  31.901  1.00  0.00     0.167 HD
ATOM     46  C   UNL A   1      41.492  28.050  28.745  1.00  0.00     0.037 A 
ATOM     47  C   UNL A   1      39.502  31.543  34.456  1.00  0.00     0.037 A 
ATOM     48  C   UNL A   1      42.324  27.840  29.898  1.00  0.00     0.049 A 
ATOM     49  C   UNL A   1      40.678  30.605  34.471  1.00  0.00     0.074 A 
ATOM     50  C   UNL A   1      43.466  27.066  30.010  1.00  0.00     0.029 A 
ATOM     51  N   UNL A   1      42.100  28.408  31.141  1.00  0.00    -0.354 N 
ATOM     52  N   UNL A   1      41.197  29.913  33.486  1.00  0.00    -0.248 NA
ATOM     53  C   UNL A   1      41.361  30.419  35.760  1.00  0.00     0.031 C 
ATOM     54  C   UNL A   1      43.914  27.139  31.334  1.00  0.00     0.029 A 
ATOM     55  C   UNL A   1      43.068  27.985  32.036  1.00  0.00     0.049 A 
ATOM     56  H   UNL A   1      41.361  29.023  31.358  1.00  0.00     0.167 HD
ATOM     57  C   UNL A   1      42.275  29.228  34.028  1.00  0.00     0.074 A 
ATOM     58  C   UNL A   1      42.345  29.595  35.427  1.00  0.00     0.031 C 
ATOM     59  C   UNL A   1      43.130  28.368  33.421  1.00  0.00     0.037 A 
BRANCH  46  60
ATOM     60  C   UNL A   1      41.868  27.379  27.461  1.00  0.00     0.057 A 
ATOM     61  C   UNL A   1      42.647  28.025  26.494  1.00  0.00     0.134 A 
ATOM     62  C   UNL A   1      41.447  26.071  27.193  1.00  0.00     0.134 A 
ATOM     63  F   UNL A   1      43.072  29.280  26.693  1.00  0.00    -0.206 F 
ATOM     64  C   UNL A   1      42.978  27.398  25.293  1.00  0.00     0.040 A 
ATOM     65  C   UNL A   1      41.786  25.429  26.002  1.00  0.00     0.040 A 
ATOM     66  F   UNL A   1      40.699  25.401  28.083  1.00  0.00    -0.206 F 
ATOM     67  C   UNL A   1      42.549  26.095  25.045  1.00  0.00     0.006 A 
ENDBRANCH  46  60
BRANCH  47  68
ATOM     68  C   UNL A   1      39.109  32.279  35.683  1.00  0.00     0.057 A 
ATOM     69  C   UNL A   1      39.574  33.573  35.939  1.00  0.00     0.134 A 
ATOM     70  C   UNL A   1      38.285  31.687  36.649  1.00  0.00     0.134 A 
ATOM     71  F   UNL A   1      40.391  34.181  35.065  1.00  0.00    -0.206 F 
ATOM     72  C   UNL A   1      39.245  34.248  37.115  1.00  0.00     0.040 A 
ATOM     73  C   UNL A   1      37.928  32.359  37.818  1.00  0.00     0.040 A 
ATOM     74  F   UNL A   1      37.813  30.445  36.468  1.00  0.00    -0.206 F 
ATOM     75  C   UNL A   1      38.415  33.642  38.058  1.00  0.00     0.006 A 
ENDBRANCH  47  68
BRANCH  59  76
ATOM     76  C   UNL A   1      44.230  27.792  34.260  1.00  0.00     0.057 A 
ATOM     77  C   UNL A   1      44.088  26.561  34.913  1.00  0.00     0.134 A 
ATOM     78  C   UNL A   1      45.458  28.453  34.380  1.00  0.00     0.134 A 
ATOM     79  F   UNL A   1      42.931  25.886  34.847  1.00  0.00    -0.206 F 
ATOM     80  C   UNL A   1      45.127  26.015  35.669  1.00  0.00     0.040 A 
ATOM     81  C   UNL A   1      46.511  27.909  35.116  1.00  0.00     0.040 A 
ATOM     82  F   UNL A   1      45.658  29.633  33.772  1.00  0.00    -0.206 F 
ATOM     83  C   UNL A   1      46.345  26.687  35.767  1.00  0.00     0.006 A 
ENDBRANCH  59  76
ENDBRANCH  33  34
ENDBRANCH  26  28
ENDBRANCH  25  26
ENDBRANCH  24  25
ENDBRANCH   1  24
TORSDOF 14
ENDMDL
MODEL 2
REMARK VINA RESULT:     -11.6      0.185      1.611
REMARK SMILES CCc1ccc([C@H](C)[N@@H+]2[C@@H](C(=O)OCCOC(=O)c3ccc(-c4c5nc(c(-c6c(F)cccc6F)c6ccc([nH]6)c(-c6c(F)cccc6F)c6nc(c(-c7c(F)cccc7F)c7ccc4[nH]7)C=C6)C=C5)cc3)C[C@H]3CCCC[C@H]32)s1
REMARK SMILES IDX 14 1 13 2 11 3 12 4 10 5 9 6 79 7 73 9 74 10 78 11 75 12
REMARK SMILES IDX 77 13 76 14 7 15 8 16 6 17 3 18 4 19 80 20 5 21 2 22 1 23
REMARK SMILES IDX 15 24 16 25 17 26 18 27 19 28 20 29 72 30 21 31 71 32 22 33
REMARK SMILES IDX 23 34 24 35 65 36 25 37 70 38 64 39 66 40 26 41 69 42 63 43
REMARK SMILES IDX 62 44 27 46 53 47 36 48 52 49 37 50 40 51 51 52 67 53 38 54
REMARK SMILES IDX 39 55 50 57 68 58 41 59 28 60 29 61 34 62 30 63 31 64 33 65
REMARK SMILES IDX 35 66 32 67 54 68 55 69 60 70 56 71 57 72 59 73 61 74 58 75
REMARK SMILES IDX 42 76 43 77 48 78 44 79 45 80 47 81 49 82 46 83
REMARK H PARENT 9 8 66 45 40 56
REMARK Flexibility Score: inf
ROOT
ATOM      1  C   UNL A   1      31.553  30.155  25.705  1.00  0.00     0.274 C 
ENDROOT
BRANCH   1   2
ATOM      2  O   UNL A   1      31.741  29.243  26.810  1.00  0.00    -0.458 OA
BRANCH   2   3
ATOM      3  C   UNL A   1      31.659  27.915  26.499  1.00  0.00     0.365 C 
ATOM      4  O   UNL A   1      31.060  27.092  27.182  1.00  0.00    -0.245 OA
BRANCH   3   5
ATOM      5  C   UNL A   1      32.504  27.585  25.250  1.00  0.00     0.296 C 
ATOM      6  N   UNL A   1      31.799  26.621  24.346  1.00  0.00    -0.314 N 
ATOM      7  C   UNL A   1      32.517  25.333  24.421  1.00  0.00     0.188 C 
ATOM      8  H   UNL A   1      30.843  26.450  24.658  1.00  0.00     0.349 HD
ATOM      9  C   UNL A   1      33.809  26.909  25.692  1.00  0.00     0.087 C 
ATOM     10  C   UNL A   1      33.955  25.700  24.779  1.00  0.00     0.054 C 
ATOM     11  C   UNL A   1      31.830  24.419  25.454  1.00  0.00     0.065 C 
ATOM     12  C   UNL A   1      34.777  24.551  25.357  1.00  0.00     0.010 C 
ATOM     13  C   UNL A   1      32.700  23.258  25.912  1.00  0.00     0.006 C 
ATOM     14  C   UNL A   1      34.044  23.753  26.428  1.00  0.00     0.001 C 
BRANCH   6  15
ATOM     15  C   UNL A   1      31.562  27.175  22.990  1.00  0.00     0.223 C 
ATOM     16  C   UNL A   1      31.749  26.204  21.815  1.00  0.00     0.082 C 
BRANCH  15  17
ATOM     17  C   UNL A   1      30.249  27.956  22.889  1.00  0.00     0.062 A 
ATOM     18  C   UNL A   1      28.471  29.667  22.526  1.00  0.00     0.005 A 
ATOM     19  C   UNL A   1      27.984  28.517  23.112  1.00  0.00     0.016 A 
ATOM     20  S   UNL A   1      30.150  29.534  22.217  1.00  0.00    -0.139 S 
ATOM     21  C   UNL A   1      29.007  27.557  23.354  1.00  0.00     0.022 A 
BRANCH  18  22
ATOM     22  C   UNL A   1      27.734  30.918  22.136  1.00  0.00     0.043 C 
ATOM     23  C   UNL A   1      28.367  32.180  22.709  1.00  0.00     0.010 C 
ENDBRANCH  18  22
ENDBRANCH  15  17
ENDBRANCH   6  15
ENDBRANCH   3   5
ENDBRANCH   2   3
ENDBRANCH   1   2
BRANCH   1  24
ATOM     24  C   UNL A   1      31.455  31.614  26.153  1.00  0.00     0.275 C 
BRANCH  24  25
ATOM     25  O   UNL A   1      32.047  31.798  27.450  1.00  0.00    -0.458 OA
BRANCH  25  26
ATOM     26  C   UNL A   1      32.868  32.866  27.555  1.00  0.00     0.338 C 
ATOM     27  O   UNL A   1      32.573  34.044  27.448  1.00  0.00    -0.246 OA
BRANCH  26  28
ATOM     28  C   UNL A   1      34.197  32.429  28.002  1.00  0.00     0.060 A 
ATOM     29  C   UNL A   1      34.317  31.084  28.331  1.00  0.00     0.016 A 
ATOM     30  C   UNL A   1      35.252  33.307  28.241  1.00  0.00     0.016 A 
ATOM     31  C   UNL A   1      35.459  30.605  28.951  1.00  0.00     0.010 A 
ATOM     32  C   UNL A   1      36.423  32.819  28.844  1.00  0.00     0.010 A 
ATOM     33  C   UNL A   1      36.519  31.468  29.224  1.00  0.00    -0.014 A 
BRANCH  33  34
ATOM     34  C   UNL A   1      37.662  30.932  29.997  1.00  0.00     0.031 A 
ATOM     35  C   UNL A   1      38.663  30.042  29.321  1.00  0.00     0.074 A 
ATOM     36  C   UNL A   1      37.882  31.355  31.256  1.00  0.00     0.049 A 
ATOM     37  N   UNL A   1      39.729  29.468  29.816  1.00  0.00    -0.248 NA
ATOM     38  C   UNL A   1      38.448  29.783  27.888  1.00  0.00     0.031 C 
ATOM     39  C   UNL A   1      37.059  32.326  31.977  1.00  0.00     0.029 A 
ATOM     40  N   UNL A   1      38.878  31.035  32.143  1.00  0.00    -0.354 N 
ATOM     41  C   UNL A   1      40.310  28.778  28.762  1.00  0.00     0.074 A 
ATOM     42  C   UNL A   1      39.476  28.998  27.599  1.00  0.00     0.031 C 
ATOM     43  C   UNL A   1      37.585  32.523  33.196  1.00  0.00     0.029 A 
ATOM     44  C   UNL A   1      38.751  31.658  33.360  1.00  0.00     0.049 A 
ATOM     45  H   UNL A   1      39.615  30.418  31.927  1.00  0.00     0.167 HD
ATOM     46  C   UNL A   1      41.437  28.028  28.764  1.00  0.00     0.037 A 
ATOM     47  C   UNL A   1      39.474  31.518  34.487  1.00  0.00     0.037 A 
ATOM     48  C   UNL A   1      42.262  27.801  29.919  1.00  0.00     0.049 A 
ATOM     49  C   UNL A   1      40.637  30.565  34.501  1.00  0.00     0.074 A 
ATOM     50  C   UNL A   1      43.394  27.012  30.031  1.00  0.00     0.029 A 
ATOM     51  N   UNL A   1      42.041  28.366  31.165  1.00  0.00    -0.354 N 
ATOM     52  N   UNL A   1      41.151  29.871  33.514  1.00  0.00    -0.248 NA
ATOM     53  C   UNL A   1      41.314  30.364  35.791  1.00  0.00     0.031 C 
ATOM     54  C   UNL A   1      43.838  27.073  31.357  1.00  0.00     0.029 A 
ATOM     55  C   UNL A   1      43.001  27.926  32.060  1.00  0.00     0.049 A 
ATOM     56  H   UNL A   1      41.310  28.989  31.382  1.00  0.00     0.167 HD
ATOM     57  C   UNL A   1      42.218  29.169  34.056  1.00  0.00     0.074 A 
ATOM     58  C   UNL A   1      42.288  29.528  35.457  1.00  0.00     0.031 C 
ATOM     59  C   UNL A   1      43.064  28.302  33.448  1.00  0.00     0.037 A 
BRANCH  46  60
ATOM     60  C   UNL A   1      41.808  27.358  27.479  1.00  0.00     0.057 A 
ATOM     61  C   UNL A   1      41.424  26.043  27.197  1.00  0.00     0.134 A 
ATOM     62  C   UNL A   1      42.556  28.041  26.512  1.00  0.00     0.134 A 
ATOM     63  F   UNL A   1      40.714  25.337  28.089  1.00  0.00    -0.206 F 
ATOM     64  C   UNL A   1      41.789  25.420  26.003  1.00  0.00     0.040 A 
ATOM     65  C   UNL A   1      42.912  27.434  25.308  1.00  0.00     0.040 A 
ATOM     66  F   UNL A   1      42.951  29.305  26.725  1.00  0.00    -0.206 F 
ATOM     67  C   UNL A   1      42.533  26.117  25.053  1.00  0.00     0.006 A 
ENDBRANCH  46  60
BRANCH  47  68
ATOM     68  C   UNL A   1      39.087  32.253  35.716  1.00  0.00     0.057 A 
ATOM     69  C   UNL A   1      38.248  31.680  36.677  1.00  0.00     0.134 A 
ATOM     70  C   UNL A   1      39.522  33.566  35.940  1.00  0.00     0.134 A 
ATOM     71  F   UNL A   1      37.775  30.436  36.504  1.00  0.00    -0.206 F 
ATOM     72  C   UNL A   1      37.844  32.388  37.810  1.00  0.00     0.040 A 
ATOM     73  C   UNL A   1      39.146  34.277  37.080  1.00  0.00     0.040 A 
ATOM     74  F   UNL A   1      40.321  34.176  35.053  1.00  0.00    -0.206 F 
ATOM     75  C   UNL A   1      38.298  33.690  38.016  1.00  0.00     0.006 A 
ENDBRANCH  47  68
BRANCH  59  76
ATOM     76  C   UNL A   1      44.154  27.707  34.287  1.00  0.00     0.057 A 
ATOM     77  C   UNL A   1      45.376  28.362  34.474  1.00  0.00     0.134 A 
ATOM     78  C   UNL A   1      43.961  26.488  34.948  1.00  0.00     0.134 A 
ATOM     79  F   UNL A   1      45.626  29.527  33.857  1.00  0.00    -0.206 F 
ATOM     80  C   UNL A   1      46.378  27.817  35.280  1.00  0.00     0.040 A 
ATOM     81  C   UNL A   1      44.946  25.942  35.772  1.00  0.00     0.040 A 
ATOM     82  F   UNL A   1      42.809  25.815  34.813  1.00  0.00    -0.206 F 
ATOM     83  C   UNL A   1      46.160  26.606  35.937  1.00  0.00     0.006 A 
ENDBRANCH  59  76
ENDBRANCH  33  34
ENDBRANCH  26  28
ENDBRANCH  25  26
ENDBRANCH  24  25
ENDBRANCH   1  24
TORSDOF 14
ENDMDL
MODEL 3
REMARK VINA RESULT:     -11.6      0.608      6.289
REMARK SMILES CCc1ccc([C@H](C)[N@@H+]2[C@@H](C(=O)OCCOC(=O)c3ccc(-c4c5nc(c(-c6c(F)cccc6F)c6ccc([nH]6)c(-c6c(F)cccc6F)c6nc(c(-c7c(F)cccc7F)c7ccc4[nH]7)C=C6)C=C5)cc3)C[C@H]3CCCC[C@H]32)s1
REMARK SMILES IDX 14 1 13 2 11 3 12 4 10 5 9 6 79 7 73 9 74 10 78 11 75 12
REMARK SMILES IDX 77 13 76 14 7 15 8 16 6 17 3 18 4 19 80 20 5 21 2 22 1 23
REMARK SMILES IDX 15 24 16 25 17 26 18 27 19 28 20 29 72 30 21 31 71 32 22 33
REMARK SMILES IDX 23 34 24 35 65 36 25 37 70 38 64 39 66 40 26 41 69 42 63 43
REMARK SMILES IDX 62 44 27 46 53 47 36 48 52 49 37 50 40 51 51 52 67 53 38 54
REMARK SMILES IDX 39 55 50 57 68 58 41 59 28 60 29 61 34 62 30 63 31 64 33 65
REMARK SMILES IDX 35 66 32 67 54 68 55 69 60 70 56 71 57 72 59 73 61 74 58 75
REMARK SMILES IDX 42 76 43 77 48 78 44 79 45 80 47 81 49 82 46 83
REMARK H PARENT 9 8 66 45 40 56
REMARK Flexibility Score: inf
ROOT
ATOM      1  C   UNL A   1      31.637  30.738  26.246  1.00  0.00     0.274 C 
ENDROOT
BRANCH   1   2
ATOM      2  O   UNL A   1      32.194  29.711  27.096  1.00  0.00    -0.458 OA
BRANCH   2   3
ATOM      3  C   UNL A   1      31.774  28.436  26.835  1.00  0.00     0.365 C 
ATOM      4  O   UNL A   1      31.029  27.801  27.571  1.00  0.00    -0.245 OA
BRANCH   3   5
ATOM      5  C   UNL A   1      32.447  27.882  25.560  1.00  0.00     0.296 C 
ATOM      6  N   UNL A   1      31.502  27.042  24.759  1.00  0.00    -0.314 N 
ATOM      7  C   UNL A   1      31.950  25.639  24.869  1.00  0.00     0.188 C 
ATOM      8  H   UNL A   1      30.555  27.084  25.136  1.00  0.00     0.349 HD
ATOM      9  C   UNL A   1      33.617  26.976  25.965  1.00  0.00     0.087 C 
ATOM     10  C   UNL A   1      33.454  25.721  25.120  1.00  0.00     0.054 C 
ATOM     11  C   UNL A   1      31.167  24.935  25.994  1.00  0.00     0.065 C 
ATOM     12  C   UNL A   1      34.067  24.457  25.718  1.00  0.00     0.010 C 
ATOM     13  C   UNL A   1      31.816  23.643  26.469  1.00  0.00     0.006 C 
ATOM     14  C   UNL A   1      33.264  23.877  26.876  1.00  0.00     0.001 C 
BRANCH   6  15
ATOM     15  C   UNL A   1      31.287  27.567  23.388  1.00  0.00     0.223 C 
ATOM     16  C   UNL A   1      31.426  26.556  22.241  1.00  0.00     0.082 C 
BRANCH  15  17
ATOM     17  C   UNL A   1      30.012  28.405  23.267  1.00  0.00     0.062 A 
ATOM     18  C   UNL A   1      28.316  30.230  23.143  1.00  0.00     0.005 A 
ATOM     19  C   UNL A   1      27.742  28.976  23.121  1.00  0.00     0.016 A 
ATOM     20  S   UNL A   1      30.023  30.123  23.226  1.00  0.00    -0.139 S 
ATOM     21  C   UNL A   1      28.710  27.936  23.232  1.00  0.00     0.022 A 
BRANCH  18  22
ATOM     22  C   UNL A   1      27.653  31.578  23.078  1.00  0.00     0.043 C 
ATOM     23  C   UNL A   1      28.608  32.688  22.659  1.00  0.00     0.010 C 
ENDBRANCH  18  22
ENDBRANCH  15  17
ENDBRANCH   6  15
ENDBRANCH   3   5
ENDBRANCH   2   3
ENDBRANCH   1   2
BRANCH   1  24
ATOM     24  C   UNL A   1      31.485  32.080  26.964  1.00  0.00     0.275 C 
BRANCH  24  25
ATOM     25  O   UNL A   1      32.627  32.922  26.734  1.00  0.00    -0.458 OA
BRANCH  25  26
ATOM     26  C   UNL A   1      33.124  33.520  27.839  1.00  0.00     0.338 C 
ATOM     27  O   UNL A   1      32.564  34.323  28.566  1.00  0.00    -0.246 OA
BRANCH  26  28
ATOM     28  C   UNL A   1      34.427  32.934  28.177  1.00  0.00     0.060 A 
ATOM     29  C   UNL A   1      34.404  31.619  28.628  1.00  0.00     0.016 A 
ATOM     30  C   UNL A   1      35.613  33.664  28.204  1.00  0.00     0.016 A 
ATOM     31  C   UNL A   1      35.540  31.033  29.163  1.00  0.00     0.010 A 
ATOM     32  C   UNL A   1      36.774  33.064  28.719  1.00  0.00     0.010 A 
ATOM     33  C   UNL A   1      36.733  31.751  29.224  1.00  0.00    -0.014 A 
BRANCH  33  34
ATOM     34  C   UNL A   1      37.881  31.122  29.915  1.00  0.00     0.031 A 
ATOM     35  C   UNL A   1      38.128  31.421  31.364  1.00  0.00     0.074 A 
ATOM     36  C   UNL A   1      38.612  30.181  29.289  1.00  0.00     0.049 A 
ATOM     37  N   UNL A   1      39.075  30.979  32.152  1.00  0.00    -0.248 NA
ATOM     38  C   UNL A   1      37.166  32.319  32.023  1.00  0.00     0.031 C 
ATOM     39  C   UNL A   1      38.383  29.702  27.926  1.00  0.00     0.029 A 
ATOM     40  N   UNL A   1      39.681  29.443  29.730  1.00  0.00    -0.354 N 
ATOM     41  C   UNL A   1      38.828  31.545  33.394  1.00  0.00     0.074 A 
ATOM     42  C   UNL A   1      37.645  32.369  33.258  1.00  0.00     0.031 C 
ATOM     43  C   UNL A   1      39.286  28.749  27.642  1.00  0.00     0.029 A 
ATOM     44  C   UNL A   1      40.184  28.587  28.782  1.00  0.00     0.049 A 
ATOM     45  H   UNL A   1      40.051  29.520  30.639  1.00  0.00     0.167 HD
ATOM     46  C   UNL A   1      39.525  31.392  34.544  1.00  0.00     0.037 A 
ATOM     47  C   UNL A   1      41.268  27.788  28.821  1.00  0.00     0.037 A 
ATOM     48  C   UNL A   1      40.704  30.581  34.681  1.00  0.00     0.049 A 
ATOM     49  C   UNL A   1      42.107  27.749  30.068  1.00  0.00     0.074 A 
ATOM     50  C   UNL A   1      41.509  30.408  35.793  1.00  0.00     0.029 A 
ATOM     51  N   UNL A   1      41.247  29.809  33.667  1.00  0.00    -0.354 N 
ATOM     52  N   UNL A   1      41.900  28.330  31.225  1.00  0.00    -0.248 NA
ATOM     53  C   UNL A   1      43.343  26.953  30.010  1.00  0.00     0.031 C 
ATOM     54  C   UNL A   1      42.561  29.554  35.440  1.00  0.00     0.029 A 
ATOM     55  C   UNL A   1      42.391  29.173  34.118  1.00  0.00     0.049 A 
ATOM     56  H   UNL A   1      40.874  29.724  32.759  1.00  0.00     0.167 HD
ATOM     57  C   UNL A   1      42.962  27.956  32.035  1.00  0.00     0.074 A 
ATOM     58  C   UNL A   1      43.809  27.089  31.244  1.00  0.00     0.031 C 
ATOM     59  C   UNL A   1      43.215  28.303  33.321  1.00  0.00     0.037 A 
BRANCH  46  60
ATOM     60  C   UNL A   1      39.048  32.165  35.734  1.00  0.00     0.057 A 
ATOM     61  C   UNL A   1      38.199  31.594  36.689  1.00  0.00     0.134 A 
ATOM     62  C   UNL A   1      39.446  33.493  35.926  1.00  0.00     0.134 A 
ATOM     63  F   UNL A   1      37.778  30.329  36.553  1.00  0.00    -0.206 F 
ATOM     64  C   UNL A   1      37.744  32.326  37.786  1.00  0.00     0.040 A 
ATOM     65  C   UNL A   1      39.012  34.230  37.027  1.00  0.00     0.040 A 
ATOM     66  F   UNL A   1      40.261  34.093  35.045  1.00  0.00    -0.206 F 
ATOM     67  C   UNL A   1      38.153  33.648  37.959  1.00  0.00     0.006 A 
ENDBRANCH  46  60
BRANCH  47  68
ATOM     68  C   UNL A   1      41.658  27.003  27.624  1.00  0.00     0.057 A 
ATOM     69  C   UNL A   1      41.279  25.666  27.472  1.00  0.00     0.134 A 
ATOM     70  C   UNL A   1      42.453  27.567  26.618  1.00  0.00     0.134 A 
ATOM     71  F   UNL A   1      40.542  25.062  28.417  1.00  0.00    -0.206 F 
ATOM     72  C   UNL A   1      41.686  24.912  26.371  1.00  0.00     0.040 A 
ATOM     73  C   UNL A   1      42.848  26.833  25.499  1.00  0.00     0.040 A 
ATOM     74  F   UNL A   1      42.858  28.843  26.708  1.00  0.00    -0.206 F 
ATOM     75  C   UNL A   1      42.470  25.498  25.376  1.00  0.00     0.006 A 
ENDBRANCH  47  68
BRANCH  59  76
ATOM     76  C   UNL A   1      44.439  27.720  33.959  1.00  0.00     0.057 A 
ATOM     77  C   UNL A   1      44.412  26.473  34.596  1.00  0.00     0.134 A 
ATOM     78  C   UNL A   1      45.666  28.392  33.898  1.00  0.00     0.134 A 
ATOM     79  F   UNL A   1      43.265  25.787  34.699  1.00  0.00    -0.206 F 
ATOM     80  C   UNL A   1      45.562  25.921  35.164  1.00  0.00     0.040 A 
ATOM     81  C   UNL A   1      46.827  27.842  34.443  1.00  0.00     0.040 A 
ATOM     82  F   UNL A   1      45.758  29.587  33.296  1.00  0.00    -0.206 F 
ATOM     83  C   UNL A   1      46.776  26.605  35.082  1.00  0.00     0.006 A 
ENDBRANCH  59  76
ENDBRANCH  33  34
ENDBRANCH  26  28
ENDBRANCH  25  26
ENDBRANCH  24  25
ENDBRANCH   1  24
TORSDOF 14
ENDMDL
