MODEL 1
REMARK VINA RESULT:     -10.9      0.000      0.000
REMARK SMILES CCCCCCNC(=O)Oc1cccc(-c2ccc([C@@H](C)C(=O)OCCOC(=O)c3ccc(-c4c5nc(c(-c6c(F)cccc6F)c6ccc([nH]6)c(-c6c(F)cccc6F)c6nc(c(-c7c(F)cccc7F)c7ccc4[nH]7)C=C6)C=C5)cc3)cc2F)c1
REMARK SMILES IDX 20 1 21 2 19 3 16 4 17 5 85 6 18 7 84 8 86 9 15 10 11 11
REMARK SMILES IDX 12 12 87 13 13 14 14 15 10 16 8 17 7 18 9 20 6 21 5 22 4 23
REMARK SMILES IDX 3 24 2 25 1 26 22 27 23 28 24 29 25 30 26 31 27 32 28 33
REMARK SMILES IDX 29 34 30 35 31 36 83 37 32 38 82 39 33 40 34 41 35 42 76 43
REMARK SMILES IDX 36 44 81 45 75 46 77 47 37 48 80 49 74 50 73 51 38 53 64 54
REMARK SMILES IDX 47 55 63 56 48 57 51 58 62 59 78 60 49 61 50 62 61 64 79 65
REMARK SMILES IDX 52 66 39 67 40 68 45 69 41 70 42 71 44 72 46 73 43 74 65 75
REMARK SMILES IDX 66 76 71 77 67 78 68 79 70 80 72 81 69 82 53 83 54 84 59 85
REMARK SMILES IDX 55 86 56 87 58 88 60 89 57 90
REMARK H PARENT 7 19 77 52 51 63
REMARK Flexibility Score: inf
ROOT
ATOM      1  C   UNL A   1      41.847  21.960  26.894  1.00  0.00     0.126 C 
ATOM      2  C   UNL A   1      42.055  21.811  28.399  1.00  0.00     0.025 C 
ENDROOT
BRANCH   1   3
ATOM      3  C   UNL A   1      40.413  22.309  26.529  1.00  0.00    -0.031 A 
ATOM      4  C   UNL A   1      37.716  22.910  25.831  1.00  0.00     0.018 A 
ATOM      5  C   UNL A   1      38.553  23.879  26.406  1.00  0.00     0.012 A 
ATOM      6  C   UNL A   1      38.258  21.636  25.623  1.00  0.00     0.131 A 
ATOM      7  C   UNL A   1      39.880  23.586  26.746  1.00  0.00     0.005 A 
ATOM      8  C   UNL A   1      39.579  21.336  25.958  1.00  0.00     0.044 A 
ATOM      9  F   UNL A   1      37.518  20.666  25.060  1.00  0.00    -0.206 F 
BRANCH   4  10
ATOM     10  C   UNL A   1      36.332  23.238  25.452  1.00  0.00    -0.012 A 
ATOM     11  C   UNL A   1      34.633  23.684  23.776  1.00  0.00     0.133 A 
ATOM     12  C   UNL A   1      33.671  23.882  24.762  1.00  0.00     0.047 A 
ATOM     13  C   UNL A   1      35.956  23.380  24.106  1.00  0.00     0.056 A 
ATOM     14  C   UNL A   1      34.027  23.745  26.100  1.00  0.00     0.004 A 
ATOM     15  C   UNL A   1      35.345  23.424  26.439  1.00  0.00     0.009 A 
BRANCH  11  16
ATOM     16  O   UNL A   1      34.241  23.917  22.449  1.00  0.00    -0.410 OA
BRANCH  16  17
ATOM     17  C   UNL A   1      32.963  23.525  22.080  1.00  0.00     0.412 C 
ATOM     18  N   UNL A   1      32.162  24.576  21.723  1.00  0.00    -0.321 N 
ATOM     19  H   UNL A   1      31.250  24.353  21.426  1.00  0.00     0.167 HD
ATOM     20  O   UNL A   1      32.529  22.379  22.072  1.00  0.00    -0.224 OA
BRANCH  18  21
ATOM     21  C   UNL A   1      32.512  25.983  21.732  1.00  0.00     0.119 C 
BRANCH  21  22
ATOM     22  C   UNL A   1      31.479  26.830  22.474  1.00  0.00     0.021 C 
BRANCH  22  23
ATOM     23  C   UNL A   1      31.966  27.429  23.799  1.00  0.00     0.002 C 
BRANCH  23  24
ATOM     24  C   UNL A   1      31.286  26.887  25.062  1.00  0.00    -0.000 C 
BRANCH  24  25
ATOM     25  C   UNL A   1      32.137  26.916  26.335  1.00  0.00    -0.003 C 
ATOM     26  C   UNL A   1      33.470  27.625  26.155  1.00  0.00     0.004 C 
ENDBRANCH  24  25
ENDBRANCH  23  24
ENDBRANCH  22  23
ENDBRANCH  21  22
ENDBRANCH  18  21
ENDBRANCH  16  17
ENDBRANCH  11  16
ENDBRANCH   4  10
ENDBRANCH   1   3
BRANCH   1  27
ATOM     27  C   UNL A   1      42.445  20.762  26.164  1.00  0.00     0.313 C 
ATOM     28  O   UNL A   1      42.232  19.608  26.523  1.00  0.00    -0.252 OA
BRANCH  27  29
ATOM     29  O   UNL A   1      43.190  21.101  25.080  1.00  0.00    -0.462 OA
BRANCH  29  30
ATOM     30  C   UNL A   1      44.331  21.952  25.310  1.00  0.00     0.274 C 
BRANCH  30  31
ATOM     31  C   UNL A   1      44.410  23.059  24.258  1.00  0.00     0.275 C 
BRANCH  31  32
ATOM     32  O   UNL A   1      43.701  24.234  24.691  1.00  0.00    -0.458 OA
BRANCH  32  33
ATOM     33  C   UNL A   1      44.478  25.237  25.160  1.00  0.00     0.338 C 
ATOM     34  O   UNL A   1      45.529  25.647  24.703  1.00  0.00    -0.246 OA
BRANCH  33  35
ATOM     35  C   UNL A   1      43.797  25.877  26.293  1.00  0.00     0.060 A 
ATOM     36  C   UNL A   1      44.089  27.213  26.572  1.00  0.00     0.016 A 
ATOM     37  C   UNL A   1      42.936  25.149  27.112  1.00  0.00     0.016 A 
ATOM     38  C   UNL A   1      43.525  27.834  27.681  1.00  0.00     0.010 A 
ATOM     39  C   UNL A   1      42.356  25.777  28.217  1.00  0.00     0.010 A 
ATOM     40  C   UNL A   1      42.653  27.119  28.512  1.00  0.00    -0.014 A 
BRANCH  40  41
ATOM     41  C   UNL A   1      42.063  27.775  29.702  1.00  0.00     0.031 A 
ATOM     42  C   UNL A   1      40.801  28.575  29.568  1.00  0.00     0.074 A 
ATOM     43  C   UNL A   1      42.664  27.648  30.899  1.00  0.00     0.049 A 
ATOM     44  N   UNL A   1      40.195  29.315  30.459  1.00  0.00    -0.248 NA
ATOM     45  C   UNL A   1      40.136  28.537  28.257  1.00  0.00     0.031 C 
ATOM     46  C   UNL A   1      43.864  26.852  31.162  1.00  0.00     0.029 A 
ATOM     47  N   UNL A   1      42.348  28.192  32.117  1.00  0.00    -0.354 N 
ATOM     48  C   UNL A   1      39.091  29.855  29.811  1.00  0.00     0.074 A 
ATOM     49  C   UNL A   1      39.115  29.362  28.451  1.00  0.00     0.031 C 
ATOM     50  C   UNL A   1      44.181  26.958  32.462  1.00  0.00     0.029 A 
ATOM     51  C   UNL A   1      43.242  27.870  33.108  1.00  0.00     0.049 A 
ATOM     52  H   UNL A   1      41.557  28.759  32.267  1.00  0.00     0.167 HD
ATOM     53  C   UNL A   1      38.147  30.688  30.312  1.00  0.00     0.037 A 
ATOM     54  C   UNL A   1      43.316  28.294  34.384  1.00  0.00     0.037 A 
ATOM     55  C   UNL A   1      38.116  31.152  31.673  1.00  0.00     0.049 A 
ATOM     56  C   UNL A   1      42.304  29.282  34.889  1.00  0.00     0.074 A 
ATOM     57  C   UNL A   1      37.175  31.959  32.288  1.00  0.00     0.029 A 
ATOM     58  N   UNL A   1      39.075  30.855  32.630  1.00  0.00    -0.354 N 
ATOM     59  N   UNL A   1      41.264  29.788  34.271  1.00  0.00    -0.248 NA
ATOM     60  C   UNL A   1      42.489  29.776  36.261  1.00  0.00     0.031 C 
ATOM     61  C   UNL A   1      37.588  32.186  33.605  1.00  0.00     0.029 A 
ATOM     62  C   UNL A   1      38.767  31.491  33.821  1.00  0.00     0.049 A 
ATOM     63  H   UNL A   1      39.859  30.277  32.484  1.00  0.00     0.167 HD
ATOM     64  C   UNL A   1      40.664  30.650  35.179  1.00  0.00     0.074 A 
ATOM     65  C   UNL A   1      41.448  30.587  36.396  1.00  0.00     0.031 C 
ATOM     66  C   UNL A   1      39.564  31.423  35.018  1.00  0.00     0.037 A 
BRANCH  53  67
ATOM     67  C   UNL A   1      37.089  31.176  29.370  1.00  0.00     0.057 A 
ATOM     68  C   UNL A   1      35.982  30.392  29.024  1.00  0.00     0.134 A 
ATOM     69  C   UNL A   1      37.168  32.464  28.825  1.00  0.00     0.134 A 
ATOM     70  F   UNL A   1      35.856  29.144  29.502  1.00  0.00    -0.206 F 
ATOM     71  C   UNL A   1      34.998  30.865  28.154  1.00  0.00     0.040 A 
ATOM     72  C   UNL A   1      36.180  32.956  27.971  1.00  0.00     0.040 A 
ATOM     73  F   UNL A   1      38.201  33.267  29.120  1.00  0.00    -0.206 F 
ATOM     74  C   UNL A   1      35.093  32.153  27.629  1.00  0.00     0.006 A 
ENDBRANCH  53  67
BRANCH  54  75
ATOM     75  C   UNL A   1      44.410  27.811  35.262  1.00  0.00     0.057 A 
ATOM     76  C   UNL A   1      45.610  28.519  35.376  1.00  0.00     0.134 A 
ATOM     77  C   UNL A   1      44.280  26.631  36.006  1.00  0.00     0.134 A 
ATOM     78  F   UNL A   1      45.800  29.642  34.667  1.00  0.00    -0.206 F 
ATOM     79  C   UNL A   1      46.646  28.071  36.195  1.00  0.00     0.040 A 
ATOM     80  C   UNL A   1      45.300  26.183  36.847  1.00  0.00     0.040 A 
ATOM     81  F   UNL A   1      43.155  25.906  35.937  1.00  0.00    -0.206 F 
ATOM     82  C   UNL A   1      46.490  26.902  36.938  1.00  0.00     0.006 A 
ENDBRANCH  54  75
BRANCH  66  83
ATOM     83  C   UNL A   1      39.140  32.257  36.189  1.00  0.00     0.057 A 
ATOM     84  C   UNL A   1      39.613  33.563  36.368  1.00  0.00     0.134 A 
ATOM     85  C   UNL A   1      38.220  31.766  37.123  1.00  0.00     0.134 A 
ATOM     86  F   UNL A   1      40.509  34.083  35.515  1.00  0.00    -0.206 F 
ATOM     87  C   UNL A   1      39.195  34.347  37.443  1.00  0.00     0.040 A 
ATOM     88  C   UNL A   1      37.779  32.548  38.190  1.00  0.00     0.040 A 
ATOM     89  F   UNL A   1      37.725  30.524  37.004  1.00  0.00    -0.206 F 
ATOM     90  C   UNL A   1      38.269  33.842  38.354  1.00  0.00     0.006 A 
ENDBRANCH  66  83
ENDBRANCH  40  41
ENDBRANCH  33  35
ENDBRANCH  32  33
ENDBRANCH  31  32
ENDBRANCH  30  31
ENDBRANCH  29  30
ENDBRANCH  27  29
ENDBRANCH   1  27
TORSDOF 20
ENDMDL
MODEL 2
REMARK VINA RESULT:     -10.8      1.253      2.385
REMARK SMILES CCCCCCNC(=O)Oc1cccc(-c2ccc([C@@H](C)C(=O)OCCOC(=O)c3ccc(-c4c5nc(c(-c6c(F)cccc6F)c6ccc([nH]6)c(-c6c(F)cccc6F)c6nc(c(-c7c(F)cccc7F)c7ccc4[nH]7)C=C6)C=C5)cc3)cc2F)c1
REMARK SMILES IDX 20 1 21 2 19 3 16 4 17 5 85 6 18 7 84 8 86 9 15 10 11 11
REMARK SMILES IDX 12 12 87 13 13 14 14 15 10 16 8 17 7 18 9 20 6 21 5 22 4 23
REMARK SMILES IDX 3 24 2 25 1 26 22 27 23 28 24 29 25 30 26 31 27 32 28 33
REMARK SMILES IDX 29 34 30 35 31 36 83 37 32 38 82 39 33 40 34 41 35 42 76 43
REMARK SMILES IDX 36 44 81 45 75 46 77 47 37 48 80 49 74 50 73 51 38 53 64 54
REMARK SMILES IDX 47 55 63 56 48 57 51 58 62 59 78 60 49 61 50 62 61 64 79 65
REMARK SMILES IDX 52 66 39 67 40 68 45 69 41 70 42 71 44 72 46 73 43 74 65 75
REMARK SMILES IDX 66 76 71 77 67 78 68 79 70 80 72 81 69 82 53 83 54 84 59 85
REMARK SMILES IDX 55 86 56 87 58 88 60 89 57 90
REMARK H PARENT 7 19 77 52 51 63
REMARK Flexibility Score: inf
ROOT
ATOM      1  C   UNL A   1      41.591  21.951  27.005  1.00  0.00     0.126 C 
ATOM      2  C   UNL A   1      41.647  21.817  28.525  1.00  0.00     0.025 C 
ENDROOT
BRANCH   1   3
ATOM      3  C   UNL A   1      40.218  22.371  26.501  1.00  0.00    -0.031 A 
ATOM      4  C   UNL A   1      37.637  23.106  25.542  1.00  0.00     0.018 A 
ATOM      5  C   UNL A   1      38.464  24.034  26.194  1.00  0.00     0.012 A 
ATOM      6  C   UNL A   1      38.130  21.804  25.391  1.00  0.00     0.131 A 
ATOM      7  C   UNL A   1      39.735  23.676  26.662  1.00  0.00     0.005 A 
ATOM      8  C   UNL A   1      39.395  21.438  25.855  1.00  0.00     0.044 A 
ATOM      9  F   UNL A   1      37.398  20.869  24.762  1.00  0.00    -0.206 F 
BRANCH   4  10
ATOM     10  C   UNL A   1      36.315  23.502  25.029  1.00  0.00    -0.012 A 
ATOM     11  C   UNL A   1      34.123  24.496  25.341  1.00  0.00     0.133 A 
ATOM     12  C   UNL A   1      33.784  24.235  24.017  1.00  0.00     0.047 A 
ATOM     13  C   UNL A   1      35.366  24.124  25.857  1.00  0.00     0.056 A 
ATOM     14  C   UNL A   1      34.713  23.618  23.184  1.00  0.00     0.004 A 
ATOM     15  C   UNL A   1      35.966  23.258  23.687  1.00  0.00     0.009 A 
BRANCH  11  16
ATOM     16  O   UNL A   1      33.121  25.042  26.158  1.00  0.00    -0.410 OA
BRANCH  16  17
ATOM     17  C   UNL A   1      32.149  25.820  25.547  1.00  0.00     0.412 C 
ATOM     18  N   UNL A   1      30.890  25.297  25.667  1.00  0.00    -0.321 N 
ATOM     19  H   UNL A   1      30.156  25.824  25.274  1.00  0.00     0.167 HD
ATOM     20  O   UNL A   1      32.336  26.865  24.933  1.00  0.00    -0.224 OA
BRANCH  18  21
ATOM     21  C   UNL A   1      30.519  24.054  26.312  1.00  0.00     0.119 C 
BRANCH  21  22
ATOM     22  C   UNL A   1      30.691  22.849  25.387  1.00  0.00     0.021 C 
BRANCH  22  23
ATOM     23  C   UNL A   1      31.725  21.817  25.855  1.00  0.00     0.002 C 
BRANCH  23  24
ATOM     24  C   UNL A   1      32.327  20.935  24.755  1.00  0.00    -0.000 C 
BRANCH  24  25
ATOM     25  C   UNL A   1      33.788  20.528  24.961  1.00  0.00    -0.003 C 
ATOM     26  C   UNL A   1      34.074  19.085  24.575  1.00  0.00     0.004 C 
ENDBRANCH  24  25
ENDBRANCH  23  24
ENDBRANCH  22  23
ENDBRANCH  21  22
ENDBRANCH  18  21
ENDBRANCH  16  17
ENDBRANCH  11  16
ENDBRANCH   4  10
ENDBRANCH   1   3
BRANCH   1  27
ATOM     27  C   UNL A   1      42.187  20.711  26.349  1.00  0.00     0.313 C 
ATOM     28  O   UNL A   1      41.910  19.576  26.728  1.00  0.00    -0.252 OA
BRANCH  27  29
ATOM     29  O   UNL A   1      43.008  20.989  25.304  1.00  0.00    -0.462 OA
BRANCH  29  30
ATOM     30  C   UNL A   1      44.007  22.007  25.508  1.00  0.00     0.274 C 
BRANCH  30  31
ATOM     31  C   UNL A   1      44.023  23.002  24.345  1.00  0.00     0.275 C 
BRANCH  31  32
ATOM     32  O   UNL A   1      43.425  24.253  24.729  1.00  0.00    -0.458 OA
BRANCH  32  33
ATOM     33  C   UNL A   1      44.280  25.172  25.230  1.00  0.00     0.338 C 
ATOM     34  O   UNL A   1      45.372  25.492  24.801  1.00  0.00    -0.246 OA
BRANCH  33  35
ATOM     35  C   UNL A   1      43.638  25.853  26.363  1.00  0.00     0.060 A 
ATOM     36  C   UNL A   1      43.932  27.200  26.579  1.00  0.00     0.016 A 
ATOM     37  C   UNL A   1      42.814  25.152  27.242  1.00  0.00     0.016 A 
ATOM     38  C   UNL A   1      43.406  27.861  27.684  1.00  0.00     0.010 A 
ATOM     39  C   UNL A   1      42.272  25.819  28.343  1.00  0.00     0.010 A 
ATOM     40  C   UNL A   1      42.571  27.174  28.574  1.00  0.00    -0.014 A 
BRANCH  40  41
ATOM     41  C   UNL A   1      42.021  27.872  29.759  1.00  0.00     0.031 A 
ATOM     42  C   UNL A   1      40.770  28.689  29.635  1.00  0.00     0.074 A 
ATOM     43  C   UNL A   1      42.651  27.769  30.944  1.00  0.00     0.049 A 
ATOM     44  N   UNL A   1      40.198  29.464  30.519  1.00  0.00    -0.248 NA
ATOM     45  C   UNL A   1      40.070  28.625  28.342  1.00  0.00     0.031 C 
ATOM     46  C   UNL A   1      43.845  26.962  31.199  1.00  0.00     0.029 A 
ATOM     47  N   UNL A   1      42.375  28.353  32.154  1.00  0.00    -0.354 N 
ATOM     48  C   UNL A   1      39.086  30.002  29.885  1.00  0.00     0.074 A 
ATOM     49  C   UNL A   1      39.067  29.471  28.539  1.00  0.00     0.031 C 
ATOM     50  C   UNL A   1      44.198  27.099  32.487  1.00  0.00     0.029 A 
ATOM     51  C   UNL A   1      43.289  28.044  33.130  1.00  0.00     0.049 A 
ATOM     52  H   UNL A   1      41.598  28.936  32.308  1.00  0.00     0.167 HD
ATOM     53  C   UNL A   1      38.168  30.864  30.385  1.00  0.00     0.037 A 
ATOM     54  C   UNL A   1      43.403  28.502  34.391  1.00  0.00     0.037 A 
ATOM     55  C   UNL A   1      38.179  31.367  31.733  1.00  0.00     0.049 A 
ATOM     56  C   UNL A   1      42.420  29.520  34.894  1.00  0.00     0.074 A 
ATOM     57  C   UNL A   1      37.267  32.206  32.348  1.00  0.00     0.029 A 
ATOM     58  N   UNL A   1      39.158  31.081  32.673  1.00  0.00    -0.354 N 
ATOM     59  N   UNL A   1      41.372  30.026  34.288  1.00  0.00    -0.248 NA
ATOM     60  C   UNL A   1      42.647  30.050  36.246  1.00  0.00     0.031 C 
ATOM     61  C   UNL A   1      37.717  32.463  33.648  1.00  0.00     0.029 A 
ATOM     62  C   UNL A   1      38.890  31.756  33.853  1.00  0.00     0.049 A 
ATOM     63  H   UNL A   1      39.929  30.487  32.524  1.00  0.00     0.167 HD
ATOM     64  C   UNL A   1      40.809  30.922  35.186  1.00  0.00     0.074 A 
ATOM     65  C   UNL A   1      41.623  30.882  36.384  1.00  0.00     0.031 C 
ATOM     66  C   UNL A   1      39.717  31.709  35.031  1.00  0.00     0.037 A 
BRANCH  53  67
ATOM     67  C   UNL A   1      37.094  31.343  29.456  1.00  0.00     0.057 A 
ATOM     68  C   UNL A   1      37.130  32.614  28.871  1.00  0.00     0.134 A 
ATOM     69  C   UNL A   1      36.023  30.504  29.122  1.00  0.00     0.134 A 
ATOM     70  F   UNL A   1      38.122  33.469  29.161  1.00  0.00    -0.206 F 
ATOM     71  C   UNL A   1      36.127  33.042  27.998  1.00  0.00     0.040 A 
ATOM     72  C   UNL A   1      35.026  30.913  28.236  1.00  0.00     0.040 A 
ATOM     73  F   UNL A   1      35.932  29.273  29.647  1.00  0.00    -0.206 F 
ATOM     74  C   UNL A   1      35.075  32.187  27.675  1.00  0.00     0.006 A 
ENDBRANCH  53  67
BRANCH  54  75
ATOM     75  C   UNL A   1      44.511  28.027  35.255  1.00  0.00     0.057 A 
ATOM     76  C   UNL A   1      45.744  28.686  35.276  1.00  0.00     0.134 A 
ATOM     77  C   UNL A   1      44.364  26.903  36.078  1.00  0.00     0.134 A 
ATOM     78  F   UNL A   1      45.951  29.753  34.490  1.00  0.00    -0.206 F 
ATOM     79  C   UNL A   1      46.794  28.244  36.080  1.00  0.00     0.040 A 
ATOM     80  C   UNL A   1      45.398  26.463  36.905  1.00  0.00     0.040 A 
ATOM     81  F   UNL A   1      43.206  26.226  36.100  1.00  0.00    -0.206 F 
ATOM     82  C   UNL A   1      46.620  27.132  36.903  1.00  0.00     0.006 A 
ENDBRANCH  54  75
BRANCH  66  83
ATOM     83  C   UNL A   1      39.337  32.582  36.188  1.00  0.00     0.057 A 
ATOM     84  C   UNL A   1      38.407  32.162  37.147  1.00  0.00     0.134 A 
ATOM     85  C   UNL A   1      39.937  33.834  36.369  1.00  0.00     0.134 A 
ATOM     86  F   UNL A   1      37.786  30.980  37.021  1.00  0.00    -0.206 F 
ATOM     87  C   UNL A   1      38.077  32.965  38.240  1.00  0.00     0.040 A 
ATOM     88  C   UNL A   1      39.630  34.636  37.467  1.00  0.00     0.040 A 
ATOM     89  F   UNL A   1      40.840  34.290  35.487  1.00  0.00    -0.206 F 
ATOM     90  C   UNL A   1      38.695  34.203  38.406  1.00  0.00     0.006 A 
ENDBRANCH  66  83
ENDBRANCH  40  41
ENDBRANCH  33  35
ENDBRANCH  32  33
ENDBRANCH  31  32
ENDBRANCH  30  31
ENDBRANCH  29  30
ENDBRANCH  27  29
ENDBRANCH   1  27
TORSDOF 20
ENDMDL
MODEL 3
REMARK VINA RESULT:     -10.6      1.087      1.730
REMARK SMILES CCCCCCNC(=O)Oc1cccc(-c2ccc([C@@H](C)C(=O)OCCOC(=O)c3ccc(-c4c5nc(c(-c6c(F)cccc6F)c6ccc([nH]6)c(-c6c(F)cccc6F)c6nc(c(-c7c(F)cccc7F)c7ccc4[nH]7)C=C6)C=C5)cc3)cc2F)c1
REMARK SMILES IDX 20 1 21 2 19 3 16 4 17 5 85 6 18 7 84 8 86 9 15 10 11 11
REMARK SMILES IDX 12 12 87 13 13 14 14 15 10 16 8 17 7 18 9 20 6 21 5 22 4 23
REMARK SMILES IDX 3 24 2 25 1 26 22 27 23 28 24 29 25 30 26 31 27 32 28 33
REMARK SMILES IDX 29 34 30 35 31 36 83 37 32 38 82 39 33 40 34 41 35 42 76 43
REMARK SMILES IDX 36 44 81 45 75 46 77 47 37 48 80 49 74 50 73 51 38 53 64 54
REMARK SMILES IDX 47 55 63 56 48 57 51 58 62 59 78 60 49 61 50 62 61 64 79 65
REMARK SMILES IDX 52 66 39 67 40 68 45 69 41 70 42 71 44 72 46 73 43 74 65 75
REMARK SMILES IDX 66 76 71 77 67 78 68 79 70 80 72 81 69 82 53 83 54 84 59 85
REMARK SMILES IDX 55 86 56 87 58 88 60 89 57 90
REMARK H PARENT 7 19 77 52 51 63
REMARK Flexibility Score: inf
ROOT
ATOM      1  C   UNL A   1      41.363  21.961  26.944  1.00  0.00     0.126 C 
ATOM      2  C   UNL A   1      41.381  21.593  28.425  1.00  0.00     0.025 C 
ENDROOT
BRANCH   1   3
ATOM      3  C   UNL A   1      39.963  22.248  26.424  1.00  0.00    -0.031 A 
ATOM      4  C   UNL A   1      37.344  22.836  25.465  1.00  0.00     0.018 A 
ATOM      5  C   UNL A   1      37.922  21.571  25.275  1.00  0.00     0.012 A 
ATOM      6  C   UNL A   1      38.110  23.797  26.137  1.00  0.00     0.131 A 
ATOM      7  C   UNL A   1      39.208  21.279  25.750  1.00  0.00     0.005 A 
ATOM      8  C   UNL A   1      39.391  23.515  26.613  1.00  0.00     0.044 A 
ATOM      9  F   UNL A   1      37.611  25.023  26.368  1.00  0.00    -0.206 F 
BRANCH   4  10
ATOM     10  C   UNL A   1      35.982  23.122  24.987  1.00  0.00    -0.012 A 
ATOM     11  C   UNL A   1      33.636  23.589  25.401  1.00  0.00     0.133 A 
ATOM     12  C   UNL A   1      33.378  23.654  24.035  1.00  0.00     0.047 A 
ATOM     13  C   UNL A   1      34.916  23.311  25.883  1.00  0.00     0.056 A 
ATOM     14  C   UNL A   1      34.422  23.469  23.134  1.00  0.00     0.004 A 
ATOM     15  C   UNL A   1      35.711  23.207  23.608  1.00  0.00     0.009 A 
BRANCH  11  16
ATOM     16  O   UNL A   1      32.533  23.700  26.262  1.00  0.00    -0.410 OA
BRANCH  16  17
ATOM     17  C   UNL A   1      31.401  22.961  25.952  1.00  0.00     0.412 C 
ATOM     18  N   UNL A   1      30.260  23.717  25.922  1.00  0.00    -0.321 N 
ATOM     19  H   UNL A   1      29.428  23.247  25.680  1.00  0.00     0.167 HD
ATOM     20  O   UNL A   1      31.357  21.756  25.737  1.00  0.00    -0.224 OA
BRANCH  18  21
ATOM     21  C   UNL A   1      30.143  25.133  26.205  1.00  0.00     0.119 C 
BRANCH  21  22
ATOM     22  C   UNL A   1      30.095  25.975  24.931  1.00  0.00     0.021 C 
BRANCH  22  23
ATOM     23  C   UNL A   1      31.359  26.798  24.651  1.00  0.00     0.002 C 
BRANCH  23  24
ATOM     24  C   UNL A   1      32.235  27.106  25.871  1.00  0.00    -0.000 C 
BRANCH  24  25
ATOM     25  C   UNL A   1      33.650  27.599  25.560  1.00  0.00    -0.003 C 
ATOM     26  C   UNL A   1      33.810  28.124  24.142  1.00  0.00     0.004 C 
ENDBRANCH  24  25
ENDBRANCH  23  24
ENDBRANCH  22  23
ENDBRANCH  21  22
ENDBRANCH  18  21
ENDBRANCH  16  17
ENDBRANCH  11  16
ENDBRANCH   4  10
ENDBRANCH   1   3
BRANCH   1  27
ATOM     27  C   UNL A   1      42.172  20.946  26.144  1.00  0.00     0.313 C 
ATOM     28  O   UNL A   1      42.282  19.776  26.499  1.00  0.00    -0.252 OA
BRANCH  27  29
ATOM     29  O   UNL A   1      42.714  21.455  25.007  1.00  0.00    -0.462 OA
BRANCH  29  30
ATOM     30  C   UNL A   1      44.144  21.631  24.985  1.00  0.00     0.274 C 
BRANCH  30  31
ATOM     31  C   UNL A   1      44.523  22.970  24.350  1.00  0.00     0.275 C 
BRANCH  31  32
ATOM     32  O   UNL A   1      43.715  24.038  24.878  1.00  0.00    -0.458 OA
BRANCH  32  33
ATOM     33  C   UNL A   1      44.389  25.166  25.199  1.00  0.00     0.338 C 
ATOM     34  O   UNL A   1      45.340  25.660  24.622  1.00  0.00    -0.246 OA
BRANCH  33  35
ATOM     35  C   UNL A   1      43.719  25.816  26.333  1.00  0.00     0.060 A 
ATOM     36  C   UNL A   1      44.071  27.130  26.647  1.00  0.00     0.016 A 
ATOM     37  C   UNL A   1      42.807  25.114  27.120  1.00  0.00     0.016 A 
ATOM     38  C   UNL A   1      43.516  27.754  27.759  1.00  0.00     0.010 A 
ATOM     39  C   UNL A   1      42.238  25.747  28.228  1.00  0.00     0.010 A 
ATOM     40  C   UNL A   1      42.594  27.066  28.558  1.00  0.00    -0.014 A 
BRANCH  40  41
ATOM     41  C   UNL A   1      42.014  27.725  29.750  1.00  0.00     0.031 A 
ATOM     42  C   UNL A   1      40.767  28.547  29.620  1.00  0.00     0.074 A 
ATOM     43  C   UNL A   1      42.612  27.581  30.947  1.00  0.00     0.049 A 
ATOM     44  N   UNL A   1      40.172  29.293  30.514  1.00  0.00    -0.248 NA
ATOM     45  C   UNL A   1      40.101  28.528  28.308  1.00  0.00     0.031 C 
ATOM     46  C   UNL A   1      43.799  26.765  31.206  1.00  0.00     0.029 A 
ATOM     47  N   UNL A   1      42.304  28.125  32.168  1.00  0.00    -0.354 N 
ATOM     48  C   UNL A   1      39.078  29.854  29.869  1.00  0.00     0.074 A 
ATOM     49  C   UNL A   1      39.094  29.368  28.506  1.00  0.00     0.031 C 
ATOM     50  C   UNL A   1      44.117  26.858  32.508  1.00  0.00     0.029 A 
ATOM     51  C   UNL A   1      43.192  27.782  33.157  1.00  0.00     0.049 A 
ATOM     52  H   UNL A   1      41.523  28.703  32.321  1.00  0.00     0.167 HD
ATOM     53  C   UNL A   1      38.147  30.699  30.373  1.00  0.00     0.037 A 
ATOM     54  C   UNL A   1      43.272  28.198  34.436  1.00  0.00     0.037 A 
ATOM     55  C   UNL A   1      38.122  31.157  31.737  1.00  0.00     0.049 A 
ATOM     56  C   UNL A   1      42.277  29.200  34.946  1.00  0.00     0.074 A 
ATOM     57  C   UNL A   1      37.195  31.977  32.356  1.00  0.00     0.029 A 
ATOM     58  N   UNL A   1      39.076  30.839  32.693  1.00  0.00    -0.354 N 
ATOM     59  N   UNL A   1      41.245  29.726  34.330  1.00  0.00    -0.248 NA
ATOM     60  C   UNL A   1      42.469  29.684  36.320  1.00  0.00     0.031 C 
ATOM     61  C   UNL A   1      37.610  32.189  33.675  1.00  0.00     0.029 A 
ATOM     62  C   UNL A   1      38.778  31.474  33.887  1.00  0.00     0.049 A 
ATOM     63  H   UNL A   1      39.850  30.248  32.545  1.00  0.00     0.167 HD
ATOM     64  C   UNL A   1      40.659  30.593  35.242  1.00  0.00     0.074 A 
ATOM     65  C   UNL A   1      41.442  30.511  36.459  1.00  0.00     0.031 C 
ATOM     66  C   UNL A   1      39.572  31.386  35.085  1.00  0.00     0.037 A 
BRANCH  53  67
ATOM     67  C   UNL A   1      37.098  31.211  29.433  1.00  0.00     0.057 A 
ATOM     68  C   UNL A   1      37.171  32.486  28.860  1.00  0.00     0.134 A 
ATOM     69  C   UNL A   1      36.014  30.400  29.075  1.00  0.00     0.134 A 
ATOM     70  F   UNL A   1      38.178  33.316  29.174  1.00  0.00    -0.206 F 
ATOM     71  C   UNL A   1      36.192  32.944  27.976  1.00  0.00     0.040 A 
ATOM     72  C   UNL A   1      35.041  30.838  28.177  1.00  0.00     0.040 A 
ATOM     73  F   UNL A   1      35.888  29.166  29.586  1.00  0.00    -0.206 F 
ATOM     74  C   UNL A   1      35.126  32.117  27.629  1.00  0.00     0.006 A 
ENDBRANCH  53  67
BRANCH  54  75
ATOM     75  C   UNL A   1      44.357  27.692  35.312  1.00  0.00     0.057 A 
ATOM     76  C   UNL A   1      45.587  28.351  35.391  1.00  0.00     0.134 A 
ATOM     77  C   UNL A   1      44.189  26.538  36.089  1.00  0.00     0.134 A 
ATOM     78  F   UNL A   1      45.814  29.447  34.651  1.00  0.00    -0.206 F 
ATOM     79  C   UNL A   1      46.616  27.881  36.208  1.00  0.00     0.040 A 
ATOM     80  C   UNL A   1      45.201  26.069  36.928  1.00  0.00     0.040 A 
ATOM     81  F   UNL A   1      43.033  25.860  36.054  1.00  0.00    -0.206 F 
ATOM     82  C   UNL A   1      46.421  26.740  36.984  1.00  0.00     0.006 A 
ENDBRANCH  54  75
BRANCH  66  83
ATOM     83  C   UNL A   1      39.162  32.220  36.260  1.00  0.00     0.057 A 
ATOM     84  C   UNL A   1      39.718  33.485  36.490  1.00  0.00     0.134 A 
ATOM     85  C   UNL A   1      38.173  31.774  37.145  1.00  0.00     0.134 A 
ATOM     86  F   UNL A   1      40.681  33.960  35.686  1.00  0.00    -0.206 F 
ATOM     87  C   UNL A   1      39.313  34.272  37.568  1.00  0.00     0.040 A 
ATOM     88  C   UNL A   1      37.745  32.560  38.215  1.00  0.00     0.040 A 
ATOM     89  F   UNL A   1      37.598  30.574  36.975  1.00  0.00    -0.206 F 
ATOM     90  C   UNL A   1      38.318  33.813  38.430  1.00  0.00     0.006 A 
ENDBRANCH  66  83
ENDBRANCH  40  41
ENDBRANCH  33  35
ENDBRANCH  32  33
ENDBRANCH  31  32
ENDBRANCH  30  31
ENDBRANCH  29  30
ENDBRANCH  27  29
ENDBRANCH   1  27
TORSDOF 20
ENDMDL
