MODEL 1
REMARK VINA RESULT:     -12.2      0.000      0.000
REMARK SMILES C[C@H]1[C@H](C)CC[C@@]2(C(=O)OCCOC(=O)c3ccc(-c4c5nc(c(-c6c(F)cccc6F)c6ccc([nH]6)c(-c6c(F)cccc6F)c6nc(c(-c7c(F)cccc7F)c7ccc4[nH]7)C=C6)C=C5)cc3)CC[C@@]3(C)C(=CC[C@@H]4[C@@]5(C)CC[C@H](O)C(C)(C)[C@@H]5CC[C@]43C)[C@H]12
REMARK SMILES IDX 12 1 11 2 10 3 8 4 9 5 7 6 1 7 2 8 3 9 92 10 4 11 5 12 74 13
REMARK SMILES IDX 6 14 70 15 72 16 75 17 71 18 73 19 90 20 76 21 77 22 89 23
REMARK SMILES IDX 91 24 78 25 88 26 79 27 80 28 87 29 81 30 84 31 82 32 85 33
REMARK SMILES IDX 86 34 83 35 13 37 14 38 15 39 16 40 17 41 69 42 18 43 68 44
REMARK SMILES IDX 19 45 20 46 21 47 62 48 22 49 67 50 61 51 63 52 23 53 66 54
REMARK SMILES IDX 60 55 59 56 24 58 50 59 33 60 49 61 34 62 37 63 48 64 64 65
REMARK SMILES IDX 35 66 36 67 47 69 65 70 38 71 25 72 26 73 31 74 27 75 28 76
REMARK SMILES IDX 30 77 32 78 29 79 51 80 52 81 57 82 53 83 54 84 56 85 58 86
REMARK SMILES IDX 55 87 39 88 40 89 45 90 41 91 42 92 44 93 46 94 43 95
REMARK H PARENT 83 36 63 57 37 68
REMARK Flexibility Score: inf
ROOT
ATOM      1  C   UNL A   1      34.667  28.946  26.475  1.00  0.00     0.275 C 
ENDROOT
BRANCH   1   2
ATOM      2  C   UNL A   1      34.314  28.780  24.986  1.00  0.00     0.274 C 
BRANCH   2   3
ATOM      3  O   UNL A   1      33.407  27.711  24.639  1.00  0.00    -0.462 OA
BRANCH   3   4
ATOM      4  C   UNL A   1      32.257  28.128  24.044  1.00  0.00     0.312 C 
ATOM      5  O   UNL A   1      32.211  28.338  22.851  1.00  0.00    -0.252 OA
BRANCH   4   6
ATOM      6  C   UNL A   1      31.102  28.508  24.996  1.00  0.00     0.075 C 
ATOM      7  C   UNL A   1      27.823  27.775  22.963  1.00  0.00     0.008 C 
ATOM      8  C   UNL A   1      29.199  28.395  23.263  1.00  0.00    -0.003 C 
ATOM      9  C   UNL A   1      29.053  29.949  23.366  1.00  0.00    -0.011 C 
ATOM     10  C   UNL A   1      29.826  27.737  24.551  1.00  0.00     0.036 C 
ATOM     11  C   UNL A   1      28.661  30.588  22.022  1.00  0.00     0.008 C 
ATOM     12  C   UNL A   1      30.315  30.667  23.849  1.00  0.00     0.005 C 
ATOM     13  C   UNL A   1      30.236  26.222  24.516  1.00  0.00    -0.063 C 
ATOM     14  C   UNL A   1      30.917  30.030  25.083  1.00  0.00     0.020 C 
ATOM     15  C   UNL A   1      31.427  28.033  26.444  1.00  0.00     0.020 C 
ATOM     16  C   UNL A   1      30.704  25.561  25.866  1.00  0.00    -0.006 C 
ATOM     17  C   UNL A   1      30.439  25.601  23.335  1.00  0.00    -0.027 C 
ATOM     18  C   UNL A   1      31.683  26.528  26.607  1.00  0.00     0.013 C 
ATOM     19  C   UNL A   1      29.464  25.425  26.788  1.00  0.00     0.017 C 
ATOM     20  C   UNL A   1      31.412  24.065  25.638  1.00  0.00    -0.020 C 
ATOM     21  C   UNL A   1      31.317  24.399  23.137  1.00  0.00     0.032 C 
ATOM     22  C   UNL A   1      32.271  24.157  24.327  1.00  0.00     0.006 C 
ATOM     23  C   UNL A   1      32.329  23.635  26.816  1.00  0.00     0.008 C 
ATOM     24  C   UNL A   1      30.322  22.967  25.520  1.00  0.00     0.012 C 
ATOM     25  C   UNL A   1      33.438  23.106  24.047  1.00  0.00    -0.025 C 
ATOM     26  C   UNL A   1      33.262  22.449  26.516  1.00  0.00     0.005 C 
ATOM     27  C   UNL A   1      32.886  21.837  23.374  1.00  0.00     0.012 C 
ATOM     28  C   UNL A   1      34.459  23.770  23.060  1.00  0.00     0.010 C 
ATOM     29  C   UNL A   1      34.225  22.828  25.377  1.00  0.00     0.003 C 
ATOM     30  C   UNL A   1      35.782  23.022  22.889  1.00  0.00     0.033 C 
ATOM     31  C   UNL A   1      35.537  21.956  25.243  1.00  0.00    -0.006 C 
ATOM     32  C   UNL A   1      36.466  22.665  24.209  1.00  0.00     0.120 C 
ATOM     33  C   UNL A   1      35.302  20.483  24.856  1.00  0.00     0.014 C 
ATOM     34  C   UNL A   1      36.292  21.900  26.602  1.00  0.00     0.014 C 
BRANCH  32  35
ATOM     35  O   UNL A   1      37.645  21.907  23.933  1.00  0.00    -0.393 OA
ATOM     36  H   UNL A   1      37.536  21.435  23.093  1.00  0.00     0.210 HD
ENDBRANCH  32  35
ENDBRANCH   4   6
ENDBRANCH   3   4
ENDBRANCH   2   3
ENDBRANCH   1   2
BRANCH   1  37
ATOM     37  O   UNL A   1      33.858  29.917  27.159  1.00  0.00    -0.458 OA
BRANCH  37  38
ATOM     38  C   UNL A   1      34.540  30.943  27.737  1.00  0.00     0.338 C 
ATOM     39  O   UNL A   1      34.119  32.079  27.906  1.00  0.00    -0.246 OA
BRANCH  38  40
ATOM     40  C   UNL A   1      35.802  30.442  28.349  1.00  0.00     0.060 A 
ATOM     41  C   UNL A   1      37.028  30.900  27.831  1.00  0.00     0.016 A 
ATOM     42  C   UNL A   1      35.799  29.625  29.475  1.00  0.00     0.016 A 
ATOM     43  C   UNL A   1      38.246  30.541  28.430  1.00  0.00     0.010 A 
ATOM     44  C   UNL A   1      37.013  29.270  30.068  1.00  0.00     0.010 A 
ATOM     45  C   UNL A   1      38.248  29.697  29.543  1.00  0.00    -0.014 A 
BRANCH  45  46
ATOM     46  C   UNL A   1      39.474  28.967  29.971  1.00  0.00     0.031 A 
ATOM     47  C   UNL A   1      40.209  29.545  31.151  1.00  0.00     0.074 A 
ATOM     48  C   UNL A   1      39.992  27.903  29.328  1.00  0.00     0.049 A 
ATOM     49  N   UNL A   1      41.355  29.200  31.677  1.00  0.00    -0.248 NA
ATOM     50  C   UNL A   1      39.572  30.704  31.803  1.00  0.00     0.031 C 
ATOM     51  C   UNL A   1      39.408  27.228  28.176  1.00  0.00     0.029 A 
ATOM     52  N   UNL A   1      41.170  27.224  29.541  1.00  0.00    -0.354 N 
ATOM     53  C   UNL A   1      41.565  30.100  32.713  1.00  0.00     0.074 A 
ATOM     54  C   UNL A   1      40.502  31.077  32.660  1.00  0.00     0.031 C 
ATOM     55  C   UNL A   1      40.261  26.285  27.730  1.00  0.00     0.029 A 
ATOM     56  C   UNL A   1      41.435  26.257  28.599  1.00  0.00     0.049 A 
ATOM     57  H   UNL A   1      41.767  27.412  30.300  1.00  0.00     0.167 HD
ATOM     58  C   UNL A   1      42.510  30.082  33.679  1.00  0.00     0.037 A 
ATOM     59  C   UNL A   1      42.496  25.436  28.470  1.00  0.00     0.037 A 
ATOM     60  C   UNL A   1      43.546  29.099  33.764  1.00  0.00     0.049 A 
ATOM     61  C   UNL A   1      43.571  25.447  29.528  1.00  0.00     0.074 A 
ATOM     62  C   UNL A   1      44.512  28.941  34.740  1.00  0.00     0.029 A 
ATOM     63  N   UNL A   1      43.750  28.099  32.826  1.00  0.00    -0.354 N 
ATOM     64  N   UNL A   1      43.690  26.221  30.580  1.00  0.00    -0.248 NA
ATOM     65  C   UNL A   1      44.631  24.434  29.409  1.00  0.00     0.031 C 
ATOM     66  C   UNL A   1      45.317  27.855  34.379  1.00  0.00     0.029 A 
ATOM     67  C   UNL A   1      44.832  27.321  33.195  1.00  0.00     0.049 A 
ATOM     68  H   UNL A   1      43.205  27.964  32.017  1.00  0.00     0.167 HD
ATOM     69  C   UNL A   1      44.794  25.748  31.279  1.00  0.00     0.074 A 
ATOM     70  C   UNL A   1      45.319  24.628  30.525  1.00  0.00     0.031 C 
ATOM     71  C   UNL A   1      45.318  26.190  32.449  1.00  0.00     0.037 A 
BRANCH  58  72
ATOM     72  C   UNL A   1      42.400  31.147  34.725  1.00  0.00     0.057 A 
ATOM     73  C   UNL A   1      43.126  32.345  34.623  1.00  0.00     0.134 A 
ATOM     74  C   UNL A   1      41.642  30.945  35.883  1.00  0.00     0.134 A 
ATOM     75  F   UNL A   1      43.896  32.583  33.549  1.00  0.00    -0.206 F 
ATOM     76  C   UNL A   1      43.148  33.276  35.660  1.00  0.00     0.040 A 
ATOM     77  C   UNL A   1      41.631  31.886  36.914  1.00  0.00     0.040 A 
ATOM     78  F   UNL A   1      40.928  29.822  36.043  1.00  0.00    -0.206 F 
ATOM     79  C   UNL A   1      42.398  33.046  36.811  1.00  0.00     0.006 A 
ENDBRANCH  58  72
BRANCH  59  80
ATOM     80  C   UNL A   1      42.579  24.469  27.343  1.00  0.00     0.057 A 
ATOM     81  C   UNL A   1      42.147  23.145  27.494  1.00  0.00     0.134 A 
ATOM     82  C   UNL A   1      43.155  24.821  26.117  1.00  0.00     0.134 A 
ATOM     83  F   UNL A   1      41.613  22.741  28.656  1.00  0.00    -0.206 F 
ATOM     84  C   UNL A   1      42.312  22.198  26.482  1.00  0.00     0.040 A 
ATOM     85  C   UNL A   1      43.310  23.887  25.087  1.00  0.00     0.040 A 
ATOM     86  F   UNL A   1      43.594  26.070  25.907  1.00  0.00    -0.206 F 
ATOM     87  C   UNL A   1      42.897  22.568  25.273  1.00  0.00     0.006 A 
ENDBRANCH  59  80
BRANCH  71  88
ATOM     88  C   UNL A   1      46.471  25.426  33.026  1.00  0.00     0.057 A 
ATOM     89  C   UNL A   1      47.800  25.770  32.757  1.00  0.00     0.134 A 
ATOM     90  C   UNL A   1      46.241  24.363  33.910  1.00  0.00     0.134 A 
ATOM     91  F   UNL A   1      48.086  26.770  31.909  1.00  0.00    -0.206 F 
ATOM     92  C   UNL A   1      48.862  25.074  33.335  1.00  0.00     0.040 A 
ATOM     93  C   UNL A   1      47.294  23.676  34.513  1.00  0.00     0.040 A 
ATOM     94  F   UNL A   1      44.990  23.989  34.216  1.00  0.00    -0.206 F 
ATOM     95  C   UNL A   1      48.611  24.029  34.224  1.00  0.00     0.006 A 
ENDBRANCH  71  88
ENDBRANCH  45  46
ENDBRANCH  38  40
ENDBRANCH  37  38
ENDBRANCH   1  37
TORSDOF 12
ENDMDL
MODEL 2
REMARK VINA RESULT:     -12.2      3.556      8.580
REMARK SMILES C[C@H]1[C@H](C)CC[C@@]2(C(=O)OCCOC(=O)c3ccc(-c4c5nc(c(-c6c(F)cccc6F)c6ccc([nH]6)c(-c6c(F)cccc6F)c6nc(c(-c7c(F)cccc7F)c7ccc4[nH]7)C=C6)C=C5)cc3)CC[C@@]3(C)C(=CC[C@@H]4[C@@]5(C)CC[C@H](O)C(C)(C)[C@@H]5CC[C@]43C)[C@H]12
REMARK SMILES IDX 12 1 11 2 10 3 8 4 9 5 7 6 1 7 2 8 3 9 92 10 4 11 5 12 74 13
REMARK SMILES IDX 6 14 70 15 72 16 75 17 71 18 73 19 90 20 76 21 77 22 89 23
REMARK SMILES IDX 91 24 78 25 88 26 79 27 80 28 87 29 81 30 84 31 82 32 85 33
REMARK SMILES IDX 86 34 83 35 13 37 14 38 15 39 16 40 17 41 69 42 18 43 68 44
REMARK SMILES IDX 19 45 20 46 21 47 62 48 22 49 67 50 61 51 63 52 23 53 66 54
REMARK SMILES IDX 60 55 59 56 24 58 50 59 33 60 49 61 34 62 37 63 48 64 64 65
REMARK SMILES IDX 35 66 36 67 47 69 65 70 38 71 25 72 26 73 31 74 27 75 28 76
REMARK SMILES IDX 30 77 32 78 29 79 51 80 52 81 57 82 53 83 54 84 56 85 58 86
REMARK SMILES IDX 55 87 39 88 40 89 45 90 41 91 42 92 44 93 46 94 43 95
REMARK H PARENT 83 36 63 57 37 68
REMARK Flexibility Score: inf
ROOT
ATOM      1  C   UNL A   1      37.225  23.834  26.211  1.00  0.00     0.275 C 
ENDROOT
BRANCH   1   2
ATOM      2  C   UNL A   1      35.958  23.200  26.811  1.00  0.00     0.274 C 
BRANCH   2   3
ATOM      3  O   UNL A   1      34.751  23.264  26.021  1.00  0.00    -0.462 OA
BRANCH   3   4
ATOM      4  C   UNL A   1      34.237  22.049  25.691  1.00  0.00     0.312 C 
ATOM      5  O   UNL A   1      33.521  21.443  26.460  1.00  0.00    -0.252 OA
BRANCH   4   6
ATOM      6  C   UNL A   1      34.779  21.414  24.392  1.00  0.00     0.075 C 
ATOM      7  C   UNL A   1      31.795  19.295  22.969  1.00  0.00     0.008 C 
ATOM      8  C   UNL A   1      32.839  19.767  23.997  1.00  0.00    -0.003 C 
ATOM      9  C   UNL A   1      33.813  18.586  24.321  1.00  0.00    -0.011 C 
ATOM     10  C   UNL A   1      33.572  21.061  23.477  1.00  0.00     0.036 C 
ATOM     11  C   UNL A   1      33.104  17.427  25.041  1.00  0.00     0.008 C 
ATOM     12  C   UNL A   1      35.011  18.983  25.187  1.00  0.00     0.005 C 
ATOM     13  C   UNL A   1      32.757  22.394  23.318  1.00  0.00    -0.063 C 
ATOM     14  C   UNL A   1      35.710  20.229  24.687  1.00  0.00     0.020 C 
ATOM     15  C   UNL A   1      35.642  22.452  23.612  1.00  0.00     0.020 C 
ATOM     16  C   UNL A   1      33.481  23.617  22.643  1.00  0.00    -0.006 C 
ATOM     17  C   UNL A   1      31.591  22.559  23.978  1.00  0.00    -0.027 C 
ATOM     18  C   UNL A   1      34.926  23.753  23.226  1.00  0.00     0.013 C 
ATOM     19  C   UNL A   1      33.660  23.296  21.136  1.00  0.00     0.017 C 
ATOM     20  C   UNL A   1      32.635  25.047  22.826  1.00  0.00    -0.020 C 
ATOM     21  C   UNL A   1      31.001  23.885  24.361  1.00  0.00     0.032 C 
ATOM     22  C   UNL A   1      32.024  25.038  24.272  1.00  0.00     0.006 C 
ATOM     23  C   UNL A   1      33.523  26.310  22.657  1.00  0.00     0.008 C 
ATOM     24  C   UNL A   1      31.524  25.155  21.747  1.00  0.00     0.012 C 
ATOM     25  C   UNL A   1      31.562  26.399  24.964  1.00  0.00    -0.025 C 
ATOM     26  C   UNL A   1      32.887  27.623  23.146  1.00  0.00     0.005 C 
ATOM     27  C   UNL A   1      30.121  26.761  24.560  1.00  0.00     0.012 C 
ATOM     28  C   UNL A   1      31.586  26.184  26.516  1.00  0.00     0.010 C 
ATOM     29  C   UNL A   1      32.609  27.528  24.657  1.00  0.00     0.003 C 
ATOM     30  C   UNL A   1      31.438  27.455  27.355  1.00  0.00     0.033 C 
ATOM     31  C   UNL A   1      32.408  28.895  25.425  1.00  0.00    -0.006 C 
ATOM     32  C   UNL A   1      32.396  28.577  26.952  1.00  0.00     0.120 C 
ATOM     33  C   UNL A   1      31.154  29.691  25.016  1.00  0.00     0.014 C 
ATOM     34  C   UNL A   1      33.602  29.854  25.146  1.00  0.00     0.014 C 
BRANCH  32  35
ATOM     35  O   UNL A   1      32.119  29.733  27.743  1.00  0.00    -0.393 OA
ATOM     36  H   UNL A   1      32.953  30.141  28.023  1.00  0.00     0.210 HD
ENDBRANCH  32  35
ENDBRANCH   4   6
ENDBRANCH   3   4
ENDBRANCH   2   3
ENDBRANCH   1   2
BRANCH   1  37
ATOM     37  O   UNL A   1      38.176  22.876  25.717  1.00  0.00    -0.458 OA
BRANCH  37  38
ATOM     38  C   UNL A   1      39.299  22.725  26.470  1.00  0.00     0.338 C 
ATOM     39  O   UNL A   1      39.915  21.682  26.638  1.00  0.00    -0.246 OA
BRANCH  38  40
ATOM     40  C   UNL A   1      39.819  24.055  26.892  1.00  0.00     0.060 A 
ATOM     41  C   UNL A   1      40.069  24.278  28.258  1.00  0.00     0.016 A 
ATOM     42  C   UNL A   1      40.162  25.037  25.967  1.00  0.00     0.016 A 
ATOM     43  C   UNL A   1      40.653  25.474  28.702  1.00  0.00     0.010 A 
ATOM     44  C   UNL A   1      40.742  26.227  26.412  1.00  0.00     0.010 A 
ATOM     45  C   UNL A   1      40.970  26.474  27.780  1.00  0.00    -0.014 A 
BRANCH  45  46
ATOM     46  C   UNL A   1      41.205  27.883  28.201  1.00  0.00     0.031 A 
ATOM     47  C   UNL A   1      42.645  28.314  28.295  1.00  0.00     0.074 A 
ATOM     48  C   UNL A   1      40.235  28.740  28.573  1.00  0.00     0.049 A 
ATOM     49  N   UNL A   1      43.160  29.431  28.737  1.00  0.00    -0.248 NA
ATOM     50  C   UNL A   1      43.644  27.319  27.862  1.00  0.00     0.031 C 
ATOM     51  C   UNL A   1      38.801  28.481  28.542  1.00  0.00     0.029 A 
ATOM     52  N   UNL A   1      40.325  30.010  29.096  1.00  0.00    -0.354 N 
ATOM     53  C   UNL A   1      44.534  29.264  28.632  1.00  0.00     0.074 A 
ATOM     54  C   UNL A   1      44.774  27.903  28.211  1.00  0.00     0.031 C 
ATOM     55  C   UNL A   1      38.146  29.519  29.097  1.00  0.00     0.029 A 
ATOM     56  C   UNL A   1      39.117  30.542  29.481  1.00  0.00     0.049 A 
ATOM     57  H   UNL A   1      41.177  30.494  29.185  1.00  0.00     0.167 HD
ATOM     58  C   UNL A   1      45.518  30.176  28.793  1.00  0.00     0.037 A 
ATOM     59  C   UNL A   1      38.830  31.726  30.058  1.00  0.00     0.037 A 
ATOM     60  C   UNL A   1      45.291  31.537  29.174  1.00  0.00     0.049 A 
ATOM     61  C   UNL A   1      39.938  32.727  30.275  1.00  0.00     0.074 A 
ATOM     62  C   UNL A   1      46.205  32.566  29.296  1.00  0.00     0.029 A 
ATOM     63  N   UNL A   1      44.048  32.058  29.499  1.00  0.00    -0.354 N 
ATOM     64  N   UNL A   1      41.224  32.603  30.047  1.00  0.00    -0.248 NA
ATOM     65  C   UNL A   1      39.546  34.054  30.778  1.00  0.00     0.031 C 
ATOM     66  C   UNL A   1      45.515  33.709  29.717  1.00  0.00     0.029 A 
ATOM     67  C   UNL A   1      44.169  33.395  29.828  1.00  0.00     0.049 A 
ATOM     68  H   UNL A   1      43.205  31.550  29.495  1.00  0.00     0.167 HD
ATOM     69  C   UNL A   1      41.781  33.847  30.317  1.00  0.00     0.074 A 
ATOM     70  C   UNL A   1      40.696  34.710  30.736  1.00  0.00     0.031 C 
ATOM     71  C   UNL A   1      43.073  34.245  30.210  1.00  0.00     0.037 A 
BRANCH  58  72
ATOM     72  C   UNL A   1      46.908  29.702  28.501  1.00  0.00     0.057 A 
ATOM     73  C   UNL A   1      47.739  29.213  29.522  1.00  0.00     0.134 A 
ATOM     74  C   UNL A   1      47.455  29.818  27.220  1.00  0.00     0.134 A 
ATOM     75  F   UNL A   1      47.280  29.108  30.779  1.00  0.00    -0.206 F 
ATOM     76  C   UNL A   1      49.079  28.910  29.290  1.00  0.00     0.040 A 
ATOM     77  C   UNL A   1      48.787  29.487  26.968  1.00  0.00     0.040 A 
ATOM     78  F   UNL A   1      46.715  30.281  26.202  1.00  0.00    -0.206 F 
ATOM     79  C   UNL A   1      49.607  29.048  28.009  1.00  0.00     0.006 A 
ENDBRANCH  58  72
BRANCH  59  80
ATOM     80  C   UNL A   1      37.431  32.086  30.409  1.00  0.00     0.057 A 
ATOM     81  C   UNL A   1      36.880  31.721  31.644  1.00  0.00     0.134 A 
ATOM     82  C   UNL A   1      36.591  32.736  29.498  1.00  0.00     0.134 A 
ATOM     83  F   UNL A   1      37.627  31.070  32.548  1.00  0.00    -0.206 F 
ATOM     84  C   UNL A   1      35.539  31.960  31.949  1.00  0.00     0.040 A 
ATOM     85  C   UNL A   1      35.250  32.997  29.797  1.00  0.00     0.040 A 
ATOM     86  F   UNL A   1      37.053  33.108  28.295  1.00  0.00    -0.206 F 
ATOM     87  C   UNL A   1      34.718  32.599  31.023  1.00  0.00     0.006 A 
ENDBRANCH  59  80
BRANCH  71  88
ATOM     88  C   UNL A   1      43.379  35.687  30.481  1.00  0.00     0.057 A 
ATOM     89  C   UNL A   1      43.741  36.145  31.753  1.00  0.00     0.134 A 
ATOM     90  C   UNL A   1      43.365  36.620  29.435  1.00  0.00     0.134 A 
ATOM     91  F   UNL A   1      43.760  35.303  32.798  1.00  0.00    -0.206 F 
ATOM     92  C   UNL A   1      44.063  37.484  31.979  1.00  0.00     0.040 A 
ATOM     93  C   UNL A   1      43.710  37.955  29.644  1.00  0.00     0.040 A 
ATOM     94  F   UNL A   1      43.036  36.244  28.190  1.00  0.00    -0.206 F 
ATOM     95  C   UNL A   1      44.057  38.391  30.921  1.00  0.00     0.006 A 
ENDBRANCH  71  88
ENDBRANCH  45  46
ENDBRANCH  38  40
ENDBRANCH  37  38
ENDBRANCH   1  37
TORSDOF 12
ENDMDL
MODEL 3
REMARK VINA RESULT:     -12.1      1.762      2.447
REMARK SMILES C[C@H]1[C@H](C)CC[C@@]2(C(=O)OCCOC(=O)c3ccc(-c4c5nc(c(-c6c(F)cccc6F)c6ccc([nH]6)c(-c6c(F)cccc6F)c6nc(c(-c7c(F)cccc7F)c7ccc4[nH]7)C=C6)C=C5)cc3)CC[C@@]3(C)C(=CC[C@@H]4[C@@]5(C)CC[C@H](O)C(C)(C)[C@@H]5CC[C@]43C)[C@H]12
REMARK SMILES IDX 12 1 11 2 10 3 8 4 9 5 7 6 1 7 2 8 3 9 92 10 4 11 5 12 74 13
REMARK SMILES IDX 6 14 70 15 72 16 75 17 71 18 73 19 90 20 76 21 77 22 89 23
REMARK SMILES IDX 91 24 78 25 88 26 79 27 80 28 87 29 81 30 84 31 82 32 85 33
REMARK SMILES IDX 86 34 83 35 13 37 14 38 15 39 16 40 17 41 69 42 18 43 68 44
REMARK SMILES IDX 19 45 20 46 21 47 62 48 22 49 67 50 61 51 63 52 23 53 66 54
REMARK SMILES IDX 60 55 59 56 24 58 50 59 33 60 49 61 34 62 37 63 48 64 64 65
REMARK SMILES IDX 35 66 36 67 47 69 65 70 38 71 25 72 26 73 31 74 27 75 28 76
REMARK SMILES IDX 30 77 32 78 29 79 51 80 52 81 57 82 53 83 54 84 56 85 58 86
REMARK SMILES IDX 55 87 39 88 40 89 45 90 41 91 42 92 44 93 46 94 43 95
REMARK H PARENT 83 36 63 57 37 68
REMARK Flexibility Score: inf
ROOT
ATOM      1  C   UNL A   1      34.293  29.325  27.053  1.00  0.00     0.275 C 
ENDROOT
BRANCH   1   2
ATOM      2  C   UNL A   1      34.399  28.963  25.561  1.00  0.00     0.274 C 
BRANCH   2   3
ATOM      3  O   UNL A   1      33.558  27.893  25.080  1.00  0.00    -0.462 OA
BRANCH   3   4
ATOM      4  C   UNL A   1      32.463  28.312  24.392  1.00  0.00     0.312 C 
ATOM      5  O   UNL A   1      32.531  28.577  23.210  1.00  0.00    -0.252 OA
BRANCH   4   6
ATOM      6  C   UNL A   1      31.208  28.619  25.238  1.00  0.00     0.075 C 
ATOM      7  C   UNL A   1      28.180  28.112  22.790  1.00  0.00     0.008 C 
ATOM      8  C   UNL A   1      29.514  28.685  23.298  1.00  0.00    -0.003 C 
ATOM      9  C   UNL A   1      29.360  30.226  23.524  1.00  0.00    -0.011 C 
ATOM     10  C   UNL A   1      29.989  27.907  24.583  1.00  0.00     0.036 C 
ATOM     11  C   UNL A   1      29.125  30.987  22.208  1.00  0.00     0.008 C 
ATOM     12  C   UNL A   1      30.562  30.881  24.209  1.00  0.00     0.005 C 
ATOM     13  C   UNL A   1      30.398  26.396  24.459  1.00  0.00    -0.063 C 
ATOM     14  C   UNL A   1      31.018  30.129  25.441  1.00  0.00     0.020 C 
ATOM     15  C   UNL A   1      31.366  28.012  26.665  1.00  0.00     0.020 C 
ATOM     16  C   UNL A   1      30.708  25.611  25.788  1.00  0.00    -0.006 C 
ATOM     17  C   UNL A   1      30.732  25.880  23.257  1.00  0.00    -0.027 C 
ATOM     18  C   UNL A   1      31.599  26.496  26.719  1.00  0.00     0.013 C 
ATOM     19  C   UNL A   1      29.371  25.409  26.548  1.00  0.00     0.017 C 
ATOM     20  C   UNL A   1      31.434  24.133  25.507  1.00  0.00    -0.020 C 
ATOM     21  C   UNL A   1      31.623  24.691  23.051  1.00  0.00     0.032 C 
ATOM     22  C   UNL A   1      32.436  24.331  24.314  1.00  0.00     0.006 C 
ATOM     23  C   UNL A   1      32.210  23.588  26.737  1.00  0.00     0.008 C 
ATOM     24  C   UNL A   1      30.362  23.063  25.168  1.00  0.00     0.012 C 
ATOM     25  C   UNL A   1      33.625  23.295  24.074  1.00  0.00    -0.025 C 
ATOM     26  C   UNL A   1      33.169  22.422  26.438  1.00  0.00     0.005 C 
ATOM     27  C   UNL A   1      33.151  22.099  23.231  1.00  0.00     0.012 C 
ATOM     28  C   UNL A   1      34.753  24.032  23.273  1.00  0.00     0.010 C 
ATOM     29  C   UNL A   1      34.256  22.889  25.454  1.00  0.00     0.003 C 
ATOM     30  C   UNL A   1      36.086  23.286  23.184  1.00  0.00     0.033 C 
ATOM     31  C   UNL A   1      35.573  22.017  25.390  1.00  0.00    -0.006 C 
ATOM     32  C   UNL A   1      36.614  22.804  24.536  1.00  0.00     0.120 C 
ATOM     33  C   UNL A   1      35.379  20.588  24.848  1.00  0.00     0.014 C 
ATOM     34  C   UNL A   1      36.168  21.829  26.815  1.00  0.00     0.014 C 
BRANCH  32  35
ATOM     35  O   UNL A   1      37.815  22.059  24.327  1.00  0.00    -0.393 OA
ATOM     36  H   UNL A   1      38.518  22.414  24.893  1.00  0.00     0.210 HD
ENDBRANCH  32  35
ENDBRANCH   4   6
ENDBRANCH   3   4
ENDBRANCH   2   3
ENDBRANCH   1   2
BRANCH   1  37
ATOM     37  O   UNL A   1      34.188  30.736  27.303  1.00  0.00    -0.458 OA
BRANCH  37  38
ATOM     38  C   UNL A   1      34.889  31.194  28.375  1.00  0.00     0.338 C 
ATOM     39  O   UNL A   1      34.471  31.958  29.233  1.00  0.00    -0.246 OA
BRANCH  38  40
ATOM     40  C   UNL A   1      36.181  30.462  28.497  1.00  0.00     0.060 A 
ATOM     41  C   UNL A   1      36.432  29.732  29.672  1.00  0.00     0.016 A 
ATOM     42  C   UNL A   1      37.090  30.396  27.445  1.00  0.00     0.016 A 
ATOM     43  C   UNL A   1      37.585  28.942  29.803  1.00  0.00     0.010 A 
ATOM     44  C   UNL A   1      38.237  29.610  27.578  1.00  0.00     0.010 A 
ATOM     45  C   UNL A   1      38.514  28.897  28.760  1.00  0.00    -0.014 A 
BRANCH  45  46
ATOM     46  C   UNL A   1      39.911  28.426  28.975  1.00  0.00     0.031 A 
ATOM     47  C   UNL A   1      40.868  29.435  29.550  1.00  0.00     0.074 A 
ATOM     48  C   UNL A   1      40.371  27.212  28.614  1.00  0.00     0.049 A 
ATOM     49  N   UNL A   1      42.159  29.355  29.741  1.00  0.00    -0.248 NA
ATOM     50  C   UNL A   1      40.284  30.737  29.925  1.00  0.00     0.031 C 
ATOM     51  C   UNL A   1      39.579  26.127  28.047  1.00  0.00     0.029 A 
ATOM     52  N   UNL A   1      41.649  26.704  28.641  1.00  0.00    -0.354 N 
ATOM     53  C   UNL A   1      42.528  30.590  30.255  1.00  0.00     0.074 A 
ATOM     54  C   UNL A   1      41.359  31.439  30.225  1.00  0.00     0.031 C 
ATOM     55  C   UNL A   1      40.394  25.112  27.702  1.00  0.00     0.029 A 
ATOM     56  C   UNL A   1      41.766  25.457  28.071  1.00  0.00     0.049 A 
ATOM     57  H   UNL A   1      42.411  27.187  29.033  1.00  0.00     0.167 HD
ATOM     58  C   UNL A   1      43.711  30.975  30.783  1.00  0.00     0.037 A 
ATOM     59  C   UNL A   1      42.853  24.681  27.888  1.00  0.00     0.037 A 
ATOM     60  C   UNL A   1      44.866  30.132  30.853  1.00  0.00     0.049 A 
ATOM     61  C   UNL A   1      44.182  25.132  28.441  1.00  0.00     0.074 A 
ATOM     62  C   UNL A   1      46.094  30.392  31.431  1.00  0.00     0.029 A 
ATOM     63  N   UNL A   1      44.931  28.855  30.319  1.00  0.00    -0.354 N 
ATOM     64  N   UNL A   1      44.490  26.255  29.045  1.00  0.00    -0.248 NA
ATOM     65  C   UNL A   1      45.302  24.184  28.335  1.00  0.00     0.031 C 
ATOM     66  C   UNL A   1      46.913  29.276  31.226  1.00  0.00     0.029 A 
ATOM     67  C   UNL A   1      46.182  28.312  30.547  1.00  0.00     0.049 A 
ATOM     68  H   UNL A   1      44.195  28.402  29.847  1.00  0.00     0.167 HD
ATOM     69  C   UNL A   1      45.814  26.121  29.446  1.00  0.00     0.074 A 
ATOM     70  C   UNL A   1      46.255  24.814  29.006  1.00  0.00     0.031 C 
ATOM     71  C   UNL A   1      46.591  26.996  30.132  1.00  0.00     0.037 A 
BRANCH  58  72
ATOM     72  C   UNL A   1      43.757  32.357  31.356  1.00  0.00     0.057 A 
ATOM     73  C   UNL A   1      43.380  32.606  32.685  1.00  0.00     0.134 A 
ATOM     74  C   UNL A   1      44.089  33.457  30.559  1.00  0.00     0.134 A 
ATOM     75  F   UNL A   1      43.021  31.594  33.491  1.00  0.00    -0.206 F 
ATOM     76  C   UNL A   1      43.276  33.904  33.184  1.00  0.00     0.040 A 
ATOM     77  C   UNL A   1      44.020  34.759  31.057  1.00  0.00     0.040 A 
ATOM     78  F   UNL A   1      44.455  33.287  29.280  1.00  0.00    -0.206 F 
ATOM     79  C   UNL A   1      43.596  34.985  32.367  1.00  0.00     0.006 A 
ENDBRANCH  58  72
BRANCH  59  80
ATOM     80  C   UNL A   1      42.742  23.358  27.219  1.00  0.00     0.057 A 
ATOM     81  C   UNL A   1      42.327  22.223  27.928  1.00  0.00     0.134 A 
ATOM     82  C   UNL A   1      43.115  23.179  25.882  1.00  0.00     0.134 A 
ATOM     83  F   UNL A   1      41.985  22.326  29.221  1.00  0.00    -0.206 F 
ATOM     84  C   UNL A   1      42.316  20.955  27.344  1.00  0.00     0.040 A 
ATOM     85  C   UNL A   1      43.091  21.918  25.279  1.00  0.00     0.040 A 
ATOM     86  F   UNL A   1      43.527  24.222  25.147  1.00  0.00    -0.206 F 
ATOM     87  C   UNL A   1      42.700  20.799  26.014  1.00  0.00     0.006 A 
ENDBRANCH  59  80
BRANCH  71  88
ATOM     88  C   UNL A   1      47.969  26.548  30.513  1.00  0.00     0.057 A 
ATOM     89  C   UNL A   1      48.224  25.859  31.704  1.00  0.00     0.134 A 
ATOM     90  C   UNL A   1      49.048  26.764  29.645  1.00  0.00     0.134 A 
ATOM     91  F   UNL A   1      47.236  25.632  32.584  1.00  0.00    -0.206 F 
ATOM     92  C   UNL A   1      49.507  25.413  32.026  1.00  0.00     0.040 A 
ATOM     93  C   UNL A   1      50.329  26.301  29.944  1.00  0.00     0.040 A 
ATOM     94  F   UNL A   1      48.868  27.411  28.483  1.00  0.00    -0.206 F 
ATOM     95  C   UNL A   1      50.562  25.626  31.140  1.00  0.00     0.006 A 
ENDBRANCH  71  88
ENDBRANCH  45  46
ENDBRANCH  38  40
ENDBRANCH  37  38
ENDBRANCH   1  37
TORSDOF 12
ENDMDL
