MODEL 1
REMARK VINA RESULT:     -13.2      0.000      0.000
REMARK SMILES Cc1cccc(C(=O)Nc2cc(C(=O)OCCOC(=O)c3ccc(-c4c5nc(c(-c6c(F)cccc6F)c6ccc([nH]6)c(-c6c(F)cccc6F)c6nc(c(-c7c(F)cccc7F)c7ccc4[nH]7)C=C6)C=C5)cc3)ccc2N2CC[NH+](CC(=O)NC(C)(C)C)CC2)c1
REMARK SMILES IDX 16 1 15 2 13 3 14 4 12 5 10 6 11 7 77 8 76 9 75 10 9 11 7 12
REMARK SMILES IDX 8 13 6 15 1 16 2 17 3 18 92 19 4 20 5 21 78 22 79 23 91 24
REMARK SMILES IDX 80 25 90 26 81 27 82 29 83 30 84 31 85 32 86 34 87 35 88 36
REMARK SMILES IDX 89 37 17 38 18 39 19 40 20 41 21 42 22 43 74 44 23 45 73 46
REMARK SMILES IDX 24 47 25 48 26 49 67 50 27 51 72 52 66 53 68 54 28 55 71 56
REMARK SMILES IDX 65 57 64 58 29 60 55 61 38 62 54 63 39 64 42 65 53 66 69 67
REMARK SMILES IDX 40 68 41 69 52 71 70 72 43 73 30 74 31 75 36 76 32 77 33 78
REMARK SMILES IDX 35 79 37 80 34 81 56 82 57 83 62 84 58 85 59 86 61 87 63 88
REMARK SMILES IDX 60 89 44 90 45 91 50 92 46 93 47 94 49 95 51 96 48 97
REMARK H PARENT 9 14 81 28 85 33 68 59 42 70
REMARK Flexibility Score: inf
ROOT
ATOM      1  C   UNL A   1      32.712  33.073  27.456  1.00  0.00     0.275 C 
ENDROOT
BRANCH   1   2
ATOM      2  O   UNL A   1      32.867  31.664  27.262  1.00  0.00    -0.458 OA
BRANCH   2   3
ATOM      3  C   UNL A   1      31.870  31.148  26.529  1.00  0.00     0.338 C 
ATOM      4  O   UNL A   1      30.994  31.774  25.937  1.00  0.00    -0.246 OA
BRANCH   3   5
ATOM      5  C   UNL A   1      31.797  29.700  26.546  1.00  0.00     0.062 A 
ATOM      6  C   UNL A   1      31.814  27.860  25.019  1.00  0.00     0.065 A 
ATOM      7  C   UNL A   1      31.470  29.160  25.310  1.00  0.00     0.044 A 
ATOM      8  C   UNL A   1      32.328  26.995  26.045  1.00  0.00     0.061 A 
ATOM      9  C   UNL A   1      32.551  27.562  27.319  1.00  0.00     0.029 A 
ATOM     10  C   UNL A   1      32.330  28.921  27.565  1.00  0.00     0.018 A 
BRANCH   6  11
ATOM     11  N   UNL A   1      31.634  27.385  23.711  1.00  0.00    -0.320 N 
ATOM     12  C   UNL A   1      30.790  27.670  22.656  1.00  0.00     0.255 C 
ATOM     13  O   UNL A   1      31.034  27.050  21.612  1.00  0.00    -0.269 OA
ATOM     14  H   UNL A   1      32.271  26.668  23.489  1.00  0.00     0.170 HD
BRANCH  12  15
ATOM     15  C   UNL A   1      29.655  28.650  22.608  1.00  0.00     0.040 A 
ATOM     16  C   UNL A   1      28.608  32.266  21.919  1.00  0.00     0.044 C 
ATOM     17  C   UNL A   1      28.550  30.798  22.225  1.00  0.00    -0.050 A 
ATOM     18  C   UNL A   1      27.351  30.291  22.724  1.00  0.00     0.003 A 
ATOM     19  C   UNL A   1      29.680  29.956  22.103  1.00  0.00     0.017 A 
ATOM     20  C   UNL A   1      27.279  28.970  23.133  1.00  0.00     0.001 A 
ATOM     21  C   UNL A   1      28.423  28.170  23.095  1.00  0.00     0.014 A 
ENDBRANCH  12  15
ENDBRANCH   6  11
BRANCH   8  22
ATOM     22  N   UNL A   1      32.660  25.667  25.808  1.00  0.00    -0.359 N 
ATOM     23  C   UNL A   1      31.926  24.496  26.340  1.00  0.00     0.178 C 
ATOM     24  C   UNL A   1      34.046  25.319  25.520  1.00  0.00     0.178 C 
ATOM     25  C   UNL A   1      32.129  23.232  25.427  1.00  0.00     0.284 C 
ATOM     26  C   UNL A   1      34.020  24.313  24.357  1.00  0.00     0.284 C 
ATOM     27  N   UNL A   1      33.420  23.031  24.725  1.00  0.00    -0.324 N 
ATOM     28  H   UNL A   1      33.171  22.534  23.869  1.00  0.00     0.348 HD
BRANCH  27  29
ATOM     29  C   UNL A   1      34.367  22.075  25.326  1.00  0.00     0.363 C 
BRANCH  29  30
ATOM     30  C   UNL A   1      33.792  21.149  26.388  1.00  0.00     0.275 C 
ATOM     31  O   UNL A   1      33.781  21.508  27.573  1.00  0.00    -0.268 OA
ATOM     32  N   UNL A   1      33.265  19.919  26.133  1.00  0.00    -0.347 N 
ATOM     33  H   UNL A   1      32.785  19.586  26.926  1.00  0.00     0.164 HD
BRANCH  32  34
ATOM     34  C   UNL A   1      33.188  18.918  25.030  1.00  0.00     0.032 C 
ATOM     35  C   UNL A   1      32.517  19.523  23.782  1.00  0.00     0.034 C 
ATOM     36  C   UNL A   1      34.646  18.606  24.625  1.00  0.00     0.034 C 
ATOM     37  C   UNL A   1      32.527  17.584  25.385  1.00  0.00     0.034 C 
ENDBRANCH  32  34
ENDBRANCH  29  30
ENDBRANCH  27  29
ENDBRANCH   8  22
ENDBRANCH   3   5
ENDBRANCH   2   3
ENDBRANCH   1   2
BRANCH   1  38
ATOM     38  C   UNL A   1      33.994  33.708  27.976  1.00  0.00     0.275 C 
BRANCH  38  39
ATOM     39  O   UNL A   1      33.970  34.349  29.283  1.00  0.00    -0.458 OA
BRANCH  39  40
ATOM     40  C   UNL A   1      34.403  33.935  30.500  1.00  0.00     0.338 C 
ATOM     41  O   UNL A   1      33.717  34.103  31.497  1.00  0.00    -0.246 OA
BRANCH  40  42
ATOM     42  C   UNL A   1      35.733  33.296  30.645  1.00  0.00     0.060 A 
ATOM     43  C   UNL A   1      36.810  33.741  29.847  1.00  0.00     0.016 A 
ATOM     44  C   UNL A   1      35.931  32.266  31.550  1.00  0.00     0.016 A 
ATOM     45  C   UNL A   1      38.093  33.190  29.991  1.00  0.00     0.010 A 
ATOM     46  C   UNL A   1      37.212  31.807  31.776  1.00  0.00     0.010 A 
ATOM     47  C   UNL A   1      38.293  32.216  30.966  1.00  0.00    -0.014 A 
BRANCH  47  48
ATOM     48  C   UNL A   1      39.450  31.320  31.080  1.00  0.00     0.031 A 
ATOM     49  C   UNL A   1      39.603  30.020  30.392  1.00  0.00     0.074 A 
ATOM     50  C   UNL A   1      40.513  31.951  31.627  1.00  0.00     0.049 A 
ATOM     51  N   UNL A   1      40.683  29.684  29.760  1.00  0.00    -0.248 NA
ATOM     52  C   UNL A   1      38.550  28.997  30.334  1.00  0.00     0.031 C 
ATOM     53  C   UNL A   1      41.927  31.631  31.590  1.00  0.00     0.029 A 
ATOM     54  N   UNL A   1      40.428  33.012  32.541  1.00  0.00    -0.354 N 
ATOM     55  C   UNL A   1      40.511  28.412  29.269  1.00  0.00     0.074 A 
ATOM     56  C   UNL A   1      39.146  28.037  29.608  1.00  0.00     0.031 C 
ATOM     57  C   UNL A   1      42.515  32.207  32.655  1.00  0.00     0.029 A 
ATOM     58  C   UNL A   1      41.447  32.769  33.472  1.00  0.00     0.049 A 
ATOM     59  H   UNL A   1      39.792  33.763  32.531  1.00  0.00     0.167 HD
ATOM     60  C   UNL A   1      41.556  27.543  29.196  1.00  0.00     0.037 A 
ATOM     61  C   UNL A   1      41.077  32.312  34.707  1.00  0.00     0.037 A 
ATOM     62  C   UNL A   1      42.539  27.836  30.212  1.00  0.00     0.049 A 
ATOM     63  C   UNL A   1      41.589  30.914  34.957  1.00  0.00     0.074 A 
ATOM     64  C   UNL A   1      43.660  28.640  30.290  1.00  0.00     0.029 A 
ATOM     65  N   UNL A   1      42.227  27.451  31.503  1.00  0.00    -0.354 N 
ATOM     66  N   UNL A   1      41.808  30.028  34.019  1.00  0.00    -0.248 NA
ATOM     67  C   UNL A   1      41.962  30.436  36.282  1.00  0.00     0.031 C 
ATOM     68  C   UNL A   1      43.945  28.833  31.672  1.00  0.00     0.029 A 
ATOM     69  C   UNL A   1      43.023  28.109  32.411  1.00  0.00     0.049 A 
ATOM     70  H   UNL A   1      41.530  26.796  31.740  1.00  0.00     0.167 HD
ATOM     71  C   UNL A   1      42.409  28.929  34.573  1.00  0.00     0.074 A 
ATOM     72  C   UNL A   1      42.463  29.223  35.994  1.00  0.00     0.031 C 
ATOM     73  C   UNL A   1      42.843  27.868  33.833  1.00  0.00     0.037 A 
BRANCH  60  74
ATOM     74  C   UNL A   1      41.801  26.774  27.924  1.00  0.00     0.057 A 
ATOM     75  C   UNL A   1      42.542  27.339  26.867  1.00  0.00     0.134 A 
ATOM     76  C   UNL A   1      41.247  25.510  27.647  1.00  0.00     0.134 A 
ATOM     77  F   UNL A   1      43.148  28.529  26.994  1.00  0.00    -0.206 F 
ATOM     78  C   UNL A   1      42.675  26.720  25.615  1.00  0.00     0.040 A 
ATOM     79  C   UNL A   1      41.379  24.877  26.402  1.00  0.00     0.040 A 
ATOM     80  F   UNL A   1      40.543  24.840  28.568  1.00  0.00    -0.206 F 
ATOM     81  C   UNL A   1      42.083  25.488  25.375  1.00  0.00     0.006 A 
ENDBRANCH  60  74
BRANCH  61  82
ATOM     82  C   UNL A   1      39.770  32.877  35.178  1.00  0.00     0.057 A 
ATOM     83  C   UNL A   1      38.637  32.034  35.176  1.00  0.00     0.134 A 
ATOM     84  C   UNL A   1      39.659  34.062  35.912  1.00  0.00     0.134 A 
ATOM     85  F   UNL A   1      38.665  30.871  34.502  1.00  0.00    -0.206 F 
ATOM     86  C   UNL A   1      37.500  32.297  35.947  1.00  0.00     0.040 A 
ATOM     87  C   UNL A   1      38.508  34.352  36.667  1.00  0.00     0.040 A 
ATOM     88  F   UNL A   1      40.685  34.921  35.989  1.00  0.00    -0.206 F 
ATOM     89  C   UNL A   1      37.441  33.453  36.714  1.00  0.00     0.006 A 
ENDBRANCH  61  82
BRANCH  73  90
ATOM     90  C   UNL A   1      43.186  26.508  34.388  1.00  0.00     0.057 A 
ATOM     91  C   UNL A   1      44.501  26.040  34.520  1.00  0.00     0.134 A 
ATOM     92  C   UNL A   1      42.196  25.700  34.991  1.00  0.00     0.134 A 
ATOM     93  F   UNL A   1      45.550  26.768  34.117  1.00  0.00    -0.206 F 
ATOM     94  C   UNL A   1      44.806  24.822  35.140  1.00  0.00     0.040 A 
ATOM     95  C   UNL A   1      42.497  24.514  35.666  1.00  0.00     0.040 A 
ATOM     96  F   UNL A   1      40.900  26.047  34.987  1.00  0.00    -0.206 F 
ATOM     97  C   UNL A   1      43.804  24.061  35.726  1.00  0.00     0.006 A 
ENDBRANCH  73  90
ENDBRANCH  47  48
ENDBRANCH  40  42
ENDBRANCH  39  40
ENDBRANCH  38  39
ENDBRANCH   1  38
TORSDOF 17
ENDMDL
MODEL 2
REMARK VINA RESULT:     -13.2      1.039      1.935
REMARK SMILES Cc1cccc(C(=O)Nc2cc(C(=O)OCCOC(=O)c3ccc(-c4c5nc(c(-c6c(F)cccc6F)c6ccc([nH]6)c(-c6c(F)cccc6F)c6nc(c(-c7c(F)cccc7F)c7ccc4[nH]7)C=C6)C=C5)cc3)ccc2N2CC[NH+](CC(=O)NC(C)(C)C)CC2)c1
REMARK SMILES IDX 16 1 15 2 13 3 14 4 12 5 10 6 11 7 77 8 76 9 75 10 9 11 7 12
REMARK SMILES IDX 8 13 6 15 1 16 2 17 3 18 92 19 4 20 5 21 78 22 79 23 91 24
REMARK SMILES IDX 80 25 90 26 81 27 82 29 83 30 84 31 85 32 86 34 87 35 88 36
REMARK SMILES IDX 89 37 17 38 18 39 19 40 20 41 21 42 22 43 74 44 23 45 73 46
REMARK SMILES IDX 24 47 25 48 26 49 67 50 27 51 72 52 66 53 68 54 28 55 71 56
REMARK SMILES IDX 65 57 64 58 29 60 55 61 38 62 54 63 39 64 42 65 53 66 69 67
REMARK SMILES IDX 40 68 41 69 52 71 70 72 43 73 30 74 31 75 36 76 32 77 33 78
REMARK SMILES IDX 35 79 37 80 34 81 56 82 57 83 62 84 58 85 59 86 61 87 63 88
REMARK SMILES IDX 60 89 44 90 45 91 50 92 46 93 47 94 49 95 51 96 48 97
REMARK H PARENT 9 14 81 28 85 33 68 59 42 70
REMARK Flexibility Score: inf
ROOT
ATOM      1  C   UNL A   1      33.489  32.173  27.273  1.00  0.00     0.275 C 
ENDROOT
BRANCH   1   2
ATOM      2  O   UNL A   1      32.606  31.111  27.649  1.00  0.00    -0.458 OA
BRANCH   2   3
ATOM      3  C   UNL A   1      31.917  30.640  26.600  1.00  0.00     0.338 C 
ATOM      4  O   UNL A   1      31.250  31.298  25.805  1.00  0.00    -0.246 OA
BRANCH   3   5
ATOM      5  C   UNL A   1      31.902  29.195  26.490  1.00  0.00     0.062 A 
ATOM      6  C   UNL A   1      31.905  27.499  24.804  1.00  0.00     0.065 A 
ATOM      7  C   UNL A   1      31.528  28.752  25.229  1.00  0.00     0.044 A 
ATOM      8  C   UNL A   1      32.509  26.571  25.720  1.00  0.00     0.061 A 
ATOM      9  C   UNL A   1      32.781  27.033  27.026  1.00  0.00     0.029 A 
ATOM     10  C   UNL A   1      32.521  28.353  27.405  1.00  0.00     0.018 A 
BRANCH   6  11
ATOM     11  N   UNL A   1      31.671  27.134  23.470  1.00  0.00    -0.320 N 
ATOM     12  C   UNL A   1      30.813  27.532  22.465  1.00  0.00     0.255 C 
ATOM     13  O   UNL A   1      31.003  26.986  21.370  1.00  0.00    -0.269 OA
ATOM     14  H   UNL A   1      32.272  26.412  23.175  1.00  0.00     0.170 HD
BRANCH  12  15
ATOM     15  C   UNL A   1      29.719  28.558  22.525  1.00  0.00     0.040 A 
ATOM     16  C   UNL A   1      28.788  32.240  22.056  1.00  0.00     0.044 C 
ATOM     17  C   UNL A   1      28.686  30.763  22.300  1.00  0.00    -0.050 A 
ATOM     18  C   UNL A   1      27.495  30.281  22.844  1.00  0.00     0.003 A 
ATOM     19  C   UNL A   1      29.771  29.883  22.077  1.00  0.00     0.017 A 
ATOM     20  C   UNL A   1      27.391  28.946  23.198  1.00  0.00     0.001 A 
ATOM     21  C   UNL A   1      28.497  28.105  23.060  1.00  0.00     0.014 A 
ENDBRANCH  12  15
ENDBRANCH   6  11
BRANCH   8  22
ATOM     22  N   UNL A   1      32.880  25.284  25.346  1.00  0.00    -0.359 N 
ATOM     23  C   UNL A   1      32.224  24.040  25.808  1.00  0.00     0.178 C 
ATOM     24  C   UNL A   1      34.260  25.024  24.955  1.00  0.00     0.178 C 
ATOM     25  C   UNL A   1      32.424  22.871  24.776  1.00  0.00     0.284 C 
ATOM     26  C   UNL A   1      34.207  24.125  23.708  1.00  0.00     0.284 C 
ATOM     27  N   UNL A   1      33.680  22.790  23.991  1.00  0.00    -0.324 N 
ATOM     28  H   UNL A   1      33.402  22.360  23.108  1.00  0.00     0.348 HD
BRANCH  27  29
ATOM     29  C   UNL A   1      34.697  21.828  24.451  1.00  0.00     0.363 C 
BRANCH  29  30
ATOM     30  C   UNL A   1      34.360  21.065  25.725  1.00  0.00     0.275 C 
ATOM     31  O   UNL A   1      34.631  21.563  26.827  1.00  0.00    -0.268 OA
ATOM     32  N   UNL A   1      33.761  19.843  25.754  1.00  0.00    -0.347 N 
ATOM     33  H   UNL A   1      33.469  19.631  26.671  1.00  0.00     0.164 HD
BRANCH  32  34
ATOM     34  C   UNL A   1      33.410  18.723  24.834  1.00  0.00     0.032 C 
ATOM     35  C   UNL A   1      34.677  18.005  24.330  1.00  0.00     0.034 C 
ATOM     36  C   UNL A   1      32.640  17.688  25.684  1.00  0.00     0.034 C 
ATOM     37  C   UNL A   1      32.510  19.089  23.651  1.00  0.00     0.034 C 
ENDBRANCH  32  34
ENDBRANCH  29  30
ENDBRANCH  27  29
ENDBRANCH   8  22
ENDBRANCH   3   5
ENDBRANCH   2   3
ENDBRANCH   1   2
BRANCH   1  38
ATOM     38  C   UNL A   1      33.059  33.498  27.886  1.00  0.00     0.275 C 
BRANCH  38  39
ATOM     39  O   UNL A   1      33.945  34.136  28.851  1.00  0.00    -0.458 OA
BRANCH  39  40
ATOM     40  C   UNL A   1      34.429  33.718  30.047  1.00  0.00     0.338 C 
ATOM     41  O   UNL A   1      33.910  34.081  31.092  1.00  0.00    -0.246 OA
BRANCH  40  42
ATOM     42  C   UNL A   1      35.617  32.833  30.108  1.00  0.00     0.060 A 
ATOM     43  C   UNL A   1      35.611  31.717  30.973  1.00  0.00     0.016 A 
ATOM     44  C   UNL A   1      36.735  33.090  29.330  1.00  0.00     0.016 A 
ATOM     45  C   UNL A   1      36.700  30.832  31.021  1.00  0.00     0.010 A 
ATOM     46  C   UNL A   1      37.753  32.161  29.288  1.00  0.00     0.010 A 
ATOM     47  C   UNL A   1      37.778  31.059  30.170  1.00  0.00    -0.014 A 
BRANCH  47  48
ATOM     48  C   UNL A   1      39.110  30.448  30.266  1.00  0.00     0.031 A 
ATOM     49  C   UNL A   1      39.477  29.102  29.775  1.00  0.00     0.074 A 
ATOM     50  C   UNL A   1      40.056  31.367  30.559  1.00  0.00     0.049 A 
ATOM     51  N   UNL A   1      40.537  28.880  29.065  1.00  0.00    -0.248 NA
ATOM     52  C   UNL A   1      38.674  27.896  30.020  1.00  0.00     0.031 C 
ATOM     53  C   UNL A   1      41.496  31.335  30.383  1.00  0.00     0.029 A 
ATOM     54  N   UNL A   1      39.830  32.538  31.299  1.00  0.00    -0.354 N 
ATOM     55  C   UNL A   1      40.602  27.532  28.806  1.00  0.00     0.074 A 
ATOM     56  C   UNL A   1      39.392  26.959  29.380  1.00  0.00     0.031 C 
ATOM     57  C   UNL A   1      42.044  32.201  31.256  1.00  0.00     0.029 A 
ATOM     58  C   UNL A   1      40.963  32.676  32.111  1.00  0.00     0.049 A 
ATOM     59  H   UNL A   1      39.047  33.132  31.257  1.00  0.00     0.167 HD
ATOM     60  C   UNL A   1      41.800  26.891  28.730  1.00  0.00     0.037 A 
ATOM     61  C   UNL A   1      40.826  32.387  33.441  1.00  0.00     0.037 A 
ATOM     62  C   UNL A   1      42.789  27.553  29.547  1.00  0.00     0.049 A 
ATOM     63  C   UNL A   1      41.655  31.187  33.835  1.00  0.00     0.074 A 
ATOM     64  C   UNL A   1      43.708  28.566  29.347  1.00  0.00     0.029 A 
ATOM     65  N   UNL A   1      42.697  27.355  30.912  1.00  0.00    -0.354 N 
ATOM     66  N   UNL A   1      41.971  30.208  33.027  1.00  0.00    -0.248 NA
ATOM     67  C   UNL A   1      42.252  31.042  35.157  1.00  0.00     0.031 C 
ATOM     68  C   UNL A   1      44.077  29.059  30.630  1.00  0.00     0.029 A 
ATOM     69  C   UNL A   1      43.414  28.312  31.591  1.00  0.00     0.049 A 
ATOM     70  H   UNL A   1      42.189  26.627  31.339  1.00  0.00     0.167 HD
ATOM     71  C   UNL A   1      42.850  29.371  33.660  1.00  0.00     0.074 A 
ATOM     72  C   UNL A   1      42.977  29.922  34.997  1.00  0.00     0.031 C 
ATOM     73  C   UNL A   1      43.432  28.302  33.043  1.00  0.00     0.037 A 
BRANCH  60  74
ATOM     74  C   UNL A   1      42.083  25.969  27.572  1.00  0.00     0.057 A 
ATOM     75  C   UNL A   1      42.405  24.614  27.786  1.00  0.00     0.134 A 
ATOM     76  C   UNL A   1      42.147  26.387  26.230  1.00  0.00     0.134 A 
ATOM     77  F   UNL A   1      42.364  24.070  29.011  1.00  0.00    -0.206 F 
ATOM     78  C   UNL A   1      42.814  23.758  26.753  1.00  0.00     0.040 A 
ATOM     79  C   UNL A   1      42.546  25.538  25.187  1.00  0.00     0.040 A 
ATOM     80  F   UNL A   1      41.839  27.640  25.872  1.00  0.00    -0.206 F 
ATOM     81  C   UNL A   1      42.896  24.221  25.448  1.00  0.00     0.006 A 
ENDBRANCH  60  74
BRANCH  61  82
ATOM     82  C   UNL A   1      39.479  32.755  33.989  1.00  0.00     0.057 A 
ATOM     83  C   UNL A   1      39.163  34.125  34.122  1.00  0.00     0.134 A 
ATOM     84  C   UNL A   1      38.407  31.861  34.073  1.00  0.00     0.134 A 
ATOM     85  F   UNL A   1      40.135  35.051  34.044  1.00  0.00    -0.206 F 
ATOM     86  C   UNL A   1      37.848  34.589  34.224  1.00  0.00     0.040 A 
ATOM     87  C   UNL A   1      37.083  32.315  34.206  1.00  0.00     0.040 A 
ATOM     88  F   UNL A   1      38.602  30.542  33.942  1.00  0.00    -0.206 F 
ATOM     89  C   UNL A   1      36.798  33.680  34.246  1.00  0.00     0.006 A 
ENDBRANCH  61  82
BRANCH  73  90
ATOM     90  C   UNL A   1      44.119  27.162  33.754  1.00  0.00     0.057 A 
ATOM     91  C   UNL A   1      43.426  26.140  34.418  1.00  0.00     0.134 A 
ATOM     92  C   UNL A   1      45.510  26.957  33.622  1.00  0.00     0.134 A 
ATOM     93  F   UNL A   1      42.089  26.134  34.498  1.00  0.00    -0.206 F 
ATOM     94  C   UNL A   1      44.074  25.032  34.975  1.00  0.00     0.040 A 
ATOM     95  C   UNL A   1      46.159  25.824  34.120  1.00  0.00     0.040 A 
ATOM     96  F   UNL A   1      46.294  27.828  32.967  1.00  0.00    -0.206 F 
ATOM     97  C   UNL A   1      45.444  24.865  34.817  1.00  0.00     0.006 A 
ENDBRANCH  73  90
ENDBRANCH  47  48
ENDBRANCH  40  42
ENDBRANCH  39  40
ENDBRANCH  38  39
ENDBRANCH   1  38
TORSDOF 17
ENDMDL
MODEL 3
REMARK VINA RESULT:     -12.9      3.186      9.850
REMARK SMILES Cc1cccc(C(=O)Nc2cc(C(=O)OCCOC(=O)c3ccc(-c4c5nc(c(-c6c(F)cccc6F)c6ccc([nH]6)c(-c6c(F)cccc6F)c6nc(c(-c7c(F)cccc7F)c7ccc4[nH]7)C=C6)C=C5)cc3)ccc2N2CC[NH+](CC(=O)NC(C)(C)C)CC2)c1
REMARK SMILES IDX 16 1 15 2 13 3 14 4 12 5 10 6 11 7 77 8 76 9 75 10 9 11 7 12
REMARK SMILES IDX 8 13 6 15 1 16 2 17 3 18 92 19 4 20 5 21 78 22 79 23 91 24
REMARK SMILES IDX 80 25 90 26 81 27 82 29 83 30 84 31 85 32 86 34 87 35 88 36
REMARK SMILES IDX 89 37 17 38 18 39 19 40 20 41 21 42 22 43 74 44 23 45 73 46
REMARK SMILES IDX 24 47 25 48 26 49 67 50 27 51 72 52 66 53 68 54 28 55 71 56
REMARK SMILES IDX 65 57 64 58 29 60 55 61 38 62 54 63 39 64 42 65 53 66 69 67
REMARK SMILES IDX 40 68 41 69 52 71 70 72 43 73 30 74 31 75 36 76 32 77 33 78
REMARK SMILES IDX 35 79 37 80 34 81 56 82 57 83 62 84 58 85 59 86 61 87 63 88
REMARK SMILES IDX 60 89 44 90 45 91 50 92 46 93 47 94 49 95 51 96 48 97
REMARK H PARENT 9 14 81 28 85 33 68 59 42 70
REMARK Flexibility Score: inf
ROOT
ATOM      1  C   UNL A   1      39.204  21.306  26.424  1.00  0.00     0.275 C 
ENDROOT
BRANCH   1   2
ATOM      2  O   UNL A   1      38.749  21.485  25.078  1.00  0.00    -0.458 OA
BRANCH   2   3
ATOM      3  C   UNL A   1      37.539  20.941  24.885  1.00  0.00     0.338 C 
ATOM      4  O   UNL A   1      37.201  19.790  25.148  1.00  0.00    -0.246 OA
BRANCH   3   5
ATOM      5  C   UNL A   1      36.595  21.802  24.201  1.00  0.00     0.062 A 
ATOM      6  C   UNL A   1      34.320  22.516  24.384  1.00  0.00     0.065 A 
ATOM      7  C   UNL A   1      35.276  21.539  24.543  1.00  0.00     0.044 A 
ATOM      8  C   UNL A   1      34.631  23.734  23.688  1.00  0.00     0.061 A 
ATOM      9  C   UNL A   1      35.966  23.917  23.267  1.00  0.00     0.029 A 
ATOM     10  C   UNL A   1      36.961  22.978  23.558  1.00  0.00     0.018 A 
BRANCH   6  11
ATOM     11  N   UNL A   1      33.032  22.296  24.895  1.00  0.00    -0.320 N 
ATOM     12  C   UNL A   1      32.188  21.212  25.034  1.00  0.00     0.255 C 
ATOM     13  O   UNL A   1      31.132  21.448  25.636  1.00  0.00    -0.269 OA
ATOM     14  H   UNL A   1      32.627  23.123  25.241  1.00  0.00     0.170 HD
BRANCH  12  15
ATOM     15  C   UNL A   1      32.407  19.796  24.586  1.00  0.00     0.040 A 
ATOM     16  C   UNL A   1      33.528  16.282  25.601  1.00  0.00     0.044 C 
ATOM     17  C   UNL A   1      32.982  17.429  24.804  1.00  0.00    -0.050 A 
ATOM     18  C   UNL A   1      32.838  17.249  23.429  1.00  0.00     0.003 A 
ATOM     19  C   UNL A   1      32.697  18.686  25.388  1.00  0.00     0.017 A 
ATOM     20  C   UNL A   1      32.450  18.312  22.632  1.00  0.00     0.001 A 
ATOM     21  C   UNL A   1      32.260  19.573  23.203  1.00  0.00     0.014 A 
ENDBRANCH  12  15
ENDBRANCH   6  11
BRANCH   8  22
ATOM     22  N   UNL A   1      33.692  24.736  23.476  1.00  0.00    -0.359 N 
ATOM     23  C   UNL A   1      32.868  24.890  22.255  1.00  0.00     0.178 C 
ATOM     24  C   UNL A   1      33.850  26.017  24.155  1.00  0.00     0.178 C 
ATOM     25  C   UNL A   1      31.533  25.661  22.561  1.00  0.00     0.284 C 
ATOM     26  C   UNL A   1      32.459  26.422  24.671  1.00  0.00     0.284 C 
ATOM     27  N   UNL A   1      31.518  26.726  23.593  1.00  0.00    -0.324 N 
ATOM     28  H   UNL A   1      30.572  26.698  23.975  1.00  0.00     0.348 HD
BRANCH  27  29
ATOM     29  C   UNL A   1      31.577  28.120  23.120  1.00  0.00     0.363 C 
BRANCH  29  30
ATOM     30  C   UNL A   1      31.112  29.177  24.111  1.00  0.00     0.275 C 
ATOM     31  O   UNL A   1      31.743  29.350  25.163  1.00  0.00    -0.268 OA
ATOM     32  N   UNL A   1      30.026  29.978  23.929  1.00  0.00    -0.347 N 
ATOM     33  H   UNL A   1      30.027  30.706  24.593  1.00  0.00     0.164 HD
BRANCH  32  34
ATOM     34  C   UNL A   1      28.835  30.100  23.039  1.00  0.00     0.032 C 
ATOM     35  C   UNL A   1      29.262  30.332  21.576  1.00  0.00     0.034 C 
ATOM     36  C   UNL A   1      28.130  28.726  23.068  1.00  0.00     0.034 C 
ATOM     37  C   UNL A   1      27.796  31.145  23.453  1.00  0.00     0.034 C 
ENDBRANCH  32  34
ENDBRANCH  29  30
ENDBRANCH  27  29
ENDBRANCH   8  22
ENDBRANCH   3   5
ENDBRANCH   2   3
ENDBRANCH   1   2
BRANCH   1  38
ATOM     38  C   UNL A   1      40.405  20.371  26.485  1.00  0.00     0.275 C 
BRANCH  38  39
ATOM     39  O   UNL A   1      41.596  20.721  25.724  1.00  0.00    -0.458 OA
BRANCH  39  40
ATOM     40  C   UNL A   1      42.667  21.495  26.028  1.00  0.00     0.338 C 
ATOM     41  O   UNL A   1      43.804  21.082  25.860  1.00  0.00    -0.246 OA
BRANCH  40  42
ATOM     42  C   UNL A   1      42.475  22.850  26.599  1.00  0.00     0.060 A 
ATOM     43  C   UNL A   1      42.398  23.966  25.735  1.00  0.00     0.016 A 
ATOM     44  C   UNL A   1      42.375  23.037  27.968  1.00  0.00     0.016 A 
ATOM     45  C   UNL A   1      42.171  25.256  26.238  1.00  0.00     0.010 A 
ATOM     46  C   UNL A   1      42.035  24.282  28.454  1.00  0.00     0.010 A 
ATOM     47  C   UNL A   1      41.987  25.412  27.609  1.00  0.00    -0.014 A 
BRANCH  47  48
ATOM     48  C   UNL A   1      42.033  26.674  28.358  1.00  0.00     0.031 A 
ATOM     49  C   UNL A   1      40.943  27.671  28.432  1.00  0.00     0.074 A 
ATOM     50  C   UNL A   1      43.053  26.687  29.244  1.00  0.00     0.049 A 
ATOM     51  N   UNL A   1      40.546  28.195  29.548  1.00  0.00    -0.248 NA
ATOM     52  C   UNL A   1      40.192  28.148  27.262  1.00  0.00     0.031 C 
ATOM     53  C   UNL A   1      43.271  27.499  30.427  1.00  0.00     0.029 A 
ATOM     54  N   UNL A   1      44.261  25.991  29.082  1.00  0.00    -0.354 N 
ATOM     55  C   UNL A   1      39.553  29.101  29.264  1.00  0.00     0.074 A 
ATOM     56  C   UNL A   1      39.327  29.006  27.828  1.00  0.00     0.031 C 
ATOM     57  C   UNL A   1      44.594  27.529  30.676  1.00  0.00     0.029 A 
ATOM     58  C   UNL A   1      45.248  26.866  29.554  1.00  0.00     0.049 A 
ATOM     59  H   UNL A   1      44.386  25.087  28.716  1.00  0.00     0.167 HD
ATOM     60  C   UNL A   1      39.416  30.242  29.993  1.00  0.00     0.037 A 
ATOM     61  C   UNL A   1      46.039  27.484  28.627  1.00  0.00     0.037 A 
ATOM     62  C   UNL A   1      40.686  30.658  30.538  1.00  0.00     0.049 A 
ATOM     63  C   UNL A   1      45.825  28.979  28.623  1.00  0.00     0.074 A 
ATOM     64  C   UNL A   1      41.384  30.405  31.704  1.00  0.00     0.029 A 
ATOM     65  N   UNL A   1      41.571  31.252  29.657  1.00  0.00    -0.354 N 
ATOM     66  N   UNL A   1      44.705  29.567  28.959  1.00  0.00    -0.248 NA
ATOM     67  C   UNL A   1      46.886  29.927  28.311  1.00  0.00     0.031 C 
ATOM     68  C   UNL A   1      42.745  30.748  31.462  1.00  0.00     0.029 A 
ATOM     69  C   UNL A   1      42.847  31.245  30.173  1.00  0.00     0.049 A 
ATOM     70  H   UNL A   1      41.323  31.629  28.782  1.00  0.00     0.167 HD
ATOM     71  C   UNL A   1      44.901  30.921  28.992  1.00  0.00     0.074 A 
ATOM     72  C   UNL A   1      46.275  31.099  28.557  1.00  0.00     0.031 C 
ATOM     73  C   UNL A   1      43.940  31.802  29.395  1.00  0.00     0.037 A 
BRANCH  60  74
ATOM     74  C   UNL A   1      38.058  30.639  30.513  1.00  0.00     0.057 A 
ATOM     75  C   UNL A   1      37.210  31.474  29.761  1.00  0.00     0.134 A 
ATOM     76  C   UNL A   1      37.577  30.306  31.793  1.00  0.00     0.134 A 
ATOM     77  F   UNL A   1      37.527  31.855  28.515  1.00  0.00    -0.206 F 
ATOM     78  C   UNL A   1      36.003  31.983  30.263  1.00  0.00     0.040 A 
ATOM     79  C   UNL A   1      36.367  30.801  32.304  1.00  0.00     0.040 A 
ATOM     80  F   UNL A   1      38.262  29.495  32.609  1.00  0.00    -0.206 F 
ATOM     81  C   UNL A   1      35.582  31.656  31.545  1.00  0.00     0.006 A 
ENDBRANCH  60  74
BRANCH  61  82
ATOM     82  C   UNL A   1      46.328  26.626  27.432  1.00  0.00     0.057 A 
ATOM     83  C   UNL A   1      47.194  25.522  27.595  1.00  0.00     0.134 A 
ATOM     84  C   UNL A   1      45.563  26.645  26.262  1.00  0.00     0.134 A 
ATOM     85  F   UNL A   1      47.958  25.422  28.697  1.00  0.00    -0.206 F 
ATOM     86  C   UNL A   1      47.219  24.445  26.702  1.00  0.00     0.040 A 
ATOM     87  C   UNL A   1      45.603  25.582  25.342  1.00  0.00     0.040 A 
ATOM     88  F   UNL A   1      44.700  27.642  26.022  1.00  0.00    -0.206 F 
ATOM     89  C   UNL A   1      46.404  24.464  25.578  1.00  0.00     0.006 A 
ENDBRANCH  61  82
BRANCH  73  90
ATOM     90  C   UNL A   1      43.962  33.287  29.132  1.00  0.00     0.057 A 
ATOM     91  C   UNL A   1      43.911  33.842  27.846  1.00  0.00     0.134 A 
ATOM     92  C   UNL A   1      43.840  34.214  30.192  1.00  0.00     0.134 A 
ATOM     93  F   UNL A   1      43.879  33.073  26.749  1.00  0.00    -0.206 F 
ATOM     94  C   UNL A   1      43.821  35.221  27.626  1.00  0.00     0.040 A 
ATOM     95  C   UNL A   1      43.687  35.586  29.982  1.00  0.00     0.040 A 
ATOM     96  F   UNL A   1      43.823  33.821  31.475  1.00  0.00    -0.206 F 
ATOM     97  C   UNL A   1      43.696  36.098  28.695  1.00  0.00     0.006 A 
ENDBRANCH  73  90
ENDBRANCH  47  48
ENDBRANCH  40  42
ENDBRANCH  39  40
ENDBRANCH  38  39
ENDBRANCH   1  38
TORSDOF 17
ENDMDL
