MODEL 1
REMARK VINA RESULT:     -11.0      0.000      0.000
REMARK SMILES NNS(=O)(=O)c1ccc(O)c(C(=O)OCCOC(=O)c2ccc(-c3c4nc(c(-c5c(F)cccc5F)c5ccc([nH]5)c(-c5c(F)cccc5F)c5nc(c(-c6c(F)cccc6F)c6ccc3[nH]6)C=C5)C=C4)cc2)c1
REMARK SMILES IDX 15 1 14 2 12 3 13 4 11 5 6 6 7 7 74 8 8 9 9 10 3 11 4 12
REMARK SMILES IDX 5 13 2 14 1 16 10 19 16 21 17 22 18 23 19 24 20 25 21 26
REMARK SMILES IDX 73 27 22 28 72 29 23 30 24 31 25 32 66 33 26 34 71 35 65 36
REMARK SMILES IDX 67 37 27 38 70 39 64 40 63 41 28 43 54 44 37 45 53 46 38 47
REMARK SMILES IDX 41 48 52 49 68 50 39 51 40 52 51 54 69 55 42 56 29 57 30 58
REMARK SMILES IDX 35 59 31 60 32 61 34 62 36 63 33 64 55 65 56 66 61 67 57 68
REMARK SMILES IDX 58 69 60 70 62 71 59 72 43 73 44 74 49 75 45 76 46 77 48 78
REMARK SMILES IDX 50 79 47 80
REMARK H PARENT 2 15 1 17 1 18 10 20 67 42 41 53
REMARK Flexibility Score: inf
ROOT
ATOM      1  C   UNL A   1      35.179  34.579  34.320  1.00  0.00     0.275 C 
ENDROOT
BRANCH   1   2
ATOM      2  O   UNL A   1      34.053  34.783  33.441  1.00  0.00    -0.458 OA
BRANCH   2   3
ATOM      3  C   UNL A   1      33.716  36.068  33.171  1.00  0.00     0.342 C 
ATOM      4  O   UNL A   1      33.655  36.984  33.978  1.00  0.00    -0.246 OA
BRANCH   3   5
ATOM      5  C   UNL A   1      33.576  36.294  31.711  1.00  0.00     0.103 A 
ATOM      6  C   UNL A   1      33.568  35.316  29.486  1.00  0.00     0.084 A 
ATOM      7  C   UNL A   1      33.306  36.563  28.923  1.00  0.00     0.025 A 
ATOM      8  C   UNL A   1      33.752  35.188  30.865  1.00  0.00     0.041 A 
ATOM      9  C   UNL A   1      33.194  37.681  29.754  1.00  0.00     0.048 A 
ATOM     10  C   UNL A   1      33.316  37.545  31.145  1.00  0.00     0.130 A 
BRANCH   6  11
ATOM     11  S   UNL A   1      33.684  33.871  28.455  1.00  0.00     0.253 S 
ATOM     12  O   UNL A   1      32.472  33.755  27.682  1.00  0.00    -0.206 OA
ATOM     13  O   UNL A   1      34.151  32.786  29.297  1.00  0.00    -0.206 OA
BRANCH  11  14
ATOM     14  N   UNL A   1      34.999  34.278  27.394  1.00  0.00    -0.150 NA
ATOM     15  H   UNL A   1      34.742  34.027  26.438  1.00  0.00     0.160 HD
BRANCH  14  16
ATOM     16  N   UNL A   1      36.190  33.594  27.740  1.00  0.00    -0.257 NA
ATOM     17  H   UNL A   1      36.583  34.002  28.587  1.00  0.00     0.138 HD
ATOM     18  H   UNL A   1      36.864  33.677  26.978  1.00  0.00     0.138 HD
ENDBRANCH  14  16
ENDBRANCH  11  14
ENDBRANCH   6  11
BRANCH  10  19
ATOM     19  O   UNL A   1      33.230  38.656  31.935  1.00  0.00    -0.507 OA
ATOM     20  H   UNL A   1      33.601  39.466  31.647  1.00  0.00     0.293 HD
ENDBRANCH  10  19
ENDBRANCH   3   5
ENDBRANCH   2   3
ENDBRANCH   1   2
BRANCH   1  21
ATOM     21  C   UNL A   1      36.349  33.927  33.582  1.00  0.00     0.275 C 
BRANCH  21  22
ATOM     22  O   UNL A   1      36.265  32.492  33.672  1.00  0.00    -0.458 OA
BRANCH  22  23
ATOM     23  C   UNL A   1      35.666  31.889  32.624  1.00  0.00     0.338 C 
ATOM     24  O   UNL A   1      34.518  32.026  32.234  1.00  0.00    -0.246 OA
BRANCH  23  25
ATOM     25  C   UNL A   1      36.648  31.103  31.867  1.00  0.00     0.060 A 
ATOM     26  C   UNL A   1      37.742  30.627  32.575  1.00  0.00     0.016 A 
ATOM     27  C   UNL A   1      36.627  31.026  30.478  1.00  0.00     0.016 A 
ATOM     28  C   UNL A   1      38.879  30.199  31.904  1.00  0.00     0.010 A 
ATOM     29  C   UNL A   1      37.730  30.478  29.806  1.00  0.00     0.010 A 
ATOM     30  C   UNL A   1      38.896  30.110  30.506  1.00  0.00    -0.014 A 
BRANCH  30  31
ATOM     31  C   UNL A   1      40.154  29.690  29.812  1.00  0.00     0.031 A 
ATOM     32  C   UNL A   1      41.318  30.643  29.682  1.00  0.00     0.074 A 
ATOM     33  C   UNL A   1      40.288  28.429  29.350  1.00  0.00     0.049 A 
ATOM     34  N   UNL A   1      42.453  30.488  29.043  1.00  0.00    -0.248 NA
ATOM     35  C   UNL A   1      41.187  31.951  30.344  1.00  0.00     0.031 C 
ATOM     36  C   UNL A   1      39.270  27.379  29.440  1.00  0.00     0.029 A 
ATOM     37  N   UNL A   1      41.349  27.802  28.739  1.00  0.00    -0.354 N 
ATOM     38  C   UNL A   1      43.140  31.690  29.178  1.00  0.00     0.074 A 
ATOM     39  C   UNL A   1      42.288  32.572  29.945  1.00  0.00     0.031 C 
ATOM     40  C   UNL A   1      39.777  26.230  28.973  1.00  0.00     0.029 A 
ATOM     41  C   UNL A   1      41.116  26.476  28.457  1.00  0.00     0.049 A 
ATOM     42  H   UNL A   1      42.194  28.259  28.524  1.00  0.00     0.167 HD
ATOM     43  C   UNL A   1      44.368  32.025  28.711  1.00  0.00     0.037 A 
ATOM     44  C   UNL A   1      41.877  25.562  27.825  1.00  0.00     0.037 A 
ATOM     45  C   UNL A   1      45.241  31.129  27.995  1.00  0.00     0.049 A 
ATOM     46  C   UNL A   1      43.224  25.968  27.299  1.00  0.00     0.074 A 
ATOM     47  C   UNL A   1      46.507  31.377  27.491  1.00  0.00     0.029 A 
ATOM     48  N   UNL A   1      44.946  29.808  27.691  1.00  0.00    -0.354 N 
ATOM     49  N   UNL A   1      43.837  27.122  27.391  1.00  0.00    -0.248 NA
ATOM     50  C   UNL A   1      43.979  24.942  26.567  1.00  0.00     0.031 C 
ATOM     51  C   UNL A   1      46.959  30.220  26.844  1.00  0.00     0.029 A 
ATOM     52  C   UNL A   1      46.001  29.234  26.997  1.00  0.00     0.049 A 
ATOM     53  H   UNL A   1      44.111  29.346  27.933  1.00  0.00     0.167 HD
ATOM     54  C   UNL A   1      45.056  26.957  26.749  1.00  0.00     0.074 A 
ATOM     55  C   UNL A   1      45.106  25.583  26.294  1.00  0.00     0.031 C 
ATOM     56  C   UNL A   1      46.043  27.865  26.548  1.00  0.00     0.037 A 
BRANCH  43  57
ATOM     57  C   UNL A   1      44.832  33.440  28.929  1.00  0.00     0.057 A 
ATOM     58  C   UNL A   1      44.521  34.480  28.043  1.00  0.00     0.134 A 
ATOM     59  C   UNL A   1      45.579  33.771  30.069  1.00  0.00     0.134 A 
ATOM     60  F   UNL A   1      43.822  34.234  26.924  1.00  0.00    -0.206 F 
ATOM     61  C   UNL A   1      44.959  35.787  28.267  1.00  0.00     0.040 A 
ATOM     62  C   UNL A   1      45.996  35.080  30.319  1.00  0.00     0.040 A 
ATOM     63  F   UNL A   1      45.907  32.828  30.966  1.00  0.00    -0.206 F 
ATOM     64  C   UNL A   1      45.692  36.091  29.411  1.00  0.00     0.006 A 
ENDBRANCH  43  57
BRANCH  44  65
ATOM     65  C   UNL A   1      41.366  24.180  27.620  1.00  0.00     0.057 A 
ATOM     66  C   UNL A   1      40.376  23.904  26.670  1.00  0.00     0.134 A 
ATOM     67  C   UNL A   1      41.848  23.105  28.377  1.00  0.00     0.134 A 
ATOM     68  F   UNL A   1      39.850  24.893  25.933  1.00  0.00    -0.206 F 
ATOM     69  C   UNL A   1      39.873  22.614  26.493  1.00  0.00     0.040 A 
ATOM     70  C   UNL A   1      41.380  21.805  28.186  1.00  0.00     0.040 A 
ATOM     71  F   UNL A   1      42.796  23.301  29.306  1.00  0.00    -0.206 F 
ATOM     72  C   UNL A   1      40.383  21.558  27.246  1.00  0.00     0.006 A 
ENDBRANCH  44  65
BRANCH  56  73
ATOM     73  C   UNL A   1      47.278  27.379  25.845  1.00  0.00     0.057 A 
ATOM     74  C   UNL A   1      47.436  27.482  24.456  1.00  0.00     0.134 A 
ATOM     75  C   UNL A   1      48.321  26.786  26.569  1.00  0.00     0.134 A 
ATOM     76  F   UNL A   1      46.470  28.026  23.701  1.00  0.00    -0.206 F 
ATOM     77  C   UNL A   1      48.564  26.973  23.810  1.00  0.00     0.040 A 
ATOM     78  C   UNL A   1      49.467  26.303  25.938  1.00  0.00     0.040 A 
ATOM     79  F   UNL A   1      48.242  26.664  27.904  1.00  0.00    -0.206 F 
ATOM     80  C   UNL A   1      49.585  26.384  24.552  1.00  0.00     0.006 A 
ENDBRANCH  56  73
ENDBRANCH  30  31
ENDBRANCH  23  25
ENDBRANCH  22  23
ENDBRANCH  21  22
ENDBRANCH   1  21
TORSDOF 15
ENDMDL
MODEL 2
REMARK VINA RESULT:     -10.9      6.539     12.022
REMARK SMILES NNS(=O)(=O)c1ccc(O)c(C(=O)OCCOC(=O)c2ccc(-c3c4nc(c(-c5c(F)cccc5F)c5ccc([nH]5)c(-c5c(F)cccc5F)c5nc(c(-c6c(F)cccc6F)c6ccc3[nH]6)C=C5)C=C4)cc2)c1
REMARK SMILES IDX 15 1 14 2 12 3 13 4 11 5 6 6 7 7 74 8 8 9 9 10 3 11 4 12
REMARK SMILES IDX 5 13 2 14 1 16 10 19 16 21 17 22 18 23 19 24 20 25 21 26
REMARK SMILES IDX 73 27 22 28 72 29 23 30 24 31 25 32 66 33 26 34 71 35 65 36
REMARK SMILES IDX 67 37 27 38 70 39 64 40 63 41 28 43 54 44 37 45 53 46 38 47
REMARK SMILES IDX 41 48 52 49 68 50 39 51 40 52 51 54 69 55 42 56 29 57 30 58
REMARK SMILES IDX 35 59 31 60 32 61 34 62 36 63 33 64 55 65 56 66 61 67 57 68
REMARK SMILES IDX 58 69 60 70 62 71 59 72 43 73 44 74 49 75 45 76 46 77 48 78
REMARK SMILES IDX 50 79 47 80
REMARK H PARENT 2 15 1 17 1 18 10 20 67 42 41 53
REMARK Flexibility Score: inf
ROOT
ATOM      1  C   UNL A   1      40.557  21.235  26.348  1.00  0.00     0.275 C 
ENDROOT
BRANCH   1   2
ATOM      2  O   UNL A   1      39.168  21.608  26.229  1.00  0.00    -0.458 OA
BRANCH   2   3
ATOM      3  C   UNL A   1      38.395  20.832  25.430  1.00  0.00     0.342 C 
ATOM      4  O   UNL A   1      38.649  19.695  25.063  1.00  0.00    -0.246 OA
BRANCH   3   5
ATOM      5  C   UNL A   1      37.082  21.471  25.164  1.00  0.00     0.103 A 
ATOM      6  C   UNL A   1      34.690  21.169  24.857  1.00  0.00     0.084 A 
ATOM      7  C   UNL A   1      34.523  22.543  24.696  1.00  0.00     0.025 A 
ATOM      8  C   UNL A   1      35.965  20.630  25.040  1.00  0.00     0.041 A 
ATOM      9  C   UNL A   1      35.640  23.381  24.753  1.00  0.00     0.048 A 
ATOM     10  C   UNL A   1      36.913  22.848  24.999  1.00  0.00     0.130 A 
BRANCH   6  11
ATOM     11  S   UNL A   1      33.283  20.082  24.821  1.00  0.00     0.253 S 
ATOM     12  O   UNL A   1      33.576  18.973  23.945  1.00  0.00    -0.206 OA
ATOM     13  O   UNL A   1      32.110  20.913  24.622  1.00  0.00    -0.206 OA
BRANCH  11  14
ATOM     14  N   UNL A   1      33.214  19.509  26.460  1.00  0.00    -0.150 NA
ATOM     15  H   UNL A   1      34.162  19.475  26.838  1.00  0.00     0.160 HD
BRANCH  14  16
ATOM     16  N   UNL A   1      32.643  18.216  26.545  1.00  0.00    -0.257 NA
ATOM     17  H   UNL A   1      32.618  17.918  27.520  1.00  0.00     0.138 HD
ATOM     18  H   UNL A   1      33.206  17.560  26.004  1.00  0.00     0.138 HD
ENDBRANCH  14  16
ENDBRANCH  11  14
ENDBRANCH   6  11
BRANCH  10  19
ATOM     19  O   UNL A   1      37.994  23.684  25.024  1.00  0.00    -0.507 OA
ATOM     20  H   UNL A   1      37.893  24.572  25.304  1.00  0.00     0.293 HD
ENDBRANCH  10  19
ENDBRANCH   3   5
ENDBRANCH   2   3
ENDBRANCH   1   2
BRANCH   1  21
ATOM     21  C   UNL A   1      41.443  22.459  26.574  1.00  0.00     0.275 C 
BRANCH  21  22
ATOM     22  O   UNL A   1      40.659  23.666  26.525  1.00  0.00    -0.458 OA
BRANCH  22  23
ATOM     23  C   UNL A   1      41.370  24.803  26.367  1.00  0.00     0.338 C 
ATOM     24  O   UNL A   1      42.246  25.033  25.549  1.00  0.00    -0.246 OA
BRANCH  23  25
ATOM     25  C   UNL A   1      40.846  25.851  27.252  1.00  0.00     0.060 A 
ATOM     26  C   UNL A   1      41.483  27.082  27.202  1.00  0.00     0.016 A 
ATOM     27  C   UNL A   1      39.921  25.582  28.255  1.00  0.00     0.016 A 
ATOM     28  C   UNL A   1      41.310  28.002  28.227  1.00  0.00     0.010 A 
ATOM     29  C   UNL A   1      39.655  26.563  29.223  1.00  0.00     0.010 A 
ATOM     30  C   UNL A   1      40.389  27.766  29.256  1.00  0.00    -0.014 A 
BRANCH  30  31
ATOM     31  C   UNL A   1      40.261  28.756  30.370  1.00  0.00     0.031 A 
ATOM     32  C   UNL A   1      39.178  29.808  30.347  1.00  0.00     0.074 A 
ATOM     33  C   UNL A   1      41.074  28.680  31.445  1.00  0.00     0.049 A 
ATOM     34  N   UNL A   1      38.964  30.801  31.177  1.00  0.00    -0.248 NA
ATOM     35  C   UNL A   1      38.215  29.750  29.236  1.00  0.00     0.031 C 
ATOM     36  C   UNL A   1      42.139  27.693  31.635  1.00  0.00     0.029 A 
ATOM     37  N   UNL A   1      41.113  29.428  32.599  1.00  0.00    -0.354 N 
ATOM     38  C   UNL A   1      37.886  31.511  30.660  1.00  0.00     0.074 A 
ATOM     39  C   UNL A   1      37.499  30.847  29.434  1.00  0.00     0.031 C 
ATOM     40  C   UNL A   1      42.674  27.848  32.854  1.00  0.00     0.029 A 
ATOM     41  C   UNL A   1      42.066  29.006  33.496  1.00  0.00     0.049 A 
ATOM     42  H   UNL A   1      40.515  30.192  32.766  1.00  0.00     0.167 HD
ATOM     43  C   UNL A   1      37.272  32.611  31.162  1.00  0.00     0.037 A 
ATOM     44  C   UNL A   1      42.438  29.508  34.689  1.00  0.00     0.037 A 
ATOM     45  C   UNL A   1      37.620  33.241  32.411  1.00  0.00     0.049 A 
ATOM     46  C   UNL A   1      41.757  30.740  35.210  1.00  0.00     0.074 A 
ATOM     47  C   UNL A   1      37.048  34.352  33.007  1.00  0.00     0.029 A 
ATOM     48  N   UNL A   1      38.623  32.807  33.266  1.00  0.00    -0.354 N 
ATOM     49  N   UNL A   1      40.773  31.428  34.685  1.00  0.00    -0.248 NA
ATOM     50  C   UNL A   1      42.248  31.272  36.488  1.00  0.00     0.031 C 
ATOM     51  C   UNL A   1      37.734  34.618  34.198  1.00  0.00     0.029 A 
ATOM     52  C   UNL A   1      38.693  33.636  34.376  1.00  0.00     0.049 A 
ATOM     53  H   UNL A   1      39.200  32.024  33.109  1.00  0.00     0.167 HD
ATOM     54  C   UNL A   1      40.514  32.461  35.576  1.00  0.00     0.074 A 
ATOM     55  C   UNL A   1      41.428  32.292  36.687  1.00  0.00     0.031 C 
ATOM     56  C   UNL A   1      39.605  33.462  35.478  1.00  0.00     0.037 A 
BRANCH  43  57
ATOM     57  C   UNL A   1      36.174  33.232  30.340  1.00  0.00     0.057 A 
ATOM     58  C   UNL A   1      34.817  33.053  30.638  1.00  0.00     0.134 A 
ATOM     59  C   UNL A   1      36.489  34.052  29.247  1.00  0.00     0.134 A 
ATOM     60  F   UNL A   1      34.443  32.269  31.661  1.00  0.00    -0.206 F 
ATOM     61  C   UNL A   1      33.815  33.643  29.864  1.00  0.00     0.040 A 
ATOM     62  C   UNL A   1      35.497  34.672  28.485  1.00  0.00     0.040 A 
ATOM     63  F   UNL A   1      37.768  34.275  28.908  1.00  0.00    -0.206 F 
ATOM     64  C   UNL A   1      34.154  34.461  28.788  1.00  0.00     0.006 A 
ENDBRANCH  43  57
BRANCH  44  65
ATOM     65  C   UNL A   1      43.540  28.867  35.456  1.00  0.00     0.057 A 
ATOM     66  C   UNL A   1      44.880  29.190  35.213  1.00  0.00     0.134 A 
ATOM     67  C   UNL A   1      43.279  27.908  36.443  1.00  0.00     0.134 A 
ATOM     68  F   UNL A   1      45.200  30.078  34.261  1.00  0.00    -0.206 F 
ATOM     69  C   UNL A   1      45.919  28.571  35.911  1.00  0.00     0.040 A 
ATOM     70  C   UNL A   1      44.305  27.308  37.173  1.00  0.00     0.040 A 
ATOM     71  F   UNL A   1      42.017  27.551  36.725  1.00  0.00    -0.206 F 
ATOM     72  C   UNL A   1      45.632  27.634  36.901  1.00  0.00     0.006 A 
ENDBRANCH  44  65
BRANCH  56  73
ATOM     73  C   UNL A   1      39.529  34.422  36.630  1.00  0.00     0.057 A 
ATOM     74  C   UNL A   1      40.186  35.660  36.615  1.00  0.00     0.134 A 
ATOM     75  C   UNL A   1      38.796  34.097  37.779  1.00  0.00     0.134 A 
ATOM     76  F   UNL A   1      40.917  36.029  35.552  1.00  0.00    -0.206 F 
ATOM     77  C   UNL A   1      40.153  36.517  37.717  1.00  0.00     0.040 A 
ATOM     78  C   UNL A   1      38.729  34.959  38.873  1.00  0.00     0.040 A 
ATOM     79  F   UNL A   1      38.132  32.933  37.858  1.00  0.00    -0.206 F 
ATOM     80  C   UNL A   1      39.421  36.168  38.849  1.00  0.00     0.006 A 
ENDBRANCH  56  73
ENDBRANCH  30  31
ENDBRANCH  23  25
ENDBRANCH  22  23
ENDBRANCH  21  22
ENDBRANCH   1  21
TORSDOF 15
ENDMDL
MODEL 3
REMARK VINA RESULT:     -10.8      6.367     11.227
REMARK SMILES NNS(=O)(=O)c1ccc(O)c(C(=O)OCCOC(=O)c2ccc(-c3c4nc(c(-c5c(F)cccc5F)c5ccc([nH]5)c(-c5c(F)cccc5F)c5nc(c(-c6c(F)cccc6F)c6ccc3[nH]6)C=C5)C=C4)cc2)c1
REMARK SMILES IDX 15 1 14 2 12 3 13 4 11 5 6 6 7 7 74 8 8 9 9 10 3 11 4 12
REMARK SMILES IDX 5 13 2 14 1 16 10 19 16 21 17 22 18 23 19 24 20 25 21 26
REMARK SMILES IDX 73 27 22 28 72 29 23 30 24 31 25 32 66 33 26 34 71 35 65 36
REMARK SMILES IDX 67 37 27 38 70 39 64 40 63 41 28 43 54 44 37 45 53 46 38 47
REMARK SMILES IDX 41 48 52 49 68 50 39 51 40 52 51 54 69 55 42 56 29 57 30 58
REMARK SMILES IDX 35 59 31 60 32 61 34 62 36 63 33 64 55 65 56 66 61 67 57 68
REMARK SMILES IDX 58 69 60 70 62 71 59 72 43 73 44 74 49 75 45 76 46 77 48 78
REMARK SMILES IDX 50 79 47 80
REMARK H PARENT 2 15 1 17 1 18 10 20 67 42 41 53
REMARK Flexibility Score: inf
ROOT
ATOM      1  C   UNL A   1      38.357  20.997  25.358  1.00  0.00     0.275 C 
ENDROOT
BRANCH   1   2
ATOM      2  O   UNL A   1      37.101  20.836  24.666  1.00  0.00    -0.458 OA
BRANCH   2   3
ATOM      3  C   UNL A   1      35.993  21.287  25.303  1.00  0.00     0.342 C 
ATOM      4  O   UNL A   1      35.933  22.247  26.057  1.00  0.00    -0.246 OA
BRANCH   3   5
ATOM      5  C   UNL A   1      34.778  20.564  24.850  1.00  0.00     0.103 A 
ATOM      6  C   UNL A   1      33.738  18.420  24.374  1.00  0.00     0.084 A 
ATOM      7  C   UNL A   1      32.546  19.057  24.037  1.00  0.00     0.025 A 
ATOM      8  C   UNL A   1      34.862  19.169  24.730  1.00  0.00     0.041 A 
ATOM      9  C   UNL A   1      32.475  20.451  24.092  1.00  0.00     0.048 A 
ATOM     10  C   UNL A   1      33.582  21.202  24.509  1.00  0.00     0.130 A 
BRANCH   6  11
ATOM     11  S   UNL A   1      33.849  16.645  24.343  1.00  0.00     0.253 S 
ATOM     12  O   UNL A   1      34.174  16.224  23.002  1.00  0.00    -0.206 OA
ATOM     13  O   UNL A   1      32.680  16.135  25.034  1.00  0.00    -0.206 OA
BRANCH  11  14
ATOM     14  N   UNL A   1      35.211  16.341  25.380  1.00  0.00    -0.150 NA
ATOM     15  H   UNL A   1      35.951  17.008  25.157  1.00  0.00     0.160 HD
BRANCH  14  16
ATOM     16  N   UNL A   1      35.716  15.028  25.218  1.00  0.00    -0.257 NA
ATOM     17  H   UNL A   1      36.307  14.790  26.014  1.00  0.00     0.138 HD
ATOM     18  H   UNL A   1      36.265  14.978  24.360  1.00  0.00     0.138 HD
ENDBRANCH  14  16
ENDBRANCH  11  14
ENDBRANCH   6  11
BRANCH  10  19
ATOM     19  O   UNL A   1      33.497  22.565  24.530  1.00  0.00    -0.507 OA
ATOM     20  H   UNL A   1      34.166  23.082  24.125  1.00  0.00     0.293 HD
ENDBRANCH  10  19
ENDBRANCH   3   5
ENDBRANCH   2   3
ENDBRANCH   1   2
BRANCH   1  21
ATOM     21  C   UNL A   1      39.126  19.678  25.428  1.00  0.00     0.275 C 
BRANCH  21  22
ATOM     22  O   UNL A   1      40.126  19.731  26.464  1.00  0.00    -0.458 OA
BRANCH  22  23
ATOM     23  C   UNL A   1      41.401  19.779  26.024  1.00  0.00     0.338 C 
ATOM     24  O   UNL A   1      41.955  19.023  25.244  1.00  0.00    -0.246 OA
BRANCH  23  25
ATOM     25  C   UNL A   1      42.054  21.002  26.508  1.00  0.00     0.060 A 
ATOM     26  C   UNL A   1      42.114  21.171  27.883  1.00  0.00     0.016 A 
ATOM     27  C   UNL A   1      42.390  22.051  25.658  1.00  0.00     0.016 A 
ATOM     28  C   UNL A   1      42.373  22.423  28.424  1.00  0.00     0.010 A 
ATOM     29  C   UNL A   1      42.772  23.284  26.210  1.00  0.00     0.010 A 
ATOM     30  C   UNL A   1      42.713  23.505  27.600  1.00  0.00    -0.014 A 
BRANCH  30  31
ATOM     31  C   UNL A   1      42.939  24.852  28.212  1.00  0.00     0.031 A 
ATOM     32  C   UNL A   1      44.330  25.300  28.597  1.00  0.00     0.074 A 
ATOM     33  C   UNL A   1      41.911  25.711  28.367  1.00  0.00     0.049 A 
ATOM     34  N   UNL A   1      44.710  26.393  29.214  1.00  0.00    -0.248 NA
ATOM     35  C   UNL A   1      45.440  24.396  28.259  1.00  0.00     0.031 C 
ATOM     36  C   UNL A   1      40.518  25.441  28.002  1.00  0.00     0.029 A 
ATOM     37  N   UNL A   1      41.879  27.001  28.843  1.00  0.00    -0.354 N 
ATOM     38  C   UNL A   1      46.085  26.280  29.386  1.00  0.00     0.074 A 
ATOM     39  C   UNL A   1      46.472  25.004  28.825  1.00  0.00     0.031 C 
ATOM     40  C   UNL A   1      39.787  26.547  28.198  1.00  0.00     0.029 A 
ATOM     41  C   UNL A   1      40.629  27.573  28.797  1.00  0.00     0.049 A 
ATOM     42  H   UNL A   1      42.675  27.469  29.184  1.00  0.00     0.167 HD
ATOM     43  C   UNL A   1      46.947  27.159  29.955  1.00  0.00     0.037 A 
ATOM     44  C   UNL A   1      40.194  28.777  29.217  1.00  0.00     0.037 A 
ATOM     45  C   UNL A   1      46.572  28.455  30.464  1.00  0.00     0.049 A 
ATOM     46  C   UNL A   1      41.166  29.722  29.863  1.00  0.00     0.074 A 
ATOM     47  C   UNL A   1      47.377  29.419  31.049  1.00  0.00     0.029 A 
ATOM     48  N   UNL A   1      45.286  28.976  30.439  1.00  0.00    -0.354 N 
ATOM     49  N   UNL A   1      42.452  29.580  30.064  1.00  0.00    -0.248 NA
ATOM     50  C   UNL A   1      40.618  30.994  30.353  1.00  0.00     0.031 C 
ATOM     51  C   UNL A   1      46.571  30.503  31.417  1.00  0.00     0.029 A 
ATOM     52  C   UNL A   1      45.275  30.241  31.008  1.00  0.00     0.049 A 
ATOM     53  H   UNL A   1      44.497  28.516  30.070  1.00  0.00     0.167 HD
ATOM     54  C   UNL A   1      42.873  30.748  30.684  1.00  0.00     0.074 A 
ATOM     55  C   UNL A   1      41.707  31.600  30.802  1.00  0.00     0.031 C 
ATOM     56  C   UNL A   1      44.111  31.082  31.122  1.00  0.00     0.037 A 
BRANCH  43  57
ATOM     57  C   UNL A   1      48.385  26.736  30.091  1.00  0.00     0.057 A 
ATOM     58  C   UNL A   1      49.364  27.082  29.150  1.00  0.00     0.134 A 
ATOM     59  C   UNL A   1      48.800  25.994  31.206  1.00  0.00     0.134 A 
ATOM     60  F   UNL A   1      49.035  27.779  28.051  1.00  0.00    -0.206 F 
ATOM     61  C   UNL A   1      50.694  26.682  29.298  1.00  0.00     0.040 A 
ATOM     62  C   UNL A   1      50.133  25.615  31.380  1.00  0.00     0.040 A 
ATOM     63  F   UNL A   1      47.919  25.634  32.152  1.00  0.00    -0.206 F 
ATOM     64  C   UNL A   1      51.083  25.953  30.420  1.00  0.00     0.006 A 
ENDBRANCH  43  57
BRANCH  44  65
ATOM     65  C   UNL A   1      38.759  29.142  29.075  1.00  0.00     0.057 A 
ATOM     66  C   UNL A   1      38.237  29.580  27.853  1.00  0.00     0.134 A 
ATOM     67  C   UNL A   1      37.878  29.071  30.161  1.00  0.00     0.134 A 
ATOM     68  F   UNL A   1      39.033  29.699  26.780  1.00  0.00    -0.206 F 
ATOM     69  C   UNL A   1      36.897  29.949  27.721  1.00  0.00     0.040 A 
ATOM     70  C   UNL A   1      36.530  29.403  30.035  1.00  0.00     0.040 A 
ATOM     71  F   UNL A   1      38.314  28.660  31.362  1.00  0.00    -0.206 F 
ATOM     72  C   UNL A   1      36.037  29.852  28.812  1.00  0.00     0.006 A 
ENDBRANCH  44  65
BRANCH  56  73
ATOM     73  C   UNL A   1      44.270  32.448  31.726  1.00  0.00     0.057 A 
ATOM     74  C   UNL A   1      44.120  32.679  33.100  1.00  0.00     0.134 A 
ATOM     75  C   UNL A   1      44.566  33.553  30.916  1.00  0.00     0.134 A 
ATOM     76  F   UNL A   1      43.822  31.668  33.931  1.00  0.00    -0.206 F 
ATOM     77  C   UNL A   1      44.213  33.964  33.639  1.00  0.00     0.040 A 
ATOM     78  C   UNL A   1      44.694  34.836  31.448  1.00  0.00     0.040 A 
ATOM     79  F   UNL A   1      44.735  33.404  29.593  1.00  0.00    -0.206 F 
ATOM     80  C   UNL A   1      44.504  35.046  32.812  1.00  0.00     0.006 A 
ENDBRANCH  56  73
ENDBRANCH  30  31
ENDBRANCH  23  25
ENDBRANCH  22  23
ENDBRANCH  21  22
ENDBRANCH   1  21
TORSDOF 15
ENDMDL
