MODEL 1
REMARK VINA RESULT:     -12.2      0.000      0.000
REMARK SMILES COc1ccc2c(c1)c(CC(=O)OCCOC(=O)c1ccc(-c3c4nc(c(-c5c(F)cccc5F)c5ccc([nH]5)c(-c5c(F)cccc5F)c5nc(c(-c6c(F)cccc6F)c6ccc3[nH]6)C=C5)C=C4)cc1)c(C)n2Cc1ccc(Br)cc1
REMARK SMILES IDX 14 1 13 2 11 3 12 4 10 5 9 6 3 7 4 8 8 9 5 10 7 11 6 12
REMARK SMILES IDX 75 13 73 14 74 15 2 16 1 17 76 18 77 19 78 20 83 21 79 22
REMARK SMILES IDX 82 23 80 24 81 25 15 26 16 27 17 28 18 29 19 30 20 31 72 32
REMARK SMILES IDX 21 33 71 34 22 35 23 36 24 37 65 38 25 39 70 40 64 41 66 42
REMARK SMILES IDX 26 43 69 44 63 45 62 46 27 48 53 49 36 50 52 51 37 52 40 53
REMARK SMILES IDX 51 54 67 55 38 56 39 57 50 59 68 60 41 61 28 62 29 63 34 64
REMARK SMILES IDX 30 65 31 66 33 67 35 68 32 69 54 70 55 71 60 72 56 73 57 74
REMARK SMILES IDX 59 75 61 76 58 77 42 78 43 79 48 80 44 81 45 82 47 83 49 84
REMARK SMILES IDX 46 85
REMARK H PARENT 66 47 40 58
REMARK Flexibility Score: inf
ROOT
ATOM      1  C   UNL A   1      41.876  19.808  26.317  1.00  0.00     0.274 C 
ENDROOT
BRANCH   1   2
ATOM      2  O   UNL A   1      40.541  19.443  25.891  1.00  0.00    -0.462 OA
BRANCH   2   3
ATOM      3  C   UNL A   1      39.644  20.451  25.976  1.00  0.00     0.310 C 
ATOM      4  O   UNL A   1      39.616  21.242  26.918  1.00  0.00    -0.252 OA
BRANCH   3   5
ATOM      5  C   UNL A   1      38.560  20.483  24.939  1.00  0.00     0.160 C 
BRANCH   5   6
ATOM      6  C   UNL A   1      37.134  20.812  25.228  1.00  0.00    -0.008 A 
ATOM      7  C   UNL A   1      34.206  18.461  24.431  1.00  0.00     0.119 A 
ATOM      8  C   UNL A   1      33.207  19.274  24.948  1.00  0.00     0.048 A 
ATOM      9  C   UNL A   1      35.555  18.810  24.575  1.00  0.00     0.057 A 
ATOM     10  C   UNL A   1      33.529  20.497  25.543  1.00  0.00     0.031 A 
ATOM     11  C   UNL A   1      35.910  20.081  25.078  1.00  0.00     0.007 A 
ATOM     12  C   UNL A   1      34.875  20.906  25.545  1.00  0.00     0.049 A 
ATOM     13  N   UNL A   1      35.475  22.068  25.991  1.00  0.00    -0.340 N 
ATOM     14  C   UNL A   1      36.752  22.125  25.485  1.00  0.00     0.020 A 
ATOM     15  C   UNL A   1      37.561  23.373  25.336  1.00  0.00     0.065 C 
BRANCH   7  16
ATOM     16  O   UNL A   1      33.928  17.261  23.827  1.00  0.00    -0.497 OA
ATOM     17  C   UNL A   1      33.377  16.305  24.737  1.00  0.00     0.278 C 
ENDBRANCH   7  16
BRANCH  13  18
ATOM     18  C   UNL A   1      34.892  23.042  26.910  1.00  0.00     0.157 C 
BRANCH  18  19
ATOM     19  C   UNL A   1      33.944  23.954  26.157  1.00  0.00    -0.028 A 
ATOM     20  C   UNL A   1      32.554  23.870  26.350  1.00  0.00     0.007 A 
ATOM     21  C   UNL A   1      34.431  24.829  25.175  1.00  0.00     0.007 A 
ATOM     22  C   UNL A   1      31.671  24.599  25.553  1.00  0.00     0.016 A 
ATOM     23  C   UNL A   1      33.549  25.586  24.398  1.00  0.00     0.016 A 
ATOM     24  C   UNL A   1      32.173  25.455  24.579  1.00  0.00     0.017 A 
ATOM     25  Br  UNL A   1      30.980  26.435  23.491  1.00  0.00    -0.051 Br
ENDBRANCH  18  19
ENDBRANCH  13  18
ENDBRANCH   5   6
ENDBRANCH   3   5
ENDBRANCH   2   3
ENDBRANCH   1   2
BRANCH   1  26
ATOM     26  C   UNL A   1      42.943  18.896  25.699  1.00  0.00     0.275 C 
BRANCH  26  27
ATOM     27  O   UNL A   1      43.410  19.460  24.461  1.00  0.00    -0.458 OA
BRANCH  27  28
ATOM     28  C   UNL A   1      44.751  19.628  24.333  1.00  0.00     0.338 C 
ATOM     29  O   UNL A   1      45.539  18.890  23.767  1.00  0.00    -0.246 OA
BRANCH  28  30
ATOM     30  C   UNL A   1      45.015  21.046  24.651  1.00  0.00     0.060 A 
ATOM     31  C   UNL A   1      45.780  21.420  25.758  1.00  0.00     0.016 A 
ATOM     32  C   UNL A   1      44.207  21.977  23.995  1.00  0.00     0.016 A 
ATOM     33  C   UNL A   1      45.576  22.676  26.323  1.00  0.00     0.010 A 
ATOM     34  C   UNL A   1      43.972  23.208  24.584  1.00  0.00     0.010 A 
ATOM     35  C   UNL A   1      44.592  23.521  25.792  1.00  0.00    -0.014 A 
BRANCH  35  36
ATOM     36  C   UNL A   1      44.276  24.781  26.451  1.00  0.00     0.031 A 
ATOM     37  C   UNL A   1      45.305  25.828  26.318  1.00  0.00     0.074 A 
ATOM     38  C   UNL A   1      43.134  25.112  27.084  1.00  0.00     0.049 A 
ATOM     39  N   UNL A   1      46.167  26.157  27.220  1.00  0.00    -0.248 NA
ATOM     40  C   UNL A   1      45.448  26.541  25.048  1.00  0.00     0.031 C 
ATOM     41  C   UNL A   1      41.863  24.406  27.178  1.00  0.00     0.029 A 
ATOM     42  N   UNL A   1      42.895  26.257  27.792  1.00  0.00    -0.354 N 
ATOM     43  C   UNL A   1      46.901  27.206  26.692  1.00  0.00     0.074 A 
ATOM     44  C   UNL A   1      46.497  27.325  25.311  1.00  0.00     0.031 C 
ATOM     45  C   UNL A   1      40.927  25.209  27.734  1.00  0.00     0.029 A 
ATOM     46  C   UNL A   1      41.588  26.408  28.217  1.00  0.00     0.049 A 
ATOM     47  H   UNL A   1      43.597  26.920  27.981  1.00  0.00     0.167 HD
ATOM     48  C   UNL A   1      47.685  27.986  27.482  1.00  0.00     0.037 A 
ATOM     49  C   UNL A   1      41.089  27.412  28.974  1.00  0.00     0.037 A 
ATOM     50  C   UNL A   1      47.830  27.429  28.805  1.00  0.00     0.049 A 
ATOM     51  C   UNL A   1      42.218  27.976  29.753  1.00  0.00     0.074 A 
ATOM     52  C   UNL A   1      48.354  26.255  29.310  1.00  0.00     0.029 A 
ATOM     53  N   UNL A   1      47.051  27.946  29.813  1.00  0.00    -0.354 N 
ATOM     54  N   UNL A   1      42.821  27.340  30.720  1.00  0.00    -0.248 NA
ATOM     55  C   UNL A   1      42.961  29.094  29.190  1.00  0.00     0.031 C 
ATOM     56  C   UNL A   1      47.488  25.890  30.383  1.00  0.00     0.029 A 
ATOM     57  C   UNL A   1      46.507  26.878  30.484  1.00  0.00     0.049 A 
ATOM     58  H   UNL A   1      46.909  28.899  30.015  1.00  0.00     0.167 HD
ATOM     59  C   UNL A   1      44.158  27.689  30.598  1.00  0.00     0.074 A 
ATOM     60  C   UNL A   1      44.164  28.854  29.719  1.00  0.00     0.031 C 
ATOM     61  C   UNL A   1      45.156  26.846  31.001  1.00  0.00     0.037 A 
BRANCH  48  62
ATOM     62  C   UNL A   1      48.127  29.380  27.152  1.00  0.00     0.057 A 
ATOM     63  C   UNL A   1      47.269  30.495  27.142  1.00  0.00     0.134 A 
ATOM     64  C   UNL A   1      49.500  29.670  27.070  1.00  0.00     0.134 A 
ATOM     65  F   UNL A   1      45.948  30.375  27.325  1.00  0.00    -0.206 F 
ATOM     66  C   UNL A   1      47.740  31.806  27.041  1.00  0.00     0.040 A 
ATOM     67  C   UNL A   1      49.986  30.980  27.023  1.00  0.00     0.040 A 
ATOM     68  F   UNL A   1      50.414  28.688  27.095  1.00  0.00    -0.206 F 
ATOM     69  C   UNL A   1      49.105  32.054  27.007  1.00  0.00     0.006 A 
ENDBRANCH  48  62
BRANCH  49  70
ATOM     70  C   UNL A   1      39.729  27.983  28.971  1.00  0.00     0.057 A 
ATOM     71  C   UNL A   1      39.295  28.797  27.908  1.00  0.00     0.134 A 
ATOM     72  C   UNL A   1      38.913  27.964  30.108  1.00  0.00     0.134 A 
ATOM     73  F   UNL A   1      40.036  28.938  26.799  1.00  0.00    -0.206 F 
ATOM     74  C   UNL A   1      38.125  29.559  27.979  1.00  0.00     0.040 A 
ATOM     75  C   UNL A   1      37.739  28.724  30.193  1.00  0.00     0.040 A 
ATOM     76  F   UNL A   1      39.262  27.249  31.187  1.00  0.00    -0.206 F 
ATOM     77  C   UNL A   1      37.348  29.535  29.130  1.00  0.00     0.006 A 
ENDBRANCH  49  70
BRANCH  61  78
ATOM     78  C   UNL A   1      44.766  25.638  31.810  1.00  0.00     0.057 A 
ATOM     79  C   UNL A   1      44.463  24.440  31.154  1.00  0.00     0.134 A 
ATOM     80  C   UNL A   1      44.542  25.671  33.195  1.00  0.00     0.134 A 
ATOM     81  F   UNL A   1      44.591  24.348  29.821  1.00  0.00    -0.206 F 
ATOM     82  C   UNL A   1      43.976  23.324  31.841  1.00  0.00     0.040 A 
ATOM     83  C   UNL A   1      44.086  24.553  33.901  1.00  0.00     0.040 A 
ATOM     84  F   UNL A   1      44.705  26.800  33.895  1.00  0.00    -0.206 F 
ATOM     85  C   UNL A   1      43.796  23.375  33.222  1.00  0.00     0.006 A 
ENDBRANCH  61  78
ENDBRANCH  35  36
ENDBRANCH  28  30
ENDBRANCH  27  28
ENDBRANCH  26  27
ENDBRANCH   1  26
TORSDOF 15
ENDMDL
MODEL 2
REMARK VINA RESULT:     -11.6      3.810      8.577
REMARK SMILES COc1ccc2c(c1)c(CC(=O)OCCOC(=O)c1ccc(-c3c4nc(c(-c5c(F)cccc5F)c5ccc([nH]5)c(-c5c(F)cccc5F)c5nc(c(-c6c(F)cccc6F)c6ccc3[nH]6)C=C5)C=C4)cc1)c(C)n2Cc1ccc(Br)cc1
REMARK SMILES IDX 14 1 13 2 11 3 12 4 10 5 9 6 3 7 4 8 8 9 5 10 7 11 6 12
REMARK SMILES IDX 75 13 73 14 74 15 2 16 1 17 76 18 77 19 78 20 83 21 79 22
REMARK SMILES IDX 82 23 80 24 81 25 15 26 16 27 17 28 18 29 19 30 20 31 72 32
REMARK SMILES IDX 21 33 71 34 22 35 23 36 24 37 65 38 25 39 70 40 64 41 66 42
REMARK SMILES IDX 26 43 69 44 63 45 62 46 27 48 53 49 36 50 52 51 37 52 40 53
REMARK SMILES IDX 51 54 67 55 38 56 39 57 50 59 68 60 41 61 28 62 29 63 34 64
REMARK SMILES IDX 30 65 31 66 33 67 35 68 32 69 54 70 55 71 60 72 56 73 57 74
REMARK SMILES IDX 59 75 61 76 58 77 42 78 43 79 48 80 44 81 45 82 47 83 49 84
REMARK SMILES IDX 46 85
REMARK H PARENT 66 47 40 58
REMARK Flexibility Score: inf
ROOT
ATOM      1  C   UNL A   1      32.583  30.617  26.861  1.00  0.00     0.274 C 
ENDROOT
BRANCH   1   2
ATOM      2  O   UNL A   1      32.898  29.563  27.803  1.00  0.00    -0.462 OA
BRANCH   2   3
ATOM      3  C   UNL A   1      32.484  28.337  27.413  1.00  0.00     0.310 C 
ATOM      4  O   UNL A   1      31.442  27.825  27.819  1.00  0.00    -0.252 OA
BRANCH   3   5
ATOM      5  C   UNL A   1      33.432  27.538  26.568  1.00  0.00     0.160 C 
BRANCH   5   6
ATOM      6  C   UNL A   1      33.017  26.704  25.403  1.00  0.00    -0.008 A 
ATOM      7  C   UNL A   1      32.477  22.907  25.593  1.00  0.00     0.119 A 
ATOM      8  C   UNL A   1      32.083  22.740  24.273  1.00  0.00     0.048 A 
ATOM      9  C   UNL A   1      32.696  24.189  26.114  1.00  0.00     0.057 A 
ATOM     10  C   UNL A   1      31.983  23.842  23.419  1.00  0.00     0.031 A 
ATOM     11  C   UNL A   1      32.703  25.312  25.258  1.00  0.00     0.007 A 
ATOM     12  C   UNL A   1      32.353  25.106  23.914  1.00  0.00     0.049 A 
ATOM     13  N   UNL A   1      32.420  26.342  23.301  1.00  0.00    -0.340 N 
ATOM     14  C   UNL A   1      33.136  27.195  24.107  1.00  0.00     0.020 A 
ATOM     15  C   UNL A   1      33.822  28.440  23.645  1.00  0.00     0.065 C 
BRANCH   7  16
ATOM     16  O   UNL A   1      32.601  21.849  26.455  1.00  0.00    -0.497 OA
ATOM     17  C   UNL A   1      33.903  21.258  26.414  1.00  0.00     0.278 C 
ENDBRANCH   7  16
BRANCH  13  18
ATOM     18  C   UNL A   1      31.779  26.717  22.043  1.00  0.00     0.157 C 
BRANCH  18  19
ATOM     19  C   UNL A   1      30.705  27.755  22.304  1.00  0.00    -0.028 A 
ATOM     20  C   UNL A   1      30.859  29.081  21.864  1.00  0.00     0.007 A 
ATOM     21  C   UNL A   1      29.582  27.435  23.080  1.00  0.00     0.007 A 
ATOM     22  C   UNL A   1      29.948  30.072  22.230  1.00  0.00     0.016 A 
ATOM     23  C   UNL A   1      28.649  28.420  23.421  1.00  0.00     0.016 A 
ATOM     24  C   UNL A   1      28.846  29.737  23.008  1.00  0.00     0.017 A 
ATOM     25  Br  UNL A   1      27.616  31.077  23.514  1.00  0.00    -0.051 Br
ENDBRANCH  18  19
ENDBRANCH  13  18
ENDBRANCH   5   6
ENDBRANCH   3   5
ENDBRANCH   2   3
ENDBRANCH   1   2
BRANCH   1  26
ATOM     26  C   UNL A   1      33.259  31.941  27.237  1.00  0.00     0.275 C 
BRANCH  26  27
ATOM     27  O   UNL A   1      34.282  31.707  28.220  1.00  0.00    -0.458 OA
BRANCH  27  28
ATOM     28  C   UNL A   1      35.490  32.282  27.994  1.00  0.00     0.338 C 
ATOM     29  O   UNL A   1      35.709  33.379  27.508  1.00  0.00    -0.246 OA
BRANCH  28  30
ATOM     30  C   UNL A   1      36.462  31.517  28.802  1.00  0.00     0.060 A 
ATOM     31  C   UNL A   1      37.726  32.027  29.105  1.00  0.00     0.016 A 
ATOM     32  C   UNL A   1      36.183  30.158  28.963  1.00  0.00     0.016 A 
ATOM     33  C   UNL A   1      38.762  31.138  29.378  1.00  0.00     0.010 A 
ATOM     34  C   UNL A   1      37.224  29.273  29.189  1.00  0.00     0.010 A 
ATOM     35  C   UNL A   1      38.525  29.758  29.311  1.00  0.00    -0.014 A 
BRANCH  35  36
ATOM     36  C   UNL A   1      39.626  28.817  29.463  1.00  0.00     0.031 A 
ATOM     37  C   UNL A   1      40.036  28.558  30.855  1.00  0.00     0.074 A 
ATOM     38  C   UNL A   1      40.242  28.111  28.494  1.00  0.00     0.049 A 
ATOM     39  N   UNL A   1      41.060  29.070  31.447  1.00  0.00    -0.248 NA
ATOM     40  C   UNL A   1      39.204  27.704  31.704  1.00  0.00     0.031 C 
ATOM     41  C   UNL A   1      39.920  27.961  27.081  1.00  0.00     0.029 A 
ATOM     42  N   UNL A   1      41.344  27.317  28.638  1.00  0.00    -0.354 N 
ATOM     43  C   UNL A   1      41.090  28.522  32.718  1.00  0.00     0.074 A 
ATOM     44  C   UNL A   1      39.861  27.778  32.864  1.00  0.00     0.031 C 
ATOM     45  C   UNL A   1      40.684  26.987  26.534  1.00  0.00     0.029 A 
ATOM     46  C   UNL A   1      41.683  26.592  27.510  1.00  0.00     0.049 A 
ATOM     47  H   UNL A   1      41.856  27.265  29.478  1.00  0.00     0.167 HD
ATOM     48  C   UNL A   1      42.199  28.611  33.499  1.00  0.00     0.037 A 
ATOM     49  C   UNL A   1      42.749  25.774  27.358  1.00  0.00     0.037 A 
ATOM     50  C   UNL A   1      43.168  29.525  32.946  1.00  0.00     0.049 A 
ATOM     51  C   UNL A   1      43.785  26.220  28.321  1.00  0.00     0.074 A 
ATOM     52  C   UNL A   1      43.170  30.875  32.653  1.00  0.00     0.029 A 
ATOM     53  N   UNL A   1      44.231  28.997  32.251  1.00  0.00    -0.354 N 
ATOM     54  N   UNL A   1      44.439  27.345  28.213  1.00  0.00    -0.248 NA
ATOM     55  C   UNL A   1      43.813  25.613  29.643  1.00  0.00     0.031 C 
ATOM     56  C   UNL A   1      43.912  30.993  31.439  1.00  0.00     0.029 A 
ATOM     57  C   UNL A   1      44.339  29.712  31.083  1.00  0.00     0.049 A 
ATOM     58  H   UNL A   1      44.806  28.250  32.535  1.00  0.00     0.167 HD
ATOM     59  C   UNL A   1      44.589  27.797  29.516  1.00  0.00     0.074 A 
ATOM     60  C   UNL A   1      44.289  26.640  30.353  1.00  0.00     0.031 C 
ATOM     61  C   UNL A   1      44.679  29.130  29.803  1.00  0.00     0.037 A 
BRANCH  48  62
ATOM     62  C   UNL A   1      42.528  27.694  34.638  1.00  0.00     0.057 A 
ATOM     63  C   UNL A   1      42.179  27.948  35.977  1.00  0.00     0.134 A 
ATOM     64  C   UNL A   1      43.000  26.398  34.369  1.00  0.00     0.134 A 
ATOM     65  F   UNL A   1      41.612  29.100  36.357  1.00  0.00    -0.206 F 
ATOM     66  C   UNL A   1      42.307  26.987  36.983  1.00  0.00     0.040 A 
ATOM     67  C   UNL A   1      43.082  25.412  35.357  1.00  0.00     0.040 A 
ATOM     68  F   UNL A   1      43.341  26.034  33.123  1.00  0.00    -0.206 F 
ATOM     69  C   UNL A   1      42.735  25.705  36.669  1.00  0.00     0.006 A 
ENDBRANCH  48  62
BRANCH  49  70
ATOM     70  C   UNL A   1      42.874  24.566  26.521  1.00  0.00     0.057 A 
ATOM     71  C   UNL A   1      42.524  23.301  27.029  1.00  0.00     0.134 A 
ATOM     72  C   UNL A   1      43.569  24.573  25.306  1.00  0.00     0.134 A 
ATOM     73  F   UNL A   1      41.915  23.178  28.218  1.00  0.00    -0.206 F 
ATOM     74  C   UNL A   1      42.860  22.112  26.375  1.00  0.00     0.040 A 
ATOM     75  C   UNL A   1      43.913  23.389  24.640  1.00  0.00     0.040 A 
ATOM     76  F   UNL A   1      43.979  25.727  24.761  1.00  0.00    -0.206 F 
ATOM     77  C   UNL A   1      43.569  22.153  25.181  1.00  0.00     0.006 A 
ENDBRANCH  49  70
BRANCH  61  78
ATOM     78  C   UNL A   1      44.864  30.083  28.651  1.00  0.00     0.057 A 
ATOM     79  C   UNL A   1      46.120  30.657  28.430  1.00  0.00     0.134 A 
ATOM     80  C   UNL A   1      43.807  30.554  27.857  1.00  0.00     0.134 A 
ATOM     81  F   UNL A   1      47.169  30.305  29.191  1.00  0.00    -0.206 F 
ATOM     82  C   UNL A   1      46.322  31.641  27.457  1.00  0.00     0.040 A 
ATOM     83  C   UNL A   1      44.000  31.513  26.858  1.00  0.00     0.040 A 
ATOM     84  F   UNL A   1      42.551  30.140  28.061  1.00  0.00    -0.206 F 
ATOM     85  C   UNL A   1      45.261  32.064  26.658  1.00  0.00     0.006 A 
ENDBRANCH  61  78
ENDBRANCH  35  36
ENDBRANCH  28  30
ENDBRANCH  27  28
ENDBRANCH  26  27
ENDBRANCH   1  26
TORSDOF 15
ENDMDL
MODEL 3
REMARK VINA RESULT:     -11.4      5.665     10.913
REMARK SMILES COc1ccc2c(c1)c(CC(=O)OCCOC(=O)c1ccc(-c3c4nc(c(-c5c(F)cccc5F)c5ccc([nH]5)c(-c5c(F)cccc5F)c5nc(c(-c6c(F)cccc6F)c6ccc3[nH]6)C=C5)C=C4)cc1)c(C)n2Cc1ccc(Br)cc1
REMARK SMILES IDX 14 1 13 2 11 3 12 4 10 5 9 6 3 7 4 8 8 9 5 10 7 11 6 12
REMARK SMILES IDX 75 13 73 14 74 15 2 16 1 17 76 18 77 19 78 20 83 21 79 22
REMARK SMILES IDX 82 23 80 24 81 25 15 26 16 27 17 28 18 29 19 30 20 31 72 32
REMARK SMILES IDX 21 33 71 34 22 35 23 36 24 37 65 38 25 39 70 40 64 41 66 42
REMARK SMILES IDX 26 43 69 44 63 45 62 46 27 48 53 49 36 50 52 51 37 52 40 53
REMARK SMILES IDX 51 54 67 55 38 56 39 57 50 59 68 60 41 61 28 62 29 63 34 64
REMARK SMILES IDX 30 65 31 66 33 67 35 68 32 69 54 70 55 71 60 72 56 73 57 74
REMARK SMILES IDX 59 75 61 76 58 77 42 78 43 79 48 80 44 81 45 82 47 83 49 84
REMARK SMILES IDX 46 85
REMARK H PARENT 66 47 40 58
REMARK Flexibility Score: inf
ROOT
ATOM      1  C   UNL A   1      48.089  25.312  38.502  1.00  0.00     0.274 C 
ENDROOT
BRANCH   1   2
ATOM      2  O   UNL A   1      47.249  24.905  39.609  1.00  0.00    -0.462 OA
BRANCH   2   3
ATOM      3  C   UNL A   1      46.083  24.335  39.231  1.00  0.00     0.310 C 
ATOM      4  O   UNL A   1      44.994  24.894  39.360  1.00  0.00    -0.252 OA
BRANCH   3   5
ATOM      5  C   UNL A   1      46.142  22.905  38.782  1.00  0.00     0.160 C 
BRANCH   5   6
ATOM      6  C   UNL A   1      45.767  22.440  37.415  1.00  0.00    -0.008 A 
ATOM      7  C   UNL A   1      43.284  24.294  35.148  1.00  0.00     0.119 A 
ATOM      8  C   UNL A   1      43.390  23.434  34.064  1.00  0.00     0.048 A 
ATOM      9  C   UNL A   1      44.110  24.134  36.268  1.00  0.00     0.057 A 
ATOM     10  C   UNL A   1      44.264  22.344  34.109  1.00  0.00     0.031 A 
ATOM     11  C   UNL A   1      44.929  22.990  36.390  1.00  0.00     0.007 A 
ATOM     12  C   UNL A   1      44.978  22.108  35.299  1.00  0.00     0.049 A 
ATOM     13  N   UNL A   1      45.846  21.094  35.657  1.00  0.00    -0.340 N 
ATOM     14  C   UNL A   1      46.028  21.132  37.019  1.00  0.00     0.020 A 
ATOM     15  C   UNL A   1      46.497  19.985  37.854  1.00  0.00     0.065 C 
BRANCH   7  16
ATOM     16  O   UNL A   1      42.427  25.364  35.146  1.00  0.00    -0.497 OA
ATOM     17  C   UNL A   1      41.239  25.116  35.903  1.00  0.00     0.278 C 
ENDBRANCH   7  16
BRANCH  13  18
ATOM     18  C   UNL A   1      46.524  20.178  34.745  1.00  0.00     0.157 C 
BRANCH  18  19
ATOM     19  C   UNL A   1      47.893  20.724  34.391  1.00  0.00    -0.028 A 
ATOM     20  C   UNL A   1      48.879  19.894  33.829  1.00  0.00     0.007 A 
ATOM     21  C   UNL A   1      48.235  22.045  34.714  1.00  0.00     0.007 A 
ATOM     22  C   UNL A   1      50.184  20.352  33.642  1.00  0.00     0.016 A 
ATOM     23  C   UNL A   1      49.534  22.516  34.496  1.00  0.00     0.016 A 
ATOM     24  C   UNL A   1      50.506  21.662  33.977  1.00  0.00     0.017 A 
ATOM     25  Br  UNL A   1      52.273  22.282  33.735  1.00  0.00    -0.051 Br
ENDBRANCH  18  19
ENDBRANCH  13  18
ENDBRANCH   5   6
ENDBRANCH   3   5
ENDBRANCH   2   3
ENDBRANCH   1   2
BRANCH   1  26
ATOM     26  C   UNL A   1      47.519  26.533  37.770  1.00  0.00     0.275 C 
BRANCH  26  27
ATOM     27  O   UNL A   1      47.331  26.226  36.378  1.00  0.00    -0.458 OA
BRANCH  27  28
ATOM     28  C   UNL A   1      46.670  27.147  35.632  1.00  0.00     0.338 C 
ATOM     29  O   UNL A   1      46.760  28.361  35.703  1.00  0.00    -0.246 OA
BRANCH  28  30
ATOM     30  C   UNL A   1      46.133  26.416  34.466  1.00  0.00     0.060 A 
ATOM     31  C   UNL A   1      46.737  25.250  33.989  1.00  0.00     0.016 A 
ATOM     32  C   UNL A   1      45.210  27.113  33.683  1.00  0.00     0.016 A 
ATOM     33  C   UNL A   1      46.562  24.902  32.653  1.00  0.00     0.010 A 
ATOM     34  C   UNL A   1      45.074  26.792  32.343  1.00  0.00     0.010 A 
ATOM     35  C   UNL A   1      45.816  25.738  31.811  1.00  0.00    -0.014 A 
BRANCH  35  36
ATOM     36  C   UNL A   1      45.735  25.457  30.385  1.00  0.00     0.031 A 
ATOM     37  C   UNL A   1      46.780  26.096  29.564  1.00  0.00     0.074 A 
ATOM     38  C   UNL A   1      44.876  24.629  29.759  1.00  0.00     0.049 A 
ATOM     39  N   UNL A   1      46.632  27.157  28.847  1.00  0.00    -0.248 NA
ATOM     40  C   UNL A   1      48.140  25.556  29.581  1.00  0.00     0.031 C 
ATOM     41  C   UNL A   1      43.904  23.688  30.300  1.00  0.00     0.029 A 
ATOM     42  N   UNL A   1      44.740  24.460  28.410  1.00  0.00    -0.354 N 
ATOM     43  C   UNL A   1      47.845  27.373  28.216  1.00  0.00     0.074 A 
ATOM     44  C   UNL A   1      48.772  26.427  28.792  1.00  0.00     0.031 C 
ATOM     45  C   UNL A   1      43.411  22.910  29.307  1.00  0.00     0.029 A 
ATOM     46  C   UNL A   1      43.884  23.440  28.041  1.00  0.00     0.049 A 
ATOM     47  H   UNL A   1      45.215  25.020  27.754  1.00  0.00     0.167 HD
ATOM     48  C   UNL A   1      47.951  28.225  27.161  1.00  0.00     0.037 A 
ATOM     49  C   UNL A   1      43.528  23.090  26.783  1.00  0.00     0.037 A 
ATOM     50  C   UNL A   1      46.752  29.009  26.988  1.00  0.00     0.049 A 
ATOM     51  C   UNL A   1      43.702  24.289  25.929  1.00  0.00     0.074 A 
ATOM     52  C   UNL A   1      46.076  29.929  27.766  1.00  0.00     0.029 A 
ATOM     53  N   UNL A   1      45.856  28.615  26.023  1.00  0.00    -0.354 N 
ATOM     54  N   UNL A   1      42.950  25.354  26.011  1.00  0.00    -0.248 NA
ATOM     55  C   UNL A   1      44.977  24.483  25.255  1.00  0.00     0.031 C 
ATOM     56  C   UNL A   1      44.692  29.673  27.529  1.00  0.00     0.029 A 
ATOM     57  C   UNL A   1      44.611  28.632  26.603  1.00  0.00     0.049 A 
ATOM     58  H   UNL A   1      46.065  28.369  25.093  1.00  0.00     0.167 HD
ATOM     59  C   UNL A   1      43.814  26.418  25.796  1.00  0.00     0.074 A 
ATOM     60  C   UNL A   1      45.015  25.819  25.224  1.00  0.00     0.031 C 
ATOM     61  C   UNL A   1      43.582  27.647  26.346  1.00  0.00     0.037 A 
BRANCH  48  62
ATOM     62  C   UNL A   1      49.034  28.187  26.126  1.00  0.00     0.057 A 
ATOM     63  C   UNL A   1      50.177  29.008  26.155  1.00  0.00     0.134 A 
ATOM     64  C   UNL A   1      49.065  27.136  25.194  1.00  0.00     0.134 A 
ATOM     65  F   UNL A   1      50.332  29.977  27.067  1.00  0.00    -0.206 F 
ATOM     66  C   UNL A   1      51.267  28.809  25.305  1.00  0.00     0.040 A 
ATOM     67  C   UNL A   1      50.173  26.895  24.376  1.00  0.00     0.040 A 
ATOM     68  F   UNL A   1      48.042  26.275  25.093  1.00  0.00    -0.206 F 
ATOM     69  C   UNL A   1      51.279  27.734  24.429  1.00  0.00     0.006 A 
ENDBRANCH  48  62
BRANCH  49  70
ATOM     70  C   UNL A   1      43.166  21.759  26.263  1.00  0.00     0.057 A 
ATOM     71  C   UNL A   1      41.922  21.179  26.576  1.00  0.00     0.134 A 
ATOM     72  C   UNL A   1      44.108  20.913  25.664  1.00  0.00     0.134 A 
ATOM     73  F   UNL A   1      40.972  21.883  27.211  1.00  0.00    -0.206 F 
ATOM     74  C   UNL A   1      41.638  19.834  26.323  1.00  0.00     0.040 A 
ATOM     75  C   UNL A   1      43.837  19.563  25.407  1.00  0.00     0.040 A 
ATOM     76  F   UNL A   1      45.335  21.362  25.363  1.00  0.00    -0.206 F 
ATOM     77  C   UNL A   1      42.602  19.016  25.748  1.00  0.00     0.006 A 
ENDBRANCH  49  70
BRANCH  61  78
ATOM     78  C   UNL A   1      42.238  27.887  26.983  1.00  0.00     0.057 A 
ATOM     79  C   UNL A   1      41.255  28.582  26.272  1.00  0.00     0.134 A 
ATOM     80  C   UNL A   1      41.949  27.580  28.322  1.00  0.00     0.134 A 
ATOM     81  F   UNL A   1      41.480  28.967  25.005  1.00  0.00    -0.206 F 
ATOM     82  C   UNL A   1      40.037  28.942  26.856  1.00  0.00     0.040 A 
ATOM     83  C   UNL A   1      40.723  27.905  28.910  1.00  0.00     0.040 A 
ATOM     84  F   UNL A   1      42.864  27.007  29.112  1.00  0.00    -0.206 F 
ATOM     85  C   UNL A   1      39.763  28.594  28.177  1.00  0.00     0.006 A 
ENDBRANCH  61  78
ENDBRANCH  35  36
ENDBRANCH  28  30
ENDBRANCH  27  28
ENDBRANCH  26  27
ENDBRANCH   1  26
TORSDOF 15
ENDMDL
