MODEL 1
REMARK VINA RESULT:     -12.1      0.000      0.000
REMARK SMILES CCN1C(=O)[C@@H](CC(=O)Nc2cccc(C(=O)OCCOC(=O)c3ccc(-c4c5nc(c(-c6c(F)cccc6F)c6ccc([nH]6)c(-c6c(F)cccc6F)c6nc(c(-c7c(F)cccc7F)c7ccc4[nH]7)C=C6)C=C5)cc3)c2)S/C1=[NH+]\c1cc(Cl)c(O)c(Cl)c1
REMARK SMILES IDX 18 1 16 2 17 3 15 4 11 5 12 6 78 7 13 8 14 9 10 10 8 11 9 12
REMARK SMILES IDX 7 14 6 15 3 16 4 17 80 18 5 19 79 20 81 21 2 23 1 24 82 25
REMARK SMILES IDX 83 26 90 27 84 28 88 29 85 30 86 31 89 32 87 33 19 35 20 36
REMARK SMILES IDX 21 37 22 38 23 39 24 40 25 41 77 42 26 43 76 44 27 45 28 46
REMARK SMILES IDX 29 47 70 48 30 49 75 50 69 51 71 52 31 53 74 54 68 55 67 56
REMARK SMILES IDX 32 58 58 59 41 60 57 61 42 62 45 63 56 64 72 65 43 66 44 67
REMARK SMILES IDX 55 69 73 70 46 71 33 72 34 73 39 74 35 75 36 76 38 77 40 78
REMARK SMILES IDX 37 79 59 80 60 81 65 82 61 83 62 84 64 85 66 86 63 87 47 88
REMARK SMILES IDX 48 89 53 90 49 91 50 92 52 93 54 94 51 95
REMARK H PARENT 10 13 81 22 87 34 71 57 45 68
REMARK Flexibility Score: inf
ROOT
ATOM      1  O   UNL A   1      33.133  30.222  27.521  1.00  0.00    -0.458 OA
ENDROOT
BRANCH   1   2
ATOM      2  C   UNL A   1      33.528  29.303  26.605  1.00  0.00     0.338 C 
ATOM      3  O   UNL A   1      34.458  28.532  26.747  1.00  0.00    -0.246 OA
BRANCH   2   4
ATOM      4  C   UNL A   1      32.789  29.380  25.322  1.00  0.00     0.062 A 
ATOM      5  C   UNL A   1      32.528  28.590  23.072  1.00  0.00     0.042 A 
ATOM      6  C   UNL A   1      31.196  29.010  23.060  1.00  0.00     0.026 A 
ATOM      7  C   UNL A   1      33.358  28.924  24.137  1.00  0.00     0.041 A 
ATOM      8  C   UNL A   1      30.639  29.564  24.210  1.00  0.00     0.003 A 
ATOM      9  C   UNL A   1      31.419  29.684  25.357  1.00  0.00     0.016 A 
BRANCH   5  10
ATOM     10  N   UNL A   1      33.005  27.820  22.012  1.00  0.00    -0.326 N 
ATOM     11  C   UNL A   1      32.837  26.492  21.729  1.00  0.00     0.226 C 
ATOM     12  O   UNL A   1      33.663  25.985  20.959  1.00  0.00    -0.275 OA
ATOM     13  H   UNL A   1      33.554  28.314  21.360  1.00  0.00     0.169 HD
BRANCH  11  14
ATOM     14  C   UNL A   1      31.548  25.702  22.045  1.00  0.00     0.128 C 
BRANCH  14  15
ATOM     15  C   UNL A   1      31.493  24.620  23.111  1.00  0.00     0.183 C 
ATOM     16  N   UNL A   1      31.241  24.350  25.491  1.00  0.00    -0.190 N 
ATOM     17  C   UNL A   1      30.667  24.918  24.359  1.00  0.00     0.324 C 
ATOM     18  C   UNL A   1      32.522  23.879  25.365  1.00  0.00     0.319 C 
ATOM     19  O   UNL A   1      29.586  25.494  24.331  1.00  0.00    -0.245 OA
ATOM     20  S   UNL A   1      33.133  24.257  23.785  1.00  0.00    -0.022 SA
ATOM     21  N   UNL A   1      33.115  23.238  26.316  1.00  0.00    -0.235 N 
ATOM     22  H   UNL A   1      32.753  23.305  27.229  1.00  0.00     0.313 HD
BRANCH  16  23
ATOM     23  C   UNL A   1      30.523  24.291  26.763  1.00  0.00     0.243 C 
ATOM     24  C   UNL A   1      29.763  22.985  27.000  1.00  0.00     0.054 C 
ENDBRANCH  16  23
BRANCH  21  25
ATOM     25  C   UNL A   1      34.255  22.451  26.099  1.00  0.00     0.128 A 
ATOM     26  C   UNL A   1      34.019  21.151  25.640  1.00  0.00     0.076 A 
ATOM     27  C   UNL A   1      35.571  22.887  26.243  1.00  0.00     0.076 A 
ATOM     28  C   UNL A   1      35.062  20.358  25.177  1.00  0.00     0.088 A 
ATOM     29  C   UNL A   1      36.615  22.112  25.746  1.00  0.00     0.088 A 
ATOM     30  Cl  UNL A   1      34.647  18.808  24.547  1.00  0.00    -0.080 Cl
ATOM     31  C   UNL A   1      36.362  20.862  25.181  1.00  0.00     0.153 A 
ATOM     32  Cl  UNL A   1      38.221  22.749  25.762  1.00  0.00    -0.080 Cl
BRANCH  31  33
ATOM     33  O   UNL A   1      37.377  20.163  24.601  1.00  0.00    -0.505 OA
ATOM     34  H   UNL A   1      38.024  19.746  25.135  1.00  0.00     0.293 HD
ENDBRANCH  31  33
ENDBRANCH  21  25
ENDBRANCH  14  15
ENDBRANCH  11  14
ENDBRANCH   5  10
ENDBRANCH   2   4
ENDBRANCH   1   2
BRANCH   1  35
ATOM     35  C   UNL A   1      33.862  31.467  27.470  1.00  0.00     0.275 C 
BRANCH  35  36
ATOM     36  C   UNL A   1      34.717  31.731  28.719  1.00  0.00     0.275 C 
BRANCH  36  37
ATOM     37  O   UNL A   1      35.267  30.524  29.288  1.00  0.00    -0.458 OA
BRANCH  37  38
ATOM     38  C   UNL A   1      36.230  30.709  30.224  1.00  0.00     0.338 C 
ATOM     39  O   UNL A   1      36.060  31.077  31.376  1.00  0.00    -0.246 OA
BRANCH  38  40
ATOM     40  C   UNL A   1      37.528  30.182  29.742  1.00  0.00     0.060 A 
ATOM     41  C   UNL A   1      38.448  29.795  30.719  1.00  0.00     0.016 A 
ATOM     42  C   UNL A   1      37.872  30.084  28.394  1.00  0.00     0.016 A 
ATOM     43  C   UNL A   1      39.669  29.229  30.367  1.00  0.00     0.010 A 
ATOM     44  C   UNL A   1      39.139  29.585  28.036  1.00  0.00     0.010 A 
ATOM     45  C   UNL A   1      40.040  29.142  29.020  1.00  0.00    -0.014 A 
BRANCH  45  46
ATOM     46  C   UNL A   1      41.438  28.732  28.719  1.00  0.00     0.031 A 
ATOM     47  C   UNL A   1      41.680  27.340  28.226  1.00  0.00     0.074 A 
ATOM     48  C   UNL A   1      42.459  29.608  28.750  1.00  0.00     0.049 A 
ATOM     49  N   UNL A   1      42.800  26.783  27.851  1.00  0.00    -0.248 NA
ATOM     50  C   UNL A   1      40.508  26.452  28.169  1.00  0.00     0.031 C 
ATOM     51  C   UNL A   1      42.348  30.980  29.206  1.00  0.00     0.029 A 
ATOM     52  N   UNL A   1      43.767  29.508  28.342  1.00  0.00    -0.354 N 
ATOM     53  C   UNL A   1      42.483  25.465  27.568  1.00  0.00     0.074 A 
ATOM     54  C   UNL A   1      41.057  25.315  27.773  1.00  0.00     0.031 C 
ATOM     55  C   UNL A   1      43.480  31.642  28.930  1.00  0.00     0.029 A 
ATOM     56  C   UNL A   1      44.454  30.703  28.393  1.00  0.00     0.049 A 
ATOM     57  H   UNL A   1      44.176  28.664  28.041  1.00  0.00     0.167 HD
ATOM     58  C   UNL A   1      43.321  24.462  27.215  1.00  0.00     0.037 A 
ATOM     59  C   UNL A   1      45.729  31.000  28.071  1.00  0.00     0.037 A 
ATOM     60  C   UNL A   1      44.741  24.622  27.042  1.00  0.00     0.049 A 
ATOM     61  C   UNL A   1      46.635  29.866  27.674  1.00  0.00     0.074 A 
ATOM     62  C   UNL A   1      45.685  23.657  26.737  1.00  0.00     0.029 A 
ATOM     63  N   UNL A   1      45.425  25.823  27.167  1.00  0.00    -0.354 N 
ATOM     64  N   UNL A   1      46.338  28.607  27.462  1.00  0.00    -0.248 NA
ATOM     65  C   UNL A   1      48.063  30.180  27.533  1.00  0.00     0.031 C 
ATOM     66  C   UNL A   1      46.944  24.266  26.725  1.00  0.00     0.029 A 
ATOM     67  C   UNL A   1      46.780  25.621  26.959  1.00  0.00     0.049 A 
ATOM     68  H   UNL A   1      45.007  26.691  27.374  1.00  0.00     0.167 HD
ATOM     69  C   UNL A   1      47.542  27.973  27.192  1.00  0.00     0.074 A 
ATOM     70  C   UNL A   1      48.565  29.000  27.201  1.00  0.00     0.031 C 
ATOM     71  C   UNL A   1      47.785  26.655  26.986  1.00  0.00     0.037 A 
BRANCH  58  72
ATOM     72  C   UNL A   1      42.722  23.093  27.101  1.00  0.00     0.057 A 
ATOM     73  C   UNL A   1      42.368  22.332  28.221  1.00  0.00     0.134 A 
ATOM     74  C   UNL A   1      42.520  22.521  25.837  1.00  0.00     0.134 A 
ATOM     75  F   UNL A   1      42.566  22.810  29.459  1.00  0.00    -0.206 F 
ATOM     76  C   UNL A   1      41.855  21.040  28.090  1.00  0.00     0.040 A 
ATOM     77  C   UNL A   1      41.981  21.242  25.693  1.00  0.00     0.040 A 
ATOM     78  F   UNL A   1      42.847  23.193  24.724  1.00  0.00    -0.206 F 
ATOM     79  C   UNL A   1      41.654  20.495  26.822  1.00  0.00     0.006 A 
ENDBRANCH  58  72
BRANCH  59  80
ATOM     80  C   UNL A   1      46.258  32.390  28.185  1.00  0.00     0.057 A 
ATOM     81  C   UNL A   1      46.241  33.268  27.092  1.00  0.00     0.134 A 
ATOM     82  C   UNL A   1      46.838  32.864  29.369  1.00  0.00     0.134 A 
ATOM     83  F   UNL A   1      45.734  32.873  25.914  1.00  0.00    -0.206 F 
ATOM     84  C   UNL A   1      46.788  34.553  27.169  1.00  0.00     0.040 A 
ATOM     85  C   UNL A   1      47.350  34.159  29.473  1.00  0.00     0.040 A 
ATOM     86  F   UNL A   1      46.913  32.076  30.451  1.00  0.00    -0.206 F 
ATOM     87  C   UNL A   1      47.336  35.004  28.368  1.00  0.00     0.006 A 
ENDBRANCH  59  80
BRANCH  71  88
ATOM     88  C   UNL A   1      49.214  26.262  26.747  1.00  0.00     0.057 A 
ATOM     89  C   UNL A   1      49.781  26.280  25.465  1.00  0.00     0.134 A 
ATOM     90  C   UNL A   1      50.033  25.866  27.811  1.00  0.00     0.134 A 
ATOM     91  F   UNL A   1      49.046  26.634  24.400  1.00  0.00    -0.206 F 
ATOM     92  C   UNL A   1      51.100  25.883  25.246  1.00  0.00     0.040 A 
ATOM     93  C   UNL A   1      51.363  25.497  27.609  1.00  0.00     0.040 A 
ATOM     94  F   UNL A   1      49.555  25.835  29.064  1.00  0.00    -0.206 F 
ATOM     95  C   UNL A   1      51.897  25.495  26.322  1.00  0.00     0.006 A 
ENDBRANCH  71  88
ENDBRANCH  45  46
ENDBRANCH  38  40
ENDBRANCH  37  38
ENDBRANCH  36  37
ENDBRANCH  35  36
ENDBRANCH   1  35
TORSDOF 17
ENDMDL
MODEL 2
REMARK VINA RESULT:     -11.8      5.651      8.002
REMARK SMILES CCN1C(=O)[C@@H](CC(=O)Nc2cccc(C(=O)OCCOC(=O)c3ccc(-c4c5nc(c(-c6c(F)cccc6F)c6ccc([nH]6)c(-c6c(F)cccc6F)c6nc(c(-c7c(F)cccc7F)c7ccc4[nH]7)C=C6)C=C5)cc3)c2)S/C1=[NH+]\c1cc(Cl)c(O)c(Cl)c1
REMARK SMILES IDX 18 1 16 2 17 3 15 4 11 5 12 6 78 7 13 8 14 9 10 10 8 11 9 12
REMARK SMILES IDX 7 14 6 15 3 16 4 17 80 18 5 19 79 20 81 21 2 23 1 24 82 25
REMARK SMILES IDX 83 26 90 27 84 28 88 29 85 30 86 31 89 32 87 33 19 35 20 36
REMARK SMILES IDX 21 37 22 38 23 39 24 40 25 41 77 42 26 43 76 44 27 45 28 46
REMARK SMILES IDX 29 47 70 48 30 49 75 50 69 51 71 52 31 53 74 54 68 55 67 56
REMARK SMILES IDX 32 58 58 59 41 60 57 61 42 62 45 63 56 64 72 65 43 66 44 67
REMARK SMILES IDX 55 69 73 70 46 71 33 72 34 73 39 74 35 75 36 76 38 77 40 78
REMARK SMILES IDX 37 79 59 80 60 81 65 82 61 83 62 84 64 85 66 86 63 87 47 88
REMARK SMILES IDX 48 89 53 90 49 91 50 92 52 93 54 94 51 95
REMARK H PARENT 10 13 81 22 87 34 71 57 45 68
REMARK Flexibility Score: inf
ROOT
ATOM      1  O   UNL A   1      33.646  33.813  28.798  1.00  0.00    -0.458 OA
ENDROOT
BRANCH   1   2
ATOM      2  C   UNL A   1      34.784  33.098  28.984  1.00  0.00     0.338 C 
ATOM      3  O   UNL A   1      35.818  33.540  29.449  1.00  0.00    -0.246 OA
BRANCH   2   4
ATOM      4  C   UNL A   1      34.714  31.713  28.459  1.00  0.00     0.062 A 
ATOM      5  C   UNL A   1      33.989  30.229  26.720  1.00  0.00     0.042 A 
ATOM      6  C   UNL A   1      34.962  29.296  27.085  1.00  0.00     0.026 A 
ATOM      7  C   UNL A   1      33.764  31.352  27.509  1.00  0.00     0.041 A 
ATOM      8  C   UNL A   1      35.858  29.601  28.107  1.00  0.00     0.003 A 
ATOM      9  C   UNL A   1      35.773  30.837  28.744  1.00  0.00     0.016 A 
BRANCH   5  10
ATOM     10  N   UNL A   1      33.261  30.025  25.548  1.00  0.00    -0.326 N 
ATOM     11  C   UNL A   1      32.816  28.870  24.966  1.00  0.00     0.226 C 
ATOM     12  O   UNL A   1      32.537  28.933  23.762  1.00  0.00    -0.275 OA
ATOM     13  H   UNL A   1      33.029  30.849  25.060  1.00  0.00     0.169 HD
BRANCH  11  14
ATOM     14  C   UNL A   1      32.355  27.628  25.761  1.00  0.00     0.128 C 
BRANCH  14  15
ATOM     15  C   UNL A   1      32.452  26.218  25.203  1.00  0.00     0.183 C 
ATOM     16  N   UNL A   1      31.777  23.959  25.699  1.00  0.00    -0.190 N 
ATOM     17  C   UNL A   1      31.312  25.260  25.538  1.00  0.00     0.324 C 
ATOM     18  C   UNL A   1      33.134  23.796  25.802  1.00  0.00     0.319 C 
ATOM     19  O   UNL A   1      30.134  25.594  25.554  1.00  0.00    -0.245 OA
ATOM     20  S   UNL A   1      33.911  25.347  25.826  1.00  0.00    -0.022 SA
ATOM     21  N   UNL A   1      33.684  22.629  25.847  1.00  0.00    -0.235 N 
ATOM     22  H   UNL A   1      33.123  21.850  26.069  1.00  0.00     0.313 HD
BRANCH  16  23
ATOM     23  C   UNL A   1      30.858  22.827  25.789  1.00  0.00     0.243 C 
ATOM     24  C   UNL A   1      30.004  22.805  27.058  1.00  0.00     0.054 C 
ENDBRANCH  16  23
BRANCH  21  25
ATOM     25  C   UNL A   1      35.048  22.427  25.594  1.00  0.00     0.128 A 
ATOM     26  C   UNL A   1      35.898  23.472  25.968  1.00  0.00     0.076 A 
ATOM     27  C   UNL A   1      35.604  21.260  25.070  1.00  0.00     0.076 A 
ATOM     28  C   UNL A   1      37.278  23.301  25.978  1.00  0.00     0.088 A 
ATOM     29  C   UNL A   1      36.982  21.071  25.113  1.00  0.00     0.088 A 
ATOM     30  Cl  UNL A   1      38.226  24.623  26.546  1.00  0.00    -0.080 Cl
ATOM     31  C   UNL A   1      37.820  22.075  25.597  1.00  0.00     0.153 A 
ATOM     32  Cl  UNL A   1      37.639  19.546  24.634  1.00  0.00    -0.080 Cl
BRANCH  31  33
ATOM     33  O   UNL A   1      39.154  21.836  25.735  1.00  0.00    -0.505 OA
ATOM     34  H   UNL A   1      39.721  22.511  26.053  1.00  0.00     0.293 HD
ENDBRANCH  31  33
ENDBRANCH  21  25
ENDBRANCH  14  15
ENDBRANCH  11  14
ENDBRANCH   5  10
ENDBRANCH   2   4
ENDBRANCH   1   2
BRANCH   1  35
ATOM     35  C   UNL A   1      33.849  35.238  28.684  1.00  0.00     0.275 C 
BRANCH  35  36
ATOM     36  C   UNL A   1      32.893  36.067  29.557  1.00  0.00     0.275 C 
BRANCH  36  37
ATOM     37  O   UNL A   1      33.449  36.389  30.849  1.00  0.00    -0.458 OA
BRANCH  37  38
ATOM     38  C   UNL A   1      32.990  35.641  31.883  1.00  0.00     0.338 C 
ATOM     39  O   UNL A   1      31.820  35.455  32.180  1.00  0.00    -0.246 OA
BRANCH  38  40
ATOM     40  C   UNL A   1      34.097  34.870  32.496  1.00  0.00     0.060 A 
ATOM     41  C   UNL A   1      35.383  35.389  32.339  1.00  0.00     0.016 A 
ATOM     42  C   UNL A   1      33.917  33.668  33.180  1.00  0.00     0.016 A 
ATOM     43  C   UNL A   1      36.480  34.773  32.931  1.00  0.00     0.010 A 
ATOM     44  C   UNL A   1      35.036  32.999  33.713  1.00  0.00     0.010 A 
ATOM     45  C   UNL A   1      36.323  33.555  33.603  1.00  0.00    -0.014 A 
BRANCH  45  46
ATOM     46  C   UNL A   1      37.558  32.839  34.023  1.00  0.00     0.031 A 
ATOM     47  C   UNL A   1      38.231  31.941  33.033  1.00  0.00     0.074 A 
ATOM     48  C   UNL A   1      38.152  33.079  35.207  1.00  0.00     0.049 A 
ATOM     49  N   UNL A   1      39.341  31.264  33.158  1.00  0.00    -0.248 NA
ATOM     50  C   UNL A   1      37.552  31.766  31.739  1.00  0.00     0.031 C 
ATOM     51  C   UNL A   1      37.599  33.929  36.243  1.00  0.00     0.029 A 
ATOM     52  N   UNL A   1      39.365  32.690  35.721  1.00  0.00    -0.354 N 
ATOM     53  C   UNL A   1      39.466  30.537  31.986  1.00  0.00     0.074 A 
ATOM     54  C   UNL A   1      38.342  30.888  31.143  1.00  0.00     0.031 C 
ATOM     55  C   UNL A   1      38.511  34.120  37.207  1.00  0.00     0.029 A 
ATOM     56  C   UNL A   1      39.675  33.295  36.921  1.00  0.00     0.049 A 
ATOM     57  H   UNL A   1      39.958  32.042  35.275  1.00  0.00     0.167 HD
ATOM     58  C   UNL A   1      40.413  29.624  31.668  1.00  0.00     0.037 A 
ATOM     59  C   UNL A   1      40.760  33.176  37.712  1.00  0.00     0.037 A 
ATOM     60  C   UNL A   1      41.509  29.265  32.529  1.00  0.00     0.049 A 
ATOM     61  C   UNL A   1      41.800  32.159  37.328  1.00  0.00     0.074 A 
ATOM     62  C   UNL A   1      42.492  28.313  32.321  1.00  0.00     0.029 A 
ATOM     63  N   UNL A   1      41.764  29.838  33.767  1.00  0.00    -0.354 N 
ATOM     64  N   UNL A   1      41.883  31.432  36.241  1.00  0.00    -0.248 NA
ATOM     65  C   UNL A   1      42.863  31.898  38.309  1.00  0.00     0.031 C 
ATOM     66  C   UNL A   1      43.312  28.278  33.454  1.00  0.00     0.029 A 
ATOM     67  C   UNL A   1      42.881  29.250  34.341  1.00  0.00     0.049 A 
ATOM     68  H   UNL A   1      41.230  30.556  34.178  1.00  0.00     0.167 HD
ATOM     69  C   UNL A   1      42.986  30.608  36.417  1.00  0.00     0.074 A 
ATOM     70  C   UNL A   1      43.580  30.973  37.688  1.00  0.00     0.031 C 
ATOM     71  C   UNL A   1      43.448  29.618  35.615  1.00  0.00     0.037 A 
BRANCH  58  72
ATOM     72  C   UNL A   1      40.228  28.884  30.377  1.00  0.00     0.057 A 
ATOM     73  C   UNL A   1      39.463  27.715  30.284  1.00  0.00     0.134 A 
ATOM     74  C   UNL A   1      40.853  29.345  29.210  1.00  0.00     0.134 A 
ATOM     75  F   UNL A   1      38.865  27.205  31.371  1.00  0.00    -0.206 F 
ATOM     76  C   UNL A   1      39.344  27.019  29.080  1.00  0.00     0.040 A 
ATOM     77  C   UNL A   1      40.717  28.673  27.996  1.00  0.00     0.040 A 
ATOM     78  F   UNL A   1      41.608  30.453  29.234  1.00  0.00    -0.206 F 
ATOM     79  C   UNL A   1      39.967  27.501  27.930  1.00  0.00     0.006 A 
ENDBRANCH  58  72
BRANCH  59  80
ATOM     80  C   UNL A   1      40.894  33.959  38.974  1.00  0.00     0.057 A 
ATOM     81  C   UNL A   1      40.318  33.514  40.173  1.00  0.00     0.134 A 
ATOM     82  C   UNL A   1      41.558  35.192  39.011  1.00  0.00     0.134 A 
ATOM     83  F   UNL A   1      39.636  32.360  40.208  1.00  0.00    -0.206 F 
ATOM     84  C   UNL A   1      40.386  34.269  41.349  1.00  0.00     0.040 A 
ATOM     85  C   UNL A   1      41.671  35.936  40.187  1.00  0.00     0.040 A 
ATOM     86  F   UNL A   1      42.115  35.696  37.900  1.00  0.00    -0.206 F 
ATOM     87  C   UNL A   1      41.074  35.480  41.359  1.00  0.00     0.006 A 
ENDBRANCH  59  80
BRANCH  71  88
ATOM     88  C   UNL A   1      44.659  28.872  36.093  1.00  0.00     0.057 A 
ATOM     89  C   UNL A   1      45.959  29.317  35.818  1.00  0.00     0.134 A 
ATOM     90  C   UNL A   1      44.523  27.697  36.843  1.00  0.00     0.134 A 
ATOM     91  F   UNL A   1      46.159  30.426  35.091  1.00  0.00    -0.206 F 
ATOM     92  C   UNL A   1      47.080  28.601  36.240  1.00  0.00     0.040 A 
ATOM     93  C   UNL A   1      45.636  26.989  37.298  1.00  0.00     0.040 A 
ATOM     94  F   UNL A   1      43.307  27.221  37.150  1.00  0.00    -0.206 F 
ATOM     95  C   UNL A   1      46.919  27.436  36.987  1.00  0.00     0.006 A 
ENDBRANCH  71  88
ENDBRANCH  45  46
ENDBRANCH  38  40
ENDBRANCH  37  38
ENDBRANCH  36  37
ENDBRANCH  35  36
ENDBRANCH   1  35
TORSDOF 17
ENDMDL
MODEL 3
REMARK VINA RESULT:     -11.5      5.542      9.053
REMARK SMILES CCN1C(=O)[C@@H](CC(=O)Nc2cccc(C(=O)OCCOC(=O)c3ccc(-c4c5nc(c(-c6c(F)cccc6F)c6ccc([nH]6)c(-c6c(F)cccc6F)c6nc(c(-c7c(F)cccc7F)c7ccc4[nH]7)C=C6)C=C5)cc3)c2)S/C1=[NH+]\c1cc(Cl)c(O)c(Cl)c1
REMARK SMILES IDX 18 1 16 2 17 3 15 4 11 5 12 6 78 7 13 8 14 9 10 10 8 11 9 12
REMARK SMILES IDX 7 14 6 15 3 16 4 17 80 18 5 19 79 20 81 21 2 23 1 24 82 25
REMARK SMILES IDX 83 26 90 27 84 28 88 29 85 30 86 31 89 32 87 33 19 35 20 36
REMARK SMILES IDX 21 37 22 38 23 39 24 40 25 41 77 42 26 43 76 44 27 45 28 46
REMARK SMILES IDX 29 47 70 48 30 49 75 50 69 51 71 52 31 53 74 54 68 55 67 56
REMARK SMILES IDX 32 58 58 59 41 60 57 61 42 62 45 63 56 64 72 65 43 66 44 67
REMARK SMILES IDX 55 69 73 70 46 71 33 72 34 73 39 74 35 75 36 76 38 77 40 78
REMARK SMILES IDX 37 79 59 80 60 81 65 82 61 83 62 84 64 85 66 86 63 87 47 88
REMARK SMILES IDX 48 89 53 90 49 91 50 92 52 93 54 94 51 95
REMARK H PARENT 10 13 81 22 87 34 71 57 45 68
REMARK Flexibility Score: inf
ROOT
ATOM      1  O   UNL A   1      33.457  33.868  28.891  1.00  0.00    -0.458 OA
ENDROOT
BRANCH   1   2
ATOM      2  C   UNL A   1      34.597  33.169  29.120  1.00  0.00     0.338 C 
ATOM      3  O   UNL A   1      35.603  33.624  29.630  1.00  0.00    -0.246 OA
BRANCH   2   4
ATOM      4  C   UNL A   1      34.570  31.787  28.584  1.00  0.00     0.062 A 
ATOM      5  C   UNL A   1      33.932  30.302  26.812  1.00  0.00     0.042 A 
ATOM      6  C   UNL A   1      34.909  29.384  27.204  1.00  0.00     0.026 A 
ATOM      7  C   UNL A   1      33.660  31.416  27.600  1.00  0.00     0.041 A 
ATOM      8  C   UNL A   1      35.764  29.699  28.258  1.00  0.00     0.003 A 
ATOM      9  C   UNL A   1      35.635  30.928  28.899  1.00  0.00     0.016 A 
BRANCH   5  10
ATOM     10  N   UNL A   1      33.248  30.093  25.615  1.00  0.00    -0.326 N 
ATOM     11  C   UNL A   1      32.838  28.935  25.014  1.00  0.00     0.226 C 
ATOM     12  O   UNL A   1      32.600  28.999  23.801  1.00  0.00    -0.275 OA
ATOM     13  H   UNL A   1      33.023  30.916  25.121  1.00  0.00     0.169 HD
BRANCH  11  14
ATOM     14  C   UNL A   1      32.364  27.685  25.789  1.00  0.00     0.128 C 
BRANCH  14  15
ATOM     15  C   UNL A   1      32.433  26.285  25.202  1.00  0.00     0.183 C 
ATOM     16  N   UNL A   1      31.683  24.037  25.634  1.00  0.00    -0.190 N 
ATOM     17  C   UNL A   1      31.259  25.353  25.492  1.00  0.00     0.324 C 
ATOM     18  C   UNL A   1      33.032  23.832  25.763  1.00  0.00     0.319 C 
ATOM     19  O   UNL A   1      30.090  25.721  25.489  1.00  0.00    -0.245 OA
ATOM     20  S   UNL A   1      33.853  25.359  25.838  1.00  0.00    -0.022 SA
ATOM     21  N   UNL A   1      33.547  22.648  25.795  1.00  0.00    -0.235 N 
ATOM     22  H   UNL A   1      32.960  21.882  25.987  1.00  0.00     0.313 HD
BRANCH  16  23
ATOM     23  C   UNL A   1      30.730  22.929  25.680  1.00  0.00     0.243 C 
ATOM     24  C   UNL A   1      30.006  22.773  27.018  1.00  0.00     0.054 C 
ENDBRANCH  16  23
BRANCH  21  25
ATOM     25  C   UNL A   1      34.911  22.413  25.566  1.00  0.00     0.128 A 
ATOM     26  C   UNL A   1      35.777  23.447  25.932  1.00  0.00     0.076 A 
ATOM     27  C   UNL A   1      35.449  21.224  25.075  1.00  0.00     0.076 A 
ATOM     28  C   UNL A   1      37.152  23.248  25.965  1.00  0.00     0.088 A 
ATOM     29  C   UNL A   1      36.822  21.006  25.143  1.00  0.00     0.088 A 
ATOM     30  Cl  UNL A   1      38.121  24.562  26.520  1.00  0.00    -0.080 Cl
ATOM     31  C   UNL A   1      37.674  22.003  25.619  1.00  0.00     0.153 A 
ATOM     32  Cl  UNL A   1      37.453  19.459  24.706  1.00  0.00    -0.080 Cl
BRANCH  31  33
ATOM     33  O   UNL A   1      39.001  21.738  25.782  1.00  0.00    -0.505 OA
ATOM     34  H   UNL A   1      39.615  22.443  25.842  1.00  0.00     0.293 HD
ENDBRANCH  31  33
ENDBRANCH  21  25
ENDBRANCH  14  15
ENDBRANCH  11  14
ENDBRANCH   5  10
ENDBRANCH   2   4
ENDBRANCH   1   2
BRANCH   1  35
ATOM     35  C   UNL A   1      33.621  35.303  28.917  1.00  0.00     0.275 C 
BRANCH  35  36
ATOM     36  C   UNL A   1      32.601  36.022  29.813  1.00  0.00     0.275 C 
BRANCH  36  37
ATOM     37  O   UNL A   1      33.153  36.420  31.085  1.00  0.00    -0.458 OA
BRANCH  37  38
ATOM     38  C   UNL A   1      32.822  35.629  32.136  1.00  0.00     0.338 C 
ATOM     39  O   UNL A   1      31.695  35.404  32.548  1.00  0.00    -0.246 OA
BRANCH  38  40
ATOM     40  C   UNL A   1      34.005  34.867  32.602  1.00  0.00     0.060 A 
ATOM     41  C   UNL A   1      35.240  35.510  32.507  1.00  0.00     0.016 A 
ATOM     42  C   UNL A   1      33.941  33.563  33.093  1.00  0.00     0.016 A 
ATOM     43  C   UNL A   1      36.400  34.903  32.978  1.00  0.00     0.010 A 
ATOM     44  C   UNL A   1      35.125  32.916  33.496  1.00  0.00     0.010 A 
ATOM     45  C   UNL A   1      36.360  33.587  33.453  1.00  0.00    -0.014 A 
BRANCH  45  46
ATOM     46  C   UNL A   1      37.660  32.921  33.736  1.00  0.00     0.031 A 
ATOM     47  C   UNL A   1      38.265  33.091  35.094  1.00  0.00     0.074 A 
ATOM     48  C   UNL A   1      38.229  32.072  32.861  1.00  0.00     0.049 A 
ATOM     49  N   UNL A   1      39.356  32.563  35.581  1.00  0.00    -0.248 NA
ATOM     50  C   UNL A   1      37.560  33.993  36.018  1.00  0.00     0.031 C 
ATOM     51  C   UNL A   1      37.736  31.824  31.520  1.00  0.00     0.029 A 
ATOM     52  N   UNL A   1      39.301  31.219  32.974  1.00  0.00    -0.354 N 
ATOM     53  C   UNL A   1      39.502  33.110  36.845  1.00  0.00     0.074 A 
ATOM     54  C   UNL A   1      38.365  33.979  37.068  1.00  0.00     0.031 C 
ATOM     55  C   UNL A   1      38.398  30.792  30.977  1.00  0.00     0.029 A 
ATOM     56  C   UNL A   1      39.461  30.387  31.886  1.00  0.00     0.049 A 
ATOM     57  H   UNL A   1      39.898  31.202  33.758  1.00  0.00     0.167 HD
ATOM     58  C   UNL A   1      40.522  32.935  37.717  1.00  0.00     0.037 A 
ATOM     59  C   UNL A   1      40.375  29.428  31.638  1.00  0.00     0.037 A 
ATOM     60  C   UNL A   1      41.659  32.088  37.468  1.00  0.00     0.049 A 
ATOM     61  C   UNL A   1      41.492  29.250  32.630  1.00  0.00     0.074 A 
ATOM     62  C   UNL A   1      42.771  31.884  38.266  1.00  0.00     0.029 A 
ATOM     63  N   UNL A   1      41.835  31.310  36.332  1.00  0.00    -0.354 N 
ATOM     64  N   UNL A   1      41.654  29.815  33.802  1.00  0.00    -0.248 NA
ATOM     65  C   UNL A   1      42.587  28.351  32.239  1.00  0.00     0.031 C 
ATOM     66  C   UNL A   1      43.641  31.020  37.591  1.00  0.00     0.029 A 
ATOM     67  C   UNL A   1      43.044  30.636  36.402  1.00  0.00     0.049 A 
ATOM     68  H   UNL A   1      41.195  31.248  35.586  1.00  0.00     0.167 HD
ATOM     69  C   UNL A   1      42.878  29.364  34.276  1.00  0.00     0.074 A 
ATOM     70  C   UNL A   1      43.386  28.427  33.293  1.00  0.00     0.031 C 
ATOM     71  C   UNL A   1      43.538  29.718  35.406  1.00  0.00     0.037 A 
BRANCH  58  72
ATOM     72  C   UNL A   1      40.488  33.761  38.967  1.00  0.00     0.057 A 
ATOM     73  C   UNL A   1      39.831  33.340  40.129  1.00  0.00     0.134 A 
ATOM     74  C   UNL A   1      41.112  35.017  38.993  1.00  0.00     0.134 A 
ATOM     75  F   UNL A   1      39.187  32.163  40.158  1.00  0.00    -0.206 F 
ATOM     76  C   UNL A   1      39.774  34.148  41.266  1.00  0.00     0.040 A 
ATOM     77  C   UNL A   1      41.087  35.819  40.133  1.00  0.00     0.040 A 
ATOM     78  F   UNL A   1      41.751  35.483  37.910  1.00  0.00    -0.206 F 
ATOM     79  C   UNL A   1      40.410  35.389  41.272  1.00  0.00     0.006 A 
ENDBRANCH  58  72
BRANCH  59  80
ATOM     80  C   UNL A   1      40.340  28.623  30.383  1.00  0.00     0.057 A 
ATOM     81  C   UNL A   1      39.533  27.482  30.271  1.00  0.00     0.134 A 
ATOM     82  C   UNL A   1      41.143  28.940  29.280  1.00  0.00     0.134 A 
ATOM     83  F   UNL A   1      38.763  27.094  31.299  1.00  0.00    -0.206 F 
ATOM     84  C   UNL A   1      39.536  26.685  29.122  1.00  0.00     0.040 A 
ATOM     85  C   UNL A   1      41.125  28.178  28.110  1.00  0.00     0.040 A 
ATOM     86  F   UNL A   1      41.959  30.003  29.318  1.00  0.00    -0.206 F 
ATOM     87  C   UNL A   1      40.328  27.040  28.032  1.00  0.00     0.006 A 
ENDBRANCH  59  80
BRANCH  71  88
ATOM     88  C   UNL A   1      44.875  29.076  35.635  1.00  0.00     0.057 A 
ATOM     89  C   UNL A   1      46.064  29.658  35.174  1.00  0.00     0.134 A 
ATOM     90  C   UNL A   1      44.975  27.864  36.328  1.00  0.00     0.134 A 
ATOM     91  F   UNL A   1      46.037  30.811  34.488  1.00  0.00    -0.206 F 
ATOM     92  C   UNL A   1      47.300  29.040  35.364  1.00  0.00     0.040 A 
ATOM     93  C   UNL A   1      46.209  27.251  36.552  1.00  0.00     0.040 A 
ATOM     94  F   UNL A   1      43.878  27.257  36.804  1.00  0.00    -0.206 F 
ATOM     95  C   UNL A   1      47.375  27.834  36.059  1.00  0.00     0.006 A 
ENDBRANCH  71  88
ENDBRANCH  45  46
ENDBRANCH  38  40
ENDBRANCH  37  38
ENDBRANCH  36  37
ENDBRANCH  35  36
ENDBRANCH   1  35
TORSDOF 17
ENDMDL
