MODEL 1
REMARK VINA RESULT:     -11.4      0.000      0.000
REMARK SMILES C=CCOc1ccccc1-c1cc(C(=O)OCCOC(=O)c2ccc(-c3c4nc(c(-c5c(F)cccc5F)c5ccc([nH]5)c(-c5c(F)cccc5F)c5nc(c(-c6c(F)cccc6F)c6ccc3[nH]6)C=C5)C=C4)cc2)nc(N)n1
REMARK SMILES IDX 17 1 16 2 14 3 15 4 13 5 11 6 12 7 79 8 77 9 76 10 10 11
REMARK SMILES IDX 5 12 6 13 7 14 9 15 8 16 4 17 3 18 2 19 1 20 78 21 18 24
REMARK SMILES IDX 19 25 20 26 21 27 22 28 23 29 75 30 24 31 74 32 25 33 26 34
REMARK SMILES IDX 27 35 68 36 28 37 73 38 67 39 69 40 29 41 72 42 66 43 65 44
REMARK SMILES IDX 30 46 56 47 39 48 55 49 40 50 43 51 54 52 70 53 41 54 42 55
REMARK SMILES IDX 53 57 71 58 44 59 31 60 32 61 37 62 33 63 34 64 36 65 38 66
REMARK SMILES IDX 35 67 57 68 58 69 63 70 59 71 60 72 62 73 64 74 61 75 45 76
REMARK SMILES IDX 46 77 51 78 47 79 48 80 50 81 52 82 49 83
REMARK H PARENT 78 22 78 23 69 45 43 56
REMARK Flexibility Score: inf
ROOT
ATOM      1  C   UNL A   1      42.023  19.910  26.128  1.00  0.00     0.275 C 
ENDROOT
BRANCH   1   2
ATOM      2  O   UNL A   1      40.743  20.470  26.483  1.00  0.00    -0.457 OA
BRANCH   2   3
ATOM      3  C   UNL A   1      39.679  20.022  25.766  1.00  0.00     0.357 C 
ATOM      4  O   UNL A   1      39.500  18.878  25.376  1.00  0.00    -0.244 OA
BRANCH   3   5
ATOM      5  C   UNL A   1      38.651  21.086  25.624  1.00  0.00     0.154 A 
ATOM      6  C   UNL A   1      36.493  21.712  25.020  1.00  0.00     0.080 A 
ATOM      7  C   UNL A   1      37.473  20.750  25.001  1.00  0.00     0.065 A 
ATOM      8  N   UNL A   1      36.724  22.956  25.483  1.00  0.00    -0.213 NA
ATOM      9  C   UNL A   1      37.923  23.195  26.025  1.00  0.00     0.221 A 
ATOM     10  N   UNL A   1      38.903  22.302  26.151  1.00  0.00    -0.206 NA
BRANCH   6  11
ATOM     11  C   UNL A   1      35.121  21.395  24.607  1.00  0.00     0.042 A 
ATOM     12  C   UNL A   1      34.367  22.285  23.813  1.00  0.00     0.129 A 
ATOM     13  C   UNL A   1      33.032  22.031  23.494  1.00  0.00     0.047 A 
ATOM     14  C   UNL A   1      32.435  20.851  23.931  1.00  0.00     0.004 A 
ATOM     15  C   UNL A   1      34.503  20.205  25.017  1.00  0.00     0.014 A 
ATOM     16  C   UNL A   1      33.171  19.937  24.684  1.00  0.00     0.001 A 
BRANCH  12  17
ATOM     17  O   UNL A   1      34.916  23.473  23.393  1.00  0.00    -0.489 OA
BRANCH  17  18
ATOM     18  C   UNL A   1      33.903  24.453  23.129  1.00  0.00     0.257 C 
BRANCH  18  19
ATOM     19  C   UNL A   1      34.027  25.541  24.153  1.00  0.00     0.006 C 
ATOM     20  C   UNL A   1      34.026  25.334  25.476  1.00  0.00     0.007 C 
ENDBRANCH  18  19
ENDBRANCH  17  18
ENDBRANCH  12  17
ENDBRANCH   6  11
BRANCH   9  21
ATOM     21  N   UNL A   1      38.157  24.451  26.499  1.00  0.00    -0.368 N 
ATOM     22  H   UNL A   1      37.753  25.229  26.050  1.00  0.00     0.159 HD
ATOM     23  H   UNL A   1      38.728  24.581  27.289  1.00  0.00     0.159 HD
ENDBRANCH   9  21
ENDBRANCH   3   5
ENDBRANCH   2   3
ENDBRANCH   1   2
BRANCH   1  24
ATOM     24  C   UNL A   1      43.010  21.016  25.751  1.00  0.00     0.275 C 
BRANCH  24  25
ATOM     25  O   UNL A   1      42.280  22.212  25.422  1.00  0.00    -0.458 OA
BRANCH  25  26
ATOM     26  C   UNL A   1      43.016  23.333  25.260  1.00  0.00     0.338 C 
ATOM     27  O   UNL A   1      43.941  23.503  24.477  1.00  0.00    -0.246 OA
BRANCH  26  28
ATOM     28  C   UNL A   1      42.539  24.374  26.191  1.00  0.00     0.060 A 
ATOM     29  C   UNL A   1      42.952  25.695  26.034  1.00  0.00     0.016 A 
ATOM     30  C   UNL A   1      41.742  24.025  27.280  1.00  0.00     0.016 A 
ATOM     31  C   UNL A   1      42.638  26.656  26.994  1.00  0.00     0.010 A 
ATOM     32  C   UNL A   1      41.353  25.009  28.198  1.00  0.00     0.010 A 
ATOM     33  C   UNL A   1      41.824  26.331  28.086  1.00  0.00    -0.014 A 
BRANCH  33  34
ATOM     34  C   UNL A   1      41.508  27.338  29.139  1.00  0.00     0.031 A 
ATOM     35  C   UNL A   1      42.335  27.393  30.397  1.00  0.00     0.074 A 
ATOM     36  C   UNL A   1      40.490  28.209  28.992  1.00  0.00     0.049 A 
ATOM     37  N   UNL A   1      42.091  28.011  31.527  1.00  0.00    -0.248 NA
ATOM     38  C   UNL A   1      43.598  26.639  30.387  1.00  0.00     0.031 C 
ATOM     39  C   UNL A   1      39.637  28.333  27.809  1.00  0.00     0.029 A 
ATOM     40  N   UNL A   1      39.998  29.162  29.852  1.00  0.00    -0.354 N 
ATOM     41  C   UNL A   1      43.128  27.658  32.382  1.00  0.00     0.074 A 
ATOM     42  C   UNL A   1      44.010  26.783  31.638  1.00  0.00     0.031 C 
ATOM     43  C   UNL A   1      38.756  29.327  28.001  1.00  0.00     0.029 A 
ATOM     44  C   UNL A   1      38.916  29.849  29.355  1.00  0.00     0.049 A 
ATOM     45  H   UNL A   1      40.384  29.337  30.741  1.00  0.00     0.167 HD
ATOM     46  C   UNL A   1      43.323  28.027  33.672  1.00  0.00     0.037 A 
ATOM     47  C   UNL A   1      38.110  30.759  29.933  1.00  0.00     0.037 A 
ATOM     48  C   UNL A   1      42.486  28.951  34.390  1.00  0.00     0.049 A 
ATOM     49  C   UNL A   1      38.325  31.132  31.372  1.00  0.00     0.074 A 
ATOM     50  C   UNL A   1      42.610  29.393  35.697  1.00  0.00     0.029 A 
ATOM     51  N   UNL A   1      41.381  29.596  33.855  1.00  0.00    -0.354 N 
ATOM     52  N   UNL A   1      39.256  30.726  32.199  1.00  0.00    -0.248 NA
ATOM     53  C   UNL A   1      37.359  32.069  31.965  1.00  0.00     0.031 C 
ATOM     54  C   UNL A   1      41.566  30.289  35.959  1.00  0.00     0.029 A 
ATOM     55  C   UNL A   1      40.814  30.429  34.805  1.00  0.00     0.049 A 
ATOM     56  H   UNL A   1      41.050  29.478  32.935  1.00  0.00     0.167 HD
ATOM     57  C   UNL A   1      38.994  31.362  33.406  1.00  0.00     0.074 A 
ATOM     58  C   UNL A   1      37.827  32.195  33.198  1.00  0.00     0.031 C 
ATOM     59  C   UNL A   1      39.658  31.258  34.582  1.00  0.00     0.037 A 
BRANCH  46  60
ATOM     60  C   UNL A   1      44.473  27.399  34.404  1.00  0.00     0.057 A 
ATOM     61  C   UNL A   1      44.357  26.167  35.060  1.00  0.00     0.134 A 
ATOM     62  C   UNL A   1      45.726  28.027  34.423  1.00  0.00     0.134 A 
ATOM     63  F   UNL A   1      43.181  25.523  35.092  1.00  0.00    -0.206 F 
ATOM     64  C   UNL A   1      45.441  25.594  35.728  1.00  0.00     0.040 A 
ATOM     65  C   UNL A   1      46.821  27.453  35.066  1.00  0.00     0.040 A 
ATOM     66  F   UNL A   1      45.905  29.206  33.807  1.00  0.00    -0.206 F 
ATOM     67  C   UNL A   1      46.679  26.235  35.727  1.00  0.00     0.006 A 
ENDBRANCH  46  60
BRANCH  47  68
ATOM     68  C   UNL A   1      36.992  31.353  29.158  1.00  0.00     0.057 A 
ATOM     69  C   UNL A   1      35.843  30.610  28.869  1.00  0.00     0.134 A 
ATOM     70  C   UNL A   1      37.039  32.675  28.699  1.00  0.00     0.134 A 
ATOM     71  F   UNL A   1      35.752  29.329  29.258  1.00  0.00    -0.206 F 
ATOM     72  C   UNL A   1      34.780  31.158  28.149  1.00  0.00     0.040 A 
ATOM     73  C   UNL A   1      35.974  33.244  28.001  1.00  0.00     0.040 A 
ATOM     74  F   UNL A   1      38.114  33.438  28.942  1.00  0.00    -0.206 F 
ATOM     75  C   UNL A   1      34.841  32.483  27.722  1.00  0.00     0.006 A 
ENDBRANCH  47  68
BRANCH  59  76
ATOM     76  C   UNL A   1      39.161  32.092  35.723  1.00  0.00     0.057 A 
ATOM     77  C   UNL A   1      39.578  33.417  35.904  1.00  0.00     0.134 A 
ATOM     78  C   UNL A   1      38.228  31.575  36.631  1.00  0.00     0.134 A 
ATOM     79  F   UNL A   1      40.481  33.963  35.076  1.00  0.00    -0.206 F 
ATOM     80  C   UNL A   1      39.096  34.193  36.958  1.00  0.00     0.040 A 
ATOM     81  C   UNL A   1      37.724  32.349  37.677  1.00  0.00     0.040 A 
ATOM     82  F   UNL A   1      37.786  30.315  36.509  1.00  0.00    -0.206 F 
ATOM     83  C   UNL A   1      38.161  33.662  37.845  1.00  0.00     0.006 A 
ENDBRANCH  59  76
ENDBRANCH  33  34
ENDBRANCH  26  28
ENDBRANCH  25  26
ENDBRANCH  24  25
ENDBRANCH   1  24
TORSDOF 16
ENDMDL
MODEL 2
REMARK VINA RESULT:     -11.2      4.154      8.114
REMARK SMILES C=CCOc1ccccc1-c1cc(C(=O)OCCOC(=O)c2ccc(-c3c4nc(c(-c5c(F)cccc5F)c5ccc([nH]5)c(-c5c(F)cccc5F)c5nc(c(-c6c(F)cccc6F)c6ccc3[nH]6)C=C5)C=C4)cc2)nc(N)n1
REMARK SMILES IDX 17 1 16 2 14 3 15 4 13 5 11 6 12 7 79 8 77 9 76 10 10 11
REMARK SMILES IDX 5 12 6 13 7 14 9 15 8 16 4 17 3 18 2 19 1 20 78 21 18 24
REMARK SMILES IDX 19 25 20 26 21 27 22 28 23 29 75 30 24 31 74 32 25 33 26 34
REMARK SMILES IDX 27 35 68 36 28 37 73 38 67 39 69 40 29 41 72 42 66 43 65 44
REMARK SMILES IDX 30 46 56 47 39 48 55 49 40 50 43 51 54 52 70 53 41 54 42 55
REMARK SMILES IDX 53 57 71 58 44 59 31 60 32 61 37 62 33 63 34 64 36 65 38 66
REMARK SMILES IDX 35 67 57 68 58 69 63 70 59 71 60 72 62 73 64 74 61 75 45 76
REMARK SMILES IDX 46 77 51 78 47 79 48 80 50 81 52 82 49 83
REMARK H PARENT 78 22 78 23 69 45 43 56
REMARK Flexibility Score: inf
ROOT
ATOM      1  C   UNL A   1      34.631  20.772  25.236  1.00  0.00     0.275 C 
ENDROOT
BRANCH   1   2
ATOM      2  O   UNL A   1      34.475  22.157  25.605  1.00  0.00    -0.457 OA
BRANCH   2   3
ATOM      3  C   UNL A   1      33.765  22.925  24.738  1.00  0.00     0.357 C 
ATOM      4  O   UNL A   1      33.889  22.948  23.522  1.00  0.00    -0.244 OA
BRANCH   3   5
ATOM      5  C   UNL A   1      32.683  23.659  25.446  1.00  0.00     0.154 A 
ATOM      6  C   UNL A   1      31.748  25.681  26.117  1.00  0.00     0.080 A 
ATOM      7  C   UNL A   1      32.830  25.017  25.593  1.00  0.00     0.065 A 
ATOM      8  N   UNL A   1      30.672  25.025  26.596  1.00  0.00    -0.213 NA
ATOM      9  C   UNL A   1      30.651  23.695  26.448  1.00  0.00     0.221 A 
ATOM     10  N   UNL A   1      31.600  22.970  25.860  1.00  0.00    -0.206 NA
BRANCH   6  11
ATOM     11  C   UNL A   1      31.685  27.147  26.102  1.00  0.00     0.042 A 
ATOM     12  C   UNL A   1      31.323  27.856  24.937  1.00  0.00     0.129 A 
ATOM     13  C   UNL A   1      31.350  29.251  24.891  1.00  0.00     0.047 A 
ATOM     14  C   UNL A   1      31.699  29.969  26.032  1.00  0.00     0.004 A 
ATOM     15  C   UNL A   1      32.012  27.892  27.243  1.00  0.00     0.014 A 
ATOM     16  C   UNL A   1      32.022  29.292  27.208  1.00  0.00     0.001 A 
BRANCH  12  17
ATOM     17  O   UNL A   1      31.005  27.178  23.785  1.00  0.00    -0.489 OA
BRANCH  17  18
ATOM     18  C   UNL A   1      31.755  27.668  22.665  1.00  0.00     0.257 C 
BRANCH  18  19
ATOM     19  C   UNL A   1      32.811  26.658  22.332  1.00  0.00     0.006 C 
ATOM     20  C   UNL A   1      32.654  25.670  21.441  1.00  0.00     0.007 C 
ENDBRANCH  18  19
ENDBRANCH  17  18
ENDBRANCH  12  17
ENDBRANCH   6  11
BRANCH   9  21
ATOM     21  N   UNL A   1      29.562  23.030  26.927  1.00  0.00    -0.368 N 
ATOM     22  H   UNL A   1      29.544  22.046  26.920  1.00  0.00     0.159 HD
ATOM     23  H   UNL A   1      28.794  23.534  27.281  1.00  0.00     0.159 HD
ENDBRANCH   9  21
ENDBRANCH   3   5
ENDBRANCH   2   3
ENDBRANCH   1   2
BRANCH   1  24
ATOM     24  C   UNL A   1      36.107  20.435  25.019  1.00  0.00     0.275 C 
BRANCH  24  25
ATOM     25  O   UNL A   1      36.921  21.468  25.601  1.00  0.00    -0.458 OA
BRANCH  25  26
ATOM     26  C   UNL A   1      38.235  21.185  25.739  1.00  0.00     0.338 C 
ATOM     27  O   UNL A   1      38.801  20.141  25.442  1.00  0.00    -0.246 OA
BRANCH  26  28
ATOM     28  C   UNL A   1      38.931  22.350  26.319  1.00  0.00     0.060 A 
ATOM     29  C   UNL A   1      38.467  23.639  26.066  1.00  0.00     0.016 A 
ATOM     30  C   UNL A   1      40.103  22.169  27.051  1.00  0.00     0.016 A 
ATOM     31  C   UNL A   1      39.203  24.751  26.474  1.00  0.00     0.010 A 
ATOM     32  C   UNL A   1      40.796  23.286  27.537  1.00  0.00     0.010 A 
ATOM     33  C   UNL A   1      40.374  24.592  27.226  1.00  0.00    -0.014 A 
BRANCH  33  34
ATOM     34  C   UNL A   1      41.190  25.769  27.640  1.00  0.00     0.031 A 
ATOM     35  C   UNL A   1      40.585  26.827  28.527  1.00  0.00     0.074 A 
ATOM     36  C   UNL A   1      42.468  25.912  27.236  1.00  0.00     0.049 A 
ATOM     37  N   UNL A   1      41.023  28.031  28.803  1.00  0.00    -0.248 NA
ATOM     38  C   UNL A   1      39.310  26.489  29.177  1.00  0.00     0.031 C 
ATOM     39  C   UNL A   1      43.223  24.948  26.434  1.00  0.00     0.029 A 
ATOM     40  N   UNL A   1      43.363  26.934  27.450  1.00  0.00    -0.354 N 
ATOM     41  C   UNL A   1      40.043  28.617  29.594  1.00  0.00     0.074 A 
ATOM     42  C   UNL A   1      38.993  27.634  29.764  1.00  0.00     0.031 C 
ATOM     43  C   UNL A   1      44.471  25.404  26.255  1.00  0.00     0.029 A 
ATOM     44  C   UNL A   1      44.582  26.734  26.847  1.00  0.00     0.049 A 
ATOM     45  H   UNL A   1      43.151  27.734  27.983  1.00  0.00     0.167 HD
ATOM     46  C   UNL A   1      40.018  29.864  30.125  1.00  0.00     0.037 A 
ATOM     47  C   UNL A   1      45.653  27.542  26.737  1.00  0.00     0.037 A 
ATOM     48  C   UNL A   1      41.091  30.817  30.015  1.00  0.00     0.049 A 
ATOM     49  C   UNL A   1      45.595  28.931  27.307  1.00  0.00     0.074 A 
ATOM     50  C   UNL A   1      41.161  32.102  30.528  1.00  0.00     0.029 A 
ATOM     51  N   UNL A   1      42.294  30.581  29.367  1.00  0.00    -0.354 N 
ATOM     52  N   UNL A   1      44.628  29.508  27.976  1.00  0.00    -0.248 NA
ATOM     53  C   UNL A   1      46.767  29.790  27.079  1.00  0.00     0.031 C 
ATOM     54  C   UNL A   1      42.398  32.651  30.170  1.00  0.00     0.029 A 
ATOM     55  C   UNL A   1      43.110  31.695  29.464  1.00  0.00     0.049 A 
ATOM     56  H   UNL A   1      42.531  29.744  28.905  1.00  0.00     0.167 HD
ATOM     57  C   UNL A   1      45.077  30.792  28.258  1.00  0.00     0.074 A 
ATOM     58  C   UNL A   1      46.409  30.904  27.701  1.00  0.00     0.031 C 
ATOM     59  C   UNL A   1      44.436  31.791  28.913  1.00  0.00     0.037 A 
BRANCH  46  60
ATOM     60  C   UNL A   1      38.771  30.284  30.846  1.00  0.00     0.057 A 
ATOM     61  C   UNL A   1      37.710  30.924  30.193  1.00  0.00     0.134 A 
ATOM     62  C   UNL A   1      38.619  30.012  32.213  1.00  0.00     0.134 A 
ATOM     63  F   UNL A   1      37.799  31.227  28.890  1.00  0.00    -0.206 F 
ATOM     64  C   UNL A   1      36.553  31.299  30.880  1.00  0.00     0.040 A 
ATOM     65  C   UNL A   1      37.459  30.360  32.903  1.00  0.00     0.040 A 
ATOM     66  F   UNL A   1      39.597  29.395  32.896  1.00  0.00    -0.206 F 
ATOM     67  C   UNL A   1      36.423  31.011  32.238  1.00  0.00     0.006 A 
ENDBRANCH  46  60
BRANCH  47  68
ATOM     68  C   UNL A   1      46.863  27.071  26.018  1.00  0.00     0.057 A 
ATOM     69  C   UNL A   1      47.025  27.310  24.650  1.00  0.00     0.134 A 
ATOM     70  C   UNL A   1      47.888  26.384  26.680  1.00  0.00     0.134 A 
ATOM     71  F   UNL A   1      46.064  27.939  23.956  1.00  0.00    -0.206 F 
ATOM     72  C   UNL A   1      48.162  26.880  23.962  1.00  0.00     0.040 A 
ATOM     73  C   UNL A   1      49.041  25.972  26.012  1.00  0.00     0.040 A 
ATOM     74  F   UNL A   1      47.790  26.123  27.991  1.00  0.00    -0.206 F 
ATOM     75  C   UNL A   1      49.178  26.217  24.648  1.00  0.00     0.006 A 
ENDBRANCH  47  68
BRANCH  59  76
ATOM     76  C   UNL A   1      45.183  33.077  29.095  1.00  0.00     0.057 A 
ATOM     77  C   UNL A   1      45.065  34.132  28.182  1.00  0.00     0.134 A 
ATOM     78  C   UNL A   1      46.002  33.274  30.214  1.00  0.00     0.134 A 
ATOM     79  F   UNL A   1      44.308  33.998  27.083  1.00  0.00    -0.206 F 
ATOM     80  C   UNL A   1      45.749  35.334  28.368  1.00  0.00     0.040 A 
ATOM     81  C   UNL A   1      46.674  34.479  30.421  1.00  0.00     0.040 A 
ATOM     82  F   UNL A   1      46.151  32.303  31.127  1.00  0.00    -0.206 F 
ATOM     83  C   UNL A   1      46.551  35.512  29.494  1.00  0.00     0.006 A 
ENDBRANCH  59  76
ENDBRANCH  33  34
ENDBRANCH  26  28
ENDBRANCH  25  26
ENDBRANCH  24  25
ENDBRANCH   1  24
TORSDOF 16
ENDMDL
MODEL 3
REMARK VINA RESULT:     -11.2      2.907      7.747
REMARK SMILES C=CCOc1ccccc1-c1cc(C(=O)OCCOC(=O)c2ccc(-c3c4nc(c(-c5c(F)cccc5F)c5ccc([nH]5)c(-c5c(F)cccc5F)c5nc(c(-c6c(F)cccc6F)c6ccc3[nH]6)C=C5)C=C4)cc2)nc(N)n1
REMARK SMILES IDX 17 1 16 2 14 3 15 4 13 5 11 6 12 7 79 8 77 9 76 10 10 11
REMARK SMILES IDX 5 12 6 13 7 14 9 15 8 16 4 17 3 18 2 19 1 20 78 21 18 24
REMARK SMILES IDX 19 25 20 26 21 27 22 28 23 29 75 30 24 31 74 32 25 33 26 34
REMARK SMILES IDX 27 35 68 36 28 37 73 38 67 39 69 40 29 41 72 42 66 43 65 44
REMARK SMILES IDX 30 46 56 47 39 48 55 49 40 50 43 51 54 52 70 53 41 54 42 55
REMARK SMILES IDX 53 57 71 58 44 59 31 60 32 61 37 62 33 63 34 64 36 65 38 66
REMARK SMILES IDX 35 67 57 68 58 69 63 70 59 71 60 72 62 73 64 74 61 75 45 76
REMARK SMILES IDX 46 77 51 78 47 79 48 80 50 81 52 82 49 83
REMARK H PARENT 78 22 78 23 69 45 43 56
REMARK Flexibility Score: inf
ROOT
ATOM      1  C   UNL A   1      32.658  29.334  24.682  1.00  0.00     0.275 C 
ENDROOT
BRANCH   1   2
ATOM      2  O   UNL A   1      32.624  27.965  25.134  1.00  0.00    -0.457 OA
BRANCH   2   3
ATOM      3  C   UNL A   1      31.741  27.152  24.498  1.00  0.00     0.357 C 
ATOM      4  O   UNL A   1      30.523  27.203  24.578  1.00  0.00    -0.244 OA
BRANCH   3   5
ATOM      5  C   UNL A   1      32.443  26.250  23.547  1.00  0.00     0.154 A 
ATOM      6  C   UNL A   1      33.853  24.435  23.186  1.00  0.00     0.080 A 
ATOM      7  C   UNL A   1      33.336  25.347  24.073  1.00  0.00     0.065 A 
ATOM      8  N   UNL A   1      33.617  24.515  21.862  1.00  0.00    -0.213 NA
ATOM      9  C   UNL A   1      32.770  25.464  21.447  1.00  0.00     0.221 A 
ATOM     10  N   UNL A   1      32.136  26.328  22.237  1.00  0.00    -0.206 NA
BRANCH   6  11
ATOM     11  C   UNL A   1      34.622  23.279  23.660  1.00  0.00     0.042 A 
ATOM     12  C   UNL A   1      33.984  22.101  24.103  1.00  0.00     0.129 A 
ATOM     13  C   UNL A   1      34.707  21.033  24.639  1.00  0.00     0.047 A 
ATOM     14  C   UNL A   1      36.096  21.108  24.702  1.00  0.00     0.004 A 
ATOM     15  C   UNL A   1      36.022  23.320  23.714  1.00  0.00     0.014 A 
ATOM     16  C   UNL A   1      36.753  22.245  24.234  1.00  0.00     0.001 A 
BRANCH  12  17
ATOM     17  O   UNL A   1      32.613  22.008  24.085  1.00  0.00    -0.489 OA
BRANCH  17  18
ATOM     18  C   UNL A   1      32.101  21.591  25.357  1.00  0.00     0.257 C 
BRANCH  18  19
ATOM     19  C   UNL A   1      31.051  22.574  25.783  1.00  0.00     0.006 C 
ATOM     20  C   UNL A   1      31.300  23.682  26.493  1.00  0.00     0.007 C 
ENDBRANCH  18  19
ENDBRANCH  17  18
ENDBRANCH  12  17
ENDBRANCH   6  11
BRANCH   9  21
ATOM     21  N   UNL A   1      32.527  25.543  20.108  1.00  0.00    -0.368 N 
ATOM     22  H   UNL A   1      32.006  26.297  19.747  1.00  0.00     0.159 HD
ATOM     23  H   UNL A   1      32.872  24.848  19.503  1.00  0.00     0.159 HD
ENDBRANCH   9  21
ENDBRANCH   3   5
ENDBRANCH   2   3
ENDBRANCH   1   2
BRANCH   1  24
ATOM     24  C   UNL A   1      31.606  30.170  25.413  1.00  0.00     0.275 C 
BRANCH  24  25
ATOM     25  O   UNL A   1      32.020  30.366  26.777  1.00  0.00    -0.458 OA
BRANCH  25  26
ATOM     26  C   UNL A   1      32.636  31.536  27.050  1.00  0.00     0.338 C 
ATOM     27  O   UNL A   1      32.197  32.664  26.865  1.00  0.00    -0.246 OA
BRANCH  26  28
ATOM     28  C   UNL A   1      33.968  31.268  27.628  1.00  0.00     0.060 A 
ATOM     29  C   UNL A   1      34.378  29.957  27.859  1.00  0.00     0.016 A 
ATOM     30  C   UNL A   1      34.783  32.327  28.024  1.00  0.00     0.016 A 
ATOM     31  C   UNL A   1      35.562  29.695  28.548  1.00  0.00     0.010 A 
ATOM     32  C   UNL A   1      36.014  32.062  28.637  1.00  0.00     0.010 A 
ATOM     33  C   UNL A   1      36.405  30.743  28.938  1.00  0.00    -0.014 A 
BRANCH  33  34
ATOM     34  C   UNL A   1      37.656  30.482  29.705  1.00  0.00     0.031 A 
ATOM     35  C   UNL A   1      38.756  29.658  29.087  1.00  0.00     0.074 A 
ATOM     36  C   UNL A   1      37.830  30.969  30.950  1.00  0.00     0.049 A 
ATOM     37  N   UNL A   1      39.804  29.111  29.653  1.00  0.00    -0.248 NA
ATOM     38  C   UNL A   1      38.654  29.402  27.642  1.00  0.00     0.031 C 
ATOM     39  C   UNL A   1      36.894  31.839  31.664  1.00  0.00     0.029 A 
ATOM     40  N   UNL A   1      38.864  30.799  31.840  1.00  0.00    -0.354 N 
ATOM     41  C   UNL A   1      40.441  28.388  28.652  1.00  0.00     0.074 A 
ATOM     42  C   UNL A   1      39.669  28.573  27.441  1.00  0.00     0.031 C 
ATOM     43  C   UNL A   1      37.411  32.156  32.860  1.00  0.00     0.029 A 
ATOM     44  C   UNL A   1      38.669  31.438  33.041  1.00  0.00     0.049 A 
ATOM     45  H   UNL A   1      39.668  30.269  31.637  1.00  0.00     0.167 HD
ATOM     46  C   UNL A   1      41.563  27.632  28.738  1.00  0.00     0.037 A 
ATOM     47  C   UNL A   1      39.389  31.415  34.177  1.00  0.00     0.037 A 
ATOM     48  C   UNL A   1      42.369  27.503  29.923  1.00  0.00     0.049 A 
ATOM     49  C   UNL A   1      40.614  30.549  34.261  1.00  0.00     0.074 A 
ATOM     50  C   UNL A   1      43.529  26.768  30.102  1.00  0.00     0.029 A 
ATOM     51  N   UNL A   1      42.114  28.143  31.126  1.00  0.00    -0.354 N 
ATOM     52  N   UNL A   1      41.158  29.797  33.336  1.00  0.00    -0.248 NA
ATOM     53  C   UNL A   1      41.307  30.505  35.558  1.00  0.00     0.031 C 
ATOM     54  C   UNL A   1      43.963  26.946  31.422  1.00  0.00     0.029 A 
ATOM     55  C   UNL A   1      43.091  27.819  32.051  1.00  0.00     0.049 A 
ATOM     56  H   UNL A   1      41.349  28.740  31.295  1.00  0.00     0.167 HD
ATOM     57  C   UNL A   1      42.260  29.200  33.933  1.00  0.00     0.074 A 
ATOM     58  C   UNL A   1      42.318  29.688  35.295  1.00  0.00     0.031 C 
ATOM     59  C   UNL A   1      43.141  28.318  33.401  1.00  0.00     0.037 A 
BRANCH  46  60
ATOM     60  C   UNL A   1      41.967  26.855  27.520  1.00  0.00     0.057 A 
ATOM     61  C   UNL A   1      41.525  25.547  27.288  1.00  0.00     0.134 A 
ATOM     62  C   UNL A   1      42.788  27.442  26.547  1.00  0.00     0.134 A 
ATOM     63  F   UNL A   1      40.750  24.922  28.186  1.00  0.00    -0.206 F 
ATOM     64  C   UNL A   1      41.904  24.843  26.143  1.00  0.00     0.040 A 
ATOM     65  C   UNL A   1      43.154  26.757  25.389  1.00  0.00     0.040 A 
ATOM     66  F   UNL A   1      43.241  28.696  26.706  1.00  0.00    -0.206 F 
ATOM     67  C   UNL A   1      42.717  25.450  25.187  1.00  0.00     0.006 A 
ENDBRANCH  46  60
BRANCH  47  68
ATOM     68  C   UNL A   1      38.946  32.209  35.350  1.00  0.00     0.057 A 
ATOM     69  C   UNL A   1      38.170  31.630  36.359  1.00  0.00     0.134 A 
ATOM     70  C   UNL A   1      39.292  33.559  35.495  1.00  0.00     0.134 A 
ATOM     71  F   UNL A   1      37.782  30.349  36.262  1.00  0.00    -0.206 F 
ATOM     72  C   UNL A   1      37.752  32.363  37.472  1.00  0.00     0.040 A 
ATOM     73  C   UNL A   1      38.905  34.296  36.614  1.00  0.00     0.040 A 
ATOM     74  F   UNL A   1      40.032  34.171  34.560  1.00  0.00    -0.206 F 
ATOM     75  C   UNL A   1      38.129  33.698  37.605  1.00  0.00     0.006 A 
ENDBRANCH  47  68
BRANCH  59  76
ATOM     76  C   UNL A   1      44.261  27.856  34.281  1.00  0.00     0.057 A 
ATOM     77  C   UNL A   1      44.158  26.692  35.053  1.00  0.00     0.134 A 
ATOM     78  C   UNL A   1      45.469  28.563  34.330  1.00  0.00     0.134 A 
ATOM     79  F   UNL A   1      43.022  25.980  35.060  1.00  0.00    -0.206 F 
ATOM     80  C   UNL A   1      45.213  26.257  35.856  1.00  0.00     0.040 A 
ATOM     81  C   UNL A   1      46.537  28.127  35.114  1.00  0.00     0.040 A 
ATOM     82  F   UNL A   1      45.631  29.682  33.609  1.00  0.00    -0.206 F 
ATOM     83  C   UNL A   1      46.409  26.972  35.883  1.00  0.00     0.006 A 
ENDBRANCH  59  76
ENDBRANCH  33  34
ENDBRANCH  26  28
ENDBRANCH  25  26
ENDBRANCH  24  25
ENDBRANCH   1  24
TORSDOF 16
ENDMDL
