MODEL 1
REMARK VINA RESULT:     -10.6      0.000      0.000
REMARK SMILES CC1(C)[C@H](C(=O)Nc2cccc3[nH]ccc23)[C@H]1C(=O)OCCOC(=O)c1ccc(-c2c3nc(c(-c4c(F)cccc4F)c4ccc([nH]4)c(-c4c(F)cccc4F)c4nc(c(-c5c(F)cccc5F)c5ccc2[nH]5)C=C4)C=C3)cc1
REMARK SMILES IDX 21 1 20 2 18 3 19 4 17 5 1 6 2 7 3 8 4 9 5 10 6 11 7 12 8 14
REMARK SMILES IDX 9 15 16 16 10 17 12 18 15 19 11 20 13 21 14 22 22 24 23 25
REMARK SMILES IDX 24 26 25 27 26 28 27 29 79 30 28 31 78 32 29 33 30 34 31 35
REMARK SMILES IDX 72 36 32 37 77 38 71 39 73 40 33 41 76 42 70 43 69 44 34 46
REMARK SMILES IDX 60 47 43 48 59 49 44 50 47 51 58 52 74 53 45 54 46 55 57 57
REMARK SMILES IDX 75 58 48 59 35 60 36 61 41 62 37 63 38 64 40 65 42 66 39 67
REMARK SMILES IDX 61 68 62 69 67 70 63 71 64 72 66 73 68 74 65 75 49 76 50 77
REMARK SMILES IDX 55 78 51 79 52 80 54 81 56 82 53 83
REMARK H PARENT 7 13 13 23 73 45 47 56
REMARK Flexibility Score: inf
ROOT
ATOM      1  C   UNL A   1      33.243  33.994  28.176  1.00  0.00     0.274 C 
ENDROOT
BRANCH   1   2
ATOM      2  O   UNL A   1      32.706  34.585  29.373  1.00  0.00    -0.462 OA
BRANCH   2   3
ATOM      3  C   UNL A   1      33.240  35.761  29.779  1.00  0.00     0.310 C 
ATOM      4  O   UNL A   1      33.114  36.843  29.226  1.00  0.00    -0.252 OA
BRANCH   3   5
ATOM      5  C   UNL A   1      33.911  35.654  31.093  1.00  0.00     0.118 C 
ATOM      6  C   UNL A   1      31.743  36.105  32.545  1.00  0.00     0.013 C 
ATOM      7  C   UNL A   1      33.231  35.870  32.436  1.00  0.00    -0.009 C 
ATOM      8  C   UNL A   1      34.004  36.725  33.408  1.00  0.00     0.013 C 
ATOM      9  C   UNL A   1      33.656  34.469  31.977  1.00  0.00     0.100 C 
BRANCH   9  10
ATOM     10  C   UNL A   1      34.730  33.614  32.571  1.00  0.00     0.228 C 
ATOM     11  O   UNL A   1      34.609  33.260  33.739  1.00  0.00    -0.274 OA
ATOM     12  N   UNL A   1      35.610  32.988  31.715  1.00  0.00    -0.325 N 
ATOM     13  H   UNL A   1      35.371  32.082  31.411  1.00  0.00     0.169 HD
BRANCH  12  14
ATOM     14  C   UNL A   1      36.822  33.529  31.236  1.00  0.00     0.050 A 
ATOM     15  C   UNL A   1      37.036  33.749  29.872  1.00  0.00     0.027 A 
ATOM     16  C   UNL A   1      37.848  33.907  32.137  1.00  0.00     0.023 A 
ATOM     17  C   UNL A   1      38.274  34.160  29.381  1.00  0.00     0.004 A 
ATOM     18  C   UNL A   1      39.076  34.335  31.619  1.00  0.00     0.047 A 
ATOM     19  C   UNL A   1      37.975  33.948  33.558  1.00  0.00     0.030 A 
ATOM     20  C   UNL A   1      39.332  34.428  30.247  1.00  0.00     0.027 A 
ATOM     21  N   UNL A   1      39.910  34.599  32.684  1.00  0.00    -0.361 N 
ATOM     22  C   UNL A   1      39.239  34.400  33.861  1.00  0.00     0.083 A 
ATOM     23  H   UNL A   1      40.848  34.888  32.610  1.00  0.00     0.166 HD
ENDBRANCH  12  14
ENDBRANCH   9  10
ENDBRANCH   3   5
ENDBRANCH   2   3
ENDBRANCH   1   2
BRANCH   1  24
ATOM     24  C   UNL A   1      33.995  32.716  28.543  1.00  0.00     0.275 C 
BRANCH  24  25
ATOM     25  O   UNL A   1      34.322  31.972  27.352  1.00  0.00    -0.458 OA
BRANCH  25  26
ATOM     26  C   UNL A   1      34.483  30.643  27.534  1.00  0.00     0.338 C 
ATOM     27  O   UNL A   1      33.786  29.737  27.110  1.00  0.00    -0.246 OA
BRANCH  26  28
ATOM     28  C   UNL A   1      35.729  30.396  28.269  1.00  0.00     0.060 A 
ATOM     29  C   UNL A   1      36.927  30.756  27.661  1.00  0.00     0.016 A 
ATOM     30  C   UNL A   1      35.732  29.678  29.463  1.00  0.00     0.016 A 
ATOM     31  C   UNL A   1      38.132  30.310  28.187  1.00  0.00     0.010 A 
ATOM     32  C   UNL A   1      36.956  29.299  30.034  1.00  0.00     0.010 A 
ATOM     33  C   UNL A   1      38.170  29.569  29.375  1.00  0.00    -0.014 A 
BRANCH  33  34
ATOM     34  C   UNL A   1      39.474  29.035  29.865  1.00  0.00     0.031 A 
ATOM     35  C   UNL A   1      40.098  29.578  31.125  1.00  0.00     0.074 A 
ATOM     36  C   UNL A   1      40.075  28.011  29.226  1.00  0.00     0.049 A 
ATOM     37  N   UNL A   1      41.257  29.289  31.665  1.00  0.00    -0.248 NA
ATOM     38  C   UNL A   1      39.324  30.578  31.875  1.00  0.00     0.031 C 
ATOM     39  C   UNL A   1      39.571  27.352  28.020  1.00  0.00     0.029 A 
ATOM     40  N   UNL A   1      41.231  27.325  29.516  1.00  0.00    -0.354 N 
ATOM     41  C   UNL A   1      41.377  30.115  32.778  1.00  0.00     0.074 A 
ATOM     42  C   UNL A   1      40.171  30.914  32.839  1.00  0.00     0.031 C 
ATOM     43  C   UNL A   1      40.383  26.334  27.702  1.00  0.00     0.029 A 
ATOM     44  C   UNL A   1      41.508  26.312  28.629  1.00  0.00     0.049 A 
ATOM     45  H   UNL A   1      41.807  27.541  30.286  1.00  0.00     0.167 HD
ATOM     46  C   UNL A   1      42.396  30.203  33.666  1.00  0.00     0.037 A 
ATOM     47  C   UNL A   1      42.560  25.476  28.548  1.00  0.00     0.037 A 
ATOM     48  C   UNL A   1      43.576  29.377  33.643  1.00  0.00     0.049 A 
ATOM     49  C   UNL A   1      43.682  25.601  29.537  1.00  0.00     0.074 A 
ATOM     50  C   UNL A   1      44.653  29.387  34.514  1.00  0.00     0.029 A 
ATOM     51  N   UNL A   1      43.830  28.386  32.709  1.00  0.00    -0.354 N 
ATOM     52  N   UNL A   1      43.793  26.411  30.562  1.00  0.00    -0.248 NA
ATOM     53  C   UNL A   1      44.833  24.705  29.351  1.00  0.00     0.031 C 
ATOM     54  C   UNL A   1      45.573  28.423  34.086  1.00  0.00     0.029 A 
ATOM     55  C   UNL A   1      45.048  27.783  32.976  1.00  0.00     0.049 A 
ATOM     56  H   UNL A   1      43.232  28.145  31.963  1.00  0.00     0.167 HD
ATOM     57  C   UNL A   1      45.020  26.118  31.144  1.00  0.00     0.074 A 
ATOM     58  C   UNL A   1      45.602  25.037  30.378  1.00  0.00     0.031 C 
ATOM     59  C   UNL A   1      45.615  26.702  32.212  1.00  0.00     0.037 A 
BRANCH  46  60
ATOM     60  C   UNL A   1      42.299  31.256  34.732  1.00  0.00     0.057 A 
ATOM     61  C   UNL A   1      41.843  30.970  36.025  1.00  0.00     0.134 A 
ATOM     62  C   UNL A   1      42.713  32.569  34.469  1.00  0.00     0.134 A 
ATOM     63  F   UNL A   1      41.419  29.736  36.338  1.00  0.00    -0.206 F 
ATOM     64  C   UNL A   1      41.781  31.956  37.012  1.00  0.00     0.040 A 
ATOM     65  C   UNL A   1      42.680  33.557  35.454  1.00  0.00     0.040 A 
ATOM     66  F   UNL A   1      43.167  32.909  33.254  1.00  0.00    -0.206 F 
ATOM     67  C   UNL A   1      42.207  33.253  36.728  1.00  0.00     0.006 A 
ENDBRANCH  46  60
BRANCH  47  68
ATOM     68  C   UNL A   1      42.613  24.453  27.472  1.00  0.00     0.057 A 
ATOM     69  C   UNL A   1      43.104  24.770  26.201  1.00  0.00     0.134 A 
ATOM     70  C   UNL A   1      42.171  23.142  27.686  1.00  0.00     0.134 A 
ATOM     71  F   UNL A   1      43.522  26.015  25.929  1.00  0.00    -0.206 F 
ATOM     72  C   UNL A   1      43.142  23.822  25.176  1.00  0.00     0.040 A 
ATOM     73  C   UNL A   1      42.231  22.178  26.681  1.00  0.00     0.040 A 
ATOM     74  F   UNL A   1      41.691  22.777  28.885  1.00  0.00    -0.206 F 
ATOM     75  C   UNL A   1      42.711  22.519  25.418  1.00  0.00     0.006 A 
ENDBRANCH  47  68
BRANCH  59  76
ATOM     76  C   UNL A   1      46.947  26.158  32.638  1.00  0.00     0.057 A 
ATOM     77  C   UNL A   1      47.057  25.127  33.580  1.00  0.00     0.134 A 
ATOM     78  C   UNL A   1      48.132  26.654  32.080  1.00  0.00     0.134 A 
ATOM     79  F   UNL A   1      45.960  24.618  34.161  1.00  0.00    -0.206 F 
ATOM     80  C   UNL A   1      48.300  24.626  33.970  1.00  0.00     0.040 A 
ATOM     81  C   UNL A   1      49.379  26.145  32.445  1.00  0.00     0.040 A 
ATOM     82  F   UNL A   1      48.095  27.636  31.167  1.00  0.00    -0.206 F 
ATOM     83  C   UNL A   1      49.465  25.132  33.397  1.00  0.00     0.006 A 
ENDBRANCH  59  76
ENDBRANCH  33  34
ENDBRANCH  26  28
ENDBRANCH  25  26
ENDBRANCH  24  25
ENDBRANCH   1  24
TORSDOF 13
ENDMDL
MODEL 2
REMARK VINA RESULT:     -10.5      5.483     10.373
REMARK SMILES CC1(C)[C@H](C(=O)Nc2cccc3[nH]ccc23)[C@H]1C(=O)OCCOC(=O)c1ccc(-c2c3nc(c(-c4c(F)cccc4F)c4ccc([nH]4)c(-c4c(F)cccc4F)c4nc(c(-c5c(F)cccc5F)c5ccc2[nH]5)C=C4)C=C3)cc1
REMARK SMILES IDX 21 1 20 2 18 3 19 4 17 5 1 6 2 7 3 8 4 9 5 10 6 11 7 12 8 14
REMARK SMILES IDX 9 15 16 16 10 17 12 18 15 19 11 20 13 21 14 22 22 24 23 25
REMARK SMILES IDX 24 26 25 27 26 28 27 29 79 30 28 31 78 32 29 33 30 34 31 35
REMARK SMILES IDX 72 36 32 37 77 38 71 39 73 40 33 41 76 42 70 43 69 44 34 46
REMARK SMILES IDX 60 47 43 48 59 49 44 50 47 51 58 52 74 53 45 54 46 55 57 57
REMARK SMILES IDX 75 58 48 59 35 60 36 61 41 62 37 63 38 64 40 65 42 66 39 67
REMARK SMILES IDX 61 68 62 69 67 70 63 71 64 72 66 73 68 74 65 75 49 76 50 77
REMARK SMILES IDX 55 78 51 79 52 80 54 81 56 82 53 83
REMARK H PARENT 7 13 13 23 73 45 47 56
REMARK Flexibility Score: inf
ROOT
ATOM      1  C   UNL A   1      35.639  20.488  24.928  1.00  0.00     0.274 C 
ENDROOT
BRANCH   1   2
ATOM      2  O   UNL A   1      35.347  21.795  25.451  1.00  0.00    -0.462 OA
BRANCH   2   3
ATOM      3  C   UNL A   1      34.338  21.895  26.349  1.00  0.00     0.310 C 
ATOM      4  O   UNL A   1      34.352  21.494  27.503  1.00  0.00    -0.252 OA
BRANCH   3   5
ATOM      5  C   UNL A   1      33.202  22.693  25.837  1.00  0.00     0.118 C 
ATOM      6  C   UNL A   1      32.187  20.778  24.315  1.00  0.00     0.013 C 
ATOM      7  C   UNL A   1      32.186  22.203  24.816  1.00  0.00    -0.009 C 
ATOM      8  C   UNL A   1      31.871  23.182  23.715  1.00  0.00     0.013 C 
ATOM      9  C   UNL A   1      31.804  22.393  26.290  1.00  0.00     0.100 C 
BRANCH   9  10
ATOM     10  C   UNL A   1      30.863  23.413  26.851  1.00  0.00     0.228 C 
ATOM     11  O   UNL A   1      29.912  23.018  27.516  1.00  0.00    -0.274 OA
ATOM     12  N   UNL A   1      31.279  24.725  26.894  1.00  0.00    -0.325 N 
ATOM     13  H   UNL A   1      31.734  25.025  27.714  1.00  0.00     0.169 HD
BRANCH  12  14
ATOM     14  C   UNL A   1      31.109  25.679  25.867  1.00  0.00     0.050 A 
ATOM     15  C   UNL A   1      29.895  25.813  25.187  1.00  0.00     0.027 A 
ATOM     16  C   UNL A   1      32.162  26.563  25.525  1.00  0.00     0.023 A 
ATOM     17  C   UNL A   1      29.760  26.660  24.088  1.00  0.00     0.004 A 
ATOM     18  C   UNL A   1      31.994  27.418  24.429  1.00  0.00     0.047 A 
ATOM     19  C   UNL A   1      33.470  26.817  26.036  1.00  0.00     0.030 A 
ATOM     20  C   UNL A   1      30.823  27.456  23.666  1.00  0.00     0.027 A 
ATOM     21  N   UNL A   1      33.160  28.136  24.276  1.00  0.00    -0.361 N 
ATOM     22  C   UNL A   1      34.046  27.802  25.266  1.00  0.00     0.083 A 
ATOM     23  H   UNL A   1      33.332  28.792  23.563  1.00  0.00     0.166 HD
ENDBRANCH  12  14
ENDBRANCH   9  10
ENDBRANCH   3   5
ENDBRANCH   2   3
ENDBRANCH   1   2
BRANCH   1  24
ATOM     24  C   UNL A   1      37.150  20.261  24.963  1.00  0.00     0.275 C 
BRANCH  24  25
ATOM     25  O   UNL A   1      37.815  21.427  25.489  1.00  0.00    -0.458 OA
BRANCH  25  26
ATOM     26  C   UNL A   1      39.035  21.197  26.023  1.00  0.00     0.338 C 
ATOM     27  O   UNL A   1      39.705  20.180  25.957  1.00  0.00    -0.246 OA
BRANCH  26  28
ATOM     28  C   UNL A   1      39.533  22.425  26.652  1.00  0.00     0.060 A 
ATOM     29  C   UNL A   1      38.992  23.637  26.237  1.00  0.00     0.016 A 
ATOM     30  C   UNL A   1      40.625  22.401  27.518  1.00  0.00     0.016 A 
ATOM     31  C   UNL A   1      39.603  24.830  26.600  1.00  0.00     0.010 A 
ATOM     32  C   UNL A   1      41.189  23.611  27.947  1.00  0.00     0.010 A 
ATOM     33  C   UNL A   1      40.714  24.841  27.452  1.00  0.00    -0.014 A 
BRANCH  33  34
ATOM     34  C   UNL A   1      41.396  26.133  27.753  1.00  0.00     0.031 A 
ATOM     35  C   UNL A   1      42.766  26.423  27.196  1.00  0.00     0.074 A 
ATOM     36  C   UNL A   1      40.764  27.088  28.466  1.00  0.00     0.049 A 
ATOM     37  N   UNL A   1      43.543  27.458  27.407  1.00  0.00    -0.248 NA
ATOM     38  C   UNL A   1      43.344  25.420  26.289  1.00  0.00     0.031 C 
ATOM     39  C   UNL A   1      39.419  26.971  29.032  1.00  0.00     0.029 A 
ATOM     40  N   UNL A   1      41.159  28.357  28.816  1.00  0.00    -0.354 N 
ATOM     41  C   UNL A   1      44.720  27.200  26.713  1.00  0.00     0.074 A 
ATOM     42  C   UNL A   1      44.555  25.914  26.070  1.00  0.00     0.031 C 
ATOM     43  C   UNL A   1      39.085  28.130  29.616  1.00  0.00     0.029 A 
ATOM     44  C   UNL A   1      40.215  29.048  29.537  1.00  0.00     0.049 A 
ATOM     45  H   UNL A   1      42.037  28.735  28.574  1.00  0.00     0.167 HD
ATOM     46  C   UNL A   1      45.836  27.962  26.618  1.00  0.00     0.037 A 
ATOM     47  C   UNL A   1      40.258  30.271  30.100  1.00  0.00     0.037 A 
ATOM     48  C   UNL A   1      45.990  29.266  27.212  1.00  0.00     0.049 A 
ATOM     49  C   UNL A   1      41.510  31.091  29.992  1.00  0.00     0.074 A 
ATOM     50  C   UNL A   1      47.082  30.117  27.154  1.00  0.00     0.029 A 
ATOM     51  N   UNL A   1      45.021  29.914  27.960  1.00  0.00    -0.354 N 
ATOM     52  N   UNL A   1      42.625  30.816  29.360  1.00  0.00    -0.248 NA
ATOM     53  C   UNL A   1      41.516  32.387  30.687  1.00  0.00     0.031 C 
ATOM     54  C   UNL A   1      46.784  31.265  27.897  1.00  0.00     0.029 A 
ATOM     55  C   UNL A   1      45.490  31.149  28.377  1.00  0.00     0.049 A 
ATOM     56  H   UNL A   1      44.129  29.550  28.166  1.00  0.00     0.167 HD
ATOM     57  C   UNL A   1      43.462  31.905  29.576  1.00  0.00     0.074 A 
ATOM     58  C   UNL A   1      42.715  32.856  30.372  1.00  0.00     0.031 C 
ATOM     59  C   UNL A   1      44.737  32.092  29.161  1.00  0.00     0.037 A 
BRANCH  46  60
ATOM     60  C   UNL A   1      47.005  27.393  25.867  1.00  0.00     0.057 A 
ATOM     61  C   UNL A   1      47.172  27.587  24.490  1.00  0.00     0.134 A 
ATOM     62  C   UNL A   1      48.000  26.676  26.544  1.00  0.00     0.134 A 
ATOM     63  F   UNL A   1      46.248  28.252  23.780  1.00  0.00    -0.206 F 
ATOM     64  C   UNL A   1      48.277  27.070  23.809  1.00  0.00     0.040 A 
ATOM     65  C   UNL A   1      49.122  26.177  25.880  1.00  0.00     0.040 A 
ATOM     66  F   UNL A   1      47.905  26.461  27.864  1.00  0.00    -0.206 F 
ATOM     67  C   UNL A   1      49.259  26.368  24.507  1.00  0.00     0.006 A 
ENDBRANCH  46  60
BRANCH  47  68
ATOM     68  C   UNL A   1      39.078  30.789  30.838  1.00  0.00     0.057 A 
ATOM     69  C   UNL A   1      38.101  31.553  30.190  1.00  0.00     0.134 A 
ATOM     70  C   UNL A   1      38.902  30.541  32.204  1.00  0.00     0.134 A 
ATOM     71  F   UNL A   1      38.226  31.843  28.886  1.00  0.00    -0.206 F 
ATOM     72  C   UNL A   1      36.998  32.063  30.877  1.00  0.00     0.040 A 
ATOM     73  C   UNL A   1      37.790  31.018  32.897  1.00  0.00     0.040 A 
ATOM     74  F   UNL A   1      39.804  29.813  32.882  1.00  0.00    -0.206 F 
ATOM     75  C   UNL A   1      36.837  31.788  32.234  1.00  0.00     0.006 A 
ENDBRANCH  47  68
BRANCH  59  76
ATOM     76  C   UNL A   1      45.394  33.391  29.528  1.00  0.00     0.057 A 
ATOM     77  C   UNL A   1      45.282  34.529  28.719  1.00  0.00     0.134 A 
ATOM     78  C   UNL A   1      46.124  33.511  30.716  1.00  0.00     0.134 A 
ATOM     79  F   UNL A   1      44.607  34.476  27.561  1.00  0.00    -0.206 F 
ATOM     80  C   UNL A   1      45.895  35.734  29.068  1.00  0.00     0.040 A 
ATOM     81  C   UNL A   1      46.722  34.716  31.087  1.00  0.00     0.040 A 
ATOM     82  F   UNL A   1      46.263  32.460  31.539  1.00  0.00    -0.206 F 
ATOM     83  C   UNL A   1      46.613  35.830  30.258  1.00  0.00     0.006 A 
ENDBRANCH  59  76
ENDBRANCH  33  34
ENDBRANCH  26  28
ENDBRANCH  25  26
ENDBRANCH  24  25
ENDBRANCH   1  24
TORSDOF 13
ENDMDL
MODEL 3
REMARK VINA RESULT:     -10.5      4.408      9.775
REMARK SMILES CC1(C)[C@H](C(=O)Nc2cccc3[nH]ccc23)[C@H]1C(=O)OCCOC(=O)c1ccc(-c2c3nc(c(-c4c(F)cccc4F)c4ccc([nH]4)c(-c4c(F)cccc4F)c4nc(c(-c5c(F)cccc5F)c5ccc2[nH]5)C=C4)C=C3)cc1
REMARK SMILES IDX 21 1 20 2 18 3 19 4 17 5 1 6 2 7 3 8 4 9 5 10 6 11 7 12 8 14
REMARK SMILES IDX 9 15 16 16 10 17 12 18 15 19 11 20 13 21 14 22 22 24 23 25
REMARK SMILES IDX 24 26 25 27 26 28 27 29 79 30 28 31 78 32 29 33 30 34 31 35
REMARK SMILES IDX 72 36 32 37 77 38 71 39 73 40 33 41 76 42 70 43 69 44 34 46
REMARK SMILES IDX 60 47 43 48 59 49 44 50 47 51 58 52 74 53 45 54 46 55 57 57
REMARK SMILES IDX 75 58 48 59 35 60 36 61 41 62 37 63 38 64 40 65 42 66 39 67
REMARK SMILES IDX 61 68 62 69 67 70 63 71 64 72 66 73 68 74 65 75 49 76 50 77
REMARK SMILES IDX 55 78 51 79 52 80 54 81 56 82 53 83
REMARK H PARENT 7 13 13 23 73 45 47 56
REMARK Flexibility Score: inf
ROOT
ATOM      1  C   UNL A   1      31.409  28.769  24.984  1.00  0.00     0.274 C 
ENDROOT
BRANCH   1   2
ATOM      2  O   UNL A   1      31.410  27.971  26.180  1.00  0.00    -0.462 OA
BRANCH   2   3
ATOM      3  C   UNL A   1      31.109  26.657  26.051  1.00  0.00     0.310 C 
ATOM      4  O   UNL A   1      30.385  26.004  26.786  1.00  0.00    -0.252 OA
BRANCH   3   5
ATOM      5  C   UNL A   1      31.646  26.074  24.801  1.00  0.00     0.118 C 
ATOM      6  C   UNL A   1      34.133  25.811  25.670  1.00  0.00     0.013 C 
ATOM      7  C   UNL A   1      33.105  25.711  24.569  1.00  0.00    -0.009 C 
ATOM      8  C   UNL A   1      33.664  26.151  23.240  1.00  0.00     0.013 C 
ATOM      9  C   UNL A   1      32.035  24.626  24.749  1.00  0.00     0.100 C 
BRANCH   9  10
ATOM     10  C   UNL A   1      31.549  23.660  23.715  1.00  0.00     0.228 C 
ATOM     11  O   UNL A   1      30.422  23.820  23.258  1.00  0.00    -0.274 OA
ATOM     12  N   UNL A   1      32.478  22.863  23.084  1.00  0.00    -0.325 N 
ATOM     13  H   UNL A   1      32.871  23.208  22.249  1.00  0.00     0.169 HD
BRANCH  12  14
ATOM     14  C   UNL A   1      32.916  21.596  23.525  1.00  0.00     0.050 A 
ATOM     15  C   UNL A   1      32.213  20.429  23.211  1.00  0.00     0.027 A 
ATOM     16  C   UNL A   1      34.113  21.467  24.271  1.00  0.00     0.023 A 
ATOM     17  C   UNL A   1      32.566  19.193  23.749  1.00  0.00     0.004 A 
ATOM     18  C   UNL A   1      34.455  20.211  24.785  1.00  0.00     0.047 A 
ATOM     19  C   UNL A   1      35.140  22.365  24.688  1.00  0.00     0.030 A 
ATOM     20  C   UNL A   1      33.679  19.067  24.578  1.00  0.00     0.027 A 
ATOM     21  N   UNL A   1      35.625  20.356  25.499  1.00  0.00    -0.361 N 
ATOM     22  C   UNL A   1      36.064  21.650  25.417  1.00  0.00     0.083 A 
ATOM     23  H   UNL A   1      36.078  19.636  25.995  1.00  0.00     0.166 HD
ENDBRANCH  12  14
ENDBRANCH   9  10
ENDBRANCH   3   5
ENDBRANCH   2   3
ENDBRANCH   1   2
BRANCH   1  24
ATOM     24  C   UNL A   1      31.766  30.211  25.345  1.00  0.00     0.275 C 
BRANCH  24  25
ATOM     25  O   UNL A   1      32.136  30.298  26.735  1.00  0.00    -0.458 OA
BRANCH  25  26
ATOM     26  C   UNL A   1      32.710  31.465  27.102  1.00  0.00     0.338 C 
ATOM     27  O   UNL A   1      32.201  32.572  27.147  1.00  0.00    -0.246 OA
BRANCH  26  28
ATOM     28  C   UNL A   1      34.081  31.212  27.561  1.00  0.00     0.060 A 
ATOM     29  C   UNL A   1      34.463  29.894  27.782  1.00  0.00     0.016 A 
ATOM     30  C   UNL A   1      34.925  32.260  27.922  1.00  0.00     0.016 A 
ATOM     31  C   UNL A   1      35.643  29.618  28.459  1.00  0.00     0.010 A 
ATOM     32  C   UNL A   1      36.155  31.973  28.534  1.00  0.00     0.010 A 
ATOM     33  C   UNL A   1      36.505  30.648  28.855  1.00  0.00    -0.014 A 
BRANCH  33  34
ATOM     34  C   UNL A   1      37.722  30.321  29.654  1.00  0.00     0.031 A 
ATOM     35  C   UNL A   1      38.849  29.528  29.043  1.00  0.00     0.074 A 
ATOM     36  C   UNL A   1      37.859  30.792  30.910  1.00  0.00     0.049 A 
ATOM     37  N   UNL A   1      39.949  29.088  29.603  1.00  0.00    -0.248 NA
ATOM     38  C   UNL A   1      38.723  29.179  27.620  1.00  0.00     0.031 C 
ATOM     39  C   UNL A   1      36.874  31.610  31.621  1.00  0.00     0.029 A 
ATOM     40  N   UNL A   1      38.895  30.673  31.806  1.00  0.00    -0.354 N 
ATOM     41  C   UNL A   1      40.612  28.359  28.622  1.00  0.00     0.074 A 
ATOM     42  C   UNL A   1      39.794  28.420  27.430  1.00  0.00     0.031 C 
ATOM     43  C   UNL A   1      37.369  31.955  32.818  1.00  0.00     0.029 A 
ATOM     44  C   UNL A   1      38.671  31.323  32.997  1.00  0.00     0.049 A 
ATOM     45  H   UNL A   1      39.719  30.168  31.614  1.00  0.00     0.167 HD
ATOM     46  C   UNL A   1      41.793  27.700  28.704  1.00  0.00     0.037 A 
ATOM     47  C   UNL A   1      39.410  31.382  34.120  1.00  0.00     0.037 A 
ATOM     48  C   UNL A   1      42.638  27.677  29.870  1.00  0.00     0.049 A 
ATOM     49  C   UNL A   1      40.710  30.633  34.191  1.00  0.00     0.074 A 
ATOM     50  C   UNL A   1      43.860  27.047  30.037  1.00  0.00     0.029 A 
ATOM     51  N   UNL A   1      42.358  28.322  31.064  1.00  0.00    -0.354 N 
ATOM     52  N   UNL A   1      41.304  29.922  33.264  1.00  0.00    -0.248 NA
ATOM     53  C   UNL A   1      41.435  30.683  35.469  1.00  0.00     0.031 C 
ATOM     54  C   UNL A   1      44.302  27.283  31.344  1.00  0.00     0.029 A 
ATOM     55  C   UNL A   1      43.378  28.099  31.974  1.00  0.00     0.049 A 
ATOM     56  H   UNL A   1      41.551  28.860  31.239  1.00  0.00     0.167 HD
ATOM     57  C   UNL A   1      42.473  29.445  33.844  1.00  0.00     0.074 A 
ATOM     58  C   UNL A   1      42.519  29.972  35.192  1.00  0.00     0.031 C 
ATOM     59  C   UNL A   1      43.418  28.635  33.310  1.00  0.00     0.037 A 
BRANCH  46  60
ATOM     60  C   UNL A   1      42.235  26.914  27.503  1.00  0.00     0.057 A 
ATOM     61  C   UNL A   1      41.903  25.565  27.331  1.00  0.00     0.134 A 
ATOM     62  C   UNL A   1      42.968  27.535  26.483  1.00  0.00     0.134 A 
ATOM     63  F   UNL A   1      41.215  24.908  28.278  1.00  0.00    -0.206 F 
ATOM     64  C   UNL A   1      42.302  24.854  26.197  1.00  0.00     0.040 A 
ATOM     65  C   UNL A   1      43.351  26.842  25.333  1.00  0.00     0.040 A 
ATOM     66  F   UNL A   1      43.312  28.827  26.581  1.00  0.00    -0.206 F 
ATOM     67  C   UNL A   1      43.023  25.496  25.190  1.00  0.00     0.006 A 
ENDBRANCH  46  60
BRANCH  47  68
ATOM     68  C   UNL A   1      38.930  32.169  35.284  1.00  0.00     0.057 A 
ATOM     69  C   UNL A   1      38.261  31.549  36.346  1.00  0.00     0.134 A 
ATOM     70  C   UNL A   1      39.121  33.553  35.362  1.00  0.00     0.134 A 
ATOM     71  F   UNL A   1      38.029  30.228  36.318  1.00  0.00    -0.206 F 
ATOM     72  C   UNL A   1      37.787  32.280  37.437  1.00  0.00     0.040 A 
ATOM     73  C   UNL A   1      38.680  34.292  36.459  1.00  0.00     0.040 A 
ATOM     74  F   UNL A   1      39.757  34.205  34.376  1.00  0.00    -0.206 F 
ATOM     75  C   UNL A   1      38.004  33.656  37.498  1.00  0.00     0.006 A 
ENDBRANCH  47  68
BRANCH  59  76
ATOM     76  C   UNL A   1      44.600  28.299  34.172  1.00  0.00     0.057 A 
ATOM     77  C   UNL A   1      45.745  29.106  34.202  1.00  0.00     0.134 A 
ATOM     78  C   UNL A   1      44.583  27.169  34.998  1.00  0.00     0.134 A 
ATOM     79  F   UNL A   1      45.829  30.195  33.424  1.00  0.00    -0.206 F 
ATOM     80  C   UNL A   1      46.840  28.786  35.007  1.00  0.00     0.040 A 
ATOM     81  C   UNL A   1      45.662  26.852  35.825  1.00  0.00     0.040 A 
ATOM     82  F   UNL A   1      43.514  26.358  35.021  1.00  0.00    -0.206 F 
ATOM     83  C   UNL A   1      46.797  27.659  35.825  1.00  0.00     0.006 A 
ENDBRANCH  59  76
ENDBRANCH  33  34
ENDBRANCH  26  28
ENDBRANCH  25  26
ENDBRANCH  24  25
ENDBRANCH   1  24
TORSDOF 13
ENDMDL
