MODEL 1
REMARK VINA RESULT:     -12.2      0.000      0.000
REMARK SMILES CS(=O)(=O)Nc1ccc(-c2cc(Cl)cc3c2O[C@H](C(F)(F)F)C(C(=O)OCCOC(=O)c2ccc(-c4c5nc(c(-c6c(F)cccc6F)c6ccc([nH]6)c(-c6c(F)cccc6F)c6nc(c(-c7c(F)cccc7F)c7ccc4[nH]7)C=C6)C=C5)cc2)=C3)cc1
REMARK SMILES IDX 27 1 26 2 24 3 25 4 23 5 10 6 11 7 16 8 12 9 15 10 17 11
REMARK SMILES IDX 13 12 14 13 86 14 18 15 9 16 6 17 7 18 88 19 8 20 87 21 5 22
REMARK SMILES IDX 2 24 1 25 3 26 4 27 19 28 20 29 21 30 22 31 28 32 29 33
REMARK SMILES IDX 30 34 31 35 32 36 33 37 85 38 34 39 84 40 35 41 36 42 37 43
REMARK SMILES IDX 78 44 38 45 83 46 77 47 79 48 39 49 82 50 76 51 75 52 40 54
REMARK SMILES IDX 66 55 49 56 65 57 50 58 53 59 64 60 80 61 51 62 52 63 63 65
REMARK SMILES IDX 81 66 54 67 41 68 42 69 47 70 43 71 44 72 46 73 48 74 45 75
REMARK SMILES IDX 67 76 68 77 73 78 69 79 70 80 72 81 74 82 71 83 55 84 56 85
REMARK SMILES IDX 61 86 57 87 58 88 60 89 62 90 59 91
REMARK H PARENT 5 23 79 53 53 64
REMARK Flexibility Score: inf
ROOT
ATOM      1  C   UNL A   1      31.778  31.470  26.937  1.00  0.00     0.275 C 
ENDROOT
BRANCH   1   2
ATOM      2  O   UNL A   1      31.081  30.795  25.857  1.00  0.00    -0.459 OA
BRANCH   2   3
ATOM      3  C   UNL A   1      31.757  29.732  25.349  1.00  0.00     0.338 C 
ATOM      4  O   UNL A   1      31.701  29.380  24.175  1.00  0.00    -0.246 OA
BRANCH   3   5
ATOM      5  C   UNL A   1      32.586  28.990  26.340  1.00  0.00     0.087 C 
ATOM      6  C   UNL A   1      33.127  25.064  25.528  1.00  0.00     0.026 A 
ATOM      7  C   UNL A   1      31.977  24.857  24.721  1.00  0.00     0.033 A 
ATOM      8  C   UNL A   1      33.117  26.289  26.210  1.00  0.00     0.135 A 
ATOM      9  C   UNL A   1      30.847  25.685  24.754  1.00  0.00     0.042 A 
ATOM     10  C   UNL A   1      31.876  26.936  26.450  1.00  0.00     0.019 A 
ATOM     11  O   UNL A   1      34.249  27.071  26.443  1.00  0.00    -0.475 OA
ATOM     12  Cl  UNL A   1      29.591  25.685  23.588  1.00  0.00    -0.084 Cl
ATOM     13  C   UNL A   1      30.735  26.626  25.737  1.00  0.00     0.032 A 
ATOM     14  C   UNL A   1      31.868  28.218  27.175  1.00  0.00     0.027 C 
ATOM     15  C   UNL A   1      34.021  28.545  26.123  1.00  0.00     0.316 C 
BRANCH   6  16
ATOM     16  C   UNL A   1      33.995  23.839  25.692  1.00  0.00    -0.014 A 
ATOM     17  C   UNL A   1      34.479  20.996  25.470  1.00  0.00     0.048 A 
ATOM     18  C   UNL A   1      34.979  21.897  24.529  1.00  0.00     0.027 A 
ATOM     19  C   UNL A   1      33.870  21.530  26.598  1.00  0.00     0.027 A 
ATOM     20  C   UNL A   1      34.797  23.299  24.675  1.00  0.00     0.011 A 
ATOM     21  C   UNL A   1      33.627  22.922  26.701  1.00  0.00     0.011 A 
BRANCH  17  22
ATOM     22  N   UNL A   1      34.453  19.606  25.139  1.00  0.00    -0.284 N 
ATOM     23  H   UNL A   1      35.300  19.112  25.229  1.00  0.00     0.180 HD
BRANCH  22  24
ATOM     24  S   UNL A   1      33.127  18.739  24.616  1.00  0.00     0.229 S 
ATOM     25  C   UNL A   1      33.844  17.273  23.920  1.00  0.00     0.183 C 
ATOM     26  O   UNL A   1      32.451  19.465  23.558  1.00  0.00    -0.207 OA
ATOM     27  O   UNL A   1      32.419  18.325  25.804  1.00  0.00    -0.207 OA
ENDBRANCH  22  24
ENDBRANCH  17  22
ENDBRANCH   6  16
BRANCH  15  28
ATOM     28  C   UNL A   1      34.858  29.447  27.043  1.00  0.00     0.430 C 
ATOM     29  F   UNL A   1      36.187  29.231  26.881  1.00  0.00    -0.167 F 
ATOM     30  F   UNL A   1      34.625  30.758  26.833  1.00  0.00    -0.167 F 
ATOM     31  F   UNL A   1      34.581  29.199  28.351  1.00  0.00    -0.167 F 
ENDBRANCH  15  28
ENDBRANCH   3   5
ENDBRANCH   2   3
ENDBRANCH   1   2
BRANCH   1  32
ATOM     32  C   UNL A   1      31.705  33.000  26.868  1.00  0.00     0.275 C 
BRANCH  32  33
ATOM     33  O   UNL A   1      32.996  33.619  27.013  1.00  0.00    -0.458 OA
BRANCH  33  34
ATOM     34  C   UNL A   1      33.224  34.124  28.250  1.00  0.00     0.338 C 
ATOM     35  O   UNL A   1      32.438  34.793  28.907  1.00  0.00    -0.246 OA
BRANCH  34  36
ATOM     36  C   UNL A   1      34.516  33.651  28.806  1.00  0.00     0.060 A 
ATOM     37  C   UNL A   1      34.476  32.450  29.499  1.00  0.00     0.016 A 
ATOM     38  C   UNL A   1      35.741  34.329  28.703  1.00  0.00     0.016 A 
ATOM     39  C   UNL A   1      35.654  31.918  30.025  1.00  0.00     0.010 A 
ATOM     40  C   UNL A   1      36.931  33.764  29.233  1.00  0.00     0.010 A 
ATOM     41  C   UNL A   1      36.914  32.521  29.873  1.00  0.00    -0.014 A 
BRANCH  41  42
ATOM     42  C   UNL A   1      38.107  31.802  30.470  1.00  0.00     0.031 A 
ATOM     43  C   UNL A   1      38.380  31.972  31.937  1.00  0.00     0.074 A 
ATOM     44  C   UNL A   1      38.824  30.848  29.823  1.00  0.00     0.049 A 
ATOM     45  N   UNL A   1      39.216  31.317  32.701  1.00  0.00    -0.248 NA
ATOM     46  C   UNL A   1      37.596  33.001  32.637  1.00  0.00     0.031 C 
ATOM     47  C   UNL A   1      38.655  30.509  28.427  1.00  0.00     0.029 A 
ATOM     48  N   UNL A   1      39.769  29.929  30.242  1.00  0.00    -0.354 N 
ATOM     49  C   UNL A   1      39.064  31.860  33.966  1.00  0.00     0.074 A 
ATOM     50  C   UNL A   1      38.024  32.861  33.881  1.00  0.00     0.031 C 
ATOM     51  C   UNL A   1      39.292  29.365  28.138  1.00  0.00     0.029 A 
ATOM     52  C   UNL A   1      40.118  28.995  29.278  1.00  0.00     0.049 A 
ATOM     53  H   UNL A   1      40.160  29.937  31.146  1.00  0.00     0.167 HD
ATOM     54  C   UNL A   1      39.761  31.586  35.091  1.00  0.00     0.037 A 
ATOM     55  C   UNL A   1      41.037  27.999  29.268  1.00  0.00     0.037 A 
ATOM     56  C   UNL A   1      40.872  30.680  35.169  1.00  0.00     0.049 A 
ATOM     57  C   UNL A   1      41.909  27.843  30.489  1.00  0.00     0.074 A 
ATOM     58  C   UNL A   1      41.686  30.419  36.257  1.00  0.00     0.029 A 
ATOM     59  N   UNL A   1      41.353  29.915  34.118  1.00  0.00    -0.354 N 
ATOM     60  N   UNL A   1      41.784  28.408  31.665  1.00  0.00    -0.248 NA
ATOM     61  C   UNL A   1      43.064  26.939  30.381  1.00  0.00     0.031 C 
ATOM     62  C   UNL A   1      42.687  29.533  35.851  1.00  0.00     0.029 A 
ATOM     63  C   UNL A   1      42.452  29.180  34.533  1.00  0.00     0.049 A 
ATOM     64  H   UNL A   1      40.971  29.898  33.211  1.00  0.00     0.167 HD
ATOM     65  C   UNL A   1      42.837  27.926  32.435  1.00  0.00     0.074 A 
ATOM     66  C   UNL A   1      43.564  26.987  31.608  1.00  0.00     0.031 C 
ATOM     67  C   UNL A   1      43.175  28.244  33.709  1.00  0.00     0.037 A 
BRANCH  54  68
ATOM     68  C   UNL A   1      39.387  32.374  36.305  1.00  0.00     0.057 A 
ATOM     69  C   UNL A   1      38.403  31.930  37.196  1.00  0.00     0.134 A 
ATOM     70  C   UNL A   1      39.996  33.609  36.561  1.00  0.00     0.134 A 
ATOM     71  F   UNL A   1      37.760  30.774  36.976  1.00  0.00    -0.206 F 
ATOM     72  C   UNL A   1      38.022  32.700  38.295  1.00  0.00     0.040 A 
ATOM     73  C   UNL A   1      39.639  34.376  37.668  1.00  0.00     0.040 A 
ATOM     74  F   UNL A   1      40.933  34.090  35.731  1.00  0.00    -0.206 F 
ATOM     75  C   UNL A   1      38.645  33.925  38.534  1.00  0.00     0.006 A 
ENDBRANCH  54  68
BRANCH  55  76
ATOM     76  C   UNL A   1      41.269  27.129  28.060  1.00  0.00     0.057 A 
ATOM     77  C   UNL A   1      42.134  27.499  27.015  1.00  0.00     0.134 A 
ATOM     78  C   UNL A   1      40.578  25.923  27.877  1.00  0.00     0.134 A 
ATOM     79  F   UNL A   1      42.786  28.666  27.048  1.00  0.00    -0.206 F 
ATOM     80  C   UNL A   1      42.312  26.718  25.868  1.00  0.00     0.040 A 
ATOM     81  C   UNL A   1      40.773  25.111  26.753  1.00  0.00     0.040 A 
ATOM     82  F   UNL A   1      39.690  25.505  28.790  1.00  0.00    -0.206 F 
ATOM     83  C   UNL A   1      41.638  25.511  25.740  1.00  0.00     0.006 A 
ENDBRANCH  55  76
BRANCH  67  84
ATOM     84  C   UNL A   1      44.357  27.541  34.316  1.00  0.00     0.057 A 
ATOM     85  C   UNL A   1      45.641  28.102  34.321  1.00  0.00     0.134 A 
ATOM     86  C   UNL A   1      44.197  26.304  34.957  1.00  0.00     0.134 A 
ATOM     87  F   UNL A   1      45.871  29.280  33.720  1.00  0.00    -0.206 F 
ATOM     88  C   UNL A   1      46.722  27.450  34.919  1.00  0.00     0.040 A 
ATOM     89  C   UNL A   1      45.262  25.657  35.583  1.00  0.00     0.040 A 
ATOM     90  F   UNL A   1      42.993  25.715  35.012  1.00  0.00    -0.206 F 
ATOM     91  C   UNL A   1      46.532  26.227  35.559  1.00  0.00     0.006 A 
ENDBRANCH  67  84
ENDBRANCH  41  42
ENDBRANCH  34  36
ENDBRANCH  33  34
ENDBRANCH  32  33
ENDBRANCH   1  32
TORSDOF 15
ENDMDL
MODEL 2
REMARK VINA RESULT:     -12.0      2.160      2.804
REMARK SMILES CS(=O)(=O)Nc1ccc(-c2cc(Cl)cc3c2O[C@H](C(F)(F)F)C(C(=O)OCCOC(=O)c2ccc(-c4c5nc(c(-c6c(F)cccc6F)c6ccc([nH]6)c(-c6c(F)cccc6F)c6nc(c(-c7c(F)cccc7F)c7ccc4[nH]7)C=C6)C=C5)cc2)=C3)cc1
REMARK SMILES IDX 27 1 26 2 24 3 25 4 23 5 10 6 11 7 16 8 12 9 15 10 17 11
REMARK SMILES IDX 13 12 14 13 86 14 18 15 9 16 6 17 7 18 88 19 8 20 87 21 5 22
REMARK SMILES IDX 2 24 1 25 3 26 4 27 19 28 20 29 21 30 22 31 28 32 29 33
REMARK SMILES IDX 30 34 31 35 32 36 33 37 85 38 34 39 84 40 35 41 36 42 37 43
REMARK SMILES IDX 78 44 38 45 83 46 77 47 79 48 39 49 82 50 76 51 75 52 40 54
REMARK SMILES IDX 66 55 49 56 65 57 50 58 53 59 64 60 80 61 51 62 52 63 63 65
REMARK SMILES IDX 81 66 54 67 41 68 42 69 47 70 43 71 44 72 46 73 48 74 45 75
REMARK SMILES IDX 67 76 68 77 73 78 69 79 70 80 72 81 74 82 71 83 55 84 56 85
REMARK SMILES IDX 61 86 57 87 58 88 60 89 62 90 59 91
REMARK H PARENT 5 23 79 53 53 64
REMARK Flexibility Score: inf
ROOT
ATOM      1  C   UNL A   1      31.312  29.160  24.904  1.00  0.00     0.275 C 
ENDROOT
BRANCH   1   2
ATOM      2  O   UNL A   1      30.974  27.943  25.620  1.00  0.00    -0.459 OA
BRANCH   2   3
ATOM      3  C   UNL A   1      30.794  26.864  24.815  1.00  0.00     0.338 C 
ATOM      4  O   UNL A   1      29.698  26.386  24.541  1.00  0.00    -0.246 OA
BRANCH   3   5
ATOM      5  C   UNL A   1      32.053  26.272  24.277  1.00  0.00     0.087 C 
ATOM      6  C   UNL A   1      32.222  22.232  24.367  1.00  0.00     0.026 A 
ATOM      7  C   UNL A   1      31.292  22.007  25.417  1.00  0.00     0.033 A 
ATOM      8  C   UNL A   1      32.608  23.574  24.242  1.00  0.00     0.135 A 
ATOM      9  C   UNL A   1      30.946  22.975  26.368  1.00  0.00     0.042 A 
ATOM     10  C   UNL A   1      32.482  24.436  25.363  1.00  0.00     0.019 A 
ATOM     11  O   UNL A   1      32.858  24.212  23.027  1.00  0.00    -0.475 OA
ATOM     12  Cl  UNL A   1      29.608  22.877  27.434  1.00  0.00    -0.084 Cl
ATOM     13  C   UNL A   1      31.666  24.134  26.435  1.00  0.00     0.032 A 
ATOM     14  C   UNL A   1      32.897  25.843  25.232  1.00  0.00     0.027 C 
ATOM     15  C   UNL A   1      32.191  25.580  22.934  1.00  0.00     0.316 C 
BRANCH   6  16
ATOM     16  C   UNL A   1      32.798  20.970  23.771  1.00  0.00    -0.014 A 
ATOM     17  C   UNL A   1      33.137  18.099  23.694  1.00  0.00     0.048 A 
ATOM     18  C   UNL A   1      32.250  18.752  22.837  1.00  0.00     0.027 A 
ATOM     19  C   UNL A   1      33.962  18.894  24.479  1.00  0.00     0.027 A 
ATOM     20  C   UNL A   1      32.133  20.167  22.830  1.00  0.00     0.011 A 
ATOM     21  C   UNL A   1      33.788  20.299  24.521  1.00  0.00     0.011 A 
BRANCH  17  22
ATOM     22  N   UNL A   1      33.020  16.683  23.850  1.00  0.00    -0.284 N 
ATOM     23  H   UNL A   1      32.746  16.169  23.056  1.00  0.00     0.180 HD
BRANCH  22  24
ATOM     24  S   UNL A   1      33.300  15.816  25.248  1.00  0.00     0.229 S 
ATOM     25  C   UNL A   1      35.068  15.827  25.390  1.00  0.00     0.183 C 
ATOM     26  O   UNL A   1      32.863  14.444  25.072  1.00  0.00    -0.207 OA
ATOM     27  O   UNL A   1      32.796  16.624  26.333  1.00  0.00    -0.207 OA
ENDBRANCH  22  24
ENDBRANCH  17  22
ENDBRANCH   6  16
BRANCH  15  28
ATOM     28  C   UNL A   1      33.023  26.546  22.076  1.00  0.00     0.430 C 
ATOM     29  F   UNL A   1      34.316  26.587  22.482  1.00  0.00    -0.167 F 
ATOM     30  F   UNL A   1      33.012  26.217  20.769  1.00  0.00    -0.167 F 
ATOM     31  F   UNL A   1      32.545  27.815  22.169  1.00  0.00    -0.167 F 
ENDBRANCH  15  28
ENDBRANCH   3   5
ENDBRANCH   2   3
ENDBRANCH   1   2
BRANCH   1  32
ATOM     32  C   UNL A   1      32.623  29.811  25.361  1.00  0.00     0.275 C 
BRANCH  32  33
ATOM     33  O   UNL A   1      32.678  29.994  26.787  1.00  0.00    -0.458 OA
BRANCH  33  34
ATOM     34  C   UNL A   1      33.123  31.217  27.164  1.00  0.00     0.338 C 
ATOM     35  O   UNL A   1      32.483  32.258  27.118  1.00  0.00    -0.246 OA
BRANCH  34  36
ATOM     36  C   UNL A   1      34.466  31.143  27.790  1.00  0.00     0.060 A 
ATOM     37  C   UNL A   1      34.828  29.907  28.308  1.00  0.00     0.016 A 
ATOM     38  C   UNL A   1      35.366  32.214  27.913  1.00  0.00     0.016 A 
ATOM     39  C   UNL A   1      36.087  29.743  28.884  1.00  0.00     0.010 A 
ATOM     40  C   UNL A   1      36.649  32.023  28.490  1.00  0.00     0.010 A 
ATOM     41  C   UNL A   1      37.050  30.765  28.953  1.00  0.00    -0.014 A 
BRANCH  41  42
ATOM     42  C   UNL A   1      38.387  30.422  29.576  1.00  0.00     0.031 A 
ATOM     43  C   UNL A   1      38.638  30.838  30.998  1.00  0.00     0.074 A 
ATOM     44  C   UNL A   1      39.295  29.583  29.017  1.00  0.00     0.049 A 
ATOM     45  N   UNL A   1      39.618  30.496  31.796  1.00  0.00    -0.248 NA
ATOM     46  C   UNL A   1      37.648  31.741  31.604  1.00  0.00     0.031 C 
ATOM     47  C   UNL A   1      39.187  29.038  27.682  1.00  0.00     0.029 A 
ATOM     48  N   UNL A   1      40.436  28.967  29.499  1.00  0.00    -0.354 N 
ATOM     49  C   UNL A   1      39.365  31.147  32.991  1.00  0.00     0.074 A 
ATOM     50  C   UNL A   1      38.119  31.864  32.834  1.00  0.00     0.031 C 
ATOM     51  C   UNL A   1      40.068  28.043  27.504  1.00  0.00     0.029 A 
ATOM     52  C   UNL A   1      40.977  28.022  28.640  1.00  0.00     0.049 A 
ATOM     53  H   UNL A   1      40.830  29.181  30.377  1.00  0.00     0.167 HD
ATOM     54  C   UNL A   1      40.126  31.188  34.107  1.00  0.00     0.037 A 
ATOM     55  C   UNL A   1      42.103  27.271  28.708  1.00  0.00     0.037 A 
ATOM     56  C   UNL A   1      41.420  30.578  34.242  1.00  0.00     0.049 A 
ATOM     57  C   UNL A   1      43.009  27.478  29.897  1.00  0.00     0.074 A 
ATOM     58  C   UNL A   1      42.290  30.653  35.314  1.00  0.00     0.029 A 
ATOM     59  N   UNL A   1      42.047  29.815  33.270  1.00  0.00    -0.354 N 
ATOM     60  N   UNL A   1      42.775  28.145  31.000  1.00  0.00    -0.248 NA
ATOM     61  C   UNL A   1      44.341  26.856  29.845  1.00  0.00     0.031 C 
ATOM     62  C   UNL A   1      43.464  29.976  34.972  1.00  0.00     0.029 A 
ATOM     63  C   UNL A   1      43.294  29.412  33.719  1.00  0.00     0.049 A 
ATOM     64  H   UNL A   1      41.664  29.594  32.391  1.00  0.00     0.167 HD
ATOM     65  C   UNL A   1      43.925  28.020  31.773  1.00  0.00     0.074 A 
ATOM     66  C   UNL A   1      44.837  27.175  31.032  1.00  0.00     0.031 C 
ATOM     67  C   UNL A   1      44.202  28.568  32.981  1.00  0.00     0.037 A 
BRANCH  54  68
ATOM     68  C   UNL A   1      39.600  32.018  35.233  1.00  0.00     0.057 A 
ATOM     69  C   UNL A   1      38.730  31.489  36.194  1.00  0.00     0.134 A 
ATOM     70  C   UNL A   1      39.941  33.373  35.331  1.00  0.00     0.134 A 
ATOM     71  F   UNL A   1      38.340  30.207  36.123  1.00  0.00    -0.206 F 
ATOM     72  C   UNL A   1      38.201  32.287  37.208  1.00  0.00     0.040 A 
ATOM     73  C   UNL A   1      39.435  34.174  36.353  1.00  0.00     0.040 A 
ATOM     74  F   UNL A   1      40.756  33.936  34.428  1.00  0.00    -0.206 F 
ATOM     75  C   UNL A   1      38.557  33.633  37.290  1.00  0.00     0.006 A 
ENDBRANCH  54  68
BRANCH  55  76
ATOM     76  C   UNL A   1      42.511  26.329  27.605  1.00  0.00     0.057 A 
ATOM     77  C   UNL A   1      43.247  26.750  26.483  1.00  0.00     0.134 A 
ATOM     78  C   UNL A   1      42.118  24.984  27.601  1.00  0.00     0.134 A 
ATOM     79  F   UNL A   1      43.609  28.030  26.344  1.00  0.00    -0.206 F 
ATOM     80  C   UNL A   1      43.583  25.890  25.432  1.00  0.00     0.040 A 
ATOM     81  C   UNL A   1      42.477  24.101  26.575  1.00  0.00     0.040 A 
ATOM     82  F   UNL A   1      41.368  24.494  28.598  1.00  0.00    -0.206 F 
ATOM     83  C   UNL A   1      43.207  24.554  25.482  1.00  0.00     0.006 A 
ENDBRANCH  55  76
BRANCH  67  84
ATOM     84  C   UNL A   1      45.526  28.240  33.613  1.00  0.00     0.057 A 
ATOM     85  C   UNL A   1      46.660  29.043  33.436  1.00  0.00     0.134 A 
ATOM     86  C   UNL A   1      45.653  27.129  34.459  1.00  0.00     0.134 A 
ATOM     87  F   UNL A   1      46.614  30.118  32.635  1.00  0.00    -0.206 F 
ATOM     88  C   UNL A   1      47.875  28.741  34.058  1.00  0.00     0.040 A 
ATOM     89  C   UNL A   1      46.852  26.833  35.108  1.00  0.00     0.040 A 
ATOM     90  F   UNL A   1      44.606  26.326  34.693  1.00  0.00    -0.206 F 
ATOM     91  C   UNL A   1      47.970  27.637  34.903  1.00  0.00     0.006 A 
ENDBRANCH  67  84
ENDBRANCH  41  42
ENDBRANCH  34  36
ENDBRANCH  33  34
ENDBRANCH  32  33
ENDBRANCH   1  32
TORSDOF 15
ENDMDL
MODEL 3
REMARK VINA RESULT:     -11.9      4.534      9.706
REMARK SMILES CS(=O)(=O)Nc1ccc(-c2cc(Cl)cc3c2O[C@H](C(F)(F)F)C(C(=O)OCCOC(=O)c2ccc(-c4c5nc(c(-c6c(F)cccc6F)c6ccc([nH]6)c(-c6c(F)cccc6F)c6nc(c(-c7c(F)cccc7F)c7ccc4[nH]7)C=C6)C=C5)cc2)=C3)cc1
REMARK SMILES IDX 27 1 26 2 24 3 25 4 23 5 10 6 11 7 16 8 12 9 15 10 17 11
REMARK SMILES IDX 13 12 14 13 86 14 18 15 9 16 6 17 7 18 88 19 8 20 87 21 5 22
REMARK SMILES IDX 2 24 1 25 3 26 4 27 19 28 20 29 21 30 22 31 28 32 29 33
REMARK SMILES IDX 30 34 31 35 32 36 33 37 85 38 34 39 84 40 35 41 36 42 37 43
REMARK SMILES IDX 78 44 38 45 83 46 77 47 79 48 39 49 82 50 76 51 75 52 40 54
REMARK SMILES IDX 66 55 49 56 65 57 50 58 53 59 64 60 80 61 51 62 52 63 63 65
REMARK SMILES IDX 81 66 54 67 41 68 42 69 47 70 43 71 44 72 46 73 48 74 45 75
REMARK SMILES IDX 67 76 68 77 73 78 69 79 70 80 72 81 74 82 71 83 55 84 56 85
REMARK SMILES IDX 61 86 57 87 58 88 60 89 62 90 59 91
REMARK H PARENT 5 23 79 53 53 64
REMARK Flexibility Score: inf
ROOT
ATOM      1  C   UNL A   1      34.891  20.669  24.981  1.00  0.00     0.275 C 
ENDROOT
BRANCH   1   2
ATOM      2  O   UNL A   1      34.506  21.524  23.872  1.00  0.00    -0.459 OA
BRANCH   2   3
ATOM      3  C   UNL A   1      33.219  21.955  23.931  1.00  0.00     0.338 C 
ATOM      4  O   UNL A   1      32.306  21.486  23.259  1.00  0.00    -0.246 OA
BRANCH   3   5
ATOM      5  C   UNL A   1      32.981  23.075  24.886  1.00  0.00     0.087 C 
ATOM      6  C   UNL A   1      31.206  26.340  23.292  1.00  0.00     0.026 A 
ATOM      7  C   UNL A   1      31.588  26.146  21.938  1.00  0.00     0.033 A 
ATOM      8  C   UNL A   1      31.885  25.504  24.189  1.00  0.00     0.135 A 
ATOM      9  C   UNL A   1      32.676  25.356  21.545  1.00  0.00     0.042 A 
ATOM     10  C   UNL A   1      33.139  24.958  23.809  1.00  0.00     0.019 A 
ATOM     11  O   UNL A   1      31.311  24.938  25.327  1.00  0.00    -0.475 OA
ATOM     12  Cl  UNL A   1      32.979  24.821  19.945  1.00  0.00    -0.084 Cl
ATOM     13  C   UNL A   1      33.547  24.898  22.492  1.00  0.00     0.032 A 
ATOM     14  C   UNL A   1      33.855  24.088  24.757  1.00  0.00     0.027 C 
ATOM     15  C   UNL A   1      31.634  23.454  25.472  1.00  0.00     0.316 C 
BRANCH   6  16
ATOM     16  C   UNL A   1      30.348  27.562  23.522  1.00  0.00    -0.014 A 
ATOM     17  C   UNL A   1      29.692  30.346  23.097  1.00  0.00     0.048 A 
ATOM     18  C   UNL A   1      29.019  29.327  22.421  1.00  0.00     0.027 A 
ATOM     19  C   UNL A   1      30.582  29.967  24.094  1.00  0.00     0.027 A 
ATOM     20  C   UNL A   1      29.297  27.958  22.679  1.00  0.00     0.011 A 
ATOM     21  C   UNL A   1      30.907  28.603  24.294  1.00  0.00     0.011 A 
BRANCH  17  22
ATOM     22  N   UNL A   1      29.571  31.685  22.611  1.00  0.00    -0.284 N 
ATOM     23  H   UNL A   1      30.390  32.106  22.260  1.00  0.00     0.180 HD
BRANCH  22  24
ATOM     24  S   UNL A   1      28.179  32.604  22.582  1.00  0.00     0.229 S 
ATOM     25  C   UNL A   1      27.728  32.611  20.866  1.00  0.00     0.183 C 
ATOM     26  O   UNL A   1      28.482  33.966  22.981  1.00  0.00    -0.207 OA
ATOM     27  O   UNL A   1      27.171  31.834  23.268  1.00  0.00    -0.207 OA
ENDBRANCH  22  24
ENDBRANCH  17  22
ENDBRANCH   6  16
BRANCH  15  28
ATOM     28  C   UNL A   1      31.717  23.047  26.952  1.00  0.00     0.430 C 
ATOM     29  F   UNL A   1      30.489  22.821  27.478  1.00  0.00    -0.167 F 
ATOM     30  F   UNL A   1      32.458  21.937  27.141  1.00  0.00    -0.167 F 
ATOM     31  F   UNL A   1      32.284  24.034  27.696  1.00  0.00    -0.167 F 
ENDBRANCH  15  28
ENDBRANCH   3   5
ENDBRANCH   2   3
ENDBRANCH   1   2
BRANCH   1  32
ATOM     32  C   UNL A   1      36.378  20.297  24.996  1.00  0.00     0.275 C 
BRANCH  32  33
ATOM     33  O   UNL A   1      37.190  21.300  25.632  1.00  0.00    -0.458 OA
BRANCH  33  34
ATOM     34  C   UNL A   1      38.474  20.917  25.833  1.00  0.00     0.338 C 
ATOM     35  O   UNL A   1      38.962  19.845  25.506  1.00  0.00    -0.246 OA
BRANCH  34  36
ATOM     36  C   UNL A   1      39.296  22.023  26.386  1.00  0.00     0.060 A 
ATOM     37  C   UNL A   1      38.919  23.305  26.013  1.00  0.00     0.016 A 
ATOM     38  C   UNL A   1      40.413  21.865  27.221  1.00  0.00     0.016 A 
ATOM     39  C   UNL A   1      39.618  24.403  26.515  1.00  0.00     0.010 A 
ATOM     40  C   UNL A   1      41.103  22.996  27.733  1.00  0.00     0.010 A 
ATOM     41  C   UNL A   1      40.690  24.294  27.418  1.00  0.00    -0.014 A 
BRANCH  41  42
ATOM     42  C   UNL A   1      41.325  25.581  27.903  1.00  0.00     0.031 A 
ATOM     43  C   UNL A   1      42.699  25.929  27.405  1.00  0.00     0.074 A 
ATOM     44  C   UNL A   1      40.662  26.547  28.588  1.00  0.00     0.049 A 
ATOM     45  N   UNL A   1      43.360  27.052  27.528  1.00  0.00    -0.248 NA
ATOM     46  C   UNL A   1      43.412  24.883  26.656  1.00  0.00     0.031 C 
ATOM     47  C   UNL A   1      39.313  26.409  29.093  1.00  0.00     0.029 A 
ATOM     48  N   UNL A   1      40.970  27.856  28.914  1.00  0.00    -0.354 N 
ATOM     49  C   UNL A   1      44.566  26.843  26.880  1.00  0.00     0.074 A 
ATOM     50  C   UNL A   1      44.529  25.509  26.324  1.00  0.00     0.031 C 
ATOM     51  C   UNL A   1      38.829  27.597  29.479  1.00  0.00     0.029 A 
ATOM     52  C   UNL A   1      39.916  28.566  29.468  1.00  0.00     0.049 A 
ATOM     53  H   UNL A   1      41.861  28.250  28.765  1.00  0.00     0.167 HD
ATOM     54  C   UNL A   1      45.633  27.669  26.796  1.00  0.00     0.037 A 
ATOM     55  C   UNL A   1      39.831  29.819  29.977  1.00  0.00     0.037 A 
ATOM     56  C   UNL A   1      45.733  28.949  27.438  1.00  0.00     0.049 A 
ATOM     57  C   UNL A   1      41.095  30.643  30.015  1.00  0.00     0.074 A 
ATOM     58  C   UNL A   1      46.820  29.804  27.472  1.00  0.00     0.029 A 
ATOM     59  N   UNL A   1      44.731  29.546  28.188  1.00  0.00    -0.354 N 
ATOM     60  N   UNL A   1      42.248  30.403  29.441  1.00  0.00    -0.248 NA
ATOM     61  C   UNL A   1      41.061  31.892  30.790  1.00  0.00     0.031 C 
ATOM     62  C   UNL A   1      46.492  30.895  28.281  1.00  0.00     0.029 A 
ATOM     63  C   UNL A   1      45.175  30.760  28.687  1.00  0.00     0.049 A 
ATOM     64  H   UNL A   1      43.838  29.164  28.343  1.00  0.00     0.167 HD
ATOM     65  C   UNL A   1      43.073  31.470  29.781  1.00  0.00     0.074 A 
ATOM     66  C   UNL A   1      42.274  32.381  30.572  1.00  0.00     0.031 C 
ATOM     67  C   UNL A   1      44.378  31.668  29.474  1.00  0.00     0.037 A 
BRANCH  54  68
ATOM     68  C   UNL A   1      46.817  27.140  26.055  1.00  0.00     0.057 A 
ATOM     69  C   UNL A   1      47.814  26.394  26.695  1.00  0.00     0.134 A 
ATOM     70  C   UNL A   1      46.978  27.414  24.691  1.00  0.00     0.134 A 
ATOM     71  F   UNL A   1      47.730  26.136  28.009  1.00  0.00    -0.206 F 
ATOM     72  C   UNL A   1      48.943  25.953  26.006  1.00  0.00     0.040 A 
ATOM     73  C   UNL A   1      48.092  26.961  23.987  1.00  0.00     0.040 A 
ATOM     74  F   UNL A   1      46.063  28.139  24.031  1.00  0.00    -0.206 F 
ATOM     75  C   UNL A   1      49.081  26.234  24.646  1.00  0.00     0.006 A 
ENDBRANCH  54  68
BRANCH  55  76
ATOM     76  C   UNL A   1      38.560  30.360  30.579  1.00  0.00     0.057 A 
ATOM     77  C   UNL A   1      37.641  31.131  29.844  1.00  0.00     0.134 A 
ATOM     78  C   UNL A   1      38.252  30.181  31.935  1.00  0.00     0.134 A 
ATOM     79  F   UNL A   1      37.872  31.430  28.562  1.00  0.00    -0.206 F 
ATOM     80  C   UNL A   1      36.487  31.678  30.414  1.00  0.00     0.040 A 
ATOM     81  C   UNL A   1      37.082  30.690  32.511  1.00  0.00     0.040 A 
ATOM     82  F   UNL A   1      39.088  29.505  32.736  1.00  0.00    -0.206 F 
ATOM     83  C   UNL A   1      36.198  31.447  31.752  1.00  0.00     0.006 A 
ENDBRANCH  55  76
BRANCH  67  84
ATOM     84  C   UNL A   1      45.025  32.939  29.949  1.00  0.00     0.057 A 
ATOM     85  C   UNL A   1      45.749  33.009  31.146  1.00  0.00     0.134 A 
ATOM     86  C   UNL A   1      44.968  34.101  29.166  1.00  0.00     0.134 A 
ATOM     87  F   UNL A   1      45.840  31.939  31.950  1.00  0.00    -0.206 F 
ATOM     88  C   UNL A   1      46.372  34.191  31.557  1.00  0.00     0.040 A 
ATOM     89  C   UNL A   1      45.610  35.279  29.551  1.00  0.00     0.040 A 
ATOM     90  F   UNL A   1      44.311  34.105  27.997  1.00  0.00    -0.206 F 
ATOM     91  C   UNL A   1      46.310  35.327  30.753  1.00  0.00     0.006 A 
ENDBRANCH  67  84
ENDBRANCH  41  42
ENDBRANCH  34  36
ENDBRANCH  33  34
ENDBRANCH  32  33
ENDBRANCH   1  32
TORSDOF 15
ENDMDL
