MODEL 1
REMARK VINA RESULT:     -11.4      0.000      0.000
REMARK SMILES C[C@@H](C(=O)OCCOC(=O)c1ccc(-c2c3nc(c(-c4c(F)cccc4F)c4ccc([nH]4)c(-c4c(F)cccc4F)c4nc(c(-c5c(F)cccc5F)c5ccc2[nH]5)C=C4)C=C3)cc1)c1ccc(O[C@H]2CCCC2=O)cc1F
REMARK SMILES IDX 6 1 5 2 3 3 4 4 2 5 1 6 65 7 66 8 77 9 67 10 76 11 78 12
REMARK SMILES IDX 68 13 69 14 70 15 71 16 74 17 72 18 73 19 75 20 7 21 8 22
REMARK SMILES IDX 9 23 10 24 11 25 12 26 64 27 13 28 63 29 14 30 15 31 16 32
REMARK SMILES IDX 57 33 17 34 62 35 56 36 58 37 18 38 61 39 55 40 54 41 19 43
REMARK SMILES IDX 45 44 28 45 44 46 29 47 32 48 43 49 59 50 30 51 31 52 42 54
REMARK SMILES IDX 60 55 33 56 20 57 21 58 26 59 22 60 23 61 25 62 27 63 24 64
REMARK SMILES IDX 46 65 47 66 52 67 48 68 49 69 51 70 53 71 50 72 34 73 35 74
REMARK SMILES IDX 40 75 36 76 37 77 39 78 41 79 38 80
REMARK H PARENT 58 42 32 53
REMARK Flexibility Score: inf
ROOT
ATOM      1  C   UNL A   1      38.043  22.036  25.344  1.00  0.00     0.274 C 
ENDROOT
BRANCH   1   2
ATOM      2  O   UNL A   1      37.306  23.246  25.080  1.00  0.00    -0.462 OA
BRANCH   2   3
ATOM      3  C   UNL A   1      36.450  23.236  24.021  1.00  0.00     0.313 C 
ATOM      4  O   UNL A   1      36.816  23.160  22.852  1.00  0.00    -0.252 OA
BRANCH   3   5
ATOM      5  C   UNL A   1      34.989  23.438  24.446  1.00  0.00     0.129 C 
ATOM      6  C   UNL A   1      34.850  24.344  25.676  1.00  0.00     0.025 C 
BRANCH   5   7
ATOM      7  C   UNL A   1      34.223  22.119  24.540  1.00  0.00     0.002 A 
ATOM      8  C   UNL A   1      33.316  21.774  23.523  1.00  0.00     0.011 A 
ATOM      9  C   UNL A   1      34.356  21.217  25.600  1.00  0.00     0.130 A 
ATOM     10  C   UNL A   1      32.585  20.580  23.582  1.00  0.00     0.047 A 
ATOM     11  C   UNL A   1      33.601  20.042  25.678  1.00  0.00     0.086 A 
ATOM     12  F   UNL A   1      35.218  21.454  26.597  1.00  0.00    -0.207 F 
ATOM     13  C   UNL A   1      32.730  19.698  24.655  1.00  0.00     0.123 A 
BRANCH  13  14
ATOM     14  O   UNL A   1      31.927  18.599  24.608  1.00  0.00    -0.483 OA
BRANCH  14  15
ATOM     15  C   UNL A   1      32.423  17.318  24.270  1.00  0.00     0.239 C 
ATOM     16  C   UNL A   1      33.548  17.340  23.228  1.00  0.00     0.054 C 
ATOM     17  C   UNL A   1      32.968  16.355  25.323  1.00  0.00     0.173 C 
ATOM     18  C   UNL A   1      34.805  16.953  23.999  1.00  0.00     0.012 C 
ATOM     19  C   UNL A   1      34.354  15.884  24.977  1.00  0.00     0.080 C 
ATOM     20  O   UNL A   1      32.364  15.995  26.326  1.00  0.00    -0.296 OA
ENDBRANCH  14  15
ENDBRANCH  13  14
ENDBRANCH   5   7
ENDBRANCH   3   5
ENDBRANCH   2   3
ENDBRANCH   1   2
BRANCH   1  21
ATOM     21  C   UNL A   1      39.269  22.309  26.215  1.00  0.00     0.275 C 
BRANCH  21  22
ATOM     22  O   UNL A   1      39.368  23.709  26.536  1.00  0.00    -0.458 OA
BRANCH  22  23
ATOM     23  C   UNL A   1      40.589  24.138  26.916  1.00  0.00     0.338 C 
ATOM     24  O   UNL A   1      41.677  23.663  26.616  1.00  0.00    -0.246 OA
BRANCH  23  25
ATOM     25  C   UNL A   1      40.445  25.360  27.715  1.00  0.00     0.060 A 
ATOM     26  C   UNL A   1      41.496  26.267  27.713  1.00  0.00     0.016 A 
ATOM     27  C   UNL A   1      39.335  25.573  28.536  1.00  0.00     0.016 A 
ATOM     28  C   UNL A   1      41.465  27.357  28.575  1.00  0.00     0.010 A 
ATOM     29  C   UNL A   1      39.294  26.700  29.375  1.00  0.00     0.010 A 
ATOM     30  C   UNL A   1      40.381  27.586  29.442  1.00  0.00    -0.014 A 
BRANCH  30  31
ATOM     31  C   UNL A   1      40.471  28.712  30.427  1.00  0.00     0.031 A 
ATOM     32  C   UNL A   1      39.590  29.938  30.302  1.00  0.00     0.074 A 
ATOM     33  C   UNL A   1      41.193  28.556  31.558  1.00  0.00     0.049 A 
ATOM     34  N   UNL A   1      39.293  30.828  31.221  1.00  0.00    -0.248 NA
ATOM     35  C   UNL A   1      38.891  30.154  29.025  1.00  0.00     0.031 C 
ATOM     36  C   UNL A   1      42.058  27.414  31.855  1.00  0.00     0.029 A 
ATOM     37  N   UNL A   1      41.274  29.335  32.689  1.00  0.00    -0.354 N 
ATOM     38  C   UNL A   1      38.305  31.635  30.669  1.00  0.00     0.074 A 
ATOM     39  C   UNL A   1      38.108  31.188  29.308  1.00  0.00     0.031 C 
ATOM     40  C   UNL A   1      42.536  27.536  33.103  1.00  0.00     0.029 A 
ATOM     41  C   UNL A   1      42.063  28.793  33.677  1.00  0.00     0.049 A 
ATOM     42  H   UNL A   1      40.811  30.199  32.784  1.00  0.00     0.167 HD
ATOM     43  C   UNL A   1      37.585  32.623  31.252  1.00  0.00     0.037 A 
ATOM     44  C   UNL A   1      42.391  29.255  34.900  1.00  0.00     0.037 A 
ATOM     45  C   UNL A   1      37.830  33.161  32.562  1.00  0.00     0.049 A 
ATOM     46  C   UNL A   1      41.828  30.562  35.376  1.00  0.00     0.074 A 
ATOM     47  C   UNL A   1      37.178  34.199  33.206  1.00  0.00     0.029 A 
ATOM     48  N   UNL A   1      38.842  32.740  33.407  1.00  0.00    -0.354 N 
ATOM     49  N   UNL A   1      40.858  31.277  34.864  1.00  0.00    -0.248 NA
ATOM     50  C   UNL A   1      42.427  31.143  36.588  1.00  0.00     0.031 C 
ATOM     51  C   UNL A   1      37.843  34.453  34.412  1.00  0.00     0.029 A 
ATOM     52  C   UNL A   1      38.883  33.547  34.533  1.00  0.00     0.049 A 
ATOM     53  H   UNL A   1      39.443  31.980  33.235  1.00  0.00     0.167 HD
ATOM     54  C   UNL A   1      40.728  32.388  35.688  1.00  0.00     0.074 A 
ATOM     55  C   UNL A   1      41.703  32.242  36.749  1.00  0.00     0.031 C 
ATOM     56  C   UNL A   1      39.874  33.433  35.570  1.00  0.00     0.037 A 
BRANCH  43  57
ATOM     57  C   UNL A   1      36.439  33.190  30.473  1.00  0.00     0.057 A 
ATOM     58  C   UNL A   1      36.663  34.123  29.452  1.00  0.00     0.134 A 
ATOM     59  C   UNL A   1      35.126  32.766  30.690  1.00  0.00     0.134 A 
ATOM     60  F   UNL A   1      37.904  34.556  29.192  1.00  0.00    -0.206 F 
ATOM     61  C   UNL A   1      35.617  34.623  28.678  1.00  0.00     0.040 A 
ATOM     62  C   UNL A   1      34.070  33.253  29.916  1.00  0.00     0.040 A 
ATOM     63  F   UNL A   1      34.850  31.869  31.648  1.00  0.00    -0.206 F 
ATOM     64  C   UNL A   1      34.315  34.185  28.907  1.00  0.00     0.006 A 
ENDBRANCH  43  57
BRANCH  44  65
ATOM     65  C   UNL A   1      43.359  28.506  35.743  1.00  0.00     0.057 A 
ATOM     66  C   UNL A   1      42.940  27.523  36.645  1.00  0.00     0.134 A 
ATOM     67  C   UNL A   1      44.731  28.785  35.687  1.00  0.00     0.134 A 
ATOM     68  F   UNL A   1      41.636  27.235  36.773  1.00  0.00    -0.206 F 
ATOM     69  C   UNL A   1      43.849  26.842  37.457  1.00  0.00     0.040 A 
ATOM     70  C   UNL A   1      45.654  28.095  36.471  1.00  0.00     0.040 A 
ATOM     71  F   UNL A   1      45.196  29.731  34.856  1.00  0.00    -0.206 F 
ATOM     72  C   UNL A   1      45.213  27.122  37.364  1.00  0.00     0.006 A 
ENDBRANCH  44  65
BRANCH  56  73
ATOM     73  C   UNL A   1      39.976  34.528  36.588  1.00  0.00     0.057 A 
ATOM     74  C   UNL A   1      40.826  35.624  36.391  1.00  0.00     0.134 A 
ATOM     75  C   UNL A   1      39.201  34.513  37.754  1.00  0.00     0.134 A 
ATOM     76  F   UNL A   1      41.605  35.691  35.300  1.00  0.00    -0.206 F 
ATOM     77  C   UNL A   1      40.913  36.657  37.324  1.00  0.00     0.040 A 
ATOM     78  C   UNL A   1      39.263  35.552  38.685  1.00  0.00     0.040 A 
ATOM     79  F   UNL A   1      38.363  33.495  38.001  1.00  0.00    -0.206 F 
ATOM     80  C   UNL A   1      40.125  36.626  38.472  1.00  0.00     0.006 A 
ENDBRANCH  56  73
ENDBRANCH  30  31
ENDBRANCH  23  25
ENDBRANCH  22  23
ENDBRANCH  21  22
ENDBRANCH   1  21
TORSDOF 14
ENDMDL
MODEL 2
REMARK VINA RESULT:     -11.4      4.754      8.291
REMARK SMILES C[C@@H](C(=O)OCCOC(=O)c1ccc(-c2c3nc(c(-c4c(F)cccc4F)c4ccc([nH]4)c(-c4c(F)cccc4F)c4nc(c(-c5c(F)cccc5F)c5ccc2[nH]5)C=C4)C=C3)cc1)c1ccc(O[C@H]2CCCC2=O)cc1F
REMARK SMILES IDX 6 1 5 2 3 3 4 4 2 5 1 6 65 7 66 8 77 9 67 10 76 11 78 12
REMARK SMILES IDX 68 13 69 14 70 15 71 16 74 17 72 18 73 19 75 20 7 21 8 22
REMARK SMILES IDX 9 23 10 24 11 25 12 26 64 27 13 28 63 29 14 30 15 31 16 32
REMARK SMILES IDX 57 33 17 34 62 35 56 36 58 37 18 38 61 39 55 40 54 41 19 43
REMARK SMILES IDX 45 44 28 45 44 46 29 47 32 48 43 49 59 50 30 51 31 52 42 54
REMARK SMILES IDX 60 55 33 56 20 57 21 58 26 59 22 60 23 61 25 62 27 63 24 64
REMARK SMILES IDX 46 65 47 66 52 67 48 68 49 69 51 70 53 71 50 72 34 73 35 74
REMARK SMILES IDX 40 75 36 76 37 77 39 78 41 79 38 80
REMARK H PARENT 58 42 32 53
REMARK Flexibility Score: inf
ROOT
ATOM      1  C   UNL A   1      37.890  21.324  24.990  1.00  0.00     0.274 C 
ENDROOT
BRANCH   1   2
ATOM      2  O   UNL A   1      37.348  22.657  24.908  1.00  0.00    -0.462 OA
BRANCH   2   3
ATOM      3  C   UNL A   1      36.421  22.894  23.939  1.00  0.00     0.313 C 
ATOM      4  O   UNL A   1      36.688  22.953  22.743  1.00  0.00    -0.252 OA
BRANCH   3   5
ATOM      5  C   UNL A   1      35.029  23.185  24.518  1.00  0.00     0.129 C 
ATOM      6  C   UNL A   1      35.090  23.911  25.868  1.00  0.00     0.025 C 
BRANCH   5   7
ATOM      7  C   UNL A   1      34.124  21.954  24.499  1.00  0.00     0.002 A 
ATOM      8  C   UNL A   1      34.222  21.009  25.534  1.00  0.00     0.011 A 
ATOM      9  C   UNL A   1      33.192  21.690  23.489  1.00  0.00     0.130 A 
ATOM     10  C   UNL A   1      33.420  19.861  25.542  1.00  0.00     0.047 A 
ATOM     11  C   UNL A   1      32.417  20.527  23.477  1.00  0.00     0.086 A 
ATOM     12  F   UNL A   1      33.015  22.551  22.479  1.00  0.00    -0.207 F 
ATOM     13  C   UNL A   1      32.502  19.615  24.519  1.00  0.00     0.123 A 
BRANCH  13  14
ATOM     14  O   UNL A   1      31.820  18.441  24.628  1.00  0.00    -0.483 OA
BRANCH  14  15
ATOM     15  C   UNL A   1      32.387  17.203  24.241  1.00  0.00     0.239 C 
ATOM     16  C   UNL A   1      33.467  17.323  23.158  1.00  0.00     0.054 C 
ATOM     17  C   UNL A   1      33.036  16.256  25.249  1.00  0.00     0.173 C 
ATOM     18  C   UNL A   1      34.775  17.005  23.872  1.00  0.00     0.012 C 
ATOM     19  C   UNL A   1      34.435  15.888  24.841  1.00  0.00     0.080 C 
ATOM     20  O   UNL A   1      32.496  15.836  26.266  1.00  0.00    -0.296 OA
ENDBRANCH  14  15
ENDBRANCH  13  14
ENDBRANCH   5   7
ENDBRANCH   3   5
ENDBRANCH   2   3
ENDBRANCH   1   2
BRANCH   1  21
ATOM     21  C   UNL A   1      39.196  21.302  25.784  1.00  0.00     0.275 C 
BRANCH  21  22
ATOM     22  O   UNL A   1      39.626  19.951  26.026  1.00  0.00    -0.458 OA
BRANCH  22  23
ATOM     23  C   UNL A   1      40.961  19.756  26.048  1.00  0.00     0.338 C 
ATOM     24  O   UNL A   1      41.575  18.739  25.751  1.00  0.00    -0.246 OA
BRANCH  23  25
ATOM     25  C   UNL A   1      41.627  21.009  26.420  1.00  0.00     0.060 A 
ATOM     26  C   UNL A   1      41.689  21.339  27.767  1.00  0.00     0.016 A 
ATOM     27  C   UNL A   1      42.100  21.902  25.456  1.00  0.00     0.016 A 
ATOM     28  C   UNL A   1      42.170  22.586  28.148  1.00  0.00     0.010 A 
ATOM     29  C   UNL A   1      42.624  23.145  25.853  1.00  0.00     0.010 A 
ATOM     30  C   UNL A   1      42.623  23.526  27.204  1.00  0.00    -0.014 A 
BRANCH  30  31
ATOM     31  C   UNL A   1      43.015  24.893  27.679  1.00  0.00     0.031 A 
ATOM     32  C   UNL A   1      44.409  25.436  27.446  1.00  0.00     0.074 A 
ATOM     33  C   UNL A   1      42.068  25.739  28.138  1.00  0.00     0.049 A 
ATOM     34  N   UNL A   1      44.817  26.684  27.477  1.00  0.00    -0.248 NA
ATOM     35  C   UNL A   1      45.460  24.484  27.048  1.00  0.00     0.031 C 
ATOM     36  C   UNL A   1      40.667  25.388  28.376  1.00  0.00     0.029 A 
ATOM     37  N   UNL A   1      42.127  27.081  28.436  1.00  0.00    -0.354 N 
ATOM     38  C   UNL A   1      46.125  26.674  27.008  1.00  0.00     0.074 A 
ATOM     39  C   UNL A   1      46.478  25.291  26.776  1.00  0.00     0.031 C 
ATOM     40  C   UNL A   1      39.990  26.492  28.727  1.00  0.00     0.029 A 
ATOM     41  C   UNL A   1      40.914  27.620  28.800  1.00  0.00     0.049 A 
ATOM     42  H   UNL A   1      42.958  27.607  28.393  1.00  0.00     0.167 HD
ATOM     43  C   UNL A   1      46.944  27.719  26.741  1.00  0.00     0.037 A 
ATOM     44  C   UNL A   1      40.578  28.871  29.169  1.00  0.00     0.037 A 
ATOM     45  C   UNL A   1      46.663  29.091  27.061  1.00  0.00     0.049 A 
ATOM     46  C   UNL A   1      41.626  29.946  29.193  1.00  0.00     0.074 A 
ATOM     47  C   UNL A   1      47.465  30.205  26.869  1.00  0.00     0.029 A 
ATOM     48  N   UNL A   1      45.513  29.532  27.691  1.00  0.00    -0.354 N 
ATOM     49  N   UNL A   1      42.837  29.928  28.695  1.00  0.00    -0.248 NA
ATOM     50  C   UNL A   1      41.269  31.209  29.858  1.00  0.00     0.031 C 
ATOM     51  C   UNL A   1      46.827  31.308  27.450  1.00  0.00     0.029 A 
ATOM     52  C   UNL A   1      45.614  30.885  27.967  1.00  0.00     0.049 A 
ATOM     53  H   UNL A   1      44.737  28.967  27.911  1.00  0.00     0.167 HD
ATOM     54  C   UNL A   1      43.385  31.171  28.983  1.00  0.00     0.074 A 
ATOM     55  C   UNL A   1      42.367  31.930  29.679  1.00  0.00     0.031 C 
ATOM     56  C   UNL A   1      44.624  31.636  28.694  1.00  0.00     0.037 A 
BRANCH  43  57
ATOM     57  C   UNL A   1      48.237  27.419  26.049  1.00  0.00     0.057 A 
ATOM     58  C   UNL A   1      49.389  27.121  26.787  1.00  0.00     0.134 A 
ATOM     59  C   UNL A   1      48.325  27.361  24.656  1.00  0.00     0.134 A 
ATOM     60  F   UNL A   1      49.360  27.150  28.127  1.00  0.00    -0.206 F 
ATOM     61  C   UNL A   1      50.591  26.786  26.164  1.00  0.00     0.040 A 
ATOM     62  C   UNL A   1      49.520  27.018  24.018  1.00  0.00     0.040 A 
ATOM     63  F   UNL A   1      47.253  27.628  23.895  1.00  0.00    -0.206 F 
ATOM     64  C   UNL A   1      50.657  26.730  24.774  1.00  0.00     0.006 A 
ENDBRANCH  43  57
BRANCH  44  65
ATOM     65  C   UNL A   1      39.192  29.168  29.616  1.00  0.00     0.057 A 
ATOM     66  C   UNL A   1      38.806  29.032  30.953  1.00  0.00     0.134 A 
ATOM     67  C   UNL A   1      38.210  29.568  28.699  1.00  0.00     0.134 A 
ATOM     68  F   UNL A   1      39.690  28.619  31.873  1.00  0.00    -0.206 F 
ATOM     69  C   UNL A   1      37.496  29.284  31.363  1.00  0.00     0.040 A 
ATOM     70  C   UNL A   1      36.904  29.850  29.098  1.00  0.00     0.040 A 
ATOM     71  F   UNL A   1      38.511  29.699  27.398  1.00  0.00    -0.206 F 
ATOM     72  C   UNL A   1      36.542  29.704  30.435  1.00  0.00     0.006 A 
ENDBRANCH  44  65
BRANCH  56  73
ATOM     73  C   UNL A   1      44.972  33.017  29.162  1.00  0.00     0.057 A 
ATOM     74  C   UNL A   1      45.636  33.224  30.377  1.00  0.00     0.134 A 
ATOM     75  C   UNL A   1      44.677  34.144  28.386  1.00  0.00     0.134 A 
ATOM     76  F   UNL A   1      45.934  32.186  31.174  1.00  0.00    -0.206 F 
ATOM     77  C   UNL A   1      45.980  34.504  30.812  1.00  0.00     0.040 A 
ATOM     78  C   UNL A   1      45.036  35.428  28.799  1.00  0.00     0.040 A 
ATOM     79  F   UNL A   1      44.047  34.015  27.208  1.00  0.00    -0.206 F 
ATOM     80  C   UNL A   1      45.686  35.611  30.018  1.00  0.00     0.006 A 
ENDBRANCH  56  73
ENDBRANCH  30  31
ENDBRANCH  23  25
ENDBRANCH  22  23
ENDBRANCH  21  22
ENDBRANCH   1  21
TORSDOF 14
ENDMDL
MODEL 3
REMARK VINA RESULT:     -11.3      4.706      9.244
REMARK SMILES C[C@@H](C(=O)OCCOC(=O)c1ccc(-c2c3nc(c(-c4c(F)cccc4F)c4ccc([nH]4)c(-c4c(F)cccc4F)c4nc(c(-c5c(F)cccc5F)c5ccc2[nH]5)C=C4)C=C3)cc1)c1ccc(O[C@H]2CCCC2=O)cc1F
REMARK SMILES IDX 6 1 5 2 3 3 4 4 2 5 1 6 65 7 66 8 77 9 67 10 76 11 78 12
REMARK SMILES IDX 68 13 69 14 70 15 71 16 74 17 72 18 73 19 75 20 7 21 8 22
REMARK SMILES IDX 9 23 10 24 11 25 12 26 64 27 13 28 63 29 14 30 15 31 16 32
REMARK SMILES IDX 57 33 17 34 62 35 56 36 58 37 18 38 61 39 55 40 54 41 19 43
REMARK SMILES IDX 45 44 28 45 44 46 29 47 32 48 43 49 59 50 30 51 31 52 42 54
REMARK SMILES IDX 60 55 33 56 20 57 21 58 26 59 22 60 23 61 25 62 27 63 24 64
REMARK SMILES IDX 46 65 47 66 52 67 48 68 49 69 51 70 53 71 50 72 34 73 35 74
REMARK SMILES IDX 40 75 36 76 37 77 39 78 41 79 38 80
REMARK H PARENT 58 42 32 53
REMARK Flexibility Score: inf
ROOT
ATOM      1  C   UNL A   1      32.434  30.438  26.644  1.00  0.00     0.274 C 
ENDROOT
BRANCH   1   2
ATOM      2  O   UNL A   1      33.011  29.126  26.790  1.00  0.00    -0.462 OA
BRANCH   2   3
ATOM      3  C   UNL A   1      32.157  28.066  26.785  1.00  0.00     0.313 C 
ATOM      4  O   UNL A   1      31.466  27.745  27.748  1.00  0.00    -0.252 OA
BRANCH   3   5
ATOM      5  C   UNL A   1      32.234  27.255  25.483  1.00  0.00     0.129 C 
ATOM      6  C   UNL A   1      33.676  27.045  25.002  1.00  0.00     0.025 C 
BRANCH   5   7
ATOM      7  C   UNL A   1      31.278  27.782  24.414  1.00  0.00     0.002 A 
ATOM      8  C   UNL A   1      31.710  28.796  23.542  1.00  0.00     0.011 A 
ATOM      9  C   UNL A   1      29.967  27.324  24.250  1.00  0.00     0.130 A 
ATOM     10  C   UNL A   1      30.857  29.315  22.560  1.00  0.00     0.047 A 
ATOM     11  C   UNL A   1      29.103  27.866  23.293  1.00  0.00     0.086 A 
ATOM     12  F   UNL A   1      29.484  26.342  25.020  1.00  0.00    -0.207 F 
ATOM     13  C   UNL A   1      29.549  28.846  22.419  1.00  0.00     0.123 A 
BRANCH  13  14
ATOM     14  O   UNL A   1      28.815  29.469  21.455  1.00  0.00    -0.483 OA
BRANCH  14  15
ATOM     15  C   UNL A   1      27.953  30.552  21.749  1.00  0.00     0.239 C 
ATOM     16  C   UNL A   1      27.817  30.855  23.246  1.00  0.00     0.054 C 
ATOM     17  C   UNL A   1      28.161  31.942  21.149  1.00  0.00     0.173 C 
ATOM     18  C   UNL A   1      28.549  32.177  23.447  1.00  0.00     0.012 C 
ATOM     19  C   UNL A   1      28.220  33.000  22.216  1.00  0.00     0.080 C 
ATOM     20  O   UNL A   1      28.264  32.182  19.953  1.00  0.00    -0.296 OA
ENDBRANCH  14  15
ENDBRANCH  13  14
ENDBRANCH   5   7
ENDBRANCH   3   5
ENDBRANCH   2   3
ENDBRANCH   1   2
BRANCH   1  21
ATOM     21  C   UNL A   1      32.995  31.411  27.682  1.00  0.00     0.275 C 
BRANCH  21  22
ATOM     22  O   UNL A   1      32.879  32.770  27.225  1.00  0.00    -0.458 OA
BRANCH  22  23
ATOM     23  C   UNL A   1      33.150  33.722  28.142  1.00  0.00     0.338 C 
ATOM     24  O   UNL A   1      32.476  34.704  28.424  1.00  0.00    -0.246 OA
BRANCH  23  25
ATOM     25  C   UNL A   1      34.385  33.370  28.853  1.00  0.00     0.060 A 
ATOM     26  C   UNL A   1      35.594  33.591  28.207  1.00  0.00     0.016 A 
ATOM     27  C   UNL A   1      34.359  32.741  30.100  1.00  0.00     0.016 A 
ATOM     28  C   UNL A   1      36.773  33.130  28.780  1.00  0.00     0.010 A 
ATOM     29  C   UNL A   1      35.561  32.315  30.691  1.00  0.00     0.010 A 
ATOM     30  C   UNL A   1      36.784  32.460  30.018  1.00  0.00    -0.014 A 
BRANCH  30  31
ATOM     31  C   UNL A   1      38.077  31.886  30.516  1.00  0.00     0.031 A 
ATOM     32  C   UNL A   1      38.626  32.254  31.878  1.00  0.00     0.074 A 
ATOM     33  C   UNL A   1      38.663  30.874  29.841  1.00  0.00     0.049 A 
ATOM     34  N   UNL A   1      39.522  31.617  32.598  1.00  0.00    -0.248 NA
ATOM     35  C   UNL A   1      38.051  33.426  32.558  1.00  0.00     0.031 C 
ATOM     36  C   UNL A   1      38.231  30.367  28.538  1.00  0.00     0.029 A 
ATOM     37  N   UNL A   1      39.715  30.055  30.182  1.00  0.00    -0.354 N 
ATOM     38  C   UNL A   1      39.536  32.244  33.837  1.00  0.00     0.074 A 
ATOM     39  C   UNL A   1      38.625  33.364  33.753  1.00  0.00     0.031 C 
ATOM     40  C   UNL A   1      38.970  29.295  28.216  1.00  0.00     0.029 A 
ATOM     41  C   UNL A   1      39.969  29.069  29.256  1.00  0.00     0.049 A 
ATOM     42  H   UNL A   1      40.237  30.164  31.010  1.00  0.00     0.167 HD
ATOM     43  C   UNL A   1      40.203  31.894  34.964  1.00  0.00     0.037 A 
ATOM     44  C   UNL A   1      40.908  28.102  29.230  1.00  0.00     0.037 A 
ATOM     45  C   UNL A   1      41.194  30.857  35.048  1.00  0.00     0.049 A 
ATOM     46  C   UNL A   1      41.873  27.972  30.372  1.00  0.00     0.074 A 
ATOM     47  C   UNL A   1      41.952  30.474  36.142  1.00  0.00     0.029 A 
ATOM     48  N   UNL A   1      41.604  30.073  33.984  1.00  0.00    -0.354 N 
ATOM     49  N   UNL A   1      41.834  28.537  31.553  1.00  0.00    -0.248 NA
ATOM     50  C   UNL A   1      43.033  27.090  30.166  1.00  0.00     0.031 C 
ATOM     51  C   UNL A   1      42.873  29.507  35.719  1.00  0.00     0.029 A 
ATOM     52  C   UNL A   1      42.658  29.264  34.373  1.00  0.00     0.049 A 
ATOM     53  H   UNL A   1      41.205  30.089  33.084  1.00  0.00     0.167 HD
ATOM     54  C   UNL A   1      42.957  28.079  32.230  1.00  0.00     0.074 A 
ATOM     55  C   UNL A   1      43.647  27.171  31.338  1.00  0.00     0.031 C 
ATOM     56  C   UNL A   1      43.373  28.389  33.481  1.00  0.00     0.037 A 
BRANCH  43  57
ATOM     57  C   UNL A   1      39.872  32.641  36.218  1.00  0.00     0.057 A 
ATOM     58  C   UNL A   1      38.836  32.207  37.055  1.00  0.00     0.134 A 
ATOM     59  C   UNL A   1      40.618  33.749  36.629  1.00  0.00     0.134 A 
ATOM     60  F   UNL A   1      38.094  31.144  36.716  1.00  0.00    -0.206 F 
ATOM     61  C   UNL A   1      38.544  32.855  38.254  1.00  0.00     0.040 A 
ATOM     62  C   UNL A   1      40.343  34.402  37.832  1.00  0.00     0.040 A 
ATOM     63  F   UNL A   1      41.628  34.206  35.874  1.00  0.00    -0.206 F 
ATOM     64  C   UNL A   1      39.303  33.956  38.648  1.00  0.00     0.006 A 
ENDBRANCH  43  57
BRANCH  44  65
ATOM     65  C   UNL A   1      41.028  27.215  28.045  1.00  0.00     0.057 A 
ATOM     66  C   UNL A   1      41.815  27.564  26.942  1.00  0.00     0.134 A 
ATOM     67  C   UNL A   1      40.327  26.003  27.977  1.00  0.00     0.134 A 
ATOM     68  F   UNL A   1      42.483  28.727  26.930  1.00  0.00    -0.206 F 
ATOM     69  C   UNL A   1      41.902  26.740  25.818  1.00  0.00     0.040 A 
ATOM     70  C   UNL A   1      40.425  25.158  26.873  1.00  0.00     0.040 A 
ATOM     71  F   UNL A   1      39.539  25.620  28.993  1.00  0.00    -0.206 F 
ATOM     72  C   UNL A   1      41.213  25.528  25.786  1.00  0.00     0.006 A 
ENDBRANCH  44  65
BRANCH  56  73
ATOM     73  C   UNL A   1      44.657  27.776  33.955  1.00  0.00     0.057 A 
ATOM     74  C   UNL A   1      44.683  26.498  34.526  1.00  0.00     0.134 A 
ATOM     75  C   UNL A   1      45.879  28.445  33.811  1.00  0.00     0.134 A 
ATOM     76  F   UNL A   1      43.543  25.811  34.705  1.00  0.00    -0.206 F 
ATOM     77  C   UNL A   1      45.875  25.913  34.953  1.00  0.00     0.040 A 
ATOM     78  C   UNL A   1      47.082  27.861  34.213  1.00  0.00     0.040 A 
ATOM     79  F   UNL A   1      45.925  29.670  33.266  1.00  0.00    -0.206 F 
ATOM     80  C   UNL A   1      47.080  26.592  34.790  1.00  0.00     0.006 A 
ENDBRANCH  56  73
ENDBRANCH  30  31
ENDBRANCH  23  25
ENDBRANCH  22  23
ENDBRANCH  21  22
ENDBRANCH   1  21
TORSDOF 14
ENDMDL
