MODEL 1
REMARK VINA RESULT:     -11.3      0.000      0.000
REMARK SMILES CCC(CC)(NC(=O)NC[C@H](C)[NH+]1CCCCC1)C(=O)OCCOC(=O)c1ccc(-c2c3nc(c(-c4c(F)cccc4F)c4ccc([nH]4)c(-c4c(F)cccc4F)c4nc(c(-c5c(F)cccc5F)c5ccc2[nH]5)C=C4)C=C3)cc1
REMARK SMILES IDX 22 1 21 2 19 3 20 4 3 5 2 6 1 7 4 8 5 9 6 10 7 11 8 13 9 14
REMARK SMILES IDX 10 16 11 17 12 18 13 19 14 20 18 21 15 23 17 24 16 25 23 26
REMARK SMILES IDX 24 27 25 28 26 29 27 30 28 31 80 32 29 33 79 34 30 35 31 36
REMARK SMILES IDX 32 37 73 38 33 39 78 40 72 41 74 42 34 43 77 44 71 45 70 46
REMARK SMILES IDX 35 48 61 49 44 50 60 51 45 52 48 53 59 54 75 55 46 56 47 57
REMARK SMILES IDX 58 59 76 60 49 61 36 62 37 63 42 64 38 65 39 66 41 67 43 68
REMARK SMILES IDX 40 69 62 70 63 71 68 72 64 73 65 74 67 75 69 76 66 77 50 78
REMARK SMILES IDX 51 79 56 80 52 81 53 82 55 83 57 84 54 85
REMARK H PARENT 6 12 9 15 13 22 74 47 48 58
REMARK Flexibility Score: inf
ROOT
ATOM      1  C   UNL A   1      35.114  21.286  24.614  1.00  0.00     0.274 C 
ENDROOT
BRANCH   1   2
ATOM      2  O   UNL A   1      34.712  22.344  23.717  1.00  0.00    -0.460 OA
BRANCH   2   3
ATOM      3  C   UNL A   1      33.377  22.483  23.467  1.00  0.00     0.332 C 
ATOM      4  O   UNL A   1      32.600  21.536  23.429  1.00  0.00    -0.249 OA
BRANCH   3   5
ATOM      5  C   UNL A   1      32.970  23.990  23.236  1.00  0.00     0.139 C 
BRANCH   5   6
ATOM      6  C   UNL A   1      34.180  24.862  23.730  1.00  0.00     0.037 C 
ATOM      7  C   UNL A   1      34.198  25.226  25.212  1.00  0.00     0.007 C 
ENDBRANCH   5   6
BRANCH   5   8
ATOM      8  C   UNL A   1      31.697  24.344  24.060  1.00  0.00     0.037 C 
ATOM      9  C   UNL A   1      30.374  24.197  23.307  1.00  0.00     0.007 C 
ENDBRANCH   5   8
BRANCH   5  10
ATOM     10  N   UNL A   1      32.751  24.352  21.791  1.00  0.00    -0.322 N 
ATOM     11  C   UNL A   1      32.870  25.451  21.022  1.00  0.00     0.315 C 
ATOM     12  H   UNL A   1      32.436  23.578  21.268  1.00  0.00     0.166 HD
ATOM     13  O   UNL A   1      32.973  25.285  19.804  1.00  0.00    -0.249 OA
ATOM     14  N   UNL A   1      32.895  26.715  21.489  1.00  0.00    -0.332 N 
ATOM     15  H   UNL A   1      33.386  27.374  20.946  1.00  0.00     0.165 HD
BRANCH  14  16
ATOM     16  C   UNL A   1      32.283  27.205  22.691  1.00  0.00     0.182 C 
BRANCH  16  17
ATOM     17  C   UNL A   1      32.700  28.529  23.348  1.00  0.00     0.200 C 
ATOM     18  C   UNL A   1      34.108  28.919  22.891  1.00  0.00     0.077 C 
BRANCH  17  19
ATOM     19  N   UNL A   1      32.534  28.258  24.804  1.00  0.00    -0.331 N 
ATOM     20  C   UNL A   1      33.075  29.248  25.735  1.00  0.00     0.262 C 
ATOM     21  C   UNL A   1      31.252  27.675  25.187  1.00  0.00     0.262 C 
ATOM     22  H   UNL A   1      33.195  27.493  24.936  1.00  0.00     0.348 HD
ATOM     23  C   UNL A   1      33.069  28.774  27.191  1.00  0.00     0.062 C 
ATOM     24  C   UNL A   1      31.245  27.178  26.640  1.00  0.00     0.062 C 
ATOM     25  C   UNL A   1      31.697  28.265  27.605  1.00  0.00     0.012 C 
ENDBRANCH  17  19
ENDBRANCH  16  17
ENDBRANCH  14  16
ENDBRANCH   5  10
ENDBRANCH   3   5
ENDBRANCH   2   3
ENDBRANCH   1   2
BRANCH   1  26
ATOM     26  C   UNL A   1      35.862  21.888  25.820  1.00  0.00     0.275 C 
BRANCH  26  27
ATOM     27  O   UNL A   1      37.075  22.509  25.370  1.00  0.00    -0.458 OA
BRANCH  27  28
ATOM     28  C   UNL A   1      38.191  21.832  25.742  1.00  0.00     0.338 C 
ATOM     29  O   UNL A   1      38.593  20.763  25.332  1.00  0.00    -0.246 OA
BRANCH  28  30
ATOM     30  C   UNL A   1      39.022  22.844  26.403  1.00  0.00     0.060 A 
ATOM     31  C   UNL A   1      38.654  24.179  26.209  1.00  0.00     0.016 A 
ATOM     32  C   UNL A   1      40.029  22.499  27.290  1.00  0.00     0.016 A 
ATOM     33  C   UNL A   1      39.280  25.202  26.893  1.00  0.00     0.010 A 
ATOM     34  C   UNL A   1      40.684  23.519  27.964  1.00  0.00     0.010 A 
ATOM     35  C   UNL A   1      40.323  24.868  27.746  1.00  0.00    -0.014 A 
BRANCH  35  36
ATOM     36  C   UNL A   1      41.228  25.909  28.248  1.00  0.00     0.031 A 
ATOM     37  C   UNL A   1      40.589  26.999  29.042  1.00  0.00     0.074 A 
ATOM     38  C   UNL A   1      42.527  25.910  27.922  1.00  0.00     0.049 A 
ATOM     39  N   UNL A   1      40.983  28.223  29.235  1.00  0.00    -0.248 NA
ATOM     40  C   UNL A   1      39.286  26.669  29.645  1.00  0.00     0.031 C 
ATOM     41  C   UNL A   1      43.235  24.824  27.247  1.00  0.00     0.029 A 
ATOM     42  N   UNL A   1      43.462  26.898  28.066  1.00  0.00    -0.354 N 
ATOM     43  C   UNL A   1      39.936  28.837  29.909  1.00  0.00     0.074 A 
ATOM     44  C   UNL A   1      38.897  27.851  30.092  1.00  0.00     0.031 C 
ATOM     45  C   UNL A   1      44.488  25.229  26.978  1.00  0.00     0.029 A 
ATOM     46  C   UNL A   1      44.624  26.624  27.388  1.00  0.00     0.049 A 
ATOM     47  H   UNL A   1      43.319  27.714  28.597  1.00  0.00     0.167 HD
ATOM     48  C   UNL A   1      39.861  30.128  30.301  1.00  0.00     0.037 A 
ATOM     49  C   UNL A   1      45.635  27.449  27.060  1.00  0.00     0.037 A 
ATOM     50  C   UNL A   1      40.943  31.053  30.095  1.00  0.00     0.049 A 
ATOM     51  C   UNL A   1      45.530  28.890  27.477  1.00  0.00     0.074 A 
ATOM     52  C   UNL A   1      41.031  32.381  30.460  1.00  0.00     0.029 A 
ATOM     53  N   UNL A   1      42.135  30.725  29.456  1.00  0.00    -0.354 N 
ATOM     54  N   UNL A   1      44.538  29.504  28.083  1.00  0.00    -0.248 NA
ATOM     55  C   UNL A   1      46.671  29.756  27.163  1.00  0.00     0.031 C 
ATOM     56  C   UNL A   1      42.256  32.870  29.993  1.00  0.00     0.029 A 
ATOM     57  C   UNL A   1      42.961  31.831  29.398  1.00  0.00     0.049 A 
ATOM     58  H   UNL A   1      42.356  29.835  29.099  1.00  0.00     0.167 HD
ATOM     59  C   UNL A   1      44.943  30.820  28.250  1.00  0.00     0.074 A 
ATOM     60  C   UNL A   1      46.275  30.912  27.679  1.00  0.00     0.031 C 
ATOM     61  C   UNL A   1      44.287  31.860  28.826  1.00  0.00     0.037 A 
BRANCH  48  62
ATOM     62  C   UNL A   1      38.564  30.593  30.897  1.00  0.00     0.057 A 
ATOM     63  C   UNL A   1      38.282  30.495  32.267  1.00  0.00     0.134 A 
ATOM     64  C   UNL A   1      37.550  31.096  30.071  1.00  0.00     0.134 A 
ATOM     65  F   UNL A   1      39.196  29.999  33.116  1.00  0.00    -0.206 F 
ATOM     66  C   UNL A   1      37.030  30.833  32.784  1.00  0.00     0.040 A 
ATOM     67  C   UNL A   1      36.306  31.472  30.580  1.00  0.00     0.040 A 
ATOM     68  F   UNL A   1      37.743  31.214  28.748  1.00  0.00    -0.206 F 
ATOM     69  C   UNL A   1      36.037  31.327  31.940  1.00  0.00     0.006 A 
ENDBRANCH  48  62
BRANCH  49  70
ATOM     70  C   UNL A   1      46.775  26.928  26.268  1.00  0.00     0.057 A 
ATOM     71  C   UNL A   1      46.823  27.091  24.880  1.00  0.00     0.134 A 
ATOM     72  C   UNL A   1      47.880  26.323  26.882  1.00  0.00     0.134 A 
ATOM     73  F   UNL A   1      45.792  27.651  24.231  1.00  0.00    -0.206 F 
ATOM     74  C   UNL A   1      47.927  26.676  24.132  1.00  0.00     0.040 A 
ATOM     75  C   UNL A   1      49.001  25.926  26.150  1.00  0.00     0.040 A 
ATOM     76  F   UNL A   1      47.905  26.148  28.213  1.00  0.00    -0.206 F 
ATOM     77  C   UNL A   1      49.025  26.102  24.769  1.00  0.00     0.006 A 
ENDBRANCH  49  70
BRANCH  61  78
ATOM     78  C   UNL A   1      45.024  33.161  28.919  1.00  0.00     0.057 A 
ATOM     79  C   UNL A   1      45.893  33.448  29.976  1.00  0.00     0.134 A 
ATOM     80  C   UNL A   1      44.923  34.098  27.881  1.00  0.00     0.134 A 
ATOM     81  F   UNL A   1      46.022  32.594  31.003  1.00  0.00    -0.206 F 
ATOM     82  C   UNL A   1      46.631  34.632  30.004  1.00  0.00     0.040 A 
ATOM     83  C   UNL A   1      45.677  35.269  27.884  1.00  0.00     0.040 A 
ATOM     84  F   UNL A   1      44.113  33.870  26.835  1.00  0.00    -0.206 F 
ATOM     85  C   UNL A   1      46.532  35.540  28.949  1.00  0.00     0.006 A 
ENDBRANCH  61  78
ENDBRANCH  35  36
ENDBRANCH  28  30
ENDBRANCH  27  28
ENDBRANCH  26  27
ENDBRANCH   1  26
TORSDOF 17
ENDMDL
MODEL 2
REMARK VINA RESULT:     -11.0      4.168      8.851
REMARK SMILES CCC(CC)(NC(=O)NC[C@H](C)[NH+]1CCCCC1)C(=O)OCCOC(=O)c1ccc(-c2c3nc(c(-c4c(F)cccc4F)c4ccc([nH]4)c(-c4c(F)cccc4F)c4nc(c(-c5c(F)cccc5F)c5ccc2[nH]5)C=C4)C=C3)cc1
REMARK SMILES IDX 22 1 21 2 19 3 20 4 3 5 2 6 1 7 4 8 5 9 6 10 7 11 8 13 9 14
REMARK SMILES IDX 10 16 11 17 12 18 13 19 14 20 18 21 15 23 17 24 16 25 23 26
REMARK SMILES IDX 24 27 25 28 26 29 27 30 28 31 80 32 29 33 79 34 30 35 31 36
REMARK SMILES IDX 32 37 73 38 33 39 78 40 72 41 74 42 34 43 77 44 71 45 70 46
REMARK SMILES IDX 35 48 61 49 44 50 60 51 45 52 48 53 59 54 75 55 46 56 47 57
REMARK SMILES IDX 58 59 76 60 49 61 36 62 37 63 42 64 38 65 39 66 41 67 43 68
REMARK SMILES IDX 40 69 62 70 63 71 68 72 64 73 65 74 67 75 69 76 66 77 50 78
REMARK SMILES IDX 51 79 56 80 52 81 53 82 55 83 57 84 54 85
REMARK H PARENT 6 12 9 15 13 22 74 47 48 58
REMARK Flexibility Score: inf
ROOT
ATOM      1  C   UNL A   1      32.578  28.699  25.178  1.00  0.00     0.274 C 
ENDROOT
BRANCH   1   2
ATOM      2  O   UNL A   1      31.394  27.878  25.279  1.00  0.00    -0.460 OA
BRANCH   2   3
ATOM      3  C   UNL A   1      31.312  27.020  26.338  1.00  0.00     0.332 C 
ATOM      4  O   UNL A   1      31.199  27.397  27.499  1.00  0.00    -0.249 OA
BRANCH   3   5
ATOM      5  C   UNL A   1      31.380  25.510  25.885  1.00  0.00     0.139 C 
BRANCH   5   6
ATOM      6  C   UNL A   1      32.793  24.976  26.316  1.00  0.00     0.037 C 
ATOM      7  C   UNL A   1      33.967  25.347  25.415  1.00  0.00     0.007 C 
ENDBRANCH   5   6
BRANCH   5   8
ATOM      8  C   UNL A   1      31.225  25.396  24.340  1.00  0.00     0.037 C 
ATOM      9  C   UNL A   1      29.800  25.576  23.815  1.00  0.00     0.007 C 
ENDBRANCH   5   8
BRANCH   5  10
ATOM     10  N   UNL A   1      30.368  24.622  26.559  1.00  0.00    -0.322 N 
ATOM     11  C   UNL A   1      30.232  23.308  26.821  1.00  0.00     0.315 C 
ATOM     12  H   UNL A   1      29.602  25.139  26.899  1.00  0.00     0.166 HD
ATOM     13  O   UNL A   1      29.461  22.985  27.729  1.00  0.00    -0.249 OA
ATOM     14  N   UNL A   1      30.883  22.323  26.170  1.00  0.00    -0.332 N 
ATOM     15  H   UNL A   1      31.043  21.494  26.676  1.00  0.00     0.165 HD
BRANCH  14  16
ATOM     16  C   UNL A   1      31.366  22.353  24.818  1.00  0.00     0.182 C 
BRANCH  16  17
ATOM     17  C   UNL A   1      32.755  21.827  24.428  1.00  0.00     0.200 C 
ATOM     18  C   UNL A   1      33.227  22.503  23.138  1.00  0.00     0.077 C 
BRANCH  17  19
ATOM     19  N   UNL A   1      32.557  20.351  24.362  1.00  0.00    -0.331 N 
ATOM     20  C   UNL A   1      32.568  19.733  23.036  1.00  0.00     0.262 C 
ATOM     21  C   UNL A   1      33.219  19.586  25.414  1.00  0.00     0.262 C 
ATOM     22  H   UNL A   1      31.568  20.277  24.597  1.00  0.00     0.348 HD
ATOM     23  C   UNL A   1      32.125  18.267  23.050  1.00  0.00     0.062 C 
ATOM     24  C   UNL A   1      32.764  18.120  25.448  1.00  0.00     0.062 C 
ATOM     25  C   UNL A   1      32.899  17.461  24.082  1.00  0.00     0.012 C 
ENDBRANCH  17  19
ENDBRANCH  16  17
ENDBRANCH  14  16
ENDBRANCH   5  10
ENDBRANCH   3   5
ENDBRANCH   2   3
ENDBRANCH   1   2
BRANCH   1  26
ATOM     26  C   UNL A   1      32.322  30.060  25.855  1.00  0.00     0.275 C 
BRANCH  26  27
ATOM     27  O   UNL A   1      33.092  30.146  27.063  1.00  0.00    -0.458 OA
BRANCH  27  28
ATOM     28  C   UNL A   1      33.475  31.413  27.362  1.00  0.00     0.338 C 
ATOM     29  O   UNL A   1      32.781  32.401  27.477  1.00  0.00    -0.246 OA
BRANCH  28  30
ATOM     30  C   UNL A   1      34.814  31.256  27.939  1.00  0.00     0.060 A 
ATOM     31  C   UNL A   1      35.181  29.964  28.328  1.00  0.00     0.016 A 
ATOM     32  C   UNL A   1      35.726  32.299  27.967  1.00  0.00     0.016 A 
ATOM     33  C   UNL A   1      36.462  29.679  28.755  1.00  0.00     0.010 A 
ATOM     34  C   UNL A   1      37.011  32.031  28.419  1.00  0.00     0.010 A 
ATOM     35  C   UNL A   1      37.368  30.729  28.832  1.00  0.00    -0.014 A 
BRANCH  35  36
ATOM     36  C   UNL A   1      38.627  30.564  29.568  1.00  0.00     0.031 A 
ATOM     37  C   UNL A   1      39.623  29.637  28.956  1.00  0.00     0.074 A 
ATOM     38  C   UNL A   1      38.810  31.146  30.760  1.00  0.00     0.049 A 
ATOM     39  N   UNL A   1      40.577  28.956  29.519  1.00  0.00    -0.248 NA
ATOM     40  C   UNL A   1      39.468  29.401  27.509  1.00  0.00     0.031 C 
ATOM     41  C   UNL A   1      37.931  32.146  31.363  1.00  0.00     0.029 A 
ATOM     42  N   UNL A   1      39.776  30.920  31.702  1.00  0.00    -0.354 N 
ATOM     43  C   UNL A   1      41.082  28.143  28.513  1.00  0.00     0.074 A 
ATOM     44  C   UNL A   1      40.333  28.419  27.310  1.00  0.00     0.031 C 
ATOM     45  C   UNL A   1      38.365  32.407  32.607  1.00  0.00     0.029 A 
ATOM     46  C   UNL A   1      39.493  31.527  32.901  1.00  0.00     0.049 A 
ATOM     47  H   UNL A   1      40.585  30.383  31.539  1.00  0.00     0.167 HD
ATOM     48  C   UNL A   1      42.068  27.226  28.621  1.00  0.00     0.037 A 
ATOM     49  C   UNL A   1      40.033  31.313  34.114  1.00  0.00     0.037 A 
ATOM     50  C   UNL A   1      42.781  27.012  29.852  1.00  0.00     0.049 A 
ATOM     51  C   UNL A   1      41.112  30.272  34.229  1.00  0.00     0.074 A 
ATOM     52  C   UNL A   1      43.821  26.144  30.114  1.00  0.00     0.029 A 
ATOM     53  N   UNL A   1      42.508  27.690  31.036  1.00  0.00    -0.354 N 
ATOM     54  N   UNL A   1      41.584  29.466  33.304  1.00  0.00    -0.248 NA
ATOM     55  C   UNL A   1      41.729  30.100  35.549  1.00  0.00     0.031 C 
ATOM     56  C   UNL A   1      44.142  26.260  31.471  1.00  0.00     0.029 A 
ATOM     57  C   UNL A   1      43.348  27.248  32.040  1.00  0.00     0.049 A 
ATOM     58  H   UNL A   1      41.818  28.383  31.142  1.00  0.00     0.167 HD
ATOM     59  C   UNL A   1      42.572  28.710  33.918  1.00  0.00     0.074 A 
ATOM     60  C   UNL A   1      42.629  29.158  35.299  1.00  0.00     0.031 C 
ATOM     61  C   UNL A   1      43.367  27.741  33.397  1.00  0.00     0.037 A 
BRANCH  48  62
ATOM     62  C   UNL A   1      42.349  26.371  27.420  1.00  0.00     0.057 A 
ATOM     63  C   UNL A   1      41.761  25.112  27.232  1.00  0.00     0.134 A 
ATOM     64  C   UNL A   1      43.277  26.792  26.458  1.00  0.00     0.134 A 
ATOM     65  F   UNL A   1      40.882  24.632  28.125  1.00  0.00    -0.206 F 
ATOM     66  C   UNL A   1      42.118  24.288  26.162  1.00  0.00     0.040 A 
ATOM     67  C   UNL A   1      43.616  25.993  25.364  1.00  0.00     0.040 A 
ATOM     68  F   UNL A   1      43.887  27.982  26.572  1.00  0.00    -0.206 F 
ATOM     69  C   UNL A   1      43.046  24.729  25.222  1.00  0.00     0.006 A 
ENDBRANCH  48  62
BRANCH  49  70
ATOM     70  C   UNL A   1      39.520  32.065  35.285  1.00  0.00     0.057 A 
ATOM     71  C   UNL A   1      39.974  33.356  35.569  1.00  0.00     0.134 A 
ATOM     72  C   UNL A   1      38.510  31.545  36.105  1.00  0.00     0.134 A 
ATOM     73  F   UNL A   1      40.949  33.906  34.828  1.00  0.00    -0.206 F 
ATOM     74  C   UNL A   1      39.442  34.105  36.620  1.00  0.00     0.040 A 
ATOM     75  C   UNL A   1      37.951  32.292  37.145  1.00  0.00     0.040 A 
ATOM     76  F   UNL A   1      38.019  30.316  35.880  1.00  0.00    -0.206 F 
ATOM     77  C   UNL A   1      38.420  33.577  37.405  1.00  0.00     0.006 A 
ENDBRANCH  49  70
BRANCH  61  78
ATOM     78  C   UNL A   1      44.401  27.149  34.306  1.00  0.00     0.057 A 
ATOM     79  C   UNL A   1      44.169  25.976  35.030  1.00  0.00     0.134 A 
ATOM     80  C   UNL A   1      45.677  27.724  34.383  1.00  0.00     0.134 A 
ATOM     81  F   UNL A   1      42.963  25.387  35.006  1.00  0.00    -0.206 F 
ATOM     82  C   UNL A   1      45.170  25.398  35.811  1.00  0.00     0.040 A 
ATOM     83  C   UNL A   1      46.693  27.139  35.135  1.00  0.00     0.040 A 
ATOM     84  F   UNL A   1      45.961  28.844  33.700  1.00  0.00    -0.206 F 
ATOM     85  C   UNL A   1      46.440  25.974  35.854  1.00  0.00     0.006 A 
ENDBRANCH  61  78
ENDBRANCH  35  36
ENDBRANCH  28  30
ENDBRANCH  27  28
ENDBRANCH  26  27
ENDBRANCH   1  26
TORSDOF 17
ENDMDL
MODEL 3
REMARK VINA RESULT:     -10.9      3.977      8.580
REMARK SMILES CCC(CC)(NC(=O)NC[C@H](C)[NH+]1CCCCC1)C(=O)OCCOC(=O)c1ccc(-c2c3nc(c(-c4c(F)cccc4F)c4ccc([nH]4)c(-c4c(F)cccc4F)c4nc(c(-c5c(F)cccc5F)c5ccc2[nH]5)C=C4)C=C3)cc1
REMARK SMILES IDX 22 1 21 2 19 3 20 4 3 5 2 6 1 7 4 8 5 9 6 10 7 11 8 13 9 14
REMARK SMILES IDX 10 16 11 17 12 18 13 19 14 20 18 21 15 23 17 24 16 25 23 26
REMARK SMILES IDX 24 27 25 28 26 29 27 30 28 31 80 32 29 33 79 34 30 35 31 36
REMARK SMILES IDX 32 37 73 38 33 39 78 40 72 41 74 42 34 43 77 44 71 45 70 46
REMARK SMILES IDX 35 48 61 49 44 50 60 51 45 52 48 53 59 54 75 55 46 56 47 57
REMARK SMILES IDX 58 59 76 60 49 61 36 62 37 63 42 64 38 65 39 66 41 67 43 68
REMARK SMILES IDX 40 69 62 70 63 71 68 72 64 73 65 74 67 75 69 76 66 77 50 78
REMARK SMILES IDX 51 79 56 80 52 81 53 82 55 83 57 84 54 85
REMARK H PARENT 6 12 9 15 13 22 74 47 48 58
REMARK Flexibility Score: inf
ROOT
ATOM      1  C   UNL A   1      31.221  29.135  24.697  1.00  0.00     0.274 C 
ENDROOT
BRANCH   1   2
ATOM      2  O   UNL A   1      30.918  27.762  25.026  1.00  0.00    -0.460 OA
BRANCH   2   3
ATOM      3  C   UNL A   1      31.138  26.821  24.062  1.00  0.00     0.332 C 
ATOM      4  O   UNL A   1      31.052  27.058  22.862  1.00  0.00    -0.249 OA
BRANCH   3   5
ATOM      5  C   UNL A   1      31.511  25.417  24.677  1.00  0.00     0.139 C 
BRANCH   5   6
ATOM      6  C   UNL A   1      32.759  25.649  25.602  1.00  0.00     0.037 C 
ATOM      7  C   UNL A   1      34.058  26.049  24.907  1.00  0.00     0.007 C 
ENDBRANCH   5   6
BRANCH   5   8
ATOM      8  C   UNL A   1      31.874  24.406  23.550  1.00  0.00     0.037 C 
ATOM      9  C   UNL A   1      30.701  23.589  23.006  1.00  0.00     0.007 C 
ENDBRANCH   5   8
BRANCH   5  10
ATOM     10  N   UNL A   1      30.439  24.827  25.555  1.00  0.00    -0.322 N 
ATOM     11  C   UNL A   1      30.376  23.968  26.590  1.00  0.00     0.315 C 
ATOM     12  H   UNL A   1      29.545  25.159  25.306  1.00  0.00     0.166 HD
ATOM     13  O   UNL A   1      29.373  24.014  27.307  1.00  0.00    -0.249 OA
ATOM     14  N   UNL A   1      31.332  23.071  26.902  1.00  0.00    -0.332 N 
ATOM     15  H   UNL A   1      31.397  22.810  27.849  1.00  0.00     0.165 HD
BRANCH  14  16
ATOM     16  C   UNL A   1      32.265  22.453  26.002  1.00  0.00     0.182 C 
BRANCH  16  17
ATOM     17  C   UNL A   1      33.620  21.901  26.471  1.00  0.00     0.200 C 
ATOM     18  C   UNL A   1      33.839  22.237  27.948  1.00  0.00     0.077 C 
BRANCH  17  19
ATOM     19  N   UNL A   1      34.587  22.503  25.510  1.00  0.00    -0.331 N 
ATOM     20  C   UNL A   1      35.944  22.754  25.996  1.00  0.00     0.262 C 
ATOM     21  C   UNL A   1      34.494  22.008  24.140  1.00  0.00     0.262 C 
ATOM     22  H   UNL A   1      34.230  23.456  25.446  1.00  0.00     0.348 HD
ATOM     23  C   UNL A   1      36.789  23.582  25.024  1.00  0.00     0.062 C 
ATOM     24  C   UNL A   1      35.323  22.847  23.156  1.00  0.00     0.062 C 
ATOM     25  C   UNL A   1      36.764  22.993  23.622  1.00  0.00     0.012 C 
ENDBRANCH  17  19
ENDBRANCH  16  17
ENDBRANCH  14  16
ENDBRANCH   5  10
ENDBRANCH   3   5
ENDBRANCH   2   3
ENDBRANCH   1   2
BRANCH   1  26
ATOM     26  C   UNL A   1      32.731  29.388  24.880  1.00  0.00     0.275 C 
BRANCH  26  27
ATOM     27  O   UNL A   1      33.042  29.446  26.279  1.00  0.00    -0.458 OA
BRANCH  27  28
ATOM     28  C   UNL A   1      33.191  30.714  26.741  1.00  0.00     0.338 C 
ATOM     29  O   UNL A   1      32.358  31.593  26.804  1.00  0.00    -0.246 OA
BRANCH  28  30
ATOM     30  C   UNL A   1      34.420  30.662  27.540  1.00  0.00     0.060 A 
ATOM     31  C   UNL A   1      35.038  31.885  27.817  1.00  0.00     0.016 A 
ATOM     32  C   UNL A   1      34.870  29.485  28.115  1.00  0.00     0.016 A 
ATOM     33  C   UNL A   1      36.119  31.966  28.672  1.00  0.00     0.010 A 
ATOM     34  C   UNL A   1      35.972  29.548  28.956  1.00  0.00     0.010 A 
ATOM     35  C   UNL A   1      36.606  30.784  29.213  1.00  0.00    -0.014 A 
BRANCH  35  36
ATOM     36  C   UNL A   1      37.923  30.757  29.860  1.00  0.00     0.031 A 
ATOM     37  C   UNL A   1      38.968  29.939  29.177  1.00  0.00     0.074 A 
ATOM     38  C   UNL A   1      38.126  31.359  31.039  1.00  0.00     0.049 A 
ATOM     39  N   UNL A   1      40.026  29.366  29.670  1.00  0.00    -0.248 NA
ATOM     40  C   UNL A   1      38.740  29.683  27.744  1.00  0.00     0.031 C 
ATOM     41  C   UNL A   1      37.188  32.262  31.704  1.00  0.00     0.029 A 
ATOM     42  N   UNL A   1      39.173  31.241  31.911  1.00  0.00    -0.354 N 
ATOM     43  C   UNL A   1      40.544  28.608  28.629  1.00  0.00     0.074 A 
ATOM     44  C   UNL A   1      39.689  28.798  27.482  1.00  0.00     0.031 C 
ATOM     45  C   UNL A   1      37.677  32.572  32.917  1.00  0.00     0.029 A 
ATOM     46  C   UNL A   1      38.909  31.819  33.129  1.00  0.00     0.049 A 
ATOM     47  H   UNL A   1      40.020  30.794  31.691  1.00  0.00     0.167 HD
ATOM     48  C   UNL A   1      41.628  27.802  28.665  1.00  0.00     0.037 A 
ATOM     49  C   UNL A   1      39.552  31.669  34.301  1.00  0.00     0.037 A 
ATOM     50  C   UNL A   1      42.443  27.670  29.843  1.00  0.00     0.049 A 
ATOM     51  C   UNL A   1      40.742  30.749  34.338  1.00  0.00     0.074 A 
ATOM     52  C   UNL A   1      43.586  26.919  30.029  1.00  0.00     0.029 A 
ATOM     53  N   UNL A   1      42.182  28.319  31.046  1.00  0.00    -0.354 N 
ATOM     54  N   UNL A   1      41.231  29.994  33.379  1.00  0.00    -0.248 NA
ATOM     55  C   UNL A   1      41.463  30.648  35.611  1.00  0.00     0.031 C 
ATOM     56  C   UNL A   1      43.985  27.073  31.361  1.00  0.00     0.029 A 
ATOM     57  C   UNL A   1      43.131  27.973  31.988  1.00  0.00     0.049 A 
ATOM     58  H   UNL A   1      41.430  28.935  31.202  1.00  0.00     0.167 HD
ATOM     59  C   UNL A   1      42.335  29.351  33.921  1.00  0.00     0.074 A 
ATOM     60  C   UNL A   1      42.439  29.807  35.295  1.00  0.00     0.031 C 
ATOM     61  C   UNL A   1      43.191  28.470  33.342  1.00  0.00     0.037 A 
BRANCH  48  62
ATOM     62  C   UNL A   1      41.915  26.978  27.444  1.00  0.00     0.057 A 
ATOM     63  C   UNL A   1      41.455  25.662  27.293  1.00  0.00     0.134 A 
ATOM     64  C   UNL A   1      42.722  27.494  26.421  1.00  0.00     0.134 A 
ATOM     65  F   UNL A   1      40.699  25.093  28.245  1.00  0.00    -0.206 F 
ATOM     66  C   UNL A   1      41.824  24.877  26.199  1.00  0.00     0.040 A 
ATOM     67  C   UNL A   1      43.068  26.731  25.303  1.00  0.00     0.040 A 
ATOM     68  F   UNL A   1      43.205  28.743  26.496  1.00  0.00    -0.206 F 
ATOM     69  C   UNL A   1      42.631  25.413  25.197  1.00  0.00     0.006 A 
ENDBRANCH  48  62
BRANCH  49  70
ATOM     70  C   UNL A   1      39.043  32.365  35.508  1.00  0.00     0.057 A 
ATOM     71  C   UNL A   1      38.256  31.693  36.449  1.00  0.00     0.134 A 
ATOM     72  C   UNL A   1      39.392  33.692  35.791  1.00  0.00     0.134 A 
ATOM     73  F   UNL A   1      37.878  30.425  36.230  1.00  0.00    -0.206 F 
ATOM     74  C   UNL A   1      37.837  32.313  37.628  1.00  0.00     0.040 A 
ATOM     75  C   UNL A   1      39.000  34.316  36.978  1.00  0.00     0.040 A 
ATOM     76  F   UNL A   1      40.156  34.390  34.937  1.00  0.00    -0.206 F 
ATOM     77  C   UNL A   1      38.219  33.625  37.900  1.00  0.00     0.006 A 
ENDBRANCH  49  70
BRANCH  61  78
ATOM     78  C   UNL A   1      44.342  27.996  34.176  1.00  0.00     0.057 A 
ATOM     79  C   UNL A   1      44.281  26.816  34.923  1.00  0.00     0.134 A 
ATOM     80  C   UNL A   1      45.558  28.694  34.152  1.00  0.00     0.134 A 
ATOM     81  F   UNL A   1      43.141  26.111  34.992  1.00  0.00    -0.206 F 
ATOM     82  C   UNL A   1      45.390  26.349  35.630  1.00  0.00     0.040 A 
ATOM     83  C   UNL A   1      46.679  28.222  34.830  1.00  0.00     0.040 A 
ATOM     84  F   UNL A   1      45.679  29.827  33.443  1.00  0.00    -0.206 F 
ATOM     85  C   UNL A   1      46.596  27.048  35.574  1.00  0.00     0.006 A 
ENDBRANCH  61  78
ENDBRANCH  35  36
ENDBRANCH  28  30
ENDBRANCH  27  28
ENDBRANCH  26  27
ENDBRANCH   1  26
TORSDOF 17
ENDMDL
