MODEL 1
REMARK VINA RESULT:     -11.4      0.000      0.000
REMARK SMILES O=C(COc1nc(NCc2ccc(F)cc2)nc2c1CCC2)OCCOC(=O)c1ccc(-c2c3nc(c(-c4c(F)cccc4F)c4ccc([nH]4)c(-c4c(F)cccc4F)c4nc(c(-c5c(F)cccc5F)c5ccc2[nH]5)C=C4)C=C3)cc1
REMARK SMILES IDX 23 1 2 2 1 3 3 4 4 5 5 6 6 7 19 8 7 9 18 10 20 11 17 12
REMARK SMILES IDX 22 13 21 14 8 15 9 17 10 18 11 19 16 20 12 21 15 22 13 23
REMARK SMILES IDX 14 24 24 25 25 26 26 27 27 28 28 29 29 30 30 31 82 32 31 33
REMARK SMILES IDX 81 34 32 35 33 36 34 37 75 38 35 39 80 40 74 41 76 42 36 43
REMARK SMILES IDX 79 44 73 45 72 46 37 48 63 49 46 50 62 51 47 52 50 53 61 54
REMARK SMILES IDX 77 55 48 56 49 57 60 59 78 60 51 61 38 62 39 63 44 64 40 65
REMARK SMILES IDX 41 66 43 67 45 68 42 69 64 70 65 71 70 72 66 73 67 74 69 75
REMARK SMILES IDX 71 76 68 77 52 78 53 79 58 80 54 81 55 82 57 83 59 84 56 85
REMARK H PARENT 8 16 76 47 50 58
REMARK Flexibility Score: inf
ROOT
ATOM      1  O   UNL A   1      32.388  31.093  27.464  1.00  0.00    -0.460 OA
ENDROOT
BRANCH   1   2
ATOM      2  C   UNL A   1      33.377  30.428  26.816  1.00  0.00     0.344 C 
ATOM      3  O   UNL A   1      34.553  30.628  27.114  1.00  0.00    -0.248 OA
BRANCH   2   4
ATOM      4  C   UNL A   1      32.995  29.488  25.673  1.00  0.00     0.353 C 
BRANCH   4   5
ATOM      5  O   UNL A   1      33.657  28.238  25.583  1.00  0.00    -0.465 OA
BRANCH   5   6
ATOM      6  C   UNL A   1      33.171  27.556  24.499  1.00  0.00     0.222 A 
ATOM      7  N   UNL A   1      32.282  28.184  23.718  1.00  0.00    -0.177 NA
ATOM      8  C   UNL A   1      33.582  26.283  24.282  1.00  0.00     0.036 A 
ATOM      9  C   UNL A   1      31.761  27.488  22.696  1.00  0.00     0.226 A 
ATOM     10  C   UNL A   1      33.007  25.658  23.207  1.00  0.00     0.053 A 
ATOM     11  C   UNL A   1      34.449  25.377  25.073  1.00  0.00     0.043 C 
ATOM     12  N   UNL A   1      32.098  26.220  22.399  1.00  0.00    -0.218 NA
ATOM     13  C   UNL A   1      33.442  24.221  23.139  1.00  0.00     0.057 C 
ATOM     14  C   UNL A   1      34.673  24.242  24.063  1.00  0.00     0.011 C 
BRANCH   9  15
ATOM     15  N   UNL A   1      30.800  28.143  21.988  1.00  0.00    -0.350 N 
ATOM     16  H   UNL A   1      31.038  28.498  21.101  1.00  0.00     0.164 HD
BRANCH  15  17
ATOM     17  C   UNL A   1      29.463  28.348  22.461  1.00  0.00     0.152 C 
BRANCH  17  18
ATOM     18  C   UNL A   1      29.163  29.825  22.584  1.00  0.00    -0.029 A 
ATOM     19  C   UNL A   1      28.659  30.542  21.483  1.00  0.00     0.008 A 
ATOM     20  C   UNL A   1      29.433  30.513  23.777  1.00  0.00     0.008 A 
ATOM     21  C   UNL A   1      28.436  31.918  21.575  1.00  0.00     0.039 A 
ATOM     22  C   UNL A   1      29.211  31.890  23.865  1.00  0.00     0.039 A 
ATOM     23  C   UNL A   1      28.719  32.578  22.763  1.00  0.00     0.123 A 
ATOM     24  F   UNL A   1      28.521  33.901  22.846  1.00  0.00    -0.207 F 
ENDBRANCH  17  18
ENDBRANCH  15  17
ENDBRANCH   9  15
ENDBRANCH   5   6
ENDBRANCH   4   5
ENDBRANCH   2   4
ENDBRANCH   1   2
BRANCH   1  25
ATOM     25  C   UNL A   1      31.583  32.133  26.869  1.00  0.00     0.274 C 
BRANCH  25  26
ATOM     26  C   UNL A   1      32.309  33.481  26.914  1.00  0.00     0.275 C 
BRANCH  26  27
ATOM     27  O   UNL A   1      32.302  33.998  28.259  1.00  0.00    -0.458 OA
BRANCH  27  28
ATOM     28  C   UNL A   1      33.366  34.762  28.611  1.00  0.00     0.338 C 
ATOM     29  O   UNL A   1      33.377  35.965  28.797  1.00  0.00    -0.246 OA
BRANCH  28  30
ATOM     30  C   UNL A   1      34.500  33.867  28.942  1.00  0.00     0.060 A 
ATOM     31  C   UNL A   1      34.252  32.770  29.779  1.00  0.00     0.016 A 
ATOM     32  C   UNL A   1      35.780  34.073  28.417  1.00  0.00     0.016 A 
ATOM     33  C   UNL A   1      35.292  31.905  30.126  1.00  0.00     0.010 A 
ATOM     34  C   UNL A   1      36.824  33.213  28.776  1.00  0.00     0.010 A 
ATOM     35  C   UNL A   1      36.592  32.146  29.660  1.00  0.00    -0.014 A 
BRANCH  35  36
ATOM     36  C   UNL A   1      37.737  31.425  30.268  1.00  0.00     0.031 A 
ATOM     37  C   UNL A   1      38.091  31.736  31.697  1.00  0.00     0.074 A 
ATOM     38  C   UNL A   1      38.437  30.497  29.590  1.00  0.00     0.049 A 
ATOM     39  N   UNL A   1      39.051  31.250  32.441  1.00  0.00    -0.248 NA
ATOM     40  C   UNL A   1      37.243  32.730  32.379  1.00  0.00     0.031 C 
ATOM     41  C   UNL A   1      38.174  30.064  28.220  1.00  0.00     0.029 A 
ATOM     42  N   UNL A   1      39.520  29.747  29.979  1.00  0.00    -0.354 N 
ATOM     43  C   UNL A   1      38.905  31.857  33.682  1.00  0.00     0.074 A 
ATOM     44  C   UNL A   1      37.797  32.780  33.580  1.00  0.00     0.031 C 
ATOM     45  C   UNL A   1      39.073  29.122  27.881  1.00  0.00     0.029 A 
ATOM     46  C   UNL A   1      39.988  28.903  29.002  1.00  0.00     0.049 A 
ATOM     47  H   UNL A   1      39.924  29.809  30.875  1.00  0.00     0.167 HD
ATOM     48  C   UNL A   1      39.619  31.654  34.812  1.00  0.00     0.037 A 
ATOM     49  C   UNL A   1      41.039  28.058  29.013  1.00  0.00     0.037 A 
ATOM     50  C   UNL A   1      40.735  30.757  34.923  1.00  0.00     0.049 A 
ATOM     51  C   UNL A   1      41.892  27.940  30.250  1.00  0.00     0.074 A 
ATOM     52  C   UNL A   1      41.529  30.501  36.027  1.00  0.00     0.029 A 
ATOM     53  N   UNL A   1      41.221  29.975  33.888  1.00  0.00    -0.354 N 
ATOM     54  N   UNL A   1      41.741  28.512  31.420  1.00  0.00    -0.248 NA
ATOM     55  C   UNL A   1      43.070  27.060  30.164  1.00  0.00     0.031 C 
ATOM     56  C   UNL A   1      42.519  29.589  35.650  1.00  0.00     0.029 A 
ATOM     57  C   UNL A   1      42.318  29.252  34.321  1.00  0.00     0.049 A 
ATOM     58  H   UNL A   1      40.842  29.938  32.981  1.00  0.00     0.167 HD
ATOM     59  C   UNL A   1      42.784  28.044  32.212  1.00  0.00     0.074 A 
ATOM     60  C   UNL A   1      43.556  27.133  31.395  1.00  0.00     0.031 C 
ATOM     61  C   UNL A   1      43.076  28.345  33.500  1.00  0.00     0.037 A 
BRANCH  48  62
ATOM     62  C   UNL A   1      39.211  32.426  36.028  1.00  0.00     0.057 A 
ATOM     63  C   UNL A   1      38.324  31.888  36.968  1.00  0.00     0.134 A 
ATOM     64  C   UNL A   1      39.737  33.698  36.282  1.00  0.00     0.134 A 
ATOM     65  F   UNL A   1      37.773  30.681  36.769  1.00  0.00    -0.206 F 
ATOM     66  C   UNL A   1      37.967  32.592  38.117  1.00  0.00     0.040 A 
ATOM     67  C   UNL A   1      39.402  34.404  37.438  1.00  0.00     0.040 A 
ATOM     68  F   UNL A   1      40.590  34.267  35.417  1.00  0.00    -0.206 F 
ATOM     69  C   UNL A   1      38.514  33.852  38.359  1.00  0.00     0.006 A 
ENDBRANCH  48  62
BRANCH  49  70
ATOM     70  C   UNL A   1      41.366  27.250  27.811  1.00  0.00     0.057 A 
ATOM     71  C   UNL A   1      42.142  27.781  26.774  1.00  0.00     0.134 A 
ATOM     72  C   UNL A   1      40.862  25.955  27.643  1.00  0.00     0.134 A 
ATOM     73  F   UNL A   1      42.626  29.028  26.865  1.00  0.00    -0.206 F 
ATOM     74  C   UNL A   1      42.392  27.059  25.605  1.00  0.00     0.040 A 
ATOM     75  C   UNL A   1      41.120  25.215  26.487  1.00  0.00     0.040 A 
ATOM     76  F   UNL A   1      40.105  25.393  28.596  1.00  0.00    -0.206 F 
ATOM     77  C   UNL A   1      41.882  25.771  25.461  1.00  0.00     0.006 A 
ENDBRANCH  49  70
BRANCH  61  78
ATOM     78  C   UNL A   1      44.269  27.677  34.120  1.00  0.00     0.057 A 
ATOM     79  C   UNL A   1      44.173  26.417  34.722  1.00  0.00     0.134 A 
ATOM     80  C   UNL A   1      45.536  28.269  34.051  1.00  0.00     0.134 A 
ATOM     81  F   UNL A   1      42.985  25.802  34.827  1.00  0.00    -0.206 F 
ATOM     82  C   UNL A   1      45.295  25.772  35.242  1.00  0.00     0.040 A 
ATOM     83  C   UNL A   1      46.669  27.624  34.548  1.00  0.00     0.040 A 
ATOM     84  F   UNL A   1      45.697  29.471  33.478  1.00  0.00    -0.206 F 
ATOM     85  C   UNL A   1      46.550  26.373  35.149  1.00  0.00     0.006 A 
ENDBRANCH  61  78
ENDBRANCH  35  36
ENDBRANCH  28  30
ENDBRANCH  27  28
ENDBRANCH  26  27
ENDBRANCH  25  26
ENDBRANCH   1  25
TORSDOF 16
ENDMDL
MODEL 2
REMARK VINA RESULT:     -11.3      5.130      9.302
REMARK SMILES O=C(COc1nc(NCc2ccc(F)cc2)nc2c1CCC2)OCCOC(=O)c1ccc(-c2c3nc(c(-c4c(F)cccc4F)c4ccc([nH]4)c(-c4c(F)cccc4F)c4nc(c(-c5c(F)cccc5F)c5ccc2[nH]5)C=C4)C=C3)cc1
REMARK SMILES IDX 23 1 2 2 1 3 3 4 4 5 5 6 6 7 19 8 7 9 18 10 20 11 17 12
REMARK SMILES IDX 22 13 21 14 8 15 9 17 10 18 11 19 16 20 12 21 15 22 13 23
REMARK SMILES IDX 14 24 24 25 25 26 26 27 27 28 28 29 29 30 30 31 82 32 31 33
REMARK SMILES IDX 81 34 32 35 33 36 34 37 75 38 35 39 80 40 74 41 76 42 36 43
REMARK SMILES IDX 79 44 73 45 72 46 37 48 63 49 46 50 62 51 47 52 50 53 61 54
REMARK SMILES IDX 77 55 48 56 49 57 60 59 78 60 51 61 38 62 39 63 44 64 40 65
REMARK SMILES IDX 41 66 43 67 45 68 42 69 64 70 65 71 70 72 66 73 67 74 69 75
REMARK SMILES IDX 71 76 68 77 52 78 53 79 58 80 54 81 55 82 57 83 59 84 56 85
REMARK H PARENT 8 16 76 47 50 58
REMARK Flexibility Score: inf
ROOT
ATOM      1  O   UNL A   1      37.442  21.652  24.028  1.00  0.00    -0.460 OA
ENDROOT
BRANCH   1   2
ATOM      2  C   UNL A   1      36.712  22.793  23.965  1.00  0.00     0.344 C 
ATOM      3  O   UNL A   1      36.437  23.290  22.874  1.00  0.00    -0.248 OA
BRANCH   2   4
ATOM      4  C   UNL A   1      36.308  23.473  25.273  1.00  0.00     0.353 C 
BRANCH   4   5
ATOM      5  O   UNL A   1      35.365  24.529  25.216  1.00  0.00    -0.465 OA
BRANCH   5   6
ATOM      6  C   UNL A   1      34.139  24.050  25.592  1.00  0.00     0.222 A 
ATOM      7  N   UNL A   1      34.008  22.724  25.738  1.00  0.00    -0.177 NA
ATOM      8  C   UNL A   1      33.115  24.921  25.771  1.00  0.00     0.036 A 
ATOM      9  C   UNL A   1      32.788  22.256  26.043  1.00  0.00     0.226 A 
ATOM     10  C   UNL A   1      31.912  24.352  26.095  1.00  0.00     0.053 A 
ATOM     11  C   UNL A   1      33.015  26.384  25.550  1.00  0.00     0.043 C 
ATOM     12  N   UNL A   1      31.709  23.035  26.235  1.00  0.00    -0.218 NA
ATOM     13  C   UNL A   1      30.833  25.396  26.144  1.00  0.00     0.057 C 
ATOM     14  C   UNL A   1      31.672  26.684  26.232  1.00  0.00     0.011 C 
BRANCH   9  15
ATOM     15  N   UNL A   1      32.692  20.899  26.093  1.00  0.00    -0.350 N 
ATOM     16  H   UNL A   1      32.918  20.448  26.938  1.00  0.00     0.164 HD
BRANCH  15  17
ATOM     17  C   UNL A   1      32.283  20.087  24.985  1.00  0.00     0.152 C 
BRANCH  17  18
ATOM     18  C   UNL A   1      33.021  18.768  24.991  1.00  0.00    -0.029 A 
ATOM     19  C   UNL A   1      32.502  17.666  25.695  1.00  0.00     0.008 A 
ATOM     20  C   UNL A   1      34.260  18.636  24.343  1.00  0.00     0.008 A 
ATOM     21  C   UNL A   1      33.208  16.463  25.752  1.00  0.00     0.039 A 
ATOM     22  C   UNL A   1      34.966  17.433  24.404  1.00  0.00     0.039 A 
ATOM     23  C   UNL A   1      34.435  16.360  25.111  1.00  0.00     0.123 A 
ATOM     24  F   UNL A   1      35.122  15.211  25.179  1.00  0.00    -0.207 F 
ENDBRANCH  17  18
ENDBRANCH  15  17
ENDBRANCH   9  15
ENDBRANCH   5   6
ENDBRANCH   4   5
ENDBRANCH   2   4
ENDBRANCH   1   2
BRANCH   1  25
ATOM     25  C   UNL A   1      37.192  20.578  24.959  1.00  0.00     0.274 C 
BRANCH  25  26
ATOM     26  C   UNL A   1      38.391  19.627  25.033  1.00  0.00     0.275 C 
BRANCH  26  27
ATOM     27  O   UNL A   1      39.071  19.791  26.292  1.00  0.00    -0.458 OA
BRANCH  27  28
ATOM     28  C   UNL A   1      40.423  19.893  26.232  1.00  0.00     0.338 C 
ATOM     29  O   UNL A   1      41.198  19.090  25.747  1.00  0.00    -0.246 OA
BRANCH  28  30
ATOM     30  C   UNL A   1      40.814  21.253  26.672  1.00  0.00     0.060 A 
ATOM     31  C   UNL A   1      40.169  22.348  26.081  1.00  0.00     0.016 A 
ATOM     32  C   UNL A   1      41.771  21.457  27.671  1.00  0.00     0.016 A 
ATOM     33  C   UNL A   1      40.511  23.649  26.457  1.00  0.00     0.010 A 
ATOM     34  C   UNL A   1      42.123  22.761  28.038  1.00  0.00     0.010 A 
ATOM     35  C   UNL A   1      41.520  23.863  27.407  1.00  0.00    -0.014 A 
BRANCH  35  36
ATOM     36  C   UNL A   1      42.095  25.219  27.578  1.00  0.00     0.031 A 
ATOM     37  C   UNL A   1      41.279  26.246  28.316  1.00  0.00     0.074 A 
ATOM     38  C   UNL A   1      43.319  25.538  27.119  1.00  0.00     0.049 A 
ATOM     39  N   UNL A   1      41.557  27.496  28.582  1.00  0.00    -0.248 NA
ATOM     40  C   UNL A   1      39.971  25.798  28.826  1.00  0.00     0.031 C 
ATOM     41  C   UNL A   1      44.233  24.632  26.431  1.00  0.00     0.029 A 
ATOM     42  N   UNL A   1      44.001  26.730  27.173  1.00  0.00    -0.354 N 
ATOM     43  C   UNL A   1      40.476  27.974  29.310  1.00  0.00     0.074 A 
ATOM     44  C   UNL A   1      39.515  26.897  29.406  1.00  0.00     0.031 C 
ATOM     45  C   UNL A   1      45.361  25.301  26.125  1.00  0.00     0.029 A 
ATOM     46  C   UNL A   1      45.237  26.688  26.576  1.00  0.00     0.049 A 
ATOM     47  H   UNL A   1      43.637  27.540  27.600  1.00  0.00     0.167 HD
ATOM     48  C   UNL A   1      40.301  29.195  29.865  1.00  0.00     0.037 A 
ATOM     49  C   UNL A   1      46.155  27.660  26.409  1.00  0.00     0.037 A 
ATOM     50  C   UNL A   1      41.236  30.280  29.760  1.00  0.00     0.049 A 
ATOM     51  C   UNL A   1      45.883  29.047  26.934  1.00  0.00     0.074 A 
ATOM     52  C   UNL A   1      41.132  31.559  30.278  1.00  0.00     0.029 A 
ATOM     53  N   UNL A   1      42.443  30.215  29.085  1.00  0.00    -0.354 N 
ATOM     54  N   UNL A   1      44.861  29.485  27.628  1.00  0.00    -0.248 NA
ATOM     55  C   UNL A   1      46.894  30.078  26.645  1.00  0.00     0.031 C 
ATOM     56  C   UNL A   1      42.263  32.281  29.885  1.00  0.00     0.029 A 
ATOM     57  C   UNL A   1      43.085  31.439  29.152  1.00  0.00     0.049 A 
ATOM     58  H   UNL A   1      42.792  29.418  28.626  1.00  0.00     0.167 HD
ATOM     59  C   UNL A   1      45.116  30.828  27.878  1.00  0.00     0.074 A 
ATOM     60  C   UNL A   1      46.394  31.134  27.271  1.00  0.00     0.031 C 
ATOM     61  C   UNL A   1      44.359  31.729  28.548  1.00  0.00     0.037 A 
BRANCH  48  62
ATOM     62  C   UNL A   1      39.039  29.421  30.638  1.00  0.00     0.057 A 
ATOM     63  C   UNL A   1      38.964  29.134  32.007  1.00  0.00     0.134 A 
ATOM     64  C   UNL A   1      37.907  29.967  30.023  1.00  0.00     0.134 A 
ATOM     65  F   UNL A   1      40.011  28.592  32.647  1.00  0.00    -0.206 F 
ATOM     66  C   UNL A   1      37.801  29.374  32.737  1.00  0.00     0.040 A 
ATOM     67  C   UNL A   1      36.744  30.229  30.747  1.00  0.00     0.040 A 
ATOM     68  F   UNL A   1      37.918  30.260  28.714  1.00  0.00    -0.206 F 
ATOM     69  C   UNL A   1      36.688  29.932  32.107  1.00  0.00     0.006 A 
ENDBRANCH  48  62
BRANCH  49  70
ATOM     70  C   UNL A   1      47.431  27.376  25.703  1.00  0.00     0.057 A 
ATOM     71  C   UNL A   1      47.543  27.547  24.318  1.00  0.00     0.134 A 
ATOM     72  C   UNL A   1      48.545  26.870  26.383  1.00  0.00     0.134 A 
ATOM     73  F   UNL A   1      46.498  27.998  23.608  1.00  0.00    -0.206 F 
ATOM     74  C   UNL A   1      48.710  27.210  23.632  1.00  0.00     0.040 A 
ATOM     75  C   UNL A   1      49.726  26.548  25.712  1.00  0.00     0.040 A 
ATOM     76  F   UNL A   1      48.499  26.676  27.709  1.00  0.00    -0.206 F 
ATOM     77  C   UNL A   1      49.807  26.710  24.330  1.00  0.00     0.006 A 
ENDBRANCH  49  70
BRANCH  61  78
ATOM     78  C   UNL A   1      44.888  33.127  28.680  1.00  0.00     0.057 A 
ATOM     79  C   UNL A   1      44.583  34.118  27.739  1.00  0.00     0.134 A 
ATOM     80  C   UNL A   1      45.648  33.503  29.795  1.00  0.00     0.134 A 
ATOM     81  F   UNL A   1      43.867  33.819  26.645  1.00  0.00    -0.206 F 
ATOM     82  C   UNL A   1      45.025  35.432  27.897  1.00  0.00     0.040 A 
ATOM     83  C   UNL A   1      46.077  34.818  29.975  1.00  0.00     0.040 A 
ATOM     84  F   UNL A   1      45.965  32.603  30.738  1.00  0.00    -0.206 F 
ATOM     85  C   UNL A   1      45.768  35.787  29.022  1.00  0.00     0.006 A 
ENDBRANCH  61  78
ENDBRANCH  35  36
ENDBRANCH  28  30
ENDBRANCH  27  28
ENDBRANCH  26  27
ENDBRANCH  25  26
ENDBRANCH   1  25
TORSDOF 16
ENDMDL
MODEL 3
REMARK VINA RESULT:     -11.2      4.020      8.270
REMARK SMILES O=C(COc1nc(NCc2ccc(F)cc2)nc2c1CCC2)OCCOC(=O)c1ccc(-c2c3nc(c(-c4c(F)cccc4F)c4ccc([nH]4)c(-c4c(F)cccc4F)c4nc(c(-c5c(F)cccc5F)c5ccc2[nH]5)C=C4)C=C3)cc1
REMARK SMILES IDX 23 1 2 2 1 3 3 4 4 5 5 6 6 7 19 8 7 9 18 10 20 11 17 12
REMARK SMILES IDX 22 13 21 14 8 15 9 17 10 18 11 19 16 20 12 21 15 22 13 23
REMARK SMILES IDX 14 24 24 25 25 26 26 27 27 28 28 29 29 30 30 31 82 32 31 33
REMARK SMILES IDX 81 34 32 35 33 36 34 37 75 38 35 39 80 40 74 41 76 42 36 43
REMARK SMILES IDX 79 44 73 45 72 46 37 48 63 49 46 50 62 51 47 52 50 53 61 54
REMARK SMILES IDX 77 55 48 56 49 57 60 59 78 60 51 61 38 62 39 63 44 64 40 65
REMARK SMILES IDX 41 66 43 67 45 68 42 69 64 70 65 71 70 72 66 73 67 74 69 75
REMARK SMILES IDX 71 76 68 77 52 78 53 79 58 80 54 81 55 82 57 83 59 84 56 85
REMARK H PARENT 8 16 76 47 50 58
REMARK Flexibility Score: inf
ROOT
ATOM      1  O   UNL A   1      38.392  22.413  26.273  1.00  0.00    -0.460 OA
ENDROOT
BRANCH   1   2
ATOM      2  C   UNL A   1      37.337  22.387  25.421  1.00  0.00     0.344 C 
ATOM      3  O   UNL A   1      37.290  23.169  24.473  1.00  0.00    -0.248 OA
BRANCH   2   4
ATOM      4  C   UNL A   1      36.190  21.419  25.710  1.00  0.00     0.353 C 
BRANCH   4   5
ATOM      5  O   UNL A   1      35.975  20.345  24.812  1.00  0.00    -0.465 OA
BRANCH   5   6
ATOM      6  C   UNL A   1      34.653  19.992  24.851  1.00  0.00     0.222 A 
ATOM      7  N   UNL A   1      33.766  20.940  25.182  1.00  0.00    -0.177 NA
ATOM      8  C   UNL A   1      34.304  18.709  24.586  1.00  0.00     0.036 A 
ATOM      9  C   UNL A   1      32.480  20.571  25.282  1.00  0.00     0.226 A 
ATOM     10  C   UNL A   1      32.968  18.430  24.699  1.00  0.00     0.053 A 
ATOM     11  C   UNL A   1      35.120  17.499  24.322  1.00  0.00     0.043 C 
ATOM     12  N   UNL A   1      32.033  19.325  25.045  1.00  0.00    -0.218 NA
ATOM     13  C   UNL A   1      32.718  16.961  24.505  1.00  0.00     0.057 C 
ATOM     14  C   UNL A   1      34.035  16.523  23.840  1.00  0.00     0.011 C 
BRANCH   9  15
ATOM     15  N   UNL A   1      31.635  21.552  25.705  1.00  0.00    -0.350 N 
ATOM     16  H   UNL A   1      30.671  21.356  25.729  1.00  0.00     0.164 HD
BRANCH  15  17
ATOM     17  C   UNL A   1      32.069  22.855  26.115  1.00  0.00     0.152 C 
BRANCH  17  18
ATOM     18  C   UNL A   1      31.267  23.927  25.412  1.00  0.00    -0.029 A 
ATOM     19  C   UNL A   1      30.916  23.780  24.058  1.00  0.00     0.008 A 
ATOM     20  C   UNL A   1      30.907  25.108  26.082  1.00  0.00     0.008 A 
ATOM     21  C   UNL A   1      30.225  24.793  23.389  1.00  0.00     0.039 A 
ATOM     22  C   UNL A   1      30.219  26.120  25.410  1.00  0.00     0.039 A 
ATOM     23  C   UNL A   1      29.888  25.954  24.070  1.00  0.00     0.123 A 
ATOM     24  F   UNL A   1      29.241  26.934  23.424  1.00  0.00    -0.207 F 
ENDBRANCH  17  18
ENDBRANCH  15  17
ENDBRANCH   9  15
ENDBRANCH   5   6
ENDBRANCH   4   5
ENDBRANCH   2   4
ENDBRANCH   1   2
BRANCH   1  25
ATOM     25  C   UNL A   1      39.549  21.557  26.159  1.00  0.00     0.274 C 
BRANCH  25  26
ATOM     26  C   UNL A   1      40.840  22.348  26.393  1.00  0.00     0.275 C 
BRANCH  26  27
ATOM     27  O   UNL A   1      40.551  23.760  26.434  1.00  0.00    -0.458 OA
BRANCH  27  28
ATOM     28  C   UNL A   1      41.620  24.585  26.557  1.00  0.00     0.338 C 
ATOM     29  O   UNL A   1      42.642  24.567  25.896  1.00  0.00    -0.246 OA
BRANCH  28  30
ATOM     30  C   UNL A   1      41.272  25.670  27.506  1.00  0.00     0.060 A 
ATOM     31  C   UNL A   1      42.099  26.801  27.545  1.00  0.00     0.016 A 
ATOM     32  C   UNL A   1      40.137  25.601  28.320  1.00  0.00     0.016 A 
ATOM     33  C   UNL A   1      41.816  27.844  28.429  1.00  0.00     0.010 A 
ATOM     34  C   UNL A   1      39.862  26.640  29.214  1.00  0.00     0.010 A 
ATOM     35  C   UNL A   1      40.720  27.751  29.298  1.00  0.00    -0.014 A 
BRANCH  35  36
ATOM     36  C   UNL A   1      40.598  28.696  30.435  1.00  0.00     0.031 A 
ATOM     37  C   UNL A   1      39.571  29.791  30.337  1.00  0.00     0.074 A 
ATOM     38  C   UNL A   1      41.354  28.581  31.542  1.00  0.00     0.049 A 
ATOM     39  N   UNL A   1      39.285  30.742  31.190  1.00  0.00    -0.248 NA
ATOM     40  C   UNL A   1      38.755  29.814  29.111  1.00  0.00     0.031 C 
ATOM     41  C   UNL A   1      42.350  27.543  31.790  1.00  0.00     0.029 A 
ATOM     42  N   UNL A   1      41.389  29.359  32.674  1.00  0.00    -0.354 N 
ATOM     43  C   UNL A   1      38.241  31.456  30.616  1.00  0.00     0.074 A 
ATOM     44  C   UNL A   1      37.974  30.862  29.325  1.00  0.00     0.031 C 
ATOM     45  C   UNL A   1      42.901  27.748  33.001  1.00  0.00     0.029 A 
ATOM     46  C   UNL A   1      42.312  28.944  33.603  1.00  0.00     0.049 A 
ATOM     47  H   UNL A   1      40.806  30.142  32.807  1.00  0.00     0.167 HD
ATOM     48  C   UNL A   1      37.553  32.504  31.123  1.00  0.00     0.037 A 
ATOM     49  C   UNL A   1      42.644  29.477  34.796  1.00  0.00     0.037 A 
ATOM     50  C   UNL A   1      37.821  33.118  32.393  1.00  0.00     0.049 A 
ATOM     51  C   UNL A   1      41.942  30.718  35.284  1.00  0.00     0.074 A 
ATOM     52  C   UNL A   1      37.183  34.197  32.980  1.00  0.00     0.029 A 
ATOM     53  N   UNL A   1      38.812  32.711  33.270  1.00  0.00    -0.354 N 
ATOM     54  N   UNL A   1      40.952  31.380  34.738  1.00  0.00    -0.248 NA
ATOM     55  C   UNL A   1      42.412  31.291  36.557  1.00  0.00     0.031 C 
ATOM     56  C   UNL A   1      37.814  34.466  34.198  1.00  0.00     0.029 A 
ATOM     57  C   UNL A   1      38.820  33.532  34.384  1.00  0.00     0.049 A 
ATOM     58  H   UNL A   1      39.420  31.951  33.123  1.00  0.00     0.167 HD
ATOM     59  C   UNL A   1      40.665  32.427  35.608  1.00  0.00     0.074 A 
ATOM     60  C   UNL A   1      41.579  32.308  36.724  1.00  0.00     0.031 C 
ATOM     61  C   UNL A   1      39.731  33.400  35.491  1.00  0.00     0.037 A 
BRANCH  48  62
ATOM     62  C   UNL A   1      36.438  33.058  30.292  1.00  0.00     0.057 A 
ATOM     63  C   UNL A   1      35.102  32.734  30.560  1.00  0.00     0.134 A 
ATOM     64  C   UNL A   1      36.696  33.950  29.245  1.00  0.00     0.134 A 
ATOM     65  F   UNL A   1      34.794  31.871  31.539  1.00  0.00    -0.206 F 
ATOM     66  C   UNL A   1      34.059  33.274  29.808  1.00  0.00     0.040 A 
ATOM     67  C   UNL A   1      35.659  34.510  28.498  1.00  0.00     0.040 A 
ATOM     68  F   UNL A   1      37.956  34.295  28.939  1.00  0.00    -0.206 F 
ATOM     69  C   UNL A   1      34.337  34.172  28.777  1.00  0.00     0.006 A 
ENDBRANCH  48  62
BRANCH  49  70
ATOM     70  C   UNL A   1      43.704  28.852  35.628  1.00  0.00     0.057 A 
ATOM     71  C   UNL A   1      45.054  29.176  35.440  1.00  0.00     0.134 A 
ATOM     72  C   UNL A   1      43.401  27.876  36.585  1.00  0.00     0.134 A 
ATOM     73  F   UNL A   1      45.407  30.080  34.516  1.00  0.00    -0.206 F 
ATOM     74  C   UNL A   1      46.065  28.540  36.162  1.00  0.00     0.040 A 
ATOM     75  C   UNL A   1      44.401  27.247  37.328  1.00  0.00     0.040 A 
ATOM     76  F   UNL A   1      42.129  27.516  36.807  1.00  0.00    -0.206 F 
ATOM     77  C   UNL A   1      45.739  27.573  37.110  1.00  0.00     0.006 A 
ENDBRANCH  49  70
BRANCH  61  78
ATOM     78  C   UNL A   1      39.630  34.408  36.598  1.00  0.00     0.057 A 
ATOM     79  C   UNL A   1      38.913  34.140  37.770  1.00  0.00     0.134 A 
ATOM     80  C   UNL A   1      40.313  35.628  36.520  1.00  0.00     0.134 A 
ATOM     81  F   UNL A   1      38.230  32.993  37.902  1.00  0.00    -0.206 F 
ATOM     82  C   UNL A   1      38.872  35.054  38.823  1.00  0.00     0.040 A 
ATOM     83  C   UNL A   1      40.297  36.541  37.574  1.00  0.00     0.040 A 
ATOM     84  F   UNL A   1      41.026  35.941  35.428  1.00  0.00    -0.206 F 
ATOM     85  C   UNL A   1      39.572  36.256  38.730  1.00  0.00     0.006 A 
ENDBRANCH  61  78
ENDBRANCH  35  36
ENDBRANCH  28  30
ENDBRANCH  27  28
ENDBRANCH  26  27
ENDBRANCH  25  26
ENDBRANCH   1  25
TORSDOF 16
ENDMDL
