MODEL 1
REMARK VINA RESULT:     -10.1      0.000      0.000
REMARK SMILES Cc1cc(Cl)c2c(c1)C=C(C(=O)OCCOC(=O)c1ccc(-c3c4nc(c(-c5c(F)cccc5F)c5ccc([nH]5)c(-c5c(F)cccc5F)c5nc(c(-c6c(F)cccc6F)c6ccc3[nH]6)C=C5)C=C4)cc1)[C@@H](C(F)(F)F)O2
REMARK SMILES IDX 15 1 14 2 13 3 11 4 12 5 10 6 1 7 2 8 3 9 8 10 4 11 7 12
REMARK SMILES IDX 5 13 6 14 9 15 78 16 73 17 74 18 75 19 76 20 77 21 16 22
REMARK SMILES IDX 17 23 18 24 19 25 20 26 72 27 21 28 71 29 22 30 23 31 24 32
REMARK SMILES IDX 65 33 25 34 70 35 64 36 66 37 26 38 69 39 63 40 62 41 27 43
REMARK SMILES IDX 53 44 36 45 52 46 37 47 40 48 51 49 67 50 38 51 39 52 50 54
REMARK SMILES IDX 68 55 41 56 28 57 29 58 34 59 30 60 31 61 33 62 35 63 32 64
REMARK SMILES IDX 54 65 55 66 60 67 56 68 57 69 59 70 61 71 58 72 42 73 43 74
REMARK SMILES IDX 48 75 44 76 45 77 47 78 49 79 46 80
REMARK H PARENT 66 42 40 53
REMARK Flexibility Score: inf
ROOT
ATOM      1  C   UNL A   1      33.811  33.530  28.253  1.00  0.00     0.275 C 
ENDROOT
BRANCH   1   2
ATOM      2  C   UNL A   1      34.463  34.689  29.007  1.00  0.00     0.275 C 
BRANCH   2   3
ATOM      3  O   UNL A   1      34.213  34.596  30.427  1.00  0.00    -0.459 OA
BRANCH   3   4
ATOM      4  C   UNL A   1      34.816  33.557  31.053  1.00  0.00     0.338 C 
ATOM      5  O   UNL A   1      34.402  32.415  31.133  1.00  0.00    -0.246 OA
BRANCH   4   6
ATOM      6  C   UNL A   1      36.112  33.979  31.618  1.00  0.00     0.087 C 
ATOM      7  C   UNL A   1      42.144  33.626  30.448  1.00  0.00     0.044 C 
ATOM      8  C   UNL A   1      40.924  33.953  31.257  1.00  0.00    -0.049 A 
ATOM      9  C   UNL A   1      41.022  34.480  32.550  1.00  0.00     0.028 A 
ATOM     10  C   UNL A   1      39.655  33.752  30.708  1.00  0.00     0.015 A 
ATOM     11  C   UNL A   1      39.866  34.791  33.280  1.00  0.00     0.084 A 
ATOM     12  C   UNL A   1      38.500  34.045  31.448  1.00  0.00     0.019 A 
ATOM     13  Cl  UNL A   1      40.055  35.428  34.875  1.00  0.00    -0.080 Cl
ATOM     14  C   UNL A   1      38.595  34.573  32.734  1.00  0.00     0.146 A 
ATOM     15  C   UNL A   1      37.201  33.764  30.874  1.00  0.00     0.027 C 
ATOM     16  O   UNL A   1      37.492  34.911  33.474  1.00  0.00    -0.474 OA
ATOM     17  C   UNL A   1      36.173  34.490  33.028  1.00  0.00     0.316 C 
BRANCH  17  18
ATOM     18  C   UNL A   1      35.617  33.451  34.017  1.00  0.00     0.430 C 
ATOM     19  F   UNL A   1      35.980  33.732  35.290  1.00  0.00    -0.167 F 
ATOM     20  F   UNL A   1      34.262  33.423  33.998  1.00  0.00    -0.167 F 
ATOM     21  F   UNL A   1      36.049  32.200  33.735  1.00  0.00    -0.167 F 
ENDBRANCH  17  18
ENDBRANCH   4   6
ENDBRANCH   3   4
ENDBRANCH   2   3
ENDBRANCH   1   2
BRANCH   1  22
ATOM     22  O   UNL A   1      34.818  32.731  27.609  1.00  0.00    -0.458 OA
BRANCH  22  23
ATOM     23  C   UNL A   1      34.712  31.394  27.778  1.00  0.00     0.338 C 
ATOM     24  O   UNL A   1      33.808  30.664  27.401  1.00  0.00    -0.246 OA
BRANCH  23  25
ATOM     25  C   UNL A   1      35.906  30.884  28.470  1.00  0.00     0.060 A 
ATOM     26  C   UNL A   1      37.123  31.525  28.268  1.00  0.00     0.016 A 
ATOM     27  C   UNL A   1      35.857  29.702  29.205  1.00  0.00     0.016 A 
ATOM     28  C   UNL A   1      38.308  30.925  28.684  1.00  0.00     0.010 A 
ATOM     29  C   UNL A   1      37.037  29.174  29.745  1.00  0.00     0.010 A 
ATOM     30  C   UNL A   1      38.284  29.757  29.460  1.00  0.00    -0.014 A 
BRANCH  30  31
ATOM     31  C   UNL A   1      39.565  29.171  29.956  1.00  0.00     0.031 A 
ATOM     32  C   UNL A   1      40.189  29.646  31.245  1.00  0.00     0.074 A 
ATOM     33  C   UNL A   1      40.156  28.170  29.268  1.00  0.00     0.049 A 
ATOM     34  N   UNL A   1      41.343  29.318  31.772  1.00  0.00    -0.248 NA
ATOM     35  C   UNL A   1      39.428  30.623  32.039  1.00  0.00     0.031 C 
ATOM     36  C   UNL A   1      39.653  27.587  28.022  1.00  0.00     0.029 A 
ATOM     37  N   UNL A   1      41.290  27.440  29.532  1.00  0.00    -0.354 N 
ATOM     38  C   UNL A   1      41.468  30.084  32.926  1.00  0.00     0.074 A 
ATOM     39  C   UNL A   1      40.276  30.899  33.021  1.00  0.00     0.031 C 
ATOM     40  C   UNL A   1      40.418  26.543  27.679  1.00  0.00     0.029 A 
ATOM     41  C   UNL A   1      41.528  26.440  28.619  1.00  0.00     0.049 A 
ATOM     42  H   UNL A   1      41.876  27.616  30.303  1.00  0.00     0.167 HD
ATOM     43  C   UNL A   1      42.480  30.102  33.826  1.00  0.00     0.037 A 
ATOM     44  C   UNL A   1      42.536  25.552  28.523  1.00  0.00     0.037 A 
ATOM     45  C   UNL A   1      43.639  29.249  33.762  1.00  0.00     0.049 A 
ATOM     46  C   UNL A   1      43.656  25.607  29.520  1.00  0.00     0.074 A 
ATOM     47  C   UNL A   1      44.718  29.197  34.630  1.00  0.00     0.029 A 
ATOM     48  N   UNL A   1      43.861  28.285  32.791  1.00  0.00    -0.354 N 
ATOM     49  N   UNL A   1      43.786  26.381  30.568  1.00  0.00    -0.248 NA
ATOM     50  C   UNL A   1      44.782  24.686  29.306  1.00  0.00     0.031 C 
ATOM     51  C   UNL A   1      45.604  28.220  34.169  1.00  0.00     0.029 A 
ATOM     52  C   UNL A   1      45.060  27.637  33.036  1.00  0.00     0.049 A 
ATOM     53  H   UNL A   1      43.255  28.090  32.039  1.00  0.00     0.167 HD
ATOM     54  C   UNL A   1      45.001  26.040  31.143  1.00  0.00     0.074 A 
ATOM     55  C   UNL A   1      45.564  24.975  30.338  1.00  0.00     0.031 C 
ATOM     56  C   UNL A   1      45.601  26.571  32.235  1.00  0.00     0.037 A 
BRANCH  43  57
ATOM     57  C   UNL A   1      42.397  31.083  34.958  1.00  0.00     0.057 A 
ATOM     58  C   UNL A   1      42.950  32.366  34.870  1.00  0.00     0.134 A 
ATOM     59  C   UNL A   1      41.691  30.762  36.127  1.00  0.00     0.134 A 
ATOM     60  F   UNL A   1      43.646  32.732  33.783  1.00  0.00    -0.206 F 
ATOM     61  C   UNL A   1      42.815  33.291  35.908  1.00  0.00     0.040 A 
ATOM     62  C   UNL A   1      41.530  31.685  37.160  1.00  0.00     0.040 A 
ATOM     63  F   UNL A   1      41.128  29.552  36.271  1.00  0.00    -0.206 F 
ATOM     64  C   UNL A   1      42.096  32.954  37.054  1.00  0.00     0.006 A 
ENDBRANCH  43  57
BRANCH  44  65
ATOM     65  C   UNL A   1      42.532  24.546  27.430  1.00  0.00     0.057 A 
ATOM     66  C   UNL A   1      43.098  24.836  26.184  1.00  0.00     0.134 A 
ATOM     67  C   UNL A   1      41.999  23.264  27.614  1.00  0.00     0.134 A 
ATOM     68  F   UNL A   1      43.605  26.054  25.940  1.00  0.00    -0.206 F 
ATOM     69  C   UNL A   1      43.138  23.888  25.161  1.00  0.00     0.040 A 
ATOM     70  C   UNL A   1      42.056  22.297  26.610  1.00  0.00     0.040 A 
ATOM     71  F   UNL A   1      41.444  22.923  28.787  1.00  0.00    -0.206 F 
ATOM     72  C   UNL A   1      42.627  22.609  25.377  1.00  0.00     0.006 A 
ENDBRANCH  44  65
BRANCH  56  73
ATOM     73  C   UNL A   1      46.923  25.999  32.645  1.00  0.00     0.057 A 
ATOM     74  C   UNL A   1      47.016  24.988  33.607  1.00  0.00     0.134 A 
ATOM     75  C   UNL A   1      48.104  26.407  32.010  1.00  0.00     0.134 A 
ATOM     76  F   UNL A   1      45.921  24.563  34.256  1.00  0.00    -0.206 F 
ATOM     77  C   UNL A   1      48.241  24.402  33.928  1.00  0.00     0.040 A 
ATOM     78  C   UNL A   1      49.330  25.815  32.310  1.00  0.00     0.040 A 
ATOM     79  F   UNL A   1      48.076  27.367  31.075  1.00  0.00    -0.206 F 
ATOM     80  C   UNL A   1      49.402  24.808  33.271  1.00  0.00     0.006 A 
ENDBRANCH  56  73
ENDBRANCH  30  31
ENDBRANCH  23  25
ENDBRANCH  22  23
ENDBRANCH   1  22
TORSDOF 12
ENDMDL
MODEL 2
REMARK VINA RESULT:     -10.1      4.601     10.763
REMARK SMILES Cc1cc(Cl)c2c(c1)C=C(C(=O)OCCOC(=O)c1ccc(-c3c4nc(c(-c5c(F)cccc5F)c5ccc([nH]5)c(-c5c(F)cccc5F)c5nc(c(-c6c(F)cccc6F)c6ccc3[nH]6)C=C5)C=C4)cc1)[C@@H](C(F)(F)F)O2
REMARK SMILES IDX 15 1 14 2 13 3 11 4 12 5 10 6 1 7 2 8 3 9 8 10 4 11 7 12
REMARK SMILES IDX 5 13 6 14 9 15 78 16 73 17 74 18 75 19 76 20 77 21 16 22
REMARK SMILES IDX 17 23 18 24 19 25 20 26 72 27 21 28 71 29 22 30 23 31 24 32
REMARK SMILES IDX 65 33 25 34 70 35 64 36 66 37 26 38 69 39 63 40 62 41 27 43
REMARK SMILES IDX 53 44 36 45 52 46 37 47 40 48 51 49 67 50 38 51 39 52 50 54
REMARK SMILES IDX 68 55 41 56 28 57 29 58 34 59 30 60 31 61 33 62 35 63 32 64
REMARK SMILES IDX 54 65 55 66 60 67 56 68 57 69 59 70 61 71 58 72 42 73 43 74
REMARK SMILES IDX 48 75 44 76 45 77 47 78 49 79 46 80
REMARK H PARENT 66 42 40 53
REMARK Flexibility Score: inf
ROOT
ATOM      1  C   UNL A   1      40.775  20.445  26.488  1.00  0.00     0.275 C 
ENDROOT
BRANCH   1   2
ATOM      2  C   UNL A   1      42.195  20.288  27.029  1.00  0.00     0.275 C 
BRANCH   2   3
ATOM      3  O   UNL A   1      43.178  20.617  26.024  1.00  0.00    -0.459 OA
BRANCH   3   4
ATOM      4  C   UNL A   1      43.241  21.927  25.683  1.00  0.00     0.338 C 
ATOM      5  O   UNL A   1      42.544  22.502  24.868  1.00  0.00    -0.246 OA
BRANCH   4   6
ATOM      6  C   UNL A   1      44.274  22.615  26.481  1.00  0.00     0.087 C 
ATOM      7  C   UNL A   1      44.841  26.092  31.527  1.00  0.00     0.044 C 
ATOM      8  C   UNL A   1      45.307  25.415  30.273  1.00  0.00    -0.049 A 
ATOM      9  C   UNL A   1      46.615  25.568  29.801  1.00  0.00     0.028 A 
ATOM     10  C   UNL A   1      44.430  24.591  29.564  1.00  0.00     0.015 A 
ATOM     11  C   UNL A   1      47.032  24.912  28.633  1.00  0.00     0.084 A 
ATOM     12  C   UNL A   1      44.841  23.952  28.385  1.00  0.00     0.019 A 
ATOM     13  Cl  UNL A   1      48.656  25.152  28.097  1.00  0.00    -0.080 Cl
ATOM     14  C   UNL A   1      46.145  24.100  27.915  1.00  0.00     0.146 A 
ATOM     15  C   UNL A   1      43.888  23.158  27.640  1.00  0.00     0.027 C 
ATOM     16  O   UNL A   1      46.599  23.461  26.791  1.00  0.00    -0.474 OA
ATOM     17  C   UNL A   1      45.649  22.800  25.909  1.00  0.00     0.316 C 
BRANCH  17  18
ATOM     18  C   UNL A   1      45.595  23.558  24.572  1.00  0.00     0.430 C 
ATOM     19  F   UNL A   1      46.793  24.105  24.261  1.00  0.00    -0.167 F 
ATOM     20  F   UNL A   1      45.268  22.734  23.547  1.00  0.00    -0.167 F 
ATOM     21  F   UNL A   1      44.683  24.557  24.591  1.00  0.00    -0.167 F 
ENDBRANCH  17  18
ENDBRANCH   4   6
ENDBRANCH   3   4
ENDBRANCH   2   3
ENDBRANCH   1   2
BRANCH   1  22
ATOM     22  O   UNL A   1      40.061  21.433  27.252  1.00  0.00    -0.458 OA
BRANCH  22  23
ATOM     23  C   UNL A   1      39.454  22.408  26.540  1.00  0.00     0.338 C 
ATOM     24  O   UNL A   1      38.540  22.288  25.739  1.00  0.00    -0.246 OA
BRANCH  23  25
ATOM     25  C   UNL A   1      40.027  23.715  26.899  1.00  0.00     0.060 A 
ATOM     26  C   UNL A   1      40.507  23.905  28.190  1.00  0.00     0.016 A 
ATOM     27  C   UNL A   1      39.967  24.790  26.014  1.00  0.00     0.016 A 
ATOM     28  C   UNL A   1      40.806  25.185  28.644  1.00  0.00     0.010 A 
ATOM     29  C   UNL A   1      40.405  26.054  26.432  1.00  0.00     0.010 A 
ATOM     30  C   UNL A   1      40.795  26.278  27.765  1.00  0.00    -0.014 A 
BRANCH  30  31
ATOM     31  C   UNL A   1      41.189  27.631  28.257  1.00  0.00     0.031 A 
ATOM     32  C   UNL A   1      42.621  28.098  28.181  1.00  0.00     0.074 A 
ATOM     33  C   UNL A   1      40.247  28.470  28.741  1.00  0.00     0.049 A 
ATOM     34  N   UNL A   1      43.156  29.199  28.649  1.00  0.00    -0.248 NA
ATOM     35  C   UNL A   1      43.581  27.214  27.501  1.00  0.00     0.031 C 
ATOM     36  C   UNL A   1      38.819  28.167  28.849  1.00  0.00     0.029 A 
ATOM     37  N   UNL A   1      40.340  29.762  29.202  1.00  0.00    -0.354 N 
ATOM     38  C   UNL A   1      44.515  29.114  28.369  1.00  0.00     0.074 A 
ATOM     39  C   UNL A   1      44.727  27.852  27.695  1.00  0.00     0.031 C 
ATOM     40  C   UNL A   1      38.162  29.261  29.258  1.00  0.00     0.029 A 
ATOM     41  C   UNL A   1      39.129  30.314  29.543  1.00  0.00     0.049 A 
ATOM     42  H   UNL A   1      41.194  30.246  29.280  1.00  0.00     0.167 HD
ATOM     43  C   UNL A   1      45.494  30.009  28.643  1.00  0.00     0.037 A 
ATOM     44  C   UNL A   1      38.820  31.522  30.053  1.00  0.00     0.037 A 
ATOM     45  C   UNL A   1      45.275  31.291  29.263  1.00  0.00     0.049 A 
ATOM     46  C   UNL A   1      39.925  32.487  30.368  1.00  0.00     0.074 A 
ATOM     47  C   UNL A   1      46.208  32.264  29.581  1.00  0.00     0.029 A 
ATOM     48  N   UNL A   1      44.036  31.788  29.635  1.00  0.00    -0.354 N 
ATOM     49  N   UNL A   1      41.212  32.362  30.153  1.00  0.00    -0.248 NA
ATOM     50  C   UNL A   1      39.542  33.747  31.022  1.00  0.00     0.031 C 
ATOM     51  C   UNL A   1      45.536  33.338  30.170  1.00  0.00     0.029 A 
ATOM     52  C   UNL A   1      44.181  33.051  30.185  1.00  0.00     0.049 A 
ATOM     53  H   UNL A   1      43.179  31.313  29.526  1.00  0.00     0.167 HD
ATOM     54  C   UNL A   1      41.791  33.525  30.638  1.00  0.00     0.074 A 
ATOM     55  C   UNL A   1      40.716  34.354  31.142  1.00  0.00     0.031 C 
ATOM     56  C   UNL A   1      43.101  33.869  30.670  1.00  0.00     0.037 A 
BRANCH  43  57
ATOM     57  C   UNL A   1      46.905  29.637  28.292  1.00  0.00     0.057 A 
ATOM     58  C   UNL A   1      47.761  29.021  29.213  1.00  0.00     0.134 A 
ATOM     59  C   UNL A   1      47.389  29.834  26.991  1.00  0.00     0.134 A 
ATOM     60  F   UNL A   1      47.362  28.814  30.477  1.00  0.00    -0.206 F 
ATOM     61  C   UNL A   1      49.053  28.626  28.857  1.00  0.00     0.040 A 
ATOM     62  C   UNL A   1      48.669  29.423  26.617  1.00  0.00     0.040 A 
ATOM     63  F   UNL A   1      46.616  30.410  26.057  1.00  0.00    -0.206 F 
ATOM     64  C   UNL A   1      49.506  28.819  27.552  1.00  0.00     0.006 A 
ENDBRANCH  43  57
BRANCH  44  65
ATOM     65  C   UNL A   1      37.400  31.875  30.308  1.00  0.00     0.057 A 
ATOM     66  C   UNL A   1      36.781  31.536  31.516  1.00  0.00     0.134 A 
ATOM     67  C   UNL A   1      36.640  32.588  29.372  1.00  0.00     0.134 A 
ATOM     68  F   UNL A   1      37.449  30.835  32.444  1.00  0.00    -0.206 F 
ATOM     69  C   UNL A   1      35.460  31.897  31.786  1.00  0.00     0.040 A 
ATOM     70  C   UNL A   1      35.328  32.978  29.639  1.00  0.00     0.040 A 
ATOM     71  F   UNL A   1      37.177  32.945  28.195  1.00  0.00    -0.206 F 
ATOM     72  C   UNL A   1      34.734  32.630  30.851  1.00  0.00     0.006 A 
ENDBRANCH  44  65
BRANCH  56  73
ATOM     73  C   UNL A   1      43.451  35.206  31.247  1.00  0.00     0.057 A 
ATOM     74  C   UNL A   1      43.691  35.373  32.615  1.00  0.00     0.134 A 
ATOM     75  C   UNL A   1      43.632  36.316  30.412  1.00  0.00     0.134 A 
ATOM     76  F   UNL A   1      43.525  34.348  33.465  1.00  0.00    -0.206 F 
ATOM     77  C   UNL A   1      44.096  36.602  33.136  1.00  0.00     0.040 A 
ATOM     78  C   UNL A   1      44.054  37.545  30.919  1.00  0.00     0.040 A 
ATOM     79  F   UNL A   1      43.424  36.215  29.091  1.00  0.00    -0.206 F 
ATOM     80  C   UNL A   1      44.288  37.691  32.286  1.00  0.00     0.006 A 
ENDBRANCH  56  73
ENDBRANCH  30  31
ENDBRANCH  23  25
ENDBRANCH  22  23
ENDBRANCH   1  22
TORSDOF 12
ENDMDL
MODEL 3
REMARK VINA RESULT:     -10.0      4.761     10.206
REMARK SMILES Cc1cc(Cl)c2c(c1)C=C(C(=O)OCCOC(=O)c1ccc(-c3c4nc(c(-c5c(F)cccc5F)c5ccc([nH]5)c(-c5c(F)cccc5F)c5nc(c(-c6c(F)cccc6F)c6ccc3[nH]6)C=C5)C=C4)cc1)[C@@H](C(F)(F)F)O2
REMARK SMILES IDX 15 1 14 2 13 3 11 4 12 5 10 6 1 7 2 8 3 9 8 10 4 11 7 12
REMARK SMILES IDX 5 13 6 14 9 15 78 16 73 17 74 18 75 19 76 20 77 21 16 22
REMARK SMILES IDX 17 23 18 24 19 25 20 26 72 27 21 28 71 29 22 30 23 31 24 32
REMARK SMILES IDX 65 33 25 34 70 35 64 36 66 37 26 38 69 39 63 40 62 41 27 43
REMARK SMILES IDX 53 44 36 45 52 46 37 47 40 48 51 49 67 50 38 51 39 52 50 54
REMARK SMILES IDX 68 55 41 56 28 57 29 58 34 59 30 60 31 61 33 62 35 63 32 64
REMARK SMILES IDX 54 65 55 66 60 67 56 68 57 69 59 70 61 71 58 72 42 73 43 74
REMARK SMILES IDX 48 75 44 76 45 77 47 78 49 79 46 80
REMARK H PARENT 66 42 40 53
REMARK Flexibility Score: inf
ROOT
ATOM      1  C   UNL A   1      40.809  20.319  26.356  1.00  0.00     0.275 C 
ENDROOT
BRANCH   1   2
ATOM      2  C   UNL A   1      42.187  20.095  26.978  1.00  0.00     0.275 C 
BRANCH   2   3
ATOM      3  O   UNL A   1      43.240  20.504  26.078  1.00  0.00    -0.459 OA
BRANCH   3   4
ATOM      4  C   UNL A   1      43.244  21.819  25.752  1.00  0.00     0.338 C 
ATOM      5  O   UNL A   1      42.443  22.396  25.040  1.00  0.00    -0.246 OA
BRANCH   4   6
ATOM      6  C   UNL A   1      44.361  22.511  26.424  1.00  0.00     0.087 C 
ATOM      7  C   UNL A   1      45.479  26.095  31.301  1.00  0.00     0.044 C 
ATOM      8  C   UNL A   1      45.808  25.382  30.022  1.00  0.00    -0.049 A 
ATOM      9  C   UNL A   1      47.063  25.505  29.417  1.00  0.00     0.028 A 
ATOM     10  C   UNL A   1      44.852  24.555  29.426  1.00  0.00     0.015 A 
ATOM     11  C   UNL A   1      47.350  24.817  28.230  1.00  0.00     0.084 A 
ATOM     12  C   UNL A   1      45.134  23.883  28.228  1.00  0.00     0.019 A 
ATOM     13  Cl  UNL A   1      48.914  25.020  27.526  1.00  0.00    -0.080 Cl
ATOM     14  C   UNL A   1      46.385  24.001  27.624  1.00  0.00     0.146 A 
ATOM     15  C   UNL A   1      44.101  23.085  27.603  1.00  0.00     0.027 C 
ATOM     16  O   UNL A   1      46.715  23.330  26.476  1.00  0.00    -0.474 OA
ATOM     17  C   UNL A   1      45.673  22.662  25.711  1.00  0.00     0.316 C 
BRANCH  17  18
ATOM     18  C   UNL A   1      45.492  23.390  24.369  1.00  0.00     0.430 C 
ATOM     19  F   UNL A   1      44.965  22.574  23.427  1.00  0.00    -0.167 F 
ATOM     20  F   UNL A   1      44.647  24.443  24.486  1.00  0.00    -0.167 F 
ATOM     21  F   UNL A   1      46.663  23.867  23.888  1.00  0.00    -0.167 F 
ENDBRANCH  17  18
ENDBRANCH   4   6
ENDBRANCH   3   4
ENDBRANCH   2   3
ENDBRANCH   1   2
BRANCH   1  22
ATOM     22  O   UNL A   1      40.034  21.209  27.179  1.00  0.00    -0.458 OA
BRANCH  22  23
ATOM     23  C   UNL A   1      39.348  22.173  26.526  1.00  0.00     0.338 C 
ATOM     24  O   UNL A   1      38.529  22.031  25.631  1.00  0.00    -0.246 OA
BRANCH  23  25
ATOM     25  C   UNL A   1      39.690  23.491  27.086  1.00  0.00     0.060 A 
ATOM     26  C   UNL A   1      39.147  24.629  26.502  1.00  0.00     0.016 A 
ATOM     27  C   UNL A   1      40.647  23.615  28.091  1.00  0.00     0.016 A 
ATOM     28  C   UNL A   1      39.645  25.887  26.823  1.00  0.00     0.010 A 
ATOM     29  C   UNL A   1      41.044  24.890  28.513  1.00  0.00     0.010 A 
ATOM     30  C   UNL A   1      40.578  26.044  27.859  1.00  0.00    -0.014 A 
BRANCH  30  31
ATOM     31  C   UNL A   1      41.045  27.412  28.236  1.00  0.00     0.031 A 
ATOM     32  C   UNL A   1      40.106  28.406  28.872  1.00  0.00     0.074 A 
ATOM     33  C   UNL A   1      42.338  27.755  28.045  1.00  0.00     0.049 A 
ATOM     34  N   UNL A   1      40.316  29.664  29.172  1.00  0.00    -0.248 NA
ATOM     35  C   UNL A   1      38.753  27.933  29.206  1.00  0.00     0.031 C 
ATOM     36  C   UNL A   1      43.367  26.889  27.468  1.00  0.00     0.029 A 
ATOM     37  N   UNL A   1      43.018  28.911  28.346  1.00  0.00    -0.354 N 
ATOM     38  C   UNL A   1      39.113  30.143  29.678  1.00  0.00     0.074 A 
ATOM     39  C   UNL A   1      38.173  29.044  29.639  1.00  0.00     0.031 C 
ATOM     40  C   UNL A   1      44.555  27.505  27.536  1.00  0.00     0.029 A 
ATOM     41  C   UNL A   1      44.362  28.849  28.064  1.00  0.00     0.049 A 
ATOM     42  H   UNL A   1      42.583  29.708  28.728  1.00  0.00     0.167 HD
ATOM     43  C   UNL A   1      38.821  31.383  30.136  1.00  0.00     0.037 A 
ATOM     44  C   UNL A   1      45.334  29.773  28.187  1.00  0.00     0.037 A 
ATOM     45  C   UNL A   1      39.771  32.462  30.228  1.00  0.00     0.049 A 
ATOM     46  C   UNL A   1      44.980  31.146  28.678  1.00  0.00     0.074 A 
ATOM     47  C   UNL A   1      39.565  33.755  30.680  1.00  0.00     0.029 A 
ATOM     48  N   UNL A   1      41.111  32.367  29.885  1.00  0.00    -0.354 N 
ATOM     49  N   UNL A   1      43.822  31.598  29.091  1.00  0.00    -0.248 NA
ATOM     50  C   UNL A   1      46.059  32.146  28.692  1.00  0.00     0.031 C 
ATOM     51  C   UNL A   1      40.774  34.449  30.585  1.00  0.00     0.029 A 
ATOM     52  C   UNL A   1      41.741  33.579  30.110  1.00  0.00     0.049 A 
ATOM     53  H   UNL A   1      41.549  31.558  29.533  1.00  0.00     0.167 HD
ATOM     54  C   UNL A   1      44.031  32.929  29.421  1.00  0.00     0.074 A 
ATOM     55  C   UNL A   1      45.431  33.210  29.176  1.00  0.00     0.031 C 
ATOM     56  C   UNL A   1      43.137  33.840  29.875  1.00  0.00     0.037 A 
BRANCH  43  57
ATOM     57  C   UNL A   1      37.410  31.660  30.566  1.00  0.00     0.057 A 
ATOM     58  C   UNL A   1      37.016  31.593  31.908  1.00  0.00     0.134 A 
ATOM     59  C   UNL A   1      36.448  32.068  29.630  1.00  0.00     0.134 A 
ATOM     60  F   UNL A   1      37.885  31.198  32.851  1.00  0.00    -0.206 F 
ATOM     61  C   UNL A   1      35.714  31.910  32.303  1.00  0.00     0.040 A 
ATOM     62  C   UNL A   1      35.151  32.410  30.015  1.00  0.00     0.040 A 
ATOM     63  F   UNL A   1      36.763  32.164  28.329  1.00  0.00    -0.206 F 
ATOM     64  C   UNL A   1      34.780  32.328  31.355  1.00  0.00     0.006 A 
ENDBRANCH  43  57
BRANCH  44  65
ATOM     65  C   UNL A   1      46.732  29.426  27.826  1.00  0.00     0.057 A 
ATOM     66  C   UNL A   1      47.640  28.994  28.798  1.00  0.00     0.134 A 
ATOM     67  C   UNL A   1      47.184  29.483  26.500  1.00  0.00     0.134 A 
ATOM     68  F   UNL A   1      47.274  28.939  30.087  1.00  0.00    -0.206 F 
ATOM     69  C   UNL A   1      48.945  28.625  28.467  1.00  0.00     0.040 A 
ATOM     70  C   UNL A   1      48.477  29.092  26.151  1.00  0.00     0.040 A 
ATOM     71  F   UNL A   1      46.362  29.887  25.521  1.00  0.00    -0.206 F 
ATOM     72  C   UNL A   1      49.363  28.662  27.138  1.00  0.00     0.006 A 
ENDBRANCH  44  65
BRANCH  56  73
ATOM     73  C   UNL A   1      43.641  35.220  30.163  1.00  0.00     0.057 A 
ATOM     74  C   UNL A   1      44.188  35.555  31.406  1.00  0.00     0.134 A 
ATOM     75  C   UNL A   1      43.657  36.197  29.159  1.00  0.00     0.134 A 
ATOM     76  F   UNL A   1      44.192  34.664  32.409  1.00  0.00    -0.206 F 
ATOM     77  C   UNL A   1      44.730  36.818  31.644  1.00  0.00     0.040 A 
ATOM     78  C   UNL A   1      44.212  37.457  29.380  1.00  0.00     0.040 A 
ATOM     79  F   UNL A   1      43.154  35.932  27.944  1.00  0.00    -0.206 F 
ATOM     80  C   UNL A   1      44.752  37.771  30.627  1.00  0.00     0.006 A 
ENDBRANCH  56  73
ENDBRANCH  30  31
ENDBRANCH  23  25
ENDBRANCH  22  23
ENDBRANCH   1  22
TORSDOF 12
ENDMDL
