MODEL 1
REMARK VINA RESULT:     -12.8      0.000      0.000
REMARK SMILES O=C(OCCOC(=O)[C@@H](Cc1cccc(F)c1)[C@H]1CCOC2(CCC2)C1)c1ccc(-c2c3nc(c(-c4c(F)cccc4F)c4ccc([nH]4)c(-c4c(F)cccc4F)c4nc(c(-c5c(F)cccc5F)c5ccc2[nH]5)C=C4)C=C3)cc1
REMARK SMILES IDX 4 1 3 2 2 3 1 4 27 5 28 6 80 7 29 8 79 9 30 10 31 11 32 12
REMARK SMILES IDX 73 13 33 14 78 15 72 16 74 17 34 18 77 19 71 20 70 21 35 23
REMARK SMILES IDX 61 24 44 25 60 26 45 27 48 28 59 29 75 30 46 31 47 32 58 34
REMARK SMILES IDX 76 35 49 36 36 37 37 38 42 39 38 40 39 41 41 42 43 43 40 44
REMARK SMILES IDX 62 45 63 46 68 47 64 48 65 49 67 50 69 51 66 52 50 53 51 54
REMARK SMILES IDX 56 55 52 56 53 57 55 58 57 59 54 60 5 61 6 62 7 63 8 64 9 65
REMARK SMILES IDX 10 66 11 67 12 68 17 69 13 70 15 71 14 72 16 73 18 74 19 75
REMARK SMILES IDX 26 76 20 77 22 78 21 79 23 80 25 81 24 82
REMARK H PARENT 74 22 48 33
REMARK Flexibility Score: inf
ROOT
ATOM      1  C   UNL A   1      30.803  24.823  23.131  1.00  0.00     0.275 C 
ENDROOT
BRANCH   1   2
ATOM      2  O   UNL A   1      31.496  26.058  23.270  1.00  0.00    -0.458 OA
BRANCH   2   3
ATOM      3  C   UNL A   1      31.060  27.132  23.938  1.00  0.00     0.338 C 
ATOM      4  O   UNL A   1      29.949  27.584  23.659  1.00  0.00    -0.246 OA
BRANCH   3   5
ATOM      5  C   UNL A   1      31.799  27.828  25.037  1.00  0.00     0.060 A 
ATOM      6  C   UNL A   1      31.865  27.605  26.887  1.00  0.00     0.016 A 
ATOM      7  C   UNL A   1      33.003  28.934  24.254  1.00  0.00     0.016 A 
ATOM      8  C   UNL A   1      33.129  28.543  27.854  1.00  0.00     0.010 A 
ATOM      9  C   UNL A   1      34.330  29.667  25.212  1.00  0.00     0.010 A 
ATOM     10  C   UNL A   1      34.386  29.566  27.011  1.00  0.00    -0.014 A 
BRANCH  10  11
ATOM     11  C   UNL A   1      35.447  30.357  27.742  1.00  0.00     0.031 A 
ATOM     12  C   UNL A   1      35.115  31.525  28.624  1.00  0.00     0.074 A 
ATOM     13  C   UNL A   1      36.758  30.104  27.602  1.00  0.00     0.049 A 
ATOM     14  N   UNL A   1      35.579  31.832  29.807  1.00  0.00    -0.248 NA
ATOM     15  C   UNL A   1      34.137  32.491  28.114  1.00  0.00     0.031 C 
ATOM     16  C   UNL A   1      37.329  29.314  26.536  1.00  0.00     0.029 A 
ATOM     17  N   UNL A   1      37.842  30.427  28.387  1.00  0.00    -0.354 N 
ATOM     18  C   UNL A   1      34.832  32.928  30.220  1.00  0.00     0.074 A 
ATOM     19  C   UNL A   1      33.871  33.219  29.186  1.00  0.00     0.031 C 
ATOM     20  C   UNL A   1      38.581  28.967  26.865  1.00  0.00     0.029 A 
ATOM     21  C   UNL A   1      38.921  29.598  28.132  1.00  0.00     0.049 A 
ATOM     22  H   UNL A   1      37.849  31.157  29.048  1.00  0.00     0.167 HD
ATOM     23  C   UNL A   1      35.004  33.731  31.294  1.00  0.00     0.037 A 
ATOM     24  C   UNL A   1      40.004  29.332  28.892  1.00  0.00     0.037 A 
ATOM     25  C   UNL A   1      36.234  33.764  32.028  1.00  0.00     0.049 A 
ATOM     26  C   UNL A   1      40.200  30.179  30.121  1.00  0.00     0.074 A 
ATOM     27  C   UNL A   1      36.662  34.697  32.951  1.00  0.00     0.029 A 
ATOM     28  N   UNL A   1      37.297  32.900  31.794  1.00  0.00    -0.354 N 
ATOM     29  N   UNL A   1      39.362  31.023  30.677  1.00  0.00    -0.248 NA
ATOM     30  C   UNL A   1      41.512  30.108  30.775  1.00  0.00     0.031 C 
ATOM     31  C   UNL A   1      38.022  34.464  33.188  1.00  0.00     0.029 A 
ATOM     32  C   UNL A   1      38.409  33.328  32.490  1.00  0.00     0.049 A 
ATOM     33  H   UNL A   1      37.261  32.101  31.219  1.00  0.00     0.167 HD
ATOM     34  C   UNL A   1      40.069  31.640  31.697  1.00  0.00     0.074 A 
ATOM     35  C   UNL A   1      41.372  31.003  31.746  1.00  0.00     0.031 C 
ATOM     36  C   UNL A   1      39.699  32.682  32.480  1.00  0.00     0.037 A 
BRANCH  23  37
ATOM     37  C   UNL A   1      33.938  34.758  31.535  1.00  0.00     0.057 A 
ATOM     38  C   UNL A   1      33.118  34.701  32.668  1.00  0.00     0.134 A 
ATOM     39  C   UNL A   1      33.807  35.873  30.696  1.00  0.00     0.134 A 
ATOM     40  F   UNL A   1      33.222  33.682  33.533  1.00  0.00    -0.206 F 
ATOM     41  C   UNL A   1      32.211  35.721  32.964  1.00  0.00     0.040 A 
ATOM     42  C   UNL A   1      32.908  36.903  30.984  1.00  0.00     0.040 A 
ATOM     43  F   UNL A   1      34.591  36.007  29.614  1.00  0.00    -0.206 F 
ATOM     44  C   UNL A   1      32.109  36.830  32.124  1.00  0.00     0.006 A 
ENDBRANCH  23  37
BRANCH  24  45
ATOM     45  C   UNL A   1      40.893  28.169  28.589  1.00  0.00     0.057 A 
ATOM     46  C   UNL A   1      42.027  28.256  27.772  1.00  0.00     0.134 A 
ATOM     47  C   UNL A   1      40.551  26.888  29.052  1.00  0.00     0.134 A 
ATOM     48  F   UNL A   1      42.444  29.445  27.314  1.00  0.00    -0.206 F 
ATOM     49  C   UNL A   1      42.735  27.119  27.365  1.00  0.00     0.040 A 
ATOM     50  C   UNL A   1      41.273  25.747  28.687  1.00  0.00     0.040 A 
ATOM     51  F   UNL A   1      39.491  26.721  29.856  1.00  0.00    -0.206 F 
ATOM     52  C   UNL A   1      42.355  25.858  27.818  1.00  0.00     0.006 A 
ENDBRANCH  24  45
BRANCH  36  53
ATOM     53  C   UNL A   1      40.740  33.278  33.374  1.00  0.00     0.057 A 
ATOM     54  C   UNL A   1      41.669  34.198  32.879  1.00  0.00     0.134 A 
ATOM     55  C   UNL A   1      40.922  32.797  34.678  1.00  0.00     0.134 A 
ATOM     56  F   UNL A   1      41.556  34.675  31.630  1.00  0.00    -0.206 F 
ATOM     57  C   UNL A   1      42.765  34.598  33.642  1.00  0.00     0.040 A 
ATOM     58  C   UNL A   1      42.001  33.207  35.457  1.00  0.00     0.040 A 
ATOM     59  F   UNL A   1      40.064  31.908  35.202  1.00  0.00    -0.206 F 
ATOM     60  C   UNL A   1      42.935  34.098  34.932  1.00  0.00     0.006 A 
ENDBRANCH  36  53
ENDBRANCH  10  11
ENDBRANCH   3   5
ENDBRANCH   2   3
ENDBRANCH   1   2
BRANCH   1  61
ATOM     61  C   UNL A   1      31.007  23.934  24.359  1.00  0.00     0.274 C 
BRANCH  61  62
ATOM     62  O   UNL A   1      31.746  22.742  24.017  1.00  0.00    -0.462 OA
BRANCH  62  63
ATOM     63  C   UNL A   1      31.957  21.762  24.946  1.00  0.00     0.309 C 
ATOM     64  O   UNL A   1      31.155  21.454  25.813  1.00  0.00    -0.252 OA
BRANCH  63  65
ATOM     65  C   UNL A   1      33.340  21.065  24.725  1.00  0.00     0.107 C 
BRANCH  65  66
ATOM     66  C   UNL A   1      34.785  21.529  25.845  1.00  0.00     0.051 C 
BRANCH  66  67
ATOM     67  C   UNL A   1      36.790  22.276  25.614  1.00  0.00    -0.044 A 
ATOM     68  C   UNL A   1      38.094  21.597  25.480  1.00  0.00     0.004 A 
ATOM     69  C   UNL A   1      37.311  23.706  25.816  1.00  0.00     0.043 A 
ATOM     70  C   UNL A   1      39.303  21.949  26.162  1.00  0.00     0.003 A 
ATOM     71  C   UNL A   1      38.476  24.078  26.516  1.00  0.00     0.123 A 
ATOM     72  C   UNL A   1      39.428  23.150  26.817  1.00  0.00     0.039 A 
ATOM     73  F   UNL A   1      38.603  25.340  26.947  1.00  0.00    -0.207 F 
ENDBRANCH  66  67
ENDBRANCH  65  66
BRANCH  65  74
ATOM     74  C   UNL A   1      33.038  19.567  24.303  1.00  0.00     0.009 C 
ATOM     75  C   UNL A   1      32.562  19.443  22.825  1.00  0.00     0.033 C 
ATOM     76  C   UNL A   1      34.168  18.556  24.390  1.00  0.00     0.040 C 
ATOM     77  C   UNL A   1      32.201  17.991  22.437  1.00  0.00     0.161 C 
ATOM     78  C   UNL A   1      33.579  17.158  24.270  1.00  0.00     0.069 C 
ATOM     79  O   UNL A   1      33.133  17.008  22.903  1.00  0.00    -0.375 OA
ATOM     80  C   UNL A   1      34.531  16.058  24.820  1.00  0.00     0.035 C 
ATOM     81  C   UNL A   1      32.577  16.706  25.379  1.00  0.00     0.035 C 
ATOM     82  C   UNL A   1      33.315  15.361  25.441  1.00  0.00     0.006 C 
ENDBRANCH  65  74
ENDBRANCH  63  65
ENDBRANCH  62  63
ENDBRANCH  61  62
ENDBRANCH   1  61
TORSDOF 14
ENDMDL
MODEL 2
REMARK VINA RESULT:     -12.7      3.502      6.687
REMARK SMILES O=C(OCCOC(=O)[C@@H](Cc1cccc(F)c1)[C@H]1CCOC2(CCC2)C1)c1ccc(-c2c3nc(c(-c4c(F)cccc4F)c4ccc([nH]4)c(-c4c(F)cccc4F)c4nc(c(-c5c(F)cccc5F)c5ccc2[nH]5)C=C4)C=C3)cc1
REMARK SMILES IDX 4 1 3 2 2 3 1 4 27 5 28 6 80 7 29 8 79 9 30 10 31 11 32 12
REMARK SMILES IDX 73 13 33 14 78 15 72 16 74 17 34 18 77 19 71 20 70 21 35 23
REMARK SMILES IDX 61 24 44 25 60 26 45 27 48 28 59 29 75 30 46 31 47 32 58 34
REMARK SMILES IDX 76 35 49 36 36 37 37 38 42 39 38 40 39 41 41 42 43 43 40 44
REMARK SMILES IDX 62 45 63 46 68 47 64 48 65 49 67 50 69 51 66 52 50 53 51 54
REMARK SMILES IDX 56 55 52 56 53 57 55 58 57 59 54 60 5 61 6 62 7 63 8 64 9 65
REMARK SMILES IDX 10 66 11 67 12 68 17 69 13 70 15 71 14 72 16 73 18 74 19 75
REMARK SMILES IDX 26 76 20 77 22 78 21 79 23 80 25 81 24 82
REMARK H PARENT 74 22 48 33
REMARK Flexibility Score: inf
ROOT
ATOM      1  C   UNL A   1      32.889  29.341  24.841  1.00  0.00     0.275 C 
ENDROOT
BRANCH   1   2
ATOM      2  O   UNL A   1      32.136  29.871  25.926  1.00  0.00    -0.458 OA
BRANCH   2   3
ATOM      3  C   UNL A   1      32.520  30.864  26.736  1.00  0.00     0.338 C 
ATOM      4  O   UNL A   1      31.669  31.662  27.128  1.00  0.00    -0.246 OA
BRANCH   3   5
ATOM      5  C   UNL A   1      33.910  31.078  27.245  1.00  0.00     0.060 A 
ATOM      6  C   UNL A   1      34.884  32.591  27.735  1.00  0.00     0.016 A 
ATOM      7  C   UNL A   1      34.595  29.444  27.632  1.00  0.00     0.016 A 
ATOM      8  C   UNL A   1      36.521  32.369  28.561  1.00  0.00     0.010 A 
ATOM      9  C   UNL A   1      36.092  29.287  28.607  1.00  0.00     0.010 A 
ATOM     10  C   UNL A   1      37.122  30.707  29.021  1.00  0.00    -0.014 A 
BRANCH  10  11
ATOM     11  C   UNL A   1      38.450  30.457  29.699  1.00  0.00     0.031 A 
ATOM     12  C   UNL A   1      38.736  30.912  31.101  1.00  0.00     0.074 A 
ATOM     13  C   UNL A   1      39.480  29.869  29.071  1.00  0.00     0.049 A 
ATOM     14  N   UNL A   1      39.322  30.274  32.079  1.00  0.00    -0.248 NA
ATOM     15  C   UNL A   1      38.320  32.272  31.461  1.00  0.00     0.031 C 
ATOM     16  C   UNL A   1      39.579  29.705  27.639  1.00  0.00     0.029 A 
ATOM     17  N   UNL A   1      40.609  29.242  29.551  1.00  0.00    -0.354 N 
ATOM     18  C   UNL A   1      39.196  31.104  33.186  1.00  0.00     0.074 A 
ATOM     19  C   UNL A   1      38.460  32.273  32.776  1.00  0.00     0.031 C 
ATOM     20  C   UNL A   1      40.525  28.797  27.362  1.00  0.00     0.029 A 
ATOM     21  C   UNL A   1      41.158  28.390  28.609  1.00  0.00     0.049 A 
ATOM     22  H   UNL A   1      40.978  29.383  30.452  1.00  0.00     0.167 HD
ATOM     23  C   UNL A   1      39.757  30.995  34.411  1.00  0.00     0.037 A 
ATOM     24  C   UNL A   1      42.006  27.352  28.773  1.00  0.00     0.037 A 
ATOM     25  C   UNL A   1      40.874  30.134  34.660  1.00  0.00     0.049 A 
ATOM     26  C   UNL A   1      42.612  27.177  30.139  1.00  0.00     0.074 A 
ATOM     27  C   UNL A   1      41.718  30.112  35.753  1.00  0.00     0.029 A 
ATOM     28  N   UNL A   1      41.393  29.250  33.722  1.00  0.00    -0.354 N 
ATOM     29  N   UNL A   1      42.291  27.775  31.262  1.00  0.00    -0.248 NA
ATOM     30  C   UNL A   1      43.751  26.256  30.247  1.00  0.00     0.031 C 
ATOM     31  C   UNL A   1      42.810  29.300  35.427  1.00  0.00     0.029 A 
ATOM     32  C   UNL A   1      42.594  28.741  34.174  1.00  0.00     0.049 A 
ATOM     33  H   UNL A   1      40.967  29.020  32.864  1.00  0.00     0.167 HD
ATOM     34  C   UNL A   1      43.232  27.364  32.192  1.00  0.00     0.074 A 
ATOM     35  C   UNL A   1      44.078  26.391  31.527  1.00  0.00     0.031 C 
ATOM     36  C   UNL A   1      43.422  27.800  33.461  1.00  0.00     0.037 A 
BRANCH  23  37
ATOM     37  C   UNL A   1      39.312  31.995  35.437  1.00  0.00     0.057 A 
ATOM     38  C   UNL A   1      38.365  31.661  36.413  1.00  0.00     0.134 A 
ATOM     39  C   UNL A   1      39.917  33.255  35.527  1.00  0.00     0.134 A 
ATOM     40  F   UNL A   1      37.779  30.455  36.408  1.00  0.00    -0.206 F 
ATOM     41  C   UNL A   1      38.041  32.542  37.447  1.00  0.00     0.040 A 
ATOM     42  C   UNL A   1      39.606  34.143  36.559  1.00  0.00     0.040 A 
ATOM     43  F   UNL A   1      40.862  33.621  34.646  1.00  0.00    -0.206 F 
ATOM     44  C   UNL A   1      38.668  33.785  37.526  1.00  0.00     0.006 A 
ENDBRANCH  23  37
BRANCH  24  45
ATOM     45  C   UNL A   1      42.227  26.357  27.680  1.00  0.00     0.057 A 
ATOM     46  C   UNL A   1      41.552  25.132  27.602  1.00  0.00     0.134 A 
ATOM     47  C   UNL A   1      43.225  26.584  26.718  1.00  0.00     0.134 A 
ATOM     48  F   UNL A   1      40.562  24.847  28.460  1.00  0.00    -0.206 F 
ATOM     49  C   UNL A   1      41.906  24.149  26.671  1.00  0.00     0.040 A 
ATOM     50  C   UNL A   1      43.563  25.627  25.756  1.00  0.00     0.040 A 
ATOM     51  F   UNL A   1      43.906  27.739  26.710  1.00  0.00    -0.206 F 
ATOM     52  C   UNL A   1      42.920  24.393  25.747  1.00  0.00     0.006 A 
ENDBRANCH  24  45
BRANCH  36  53
ATOM     53  C   UNL A   1      44.645  27.322  34.179  1.00  0.00     0.057 A 
ATOM     54  C   UNL A   1      45.880  27.946  33.983  1.00  0.00     0.134 A 
ATOM     55  C   UNL A   1      44.618  26.135  34.924  1.00  0.00     0.134 A 
ATOM     56  F   UNL A   1      45.968  29.073  33.260  1.00  0.00    -0.206 F 
ATOM     57  C   UNL A   1      47.057  27.387  34.477  1.00  0.00     0.040 A 
ATOM     58  C   UNL A   1      45.785  25.580  35.442  1.00  0.00     0.040 A 
ATOM     59  F   UNL A   1      43.460  25.492  35.139  1.00  0.00    -0.206 F 
ATOM     60  C   UNL A   1      47.011  26.199  35.206  1.00  0.00     0.006 A 
ENDBRANCH  36  53
ENDBRANCH  10  11
ENDBRANCH   3   5
ENDBRANCH   2   3
ENDBRANCH   1   2
BRANCH   1  61
ATOM     61  C   UNL A   1      32.398  27.945  24.456  1.00  0.00     0.274 C 
BRANCH  61  62
ATOM     62  O   UNL A   1      32.454  27.049  25.586  1.00  0.00    -0.462 OA
BRANCH  62  63
ATOM     63  C   UNL A   1      31.323  26.743  26.290  1.00  0.00     0.309 C 
ATOM     64  O   UNL A   1      31.028  27.242  27.364  1.00  0.00    -0.252 OA
BRANCH  63  65
ATOM     65  C   UNL A   1      30.444  25.703  25.521  1.00  0.00     0.107 C 
BRANCH  65  66
ATOM     66  C   UNL A   1      29.153  26.328  24.296  1.00  0.00     0.051 C 
BRANCH  66  67
ATOM     67  C   UNL A   1      28.838  28.079  23.083  1.00  0.00    -0.044 A 
ATOM     68  C   UNL A   1      29.701  28.787  22.117  1.00  0.00     0.004 A 
ATOM     69  C   UNL A   1      27.719  29.126  23.181  1.00  0.00     0.043 A 
ATOM     70  C   UNL A   1      29.884  30.204  22.030  1.00  0.00     0.003 A 
ATOM     71  C   UNL A   1      27.881  30.525  23.136  1.00  0.00     0.123 A 
ATOM     72  C   UNL A   1      29.042  31.073  22.681  1.00  0.00     0.039 A 
ATOM     73  F   UNL A   1      26.906  31.308  23.616  1.00  0.00    -0.207 F 
ENDBRANCH  66  67
ENDBRANCH  65  66
BRANCH  65  74
ATOM     74  C   UNL A   1      31.371  24.454  25.215  1.00  0.00     0.009 C 
ATOM     75  C   UNL A   1      30.758  23.113  25.720  1.00  0.00     0.033 C 
ATOM     76  C   UNL A   1      31.716  24.154  23.767  1.00  0.00     0.040 C 
ATOM     77  C   UNL A   1      31.695  21.907  25.484  1.00  0.00     0.161 C 
ATOM     78  C   UNL A   1      32.859  23.150  23.738  1.00  0.00     0.069 C 
ATOM     79  O   UNL A   1      32.320  21.889  24.196  1.00  0.00    -0.375 OA
ATOM     80  C   UNL A   1      33.610  23.137  22.376  1.00  0.00     0.035 C 
ATOM     81  C   UNL A   1      34.217  23.593  24.369  1.00  0.00     0.035 C 
ATOM     82  C   UNL A   1      34.932  23.010  23.142  1.00  0.00     0.006 C 
ENDBRANCH  65  74
ENDBRANCH  63  65
ENDBRANCH  62  63
ENDBRANCH  61  62
ENDBRANCH   1  61
TORSDOF 14
ENDMDL
MODEL 3
REMARK VINA RESULT:     -12.5      4.137      9.978
REMARK SMILES O=C(OCCOC(=O)[C@@H](Cc1cccc(F)c1)[C@H]1CCOC2(CCC2)C1)c1ccc(-c2c3nc(c(-c4c(F)cccc4F)c4ccc([nH]4)c(-c4c(F)cccc4F)c4nc(c(-c5c(F)cccc5F)c5ccc2[nH]5)C=C4)C=C3)cc1
REMARK SMILES IDX 4 1 3 2 2 3 1 4 27 5 28 6 80 7 29 8 79 9 30 10 31 11 32 12
REMARK SMILES IDX 73 13 33 14 78 15 72 16 74 17 34 18 77 19 71 20 70 21 35 23
REMARK SMILES IDX 61 24 44 25 60 26 45 27 48 28 59 29 75 30 46 31 47 32 58 34
REMARK SMILES IDX 76 35 49 36 36 37 37 38 42 39 38 40 39 41 41 42 43 43 40 44
REMARK SMILES IDX 62 45 63 46 68 47 64 48 65 49 67 50 69 51 66 52 50 53 51 54
REMARK SMILES IDX 56 55 52 56 53 57 55 58 57 59 54 60 5 61 6 62 7 63 8 64 9 65
REMARK SMILES IDX 10 66 11 67 12 68 17 69 13 70 15 71 14 72 16 73 18 74 19 75
REMARK SMILES IDX 26 76 20 77 22 78 21 79 23 80 25 81 24 82
REMARK H PARENT 74 22 48 33
REMARK Flexibility Score: inf
ROOT
ATOM      1  C   UNL A   1      33.800  31.703  27.594  1.00  0.00     0.275 C 
ENDROOT
BRANCH   1   2
ATOM      2  O   UNL A   1      33.486  32.245  28.873  1.00  0.00    -0.458 OA
BRANCH   2   3
ATOM      3  C   UNL A   1      34.367  32.567  29.826  1.00  0.00     0.338 C 
ATOM      4  O   UNL A   1      34.078  33.471  30.610  1.00  0.00    -0.246 OA
BRANCH   3   5
ATOM      5  C   UNL A   1      35.684  31.893  30.051  1.00  0.00     0.060 A 
ATOM      6  C   UNL A   1      36.268  30.567  31.226  1.00  0.00     0.016 A 
ATOM      7  C   UNL A   1      36.781  32.397  28.698  1.00  0.00     0.016 A 
ATOM      8  C   UNL A   1      37.951  29.844  30.987  1.00  0.00     0.010 A 
ATOM      9  C   UNL A   1      38.319  31.528  28.396  1.00  0.00     0.010 A 
ATOM     10  C   UNL A   1      38.978  30.310  29.550  1.00  0.00    -0.014 A 
BRANCH  10  11
ATOM     11  C   UNL A   1      40.361  29.754  29.297  1.00  0.00     0.031 A 
ATOM     12  C   UNL A   1      40.593  28.329  28.889  1.00  0.00     0.074 A 
ATOM     13  C   UNL A   1      41.474  30.482  29.481  1.00  0.00     0.049 A 
ATOM     14  N   UNL A   1      41.389  27.845  27.971  1.00  0.00    -0.248 NA
ATOM     15  C   UNL A   1      39.842  27.296  29.610  1.00  0.00     0.031 C 
ATOM     16  C   UNL A   1      41.530  31.717  30.228  1.00  0.00     0.029 A 
ATOM     17  N   UNL A   1      42.757  30.329  29.006  1.00  0.00    -0.354 N 
ATOM     18  C   UNL A   1      41.105  26.486  27.919  1.00  0.00     0.074 A 
ATOM     19  C   UNL A   1      40.054  26.221  28.869  1.00  0.00     0.031 C 
ATOM     20  C   UNL A   1      42.670  32.358  29.938  1.00  0.00     0.029 A 
ATOM     21  C   UNL A   1      43.463  31.519  29.051  1.00  0.00     0.049 A 
ATOM     22  H   UNL A   1      43.127  29.479  28.675  1.00  0.00     0.167 HD
ATOM     23  C   UNL A   1      41.746  25.499  27.255  1.00  0.00     0.037 A 
ATOM     24  C   UNL A   1      44.571  31.892  28.376  1.00  0.00     0.037 A 
ATOM     25  C   UNL A   1      43.070  25.669  26.734  1.00  0.00     0.049 A 
ATOM     26  C   UNL A   1      45.282  30.825  27.589  1.00  0.00     0.074 A 
ATOM     27  C   UNL A   1      43.950  24.704  26.286  1.00  0.00     0.029 A 
ATOM     28  N   UNL A   1      43.754  26.878  26.745  1.00  0.00    -0.354 N 
ATOM     29  N   UNL A   1      44.875  29.611  27.300  1.00  0.00    -0.248 NA
ATOM     30  C   UNL A   1      46.634  31.141  27.111  1.00  0.00     0.031 C 
ATOM     31  C   UNL A   1      45.201  25.312  26.137  1.00  0.00     0.029 A 
ATOM     32  C   UNL A   1      45.073  26.670  26.394  1.00  0.00     0.049 A 
ATOM     33  H   UNL A   1      43.358  27.751  26.968  1.00  0.00     0.167 HD
ATOM     34  C   UNL A   1      45.947  28.991  26.676  1.00  0.00     0.074 A 
ATOM     35  C   UNL A   1      46.986  29.995  26.541  1.00  0.00     0.031 C 
ATOM     36  C   UNL A   1      46.084  27.695  26.308  1.00  0.00     0.037 A 
BRANCH  23  37
ATOM     37  C   UNL A   1      41.105  24.143  27.299  1.00  0.00     0.057 A 
ATOM     38  C   UNL A   1      40.003  23.834  26.493  1.00  0.00     0.134 A 
ATOM     39  C   UNL A   1      41.663  23.106  28.059  1.00  0.00     0.134 A 
ATOM     40  F   UNL A   1      39.448  24.771  25.711  1.00  0.00    -0.206 F 
ATOM     41  C   UNL A   1      39.482  22.540  26.435  1.00  0.00     0.040 A 
ATOM     42  C   UNL A   1      41.154  21.806  28.005  1.00  0.00     0.040 A 
ATOM     43  F   UNL A   1      42.745  23.327  28.823  1.00  0.00    -0.206 F 
ATOM     44  C   UNL A   1      40.062  21.519  27.187  1.00  0.00     0.006 A 
ENDBRANCH  23  37
BRANCH  24  45
ATOM     45  C   UNL A   1      44.992  33.325  28.318  1.00  0.00     0.057 A 
ATOM     46  C   UNL A   1      45.771  33.942  29.305  1.00  0.00     0.134 A 
ATOM     47  C   UNL A   1      44.523  34.151  27.284  1.00  0.00     0.134 A 
ATOM     48  F   UNL A   1      46.287  33.221  30.311  1.00  0.00    -0.206 F 
ATOM     49  C   UNL A   1      46.000  35.323  29.312  1.00  0.00     0.040 A 
ATOM     50  C   UNL A   1      44.778  35.526  27.255  1.00  0.00     0.040 A 
ATOM     51  F   UNL A   1      43.788  33.636  26.288  1.00  0.00    -0.206 F 
ATOM     52  C   UNL A   1      45.498  36.121  28.287  1.00  0.00     0.006 A 
ENDBRANCH  24  45
BRANCH  36  53
ATOM     53  C   UNL A   1      47.431  27.252  25.829  1.00  0.00     0.057 A 
ATOM     54  C   UNL A   1      47.733  27.227  24.465  1.00  0.00     0.134 A 
ATOM     55  C   UNL A   1      48.356  26.687  26.718  1.00  0.00     0.134 A 
ATOM     56  F   UNL A   1      46.875  27.735  23.567  1.00  0.00    -0.206 F 
ATOM     57  C   UNL A   1      48.899  26.624  23.995  1.00  0.00     0.040 A 
ATOM     58  C   UNL A   1      49.534  26.102  26.262  1.00  0.00     0.040 A 
ATOM     59  F   UNL A   1      48.114  26.679  28.039  1.00  0.00    -0.206 F 
ATOM     60  C   UNL A   1      49.800  26.056  24.895  1.00  0.00     0.006 A 
ENDBRANCH  36  53
ENDBRANCH  10  11
ENDBRANCH   3   5
ENDBRANCH   2   3
ENDBRANCH   1   2
BRANCH   1  61
ATOM     61  C   UNL A   1      33.693  30.177  27.599  1.00  0.00     0.274 C 
BRANCH  61  62
ATOM     62  O   UNL A   1      32.327  29.755  27.405  1.00  0.00    -0.462 OA
BRANCH  62  63
ATOM     63  C   UNL A   1      32.033  28.449  27.128  1.00  0.00     0.309 C 
ATOM     64  O   UNL A   1      31.341  27.736  27.837  1.00  0.00    -0.252 OA
BRANCH  63  65
ATOM     65  C   UNL A   1      32.667  28.006  25.768  1.00  0.00     0.107 C 
BRANCH  65  66
ATOM     66  C   UNL A   1      33.995  26.666  25.774  1.00  0.00     0.051 C 
BRANCH  66  67
ATOM     67  C   UNL A   1      34.073  24.515  25.791  1.00  0.00    -0.044 A 
ATOM     68  C   UNL A   1      35.072  23.561  26.312  1.00  0.00     0.004 A 
ATOM     69  C   UNL A   1      33.209  23.517  25.007  1.00  0.00     0.043 A 
ATOM     70  C   UNL A   1      35.560  22.398  25.635  1.00  0.00     0.003 A 
ATOM     71  C   UNL A   1      33.673  22.388  24.303  1.00  0.00     0.123 A 
ATOM     72  C   UNL A   1      34.927  21.902  24.521  1.00  0.00     0.039 A 
ATOM     73  F   UNL A   1      32.892  21.842  23.361  1.00  0.00    -0.207 F 
ENDBRANCH  66  67
ENDBRANCH  65  66
BRANCH  65  74
ATOM     74  C   UNL A   1      31.510  28.051  24.685  1.00  0.00     0.009 C 
ATOM     75  C   UNL A   1      30.551  26.827  24.778  1.00  0.00     0.033 C 
ATOM     76  C   UNL A   1      30.562  29.237  24.697  1.00  0.00     0.040 C 
ATOM     77  C   UNL A   1      29.467  26.837  23.676  1.00  0.00     0.161 C 
ATOM     78  C   UNL A   1      29.772  29.242  23.396  1.00  0.00     0.069 C 
ATOM     79  O   UNL A   1      28.865  28.117  23.454  1.00  0.00    -0.375 OA
ATOM     80  C   UNL A   1      29.148  30.630  23.079  1.00  0.00     0.035 C 
ATOM     81  C   UNL A   1      30.579  29.413  22.070  1.00  0.00     0.035 C 
ATOM     82  C   UNL A   1      29.526  30.428  21.607  1.00  0.00     0.006 C 
ENDBRANCH  65  74
ENDBRANCH  63  65
ENDBRANCH  62  63
ENDBRANCH  61  62
ENDBRANCH   1  61
TORSDOF 14
ENDMDL
