MODEL 1
REMARK VINA RESULT:     -12.9      0.000      0.000
REMARK SMILES CC1CC[NH+]([C@H](c2ccc(F)cc2)c2ccc([C@@H](C)C(=O)OCCOC(=O)c3ccc(-c4c5nc(c(-c6c(F)cccc6F)c6ccc([nH]6)c(-c6c(F)cccc6F)c6nc(c(-c7c(F)cccc7F)c7ccc4[nH]7)C=C6)C=C5)cc3)cc2-c2ccc(C(F)(F)F)cc2)CC1
REMARK SMILES IDX 23 1 22 2 20 3 21 4 18 5 19 6 17 7 14 8 15 9 83 10 16 11
REMARK SMILES IDX 82 12 6 13 5 14 1 15 2 16 3 17 95 18 4 19 94 20 7 22 8 23
REMARK SMILES IDX 13 24 9 25 12 26 10 27 11 28 84 29 85 30 93 31 86 32 92 33
REMARK SMILES IDX 87 34 88 35 89 36 90 37 91 38 24 39 25 40 26 41 27 42 28 43
REMARK SMILES IDX 29 44 81 45 30 46 80 47 31 48 32 49 33 50 74 51 34 52 79 53
REMARK SMILES IDX 73 54 75 55 35 56 78 57 72 58 71 59 36 61 62 62 45 63 61 64
REMARK SMILES IDX 46 65 49 66 60 67 76 68 47 69 48 70 59 72 77 73 50 74 37 75
REMARK SMILES IDX 38 76 43 77 39 78 40 79 42 80 44 81 41 82 63 83 64 84 69 85
REMARK SMILES IDX 65 86 66 87 68 88 70 89 67 90 51 91 52 92 57 93 53 94 54 95
REMARK SMILES IDX 56 96 58 97 55 98
REMARK H PARENT 5 21 75 60 49 71
REMARK Flexibility Score: inf
ROOT
ATOM      1  C   UNL A   1      42.461  21.380  26.082  1.00  0.00     0.274 C 
ENDROOT
BRANCH   1   2
ATOM      2  O   UNL A   1      41.059  21.338  25.758  1.00  0.00    -0.462 OA
BRANCH   2   3
ATOM      3  C   UNL A   1      40.197  22.009  26.566  1.00  0.00     0.313 C 
ATOM      4  O   UNL A   1      40.117  21.843  27.779  1.00  0.00    -0.252 OA
BRANCH   3   5
ATOM      5  C   UNL A   1      39.284  22.977  25.808  1.00  0.00     0.126 C 
ATOM      6  C   UNL A   1      39.264  24.329  26.518  1.00  0.00     0.025 C 
BRANCH   5   7
ATOM      7  C   UNL A   1      37.884  22.455  25.520  1.00  0.00    -0.033 A 
ATOM      8  C   UNL A   1      35.272  21.439  24.904  1.00  0.00     0.022 A 
ATOM      9  C   UNL A   1      36.256  20.669  25.556  1.00  0.00     0.011 A 
ATOM     10  C   UNL A   1      35.622  22.777  24.566  1.00  0.00    -0.009 A 
ATOM     11  C   UNL A   1      37.513  21.167  25.884  1.00  0.00     0.005 A 
ATOM     12  C   UNL A   1      36.924  23.251  24.873  1.00  0.00     0.013 A 
BRANCH   8  13
ATOM     13  C   UNL A   1      33.857  20.855  24.621  1.00  0.00     0.247 C 
BRANCH  13  14
ATOM     14  N   UNL A   1      32.678  21.504  25.288  1.00  0.00    -0.325 N 
ATOM     15  C   UNL A   1      30.229  24.957  26.485  1.00  0.00     0.008 C 
ATOM     16  C   UNL A   1      31.271  23.986  25.939  1.00  0.00    -0.003 C 
ATOM     17  C   UNL A   1      30.665  23.017  24.925  1.00  0.00     0.065 C 
ATOM     18  C   UNL A   1      31.886  23.146  27.051  1.00  0.00     0.065 C 
ATOM     19  C   UNL A   1      31.730  22.089  24.334  1.00  0.00     0.263 C 
ATOM     20  C   UNL A   1      32.998  22.248  26.509  1.00  0.00     0.263 C 
ATOM     21  H   UNL A   1      32.117  20.757  25.699  1.00  0.00     0.348 HD
ENDBRANCH  13  14
BRANCH  13  22
ATOM     22  C   UNL A   1      33.767  19.324  24.731  1.00  0.00     0.014 A 
ATOM     23  C   UNL A   1      34.785  18.480  24.248  1.00  0.00     0.013 A 
ATOM     24  C   UNL A   1      32.646  18.738  25.353  1.00  0.00     0.013 A 
ATOM     25  C   UNL A   1      34.684  17.093  24.386  1.00  0.00     0.040 A 
ATOM     26  C   UNL A   1      32.538  17.352  25.469  1.00  0.00     0.040 A 
ATOM     27  C   UNL A   1      33.560  16.544  24.989  1.00  0.00     0.123 A 
ATOM     28  F   UNL A   1      33.461  15.213  25.113  1.00  0.00    -0.207 F 
ENDBRANCH  13  22
ENDBRANCH   8  13
BRANCH  10  29
ATOM     29  C   UNL A   1      34.698  23.710  23.889  1.00  0.00    -0.018 A 
ATOM     30  C   UNL A   1      34.168  23.400  22.626  1.00  0.00     0.009 A 
ATOM     31  C   UNL A   1      34.325  24.925  24.483  1.00  0.00     0.009 A 
ATOM     32  C   UNL A   1      33.255  24.254  21.997  1.00  0.00     0.014 A 
ATOM     33  C   UNL A   1      33.406  25.777  23.861  1.00  0.00     0.014 A 
ATOM     34  C   UNL A   1      32.848  25.443  22.619  1.00  0.00     0.056 A 
BRANCH  34  35
ATOM     35  C   UNL A   1      31.838  26.343  21.949  1.00  0.00     0.416 C 
ATOM     36  F   UNL A   1      32.255  27.637  21.881  1.00  0.00    -0.166 F 
ATOM     37  F   UNL A   1      31.567  25.969  20.666  1.00  0.00    -0.166 F 
ATOM     38  F   UNL A   1      30.634  26.373  22.586  1.00  0.00    -0.166 F 
ENDBRANCH  34  35
ENDBRANCH  10  29
ENDBRANCH   5   7
ENDBRANCH   3   5
ENDBRANCH   2   3
ENDBRANCH   1   2
BRANCH   1  39
ATOM     39  C   UNL A   1      43.241  22.128  25.000  1.00  0.00     0.275 C 
BRANCH  39  40
ATOM     40  O   UNL A   1      42.875  23.519  24.994  1.00  0.00    -0.458 OA
BRANCH  40  41
ATOM     41  C   UNL A   1      43.887  24.391  25.207  1.00  0.00     0.338 C 
ATOM     42  O   UNL A   1      44.904  24.538  24.554  1.00  0.00    -0.246 OA
BRANCH  41  43
ATOM     43  C   UNL A   1      43.520  25.259  26.333  1.00  0.00     0.060 A 
ATOM     44  C   UNL A   1      42.730  24.723  27.352  1.00  0.00     0.016 A 
ATOM     45  C   UNL A   1      43.904  26.598  26.357  1.00  0.00     0.016 A 
ATOM     46  C   UNL A   1      42.308  25.526  28.404  1.00  0.00     0.010 A 
ATOM     47  C   UNL A   1      43.485  27.406  27.418  1.00  0.00     0.010 A 
ATOM     48  C   UNL A   1      42.676  26.876  28.440  1.00  0.00    -0.014 A 
BRANCH  48  49
ATOM     49  C   UNL A   1      42.166  27.745  29.522  1.00  0.00     0.031 A 
ATOM     50  C   UNL A   1      42.857  27.758  30.852  1.00  0.00     0.074 A 
ATOM     51  C   UNL A   1      41.095  28.529  29.305  1.00  0.00     0.049 A 
ATOM     52  N   UNL A   1      42.524  28.386  31.950  1.00  0.00    -0.248 NA
ATOM     53  C   UNL A   1      44.085  26.956  30.961  1.00  0.00     0.031 C 
ATOM     54  C   UNL A   1      40.370  28.632  28.039  1.00  0.00     0.029 A 
ATOM     55  N   UNL A   1      40.433  29.386  30.146  1.00  0.00    -0.354 N 
ATOM     56  C   UNL A   1      43.485  28.035  32.888  1.00  0.00     0.074 A 
ATOM     57  C   UNL A   1      44.406  27.131  32.235  1.00  0.00     0.031 C 
ATOM     58  C   UNL A   1      39.360  29.504  28.187  1.00  0.00     0.029 A 
ATOM     59  C   UNL A   1      39.344  29.986  29.566  1.00  0.00     0.049 A 
ATOM     60  H   UNL A   1      40.711  29.554  31.075  1.00  0.00     0.167 HD
ATOM     61  C   UNL A   1      43.585  28.435  34.178  1.00  0.00     0.037 A 
ATOM     62  C   UNL A   1      38.421  30.812  30.094  1.00  0.00     0.037 A 
ATOM     63  C   UNL A   1      42.677  29.353  34.814  1.00  0.00     0.049 A 
ATOM     64  C   UNL A   1      38.523  31.206  31.538  1.00  0.00     0.074 A 
ATOM     65  C   UNL A   1      42.718  29.849  36.104  1.00  0.00     0.029 A 
ATOM     66  N   UNL A   1      41.561  29.909  34.205  1.00  0.00    -0.354 N 
ATOM     67  N   UNL A   1      39.432  30.868  32.421  1.00  0.00    -0.248 NA
ATOM     68  C   UNL A   1      37.469  32.085  32.066  1.00  0.00     0.031 C 
ATOM     69  C   UNL A   1      41.602  30.672  36.291  1.00  0.00     0.029 A 
ATOM     70  C   UNL A   1      40.889  30.722  35.103  1.00  0.00     0.049 A 
ATOM     71  H   UNL A   1      41.288  29.750  33.273  1.00  0.00     0.167 HD
ATOM     72  C   UNL A   1      39.068  31.496  33.604  1.00  0.00     0.074 A 
ATOM     73  C   UNL A   1      37.860  32.246  33.324  1.00  0.00     0.031 C 
ATOM     74  C   UNL A   1      39.681  31.452  34.812  1.00  0.00     0.037 A 
BRANCH  61  75
ATOM     75  C   UNL A   1      44.698  27.853  34.994  1.00  0.00     0.057 A 
ATOM     76  C   UNL A   1      44.493  26.689  35.745  1.00  0.00     0.134 A 
ATOM     77  C   UNL A   1      45.964  28.450  35.058  1.00  0.00     0.134 A 
ATOM     78  F   UNL A   1      43.303  26.070  35.729  1.00  0.00    -0.206 F 
ATOM     79  C   UNL A   1      45.506  26.141  36.533  1.00  0.00     0.040 A 
ATOM     80  C   UNL A   1      46.992  27.898  35.824  1.00  0.00     0.040 A 
ATOM     81  F   UNL A   1      46.230  29.557  34.348  1.00  0.00    -0.206 F 
ATOM     82  C   UNL A   1      46.761  26.743  36.570  1.00  0.00     0.006 A 
ENDBRANCH  61  75
BRANCH  62  83
ATOM     83  C   UNL A   1      37.317  31.302  29.234  1.00  0.00     0.057 A 
ATOM     84  C   UNL A   1      37.300  32.615  28.750  1.00  0.00     0.134 A 
ATOM     85  C   UNL A   1      36.219  30.488  28.936  1.00  0.00     0.134 A 
ATOM     86  F   UNL A   1      38.324  33.444  29.007  1.00  0.00    -0.206 F 
ATOM     87  C   UNL A   1      36.218  33.113  28.024  1.00  0.00     0.040 A 
ATOM     88  C   UNL A   1      35.138  30.967  28.195  1.00  0.00     0.040 A 
ATOM     89  F   UNL A   1      36.187  29.216  29.358  1.00  0.00    -0.206 F 
ATOM     90  C   UNL A   1      35.130  32.288  27.747  1.00  0.00     0.006 A 
ENDBRANCH  62  83
BRANCH  74  91
ATOM     91  C   UNL A   1      39.062  32.236  35.931  1.00  0.00     0.057 A 
ATOM     92  C   UNL A   1      39.423  33.570  36.155  1.00  0.00     0.134 A 
ATOM     93  C   UNL A   1      38.167  31.645  36.830  1.00  0.00     0.134 A 
ATOM     94  F   UNL A   1      40.283  34.190  35.333  1.00  0.00    -0.206 F 
ATOM     95  C   UNL A   1      38.929  34.285  37.246  1.00  0.00     0.040 A 
ATOM     96  C   UNL A   1      37.649  32.357  37.914  1.00  0.00     0.040 A 
ATOM     97  F   UNL A   1      37.773  30.374  36.662  1.00  0.00    -0.206 F 
ATOM     98  C   UNL A   1      38.038  33.678  38.129  1.00  0.00     0.006 A 
ENDBRANCH  74  91
ENDBRANCH  48  49
ENDBRANCH  41  43
ENDBRANCH  40  41
ENDBRANCH  39  40
ENDBRANCH   1  39
TORSDOF 17
ENDMDL
MODEL 2
REMARK VINA RESULT:     -12.9      4.917     10.077
REMARK SMILES CC1CC[NH+]([C@H](c2ccc(F)cc2)c2ccc([C@@H](C)C(=O)OCCOC(=O)c3ccc(-c4c5nc(c(-c6c(F)cccc6F)c6ccc([nH]6)c(-c6c(F)cccc6F)c6nc(c(-c7c(F)cccc7F)c7ccc4[nH]7)C=C6)C=C5)cc3)cc2-c2ccc(C(F)(F)F)cc2)CC1
REMARK SMILES IDX 23 1 22 2 20 3 21 4 18 5 19 6 17 7 14 8 15 9 83 10 16 11
REMARK SMILES IDX 82 12 6 13 5 14 1 15 2 16 3 17 95 18 4 19 94 20 7 22 8 23
REMARK SMILES IDX 13 24 9 25 12 26 10 27 11 28 84 29 85 30 93 31 86 32 92 33
REMARK SMILES IDX 87 34 88 35 89 36 90 37 91 38 24 39 25 40 26 41 27 42 28 43
REMARK SMILES IDX 29 44 81 45 30 46 80 47 31 48 32 49 33 50 74 51 34 52 79 53
REMARK SMILES IDX 73 54 75 55 35 56 78 57 72 58 71 59 36 61 62 62 45 63 61 64
REMARK SMILES IDX 46 65 49 66 60 67 76 68 47 69 48 70 59 72 77 73 50 74 37 75
REMARK SMILES IDX 38 76 43 77 39 78 40 79 42 80 44 81 41 82 63 83 64 84 69 85
REMARK SMILES IDX 65 86 66 87 68 88 70 89 67 90 51 91 52 92 57 93 53 94 54 95
REMARK SMILES IDX 56 96 58 97 55 98
REMARK H PARENT 5 21 75 60 49 71
REMARK Flexibility Score: inf
ROOT
ATOM      1  C   UNL A   1      34.395  33.798  29.949  1.00  0.00     0.274 C 
ENDROOT
BRANCH   1   2
ATOM      2  O   UNL A   1      33.961  32.556  29.365  1.00  0.00    -0.462 OA
BRANCH   2   3
ATOM      3  C   UNL A   1      34.732  32.006  28.389  1.00  0.00     0.313 C 
ATOM      4  O   UNL A   1      35.442  32.651  27.626  1.00  0.00    -0.252 OA
BRANCH   3   5
ATOM      5  C   UNL A   1      34.597  30.483  28.296  1.00  0.00     0.126 C 
ATOM      6  C   UNL A   1      35.981  29.850  28.176  1.00  0.00     0.025 C 
BRANCH   5   7
ATOM      7  C   UNL A   1      33.638  29.982  27.227  1.00  0.00    -0.033 A 
ATOM      8  C   UNL A   1      31.763  29.056  25.260  1.00  0.00     0.022 A 
ATOM      9  C   UNL A   1      32.142  30.409  25.376  1.00  0.00     0.011 A 
ATOM     10  C   UNL A   1      32.369  28.139  26.166  1.00  0.00    -0.009 A 
ATOM     11  C   UNL A   1      33.072  30.858  26.308  1.00  0.00     0.005 A 
ATOM     12  C   UNL A   1      33.286  28.625  27.135  1.00  0.00     0.013 A 
BRANCH   8  13
ATOM     13  C   UNL A   1      30.769  28.595  24.155  1.00  0.00     0.247 C 
BRANCH  13  14
ATOM     14  N   UNL A   1      31.264  27.630  23.115  1.00  0.00    -0.325 N 
ATOM     15  C   UNL A   1      33.353  23.996  21.782  1.00  0.00     0.008 C 
ATOM     16  C   UNL A   1      32.721  25.158  22.540  1.00  0.00    -0.003 C 
ATOM     17  C   UNL A   1      31.207  25.208  22.342  1.00  0.00     0.065 C 
ATOM     18  C   UNL A   1      33.278  26.497  22.071  1.00  0.00     0.065 C 
ATOM     19  C   UNL A   1      30.573  26.337  23.158  1.00  0.00     0.263 C 
ATOM     20  C   UNL A   1      32.713  27.647  22.905  1.00  0.00     0.263 C 
ATOM     21  H   UNL A   1      30.966  27.989  22.208  1.00  0.00     0.348 HD
ENDBRANCH  13  14
BRANCH  13  22
ATOM     22  C   UNL A   1      29.972  29.736  23.501  1.00  0.00     0.014 A 
ATOM     23  C   UNL A   1      29.507  30.840  24.239  1.00  0.00     0.013 A 
ATOM     24  C   UNL A   1      29.714  29.696  22.116  1.00  0.00     0.013 A 
ATOM     25  C   UNL A   1      28.807  31.873  23.609  1.00  0.00     0.040 A 
ATOM     26  C   UNL A   1      28.995  30.717  21.493  1.00  0.00     0.040 A 
ATOM     27  C   UNL A   1      28.554  31.798  22.245  1.00  0.00     0.123 A 
ATOM     28  F   UNL A   1      27.875  32.785  21.644  1.00  0.00    -0.207 F 
ENDBRANCH  13  22
ENDBRANCH   8  13
BRANCH  10  29
ATOM     29  C   UNL A   1      32.084  26.690  26.165  1.00  0.00    -0.018 A 
ATOM     30  C   UNL A   1      30.775  26.219  26.363  1.00  0.00     0.009 A 
ATOM     31  C   UNL A   1      33.102  25.746  25.966  1.00  0.00     0.009 A 
ATOM     32  C   UNL A   1      30.484  24.852  26.316  1.00  0.00     0.014 A 
ATOM     33  C   UNL A   1      32.814  24.378  25.909  1.00  0.00     0.014 A 
ATOM     34  C   UNL A   1      31.500  23.917  26.067  1.00  0.00     0.056 A 
BRANCH  34  35
ATOM     35  C   UNL A   1      31.174  22.445  25.986  1.00  0.00     0.416 C 
ATOM     36  F   UNL A   1      29.903  22.168  26.386  1.00  0.00    -0.166 F 
ATOM     37  F   UNL A   1      31.285  21.950  24.720  1.00  0.00    -0.166 F 
ATOM     38  F   UNL A   1      31.986  21.668  26.757  1.00  0.00    -0.166 F 
ENDBRANCH  34  35
ENDBRANCH  10  29
ENDBRANCH   5   7
ENDBRANCH   3   5
ENDBRANCH   2   3
ENDBRANCH   1   2
BRANCH   1  39
ATOM     39  C   UNL A   1      34.529  33.661  31.465  1.00  0.00     0.275 C 
BRANCH  39  40
ATOM     40  O   UNL A   1      35.004  32.347  31.807  1.00  0.00    -0.458 OA
BRANCH  40  41
ATOM     41  C   UNL A   1      36.085  32.309  32.620  1.00  0.00     0.338 C 
ATOM     42  O   UNL A   1      36.152  32.612  33.796  1.00  0.00    -0.246 OA
BRANCH  41  43
ATOM     43  C   UNL A   1      37.202  31.714  31.876  1.00  0.00     0.060 A 
ATOM     44  C   UNL A   1      38.074  30.864  32.559  1.00  0.00     0.016 A 
ATOM     45  C   UNL A   1      37.420  32.034  30.537  1.00  0.00     0.016 A 
ATOM     46  C   UNL A   1      39.180  30.330  31.909  1.00  0.00     0.010 A 
ATOM     47  C   UNL A   1      38.528  31.492  29.880  1.00  0.00     0.010 A 
ATOM     48  C   UNL A   1      39.420  30.647  30.567  1.00  0.00    -0.014 A 
BRANCH  48  49
ATOM     49  C   UNL A   1      40.636  30.135  29.900  1.00  0.00     0.031 A 
ATOM     50  C   UNL A   1      41.806  31.046  29.687  1.00  0.00     0.074 A 
ATOM     51  C   UNL A   1      40.693  28.851  29.501  1.00  0.00     0.049 A 
ATOM     52  N   UNL A   1      42.929  30.816  29.057  1.00  0.00    -0.248 NA
ATOM     53  C   UNL A   1      41.697  32.398  30.257  1.00  0.00     0.031 C 
ATOM     54  C   UNL A   1      39.633  27.862  29.695  1.00  0.00     0.029 A 
ATOM     55  N   UNL A   1      41.683  28.164  28.849  1.00  0.00    -0.354 N 
ATOM     56  C   UNL A   1      43.650  32.000  29.131  1.00  0.00     0.074 A 
ATOM     57  C   UNL A   1      42.833  32.950  29.856  1.00  0.00     0.031 C 
ATOM     58  C   UNL A   1      40.031  26.692  29.171  1.00  0.00     0.029 A 
ATOM     59  C   UNL A   1      41.352  26.862  28.570  1.00  0.00     0.049 A 
ATOM     60  H   UNL A   1      42.548  28.565  28.604  1.00  0.00     0.167 HD
ATOM     61  C   UNL A   1      44.882  32.266  28.637  1.00  0.00     0.037 A 
ATOM     62  C   UNL A   1      42.026  25.919  27.885  1.00  0.00     0.037 A 
ATOM     63  C   UNL A   1      45.697  31.309  27.936  1.00  0.00     0.049 A 
ATOM     64  C   UNL A   1      43.370  26.248  27.304  1.00  0.00     0.074 A 
ATOM     65  C   UNL A   1      46.975  31.472  27.433  1.00  0.00     0.029 A 
ATOM     66  N   UNL A   1      45.310  30.010  27.638  1.00  0.00    -0.354 N 
ATOM     67  N   UNL A   1      44.044  27.371  27.376  1.00  0.00    -0.248 NA
ATOM     68  C   UNL A   1      44.044  25.188  26.541  1.00  0.00     0.031 C 
ATOM     69  C   UNL A   1      47.345  30.285  26.790  1.00  0.00     0.029 A 
ATOM     70  C   UNL A   1      46.313  29.369  26.931  1.00  0.00     0.049 A 
ATOM     71  H   UNL A   1      44.450  29.605  27.891  1.00  0.00     0.167 HD
ATOM     72  C   UNL A   1      45.223  27.154  26.675  1.00  0.00     0.074 A 
ATOM     73  C   UNL A   1      45.178  25.787  26.196  1.00  0.00     0.031 C 
ATOM     74  C   UNL A   1      46.248  28.011  26.450  1.00  0.00     0.037 A 
BRANCH  61  75
ATOM     75  C   UNL A   1      45.407  33.659  28.809  1.00  0.00     0.057 A 
ATOM     76  C   UNL A   1      46.214  33.980  29.908  1.00  0.00     0.134 A 
ATOM     77  C   UNL A   1      45.101  34.686  27.907  1.00  0.00     0.134 A 
ATOM     78  F   UNL A   1      46.542  33.042  30.810  1.00  0.00    -0.206 F 
ATOM     79  C   UNL A   1      46.696  35.275  30.105  1.00  0.00     0.040 A 
ATOM     80  C   UNL A   1      45.596  35.979  28.082  1.00  0.00     0.040 A 
ATOM     81  F   UNL A   1      44.347  34.438  26.826  1.00  0.00    -0.206 F 
ATOM     82  C   UNL A   1      46.391  36.278  29.187  1.00  0.00     0.006 A 
ENDBRANCH  61  75
BRANCH  62  83
ATOM     83  C   UNL A   1      41.414  24.581  27.710  1.00  0.00     0.057 A 
ATOM     84  C   UNL A   1      41.860  23.476  28.446  1.00  0.00     0.134 A 
ATOM     85  C   UNL A   1      40.418  24.362  26.753  1.00  0.00     0.134 A 
ATOM     86  F   UNL A   1      42.816  23.623  29.375  1.00  0.00    -0.206 F 
ATOM     87  C   UNL A   1      41.358  22.195  28.216  1.00  0.00     0.040 A 
ATOM     88  C   UNL A   1      39.893  23.089  26.526  1.00  0.00     0.040 A 
ATOM     89  F   UNL A   1      39.939  25.385  26.031  1.00  0.00    -0.206 F 
ATOM     90  C   UNL A   1      40.372  21.998  27.251  1.00  0.00     0.006 A 
ENDBRANCH  62  83
BRANCH  74  91
ATOM     91  C   UNL A   1      47.411  27.506  25.650  1.00  0.00     0.057 A 
ATOM     92  C   UNL A   1      47.414  27.599  24.253  1.00  0.00     0.134 A 
ATOM     93  C   UNL A   1      48.491  26.857  26.260  1.00  0.00     0.134 A 
ATOM     94  F   UNL A   1      46.403  28.203  23.609  1.00  0.00    -0.206 F 
ATOM     95  C   UNL A   1      48.444  27.051  23.488  1.00  0.00     0.040 A 
ATOM     96  C   UNL A   1      49.538  26.322  25.507  1.00  0.00     0.040 A 
ATOM     97  F   UNL A   1      48.551  26.745  27.595  1.00  0.00    -0.206 F 
ATOM     98  C   UNL A   1      49.510  26.410  24.115  1.00  0.00     0.006 A 
ENDBRANCH  74  91
ENDBRANCH  48  49
ENDBRANCH  41  43
ENDBRANCH  40  41
ENDBRANCH  39  40
ENDBRANCH   1  39
TORSDOF 17
ENDMDL
MODEL 3
REMARK VINA RESULT:     -12.7      1.406      3.098
REMARK SMILES CC1CC[NH+]([C@H](c2ccc(F)cc2)c2ccc([C@@H](C)C(=O)OCCOC(=O)c3ccc(-c4c5nc(c(-c6c(F)cccc6F)c6ccc([nH]6)c(-c6c(F)cccc6F)c6nc(c(-c7c(F)cccc7F)c7ccc4[nH]7)C=C6)C=C5)cc3)cc2-c2ccc(C(F)(F)F)cc2)CC1
REMARK SMILES IDX 23 1 22 2 20 3 21 4 18 5 19 6 17 7 14 8 15 9 83 10 16 11
REMARK SMILES IDX 82 12 6 13 5 14 1 15 2 16 3 17 95 18 4 19 94 20 7 22 8 23
REMARK SMILES IDX 13 24 9 25 12 26 10 27 11 28 84 29 85 30 93 31 86 32 92 33
REMARK SMILES IDX 87 34 88 35 89 36 90 37 91 38 24 39 25 40 26 41 27 42 28 43
REMARK SMILES IDX 29 44 81 45 30 46 80 47 31 48 32 49 33 50 74 51 34 52 79 53
REMARK SMILES IDX 73 54 75 55 35 56 78 57 72 58 71 59 36 61 62 62 45 63 61 64
REMARK SMILES IDX 46 65 49 66 60 67 76 68 47 69 48 70 59 72 77 73 50 74 37 75
REMARK SMILES IDX 38 76 43 77 39 78 40 79 42 80 44 81 41 82 63 83 64 84 69 85
REMARK SMILES IDX 65 86 66 87 68 88 70 89 67 90 51 91 52 92 57 93 53 94 54 95
REMARK SMILES IDX 56 96 58 97 55 98
REMARK H PARENT 5 21 75 60 49 71
REMARK Flexibility Score: inf
ROOT
ATOM      1  C   UNL A   1      42.624  21.584  26.032  1.00  0.00     0.274 C 
ENDROOT
BRANCH   1   2
ATOM      2  O   UNL A   1      41.224  21.772  25.755  1.00  0.00    -0.462 OA
BRANCH   2   3
ATOM      3  C   UNL A   1      40.408  22.109  26.788  1.00  0.00     0.313 C 
ATOM      4  O   UNL A   1      40.398  21.537  27.873  1.00  0.00    -0.252 OA
BRANCH   3   5
ATOM      5  C   UNL A   1      39.451  23.257  26.457  1.00  0.00     0.126 C 
ATOM      6  C   UNL A   1      39.430  24.259  27.608  1.00  0.00     0.025 C 
BRANCH   5   7
ATOM      7  C   UNL A   1      38.052  22.833  26.035  1.00  0.00    -0.033 A 
ATOM      8  C   UNL A   1      35.431  22.056  25.161  1.00  0.00     0.022 A 
ATOM      9  C   UNL A   1      36.546  21.196  25.087  1.00  0.00     0.011 A 
ATOM     10  C   UNL A   1      35.652  23.350  25.711  1.00  0.00    -0.009 A 
ATOM     11  C   UNL A   1      37.812  21.558  25.537  1.00  0.00     0.005 A 
ATOM     12  C   UNL A   1      36.960  23.712  26.127  1.00  0.00     0.013 A 
BRANCH   8  13
ATOM     13  C   UNL A   1      34.021  21.578  24.706  1.00  0.00     0.247 C 
BRANCH  13  14
ATOM     14  N   UNL A   1      33.880  20.170  24.201  1.00  0.00    -0.325 N 
ATOM     15  C   UNL A   1      33.013  15.883  24.662  1.00  0.00     0.008 C 
ATOM     16  C   UNL A   1      33.252  17.380  24.821  1.00  0.00    -0.003 C 
ATOM     17  C   UNL A   1      32.285  18.202  23.970  1.00  0.00     0.065 C 
ATOM     18  C   UNL A   1      34.664  17.766  24.395  1.00  0.00     0.065 C 
ATOM     19  C   UNL A   1      32.489  19.704  24.186  1.00  0.00     0.263 C 
ATOM     20  C   UNL A   1      34.926  19.250  24.653  1.00  0.00     0.263 C 
ATOM     21  H   UNL A   1      34.100  20.186  23.205  1.00  0.00     0.348 HD
ENDBRANCH  13  14
BRANCH  13  22
ATOM     22  C   UNL A   1      33.284  22.562  23.782  1.00  0.00     0.014 A 
ATOM     23  C   UNL A   1      31.970  22.992  24.045  1.00  0.00     0.013 A 
ATOM     24  C   UNL A   1      33.944  23.073  22.646  1.00  0.00     0.013 A 
ATOM     25  C   UNL A   1      31.338  23.906  23.198  1.00  0.00     0.040 A 
ATOM     26  C   UNL A   1      33.302  23.970  21.791  1.00  0.00     0.040 A 
ATOM     27  C   UNL A   1      32.008  24.381  22.078  1.00  0.00     0.123 A 
ATOM     28  F   UNL A   1      31.397  25.251  21.263  1.00  0.00    -0.207 F 
ENDBRANCH  13  22
ENDBRANCH   8  13
BRANCH  10  29
ATOM     29  C   UNL A   1      34.584  24.359  25.864  1.00  0.00    -0.018 A 
ATOM     30  C   UNL A   1      34.592  25.530  25.087  1.00  0.00     0.009 A 
ATOM     31  C   UNL A   1      33.538  24.181  26.780  1.00  0.00     0.009 A 
ATOM     32  C   UNL A   1      33.561  26.470  25.189  1.00  0.00     0.014 A 
ATOM     33  C   UNL A   1      32.500  25.115  26.878  1.00  0.00     0.014 A 
ATOM     34  C   UNL A   1      32.492  26.261  26.072  1.00  0.00     0.056 A 
BRANCH  34  35
ATOM     35  C   UNL A   1      31.366  27.264  26.152  1.00  0.00     0.416 C 
ATOM     36  F   UNL A   1      31.647  28.420  25.491  1.00  0.00    -0.166 F 
ATOM     37  F   UNL A   1      30.204  26.797  25.613  1.00  0.00    -0.166 F 
ATOM     38  F   UNL A   1      31.058  27.629  27.429  1.00  0.00    -0.166 F 
ENDBRANCH  34  35
ENDBRANCH  10  29
ENDBRANCH   5   7
ENDBRANCH   3   5
ENDBRANCH   2   3
ENDBRANCH   1   2
BRANCH   1  39
ATOM     39  C   UNL A   1      43.478  22.426  25.085  1.00  0.00     0.275 C 
BRANCH  39  40
ATOM     40  O   UNL A   1      43.041  23.796  25.104  1.00  0.00    -0.458 OA
BRANCH  40  41
ATOM     41  C   UNL A   1      44.013  24.718  25.288  1.00  0.00     0.338 C 
ATOM     42  O   UNL A   1      45.005  24.911  24.610  1.00  0.00    -0.246 OA
BRANCH  41  43
ATOM     43  C   UNL A   1      43.631  25.574  26.418  1.00  0.00     0.060 A 
ATOM     44  C   UNL A   1      42.937  24.994  27.483  1.00  0.00     0.016 A 
ATOM     45  C   UNL A   1      43.903  26.941  26.404  1.00  0.00     0.016 A 
ATOM     46  C   UNL A   1      42.502  25.780  28.542  1.00  0.00     0.010 A 
ATOM     47  C   UNL A   1      43.471  27.731  27.473  1.00  0.00     0.010 A 
ATOM     48  C   UNL A   1      42.759  27.156  28.541  1.00  0.00    -0.014 A 
BRANCH  48  49
ATOM     49  C   UNL A   1      42.231  28.000  29.635  1.00  0.00     0.031 A 
ATOM     50  C   UNL A   1      42.952  28.051  30.947  1.00  0.00     0.074 A 
ATOM     51  C   UNL A   1      41.117  28.730  29.442  1.00  0.00     0.049 A 
ATOM     52  N   UNL A   1      42.614  28.663  32.052  1.00  0.00    -0.248 NA
ATOM     53  C   UNL A   1      44.221  27.310  31.028  1.00  0.00     0.031 C 
ATOM     54  C   UNL A   1      40.359  28.793  28.194  1.00  0.00     0.029 A 
ATOM     55  N   UNL A   1      40.433  29.553  30.297  1.00  0.00    -0.354 N 
ATOM     56  C   UNL A   1      43.613  28.362  32.968  1.00  0.00     0.074 A 
ATOM     57  C   UNL A   1      44.563  27.504  32.294  1.00  0.00     0.031 C 
ATOM     58  C   UNL A   1      39.310  29.614  28.364  1.00  0.00     0.029 A 
ATOM     59  C   UNL A   1      39.302  30.098  29.743  1.00  0.00     0.049 A 
ATOM     60  H   UNL A   1      40.724  29.737  31.220  1.00  0.00     0.167 HD
ATOM     61  C   UNL A   1      43.723  28.769  34.255  1.00  0.00     0.037 A 
ATOM     62  C   UNL A   1      38.352  30.877  30.292  1.00  0.00     0.037 A 
ATOM     63  C   UNL A   1      42.786  29.641  34.911  1.00  0.00     0.049 A 
ATOM     64  C   UNL A   1      38.468  31.279  31.734  1.00  0.00     0.074 A 
ATOM     65  C   UNL A   1      42.833  30.142  36.200  1.00  0.00     0.029 A 
ATOM     66  N   UNL A   1      41.630  30.140  34.328  1.00  0.00    -0.354 N 
ATOM     67  N   UNL A   1      39.414  30.988  32.595  1.00  0.00    -0.248 NA
ATOM     68  C   UNL A   1      37.385  32.105  32.285  1.00  0.00     0.031 C 
ATOM     69  C   UNL A   1      41.682  30.908  36.412  1.00  0.00     0.029 A 
ATOM     70  C   UNL A   1      40.939  30.920  35.242  1.00  0.00     0.049 A 
ATOM     71  H   UNL A   1      41.342  29.966  33.404  1.00  0.00     0.167 HD
ATOM     72  C   UNL A   1      39.046  31.599  33.786  1.00  0.00     0.074 A 
ATOM     73  C   UNL A   1      37.797  32.287  33.534  1.00  0.00     0.031 C 
ATOM     74  C   UNL A   1      39.689  31.589  34.979  1.00  0.00     0.037 A 
BRANCH  61  75
ATOM     75  C   UNL A   1      44.884  28.245  35.045  1.00  0.00     0.057 A 
ATOM     76  C   UNL A   1      46.126  28.888  34.990  1.00  0.00     0.134 A 
ATOM     77  C   UNL A   1      44.783  27.097  35.842  1.00  0.00     0.134 A 
ATOM     78  F   UNL A   1      46.290  29.991  34.243  1.00  0.00    -0.206 F 
ATOM     79  C   UNL A   1      47.229  28.407  35.697  1.00  0.00     0.040 A 
ATOM     80  C   UNL A   1      45.873  26.620  36.571  1.00  0.00     0.040 A 
ATOM     81  F   UNL A   1      43.615  26.446  35.950  1.00  0.00    -0.206 F 
ATOM     82  C   UNL A   1      47.102  27.272  36.494  1.00  0.00     0.006 A 
ENDBRANCH  61  75
BRANCH  62  83
ATOM     83  C   UNL A   1      37.205  31.310  29.459  1.00  0.00     0.057 A 
ATOM     84  C   UNL A   1      36.132  30.449  29.197  1.00  0.00     0.134 A 
ATOM     85  C   UNL A   1      37.189  32.568  28.849  1.00  0.00     0.134 A 
ATOM     86  F   UNL A   1      36.094  29.227  29.750  1.00  0.00    -0.206 F 
ATOM     87  C   UNL A   1      35.098  30.812  28.334  1.00  0.00     0.040 A 
ATOM     88  C   UNL A   1      36.151  32.953  27.999  1.00  0.00     0.040 A 
ATOM     89  F   UNL A   1      38.180  33.441  29.078  1.00  0.00    -0.206 F 
ATOM     90  C   UNL A   1      35.107  32.068  27.730  1.00  0.00     0.006 A 
ENDBRANCH  62  83
BRANCH  74  91
ATOM     91  C   UNL A   1      39.059  32.342  36.111  1.00  0.00     0.057 A 
ATOM     92  C   UNL A   1      39.387  33.683  36.350  1.00  0.00     0.134 A 
ATOM     93  C   UNL A   1      38.186  31.718  37.010  1.00  0.00     0.134 A 
ATOM     94  F   UNL A   1      40.224  34.335  35.529  1.00  0.00    -0.206 F 
ATOM     95  C   UNL A   1      38.882  34.372  37.453  1.00  0.00     0.040 A 
ATOM     96  C   UNL A   1      37.658  32.403  38.106  1.00  0.00     0.040 A 
ATOM     97  F   UNL A   1      37.824  30.439  36.829  1.00  0.00    -0.206 F 
ATOM     98  C   UNL A   1      38.014  33.731  38.335  1.00  0.00     0.006 A 
ENDBRANCH  74  91
ENDBRANCH  48  49
ENDBRANCH  41  43
ENDBRANCH  40  41
ENDBRANCH  39  40
ENDBRANCH   1  39
TORSDOF 17
ENDMDL
