MODEL 1
REMARK VINA RESULT:     -11.3      0.000      0.000
REMARK SMILES CC1(C)[C@H](C(=O)Nc2ccccc2C(N)=O)[C@@H]1C(=O)OCCOC(=O)c1ccc(-c2c3nc(c(-c4c(F)cccc4F)c4ccc([nH]4)c(-c4c(F)cccc4F)c4nc(c(-c5c(F)cccc5F)c5ccc2[nH]5)C=C4)C=C3)cc1
REMARK SMILES IDX 21 1 20 2 18 3 19 4 17 5 1 6 2 7 3 8 4 9 5 10 6 11 7 12 8 14
REMARK SMILES IDX 9 15 13 16 10 17 12 18 11 19 14 20 15 21 16 22 22 25 23 26
REMARK SMILES IDX 24 27 25 28 26 29 27 30 79 31 28 32 78 33 29 34 30 35 31 36
REMARK SMILES IDX 72 37 32 38 77 39 71 40 73 41 33 42 76 43 70 44 69 45 34 47
REMARK SMILES IDX 60 48 43 49 59 50 44 51 47 52 58 53 74 54 45 55 46 56 57 58
REMARK SMILES IDX 75 59 48 60 35 61 36 62 41 63 37 64 38 65 40 66 42 67 39 68
REMARK SMILES IDX 61 69 62 70 67 71 63 72 64 73 66 74 68 75 65 76 49 77 50 78
REMARK SMILES IDX 55 79 51 80 52 81 54 82 56 83 53 84
REMARK H PARENT 7 13 15 23 15 24 73 46 47 57
REMARK Flexibility Score: inf
ROOT
ATOM      1  C   UNL A   1      37.148  20.045  24.943  1.00  0.00     0.274 C 
ENDROOT
BRANCH   1   2
ATOM      2  O   UNL A   1      37.056  21.459  24.680  1.00  0.00    -0.462 OA
BRANCH   2   3
ATOM      3  C   UNL A   1      35.815  21.866  24.301  1.00  0.00     0.310 C 
ATOM      4  O   UNL A   1      35.598  22.864  23.630  1.00  0.00    -0.252 OA
BRANCH   3   5
ATOM      5  C   UNL A   1      34.736  20.895  24.672  1.00  0.00     0.118 C 
ATOM      6  C   UNL A   1      32.506  19.824  23.823  1.00  0.00     0.013 C 
ATOM      7  C   UNL A   1      33.322  21.080  24.136  1.00  0.00    -0.009 C 
ATOM      8  C   UNL A   1      33.064  22.112  23.075  1.00  0.00     0.013 C 
ATOM      9  C   UNL A   1      33.588  21.254  25.624  1.00  0.00     0.100 C 
BRANCH   9  10
ATOM     10  C   UNL A   1      33.999  22.163  26.727  1.00  0.00     0.228 C 
ATOM     11  O   UNL A   1      34.582  21.626  27.674  1.00  0.00    -0.274 OA
ATOM     12  N   UNL A   1      33.972  23.524  26.750  1.00  0.00    -0.325 N 
ATOM     13  H   UNL A   1      34.472  23.917  27.502  1.00  0.00     0.169 HD
BRANCH  12  14
ATOM     14  C   UNL A   1      33.376  24.469  25.922  1.00  0.00     0.053 A 
ATOM     15  C   UNL A   1      34.273  25.414  25.401  1.00  0.00     0.027 A 
ATOM     16  C   UNL A   1      32.015  24.525  25.583  1.00  0.00     0.063 A 
ATOM     17  C   UNL A   1      33.875  26.287  24.397  1.00  0.00     0.002 A 
ATOM     18  C   UNL A   1      31.621  25.432  24.581  1.00  0.00     0.016 A 
ATOM     19  C   UNL A   1      32.556  26.270  23.961  1.00  0.00     0.001 A 
BRANCH  16  20
ATOM     20  C   UNL A   1      30.997  23.700  26.307  1.00  0.00     0.250 C 
ATOM     21  N   UNL A   1      30.265  22.795  25.587  1.00  0.00    -0.366 N 
ATOM     22  O   UNL A   1      30.796  23.802  27.509  1.00  0.00    -0.269 OA
ATOM     23  H   UNL A   1      30.414  22.699  24.618  1.00  0.00     0.159 HD
ATOM     24  H   UNL A   1      29.589  22.239  26.037  1.00  0.00     0.159 HD
ENDBRANCH  16  20
ENDBRANCH  12  14
ENDBRANCH   9  10
ENDBRANCH   3   5
ENDBRANCH   2   3
ENDBRANCH   1   2
BRANCH   1  25
ATOM     25  C   UNL A   1      38.598  19.537  25.010  1.00  0.00     0.275 C 
BRANCH  25  26
ATOM     26  O   UNL A   1      39.199  19.680  26.315  1.00  0.00    -0.458 OA
BRANCH  26  27
ATOM     27  C   UNL A   1      40.529  19.946  26.306  1.00  0.00     0.338 C 
ATOM     28  O   UNL A   1      41.405  19.248  25.817  1.00  0.00    -0.246 OA
BRANCH  27  29
ATOM     29  C   UNL A   1      40.812  21.300  26.824  1.00  0.00     0.060 A 
ATOM     30  C   UNL A   1      40.260  22.380  26.126  1.00  0.00     0.016 A 
ATOM     31  C   UNL A   1      41.667  21.534  27.901  1.00  0.00     0.016 A 
ATOM     32  C   UNL A   1      40.545  23.691  26.494  1.00  0.00     0.010 A 
ATOM     33  C   UNL A   1      41.982  22.855  28.255  1.00  0.00     0.010 A 
ATOM     34  C   UNL A   1      41.433  23.939  27.543  1.00  0.00    -0.014 A 
BRANCH  34  35
ATOM     35  C   UNL A   1      41.879  25.333  27.782  1.00  0.00     0.031 A 
ATOM     36  C   UNL A   1      43.216  25.773  27.254  1.00  0.00     0.074 A 
ATOM     37  C   UNL A   1      41.072  26.220  28.393  1.00  0.00     0.049 A 
ATOM     38  N   UNL A   1      43.810  26.934  27.358  1.00  0.00    -0.248 NA
ATOM     39  C   UNL A   1      43.982  24.767  26.502  1.00  0.00     0.031 C 
ATOM     40  C   UNL A   1      39.724  25.937  28.883  1.00  0.00     0.029 A 
ATOM     41  N   UNL A   1      41.273  27.541  28.703  1.00  0.00    -0.354 N 
ATOM     42  C   UNL A   1      45.022  26.798  26.693  1.00  0.00     0.074 A 
ATOM     43  C   UNL A   1      45.090  25.435  26.211  1.00  0.00     0.031 C 
ATOM     44  C   UNL A   1      39.222  27.050  29.443  1.00  0.00     0.029 A 
ATOM     45  C   UNL A   1      40.226  28.112  29.384  1.00  0.00     0.049 A 
ATOM     46  H   UNL A   1      42.091  28.033  28.460  1.00  0.00     0.167 HD
ATOM     47  C   UNL A   1      45.988  27.727  26.498  1.00  0.00     0.037 A 
ATOM     48  C   UNL A   1      40.103  29.342  29.919  1.00  0.00     0.037 A 
ATOM     49  C   UNL A   1      45.919  29.082  26.982  1.00  0.00     0.049 A 
ATOM     50  C   UNL A   1      41.232  30.330  29.768  1.00  0.00     0.074 A 
ATOM     51  C   UNL A   1      46.849  30.096  26.837  1.00  0.00     0.029 A 
ATOM     52  N   UNL A   1      44.864  29.608  27.712  1.00  0.00    -0.354 N 
ATOM     53  N   UNL A   1      42.374  30.194  29.138  1.00  0.00    -0.248 NA
ATOM     54  C   UNL A   1      41.052  31.644  30.402  1.00  0.00     0.031 C 
ATOM     55  C   UNL A   1      46.383  31.219  27.529  1.00  0.00     0.029 A 
ATOM     56  C   UNL A   1      45.132  30.926  28.047  1.00  0.00     0.049 A 
ATOM     57  H   UNL A   1      44.045  29.117  27.956  1.00  0.00     0.167 HD
ATOM     58  C   UNL A   1      43.030  31.413  29.267  1.00  0.00     0.074 A 
ATOM     59  C   UNL A   1      42.153  32.279  30.027  1.00  0.00     0.031 C 
ATOM     60  C   UNL A   1      44.246  31.783  28.794  1.00  0.00     0.037 A 
BRANCH  47  61
ATOM     61  C   UNL A   1      47.224  27.294  25.763  1.00  0.00     0.057 A 
ATOM     62  C   UNL A   1      48.308  26.695  26.418  1.00  0.00     0.134 A 
ATOM     63  C   UNL A   1      47.319  27.460  24.376  1.00  0.00     0.134 A 
ATOM     64  F   UNL A   1      48.288  26.520  27.748  1.00  0.00    -0.206 F 
ATOM     65  C   UNL A   1      49.452  26.299  25.721  1.00  0.00     0.040 A 
ATOM     66  C   UNL A   1      48.445  27.042  23.665  1.00  0.00     0.040 A 
ATOM     67  F   UNL A   1      46.316  28.023  23.686  1.00  0.00    -0.206 F 
ATOM     68  C   UNL A   1      49.520  26.466  24.339  1.00  0.00     0.006 A 
ENDBRANCH  47  61
BRANCH  48  69
ATOM     69  C   UNL A   1      38.876  29.712  30.671  1.00  0.00     0.057 A 
ATOM     70  C   UNL A   1      38.733  29.408  32.029  1.00  0.00     0.134 A 
ATOM     71  C   UNL A   1      37.799  30.347  30.038  1.00  0.00     0.134 A 
ATOM     72  F   UNL A   1      39.717  28.778  32.687  1.00  0.00    -0.206 F 
ATOM     73  C   UNL A   1      37.559  29.702  32.726  1.00  0.00     0.040 A 
ATOM     74  C   UNL A   1      36.631  30.673  30.728  1.00  0.00     0.040 A 
ATOM     75  F   UNL A   1      37.870  30.665  28.737  1.00  0.00    -0.206 F 
ATOM     76  C   UNL A   1      36.505  30.341  32.076  1.00  0.00     0.006 A 
ENDBRANCH  48  69
BRANCH  60  77
ATOM     77  C   UNL A   1      44.681  33.201  29.037  1.00  0.00     0.057 A 
ATOM     78  C   UNL A   1      45.396  33.579  30.180  1.00  0.00     0.134 A 
ATOM     79  C   UNL A   1      44.408  34.198  28.089  1.00  0.00     0.134 A 
ATOM     80  F   UNL A   1      45.681  32.679  31.133  1.00  0.00    -0.206 F 
ATOM     81  C   UNL A   1      45.799  34.900  30.386  1.00  0.00     0.040 A 
ATOM     82  C   UNL A   1      44.833  35.515  28.269  1.00  0.00     0.040 A 
ATOM     83  F   UNL A   1      43.737  33.905  26.965  1.00  0.00    -0.206 F 
ATOM     84  C   UNL A   1      45.524  35.872  29.425  1.00  0.00     0.006 A 
ENDBRANCH  60  77
ENDBRANCH  34  35
ENDBRANCH  27  29
ENDBRANCH  26  27
ENDBRANCH  25  26
ENDBRANCH   1  25
TORSDOF 14
ENDMDL
MODEL 2
REMARK VINA RESULT:     -11.1      4.446      9.599
REMARK SMILES CC1(C)[C@H](C(=O)Nc2ccccc2C(N)=O)[C@@H]1C(=O)OCCOC(=O)c1ccc(-c2c3nc(c(-c4c(F)cccc4F)c4ccc([nH]4)c(-c4c(F)cccc4F)c4nc(c(-c5c(F)cccc5F)c5ccc2[nH]5)C=C4)C=C3)cc1
REMARK SMILES IDX 21 1 20 2 18 3 19 4 17 5 1 6 2 7 3 8 4 9 5 10 6 11 7 12 8 14
REMARK SMILES IDX 9 15 13 16 10 17 12 18 11 19 14 20 15 21 16 22 22 25 23 26
REMARK SMILES IDX 24 27 25 28 26 29 27 30 79 31 28 32 78 33 29 34 30 35 31 36
REMARK SMILES IDX 72 37 32 38 77 39 71 40 73 41 33 42 76 43 70 44 69 45 34 47
REMARK SMILES IDX 60 48 43 49 59 50 44 51 47 52 58 53 74 54 45 55 46 56 57 58
REMARK SMILES IDX 75 59 48 60 35 61 36 62 41 63 37 64 38 65 40 66 42 67 39 68
REMARK SMILES IDX 61 69 62 70 67 71 63 72 64 73 66 74 68 75 65 76 49 77 50 78
REMARK SMILES IDX 55 79 51 80 52 81 54 82 56 83 53 84
REMARK H PARENT 7 13 15 23 15 24 73 46 47 57
REMARK Flexibility Score: inf
ROOT
ATOM      1  C   UNL A   1      31.155  31.377  25.869  1.00  0.00     0.274 C 
ENDROOT
BRANCH   1   2
ATOM      2  O   UNL A   1      31.682  30.300  26.668  1.00  0.00    -0.462 OA
BRANCH   2   3
ATOM      3  C   UNL A   1      31.770  29.117  26.002  1.00  0.00     0.310 C 
ATOM      4  O   UNL A   1      32.206  28.087  26.494  1.00  0.00    -0.252 OA
BRANCH   3   5
ATOM      5  C   UNL A   1      31.153  29.159  24.638  1.00  0.00     0.118 C 
ATOM      6  C   UNL A   1      29.208  28.175  23.193  1.00  0.00     0.013 C 
ATOM      7  C   UNL A   1      30.426  27.939  24.088  1.00  0.00    -0.009 C 
ATOM      8  C   UNL A   1      30.152  26.773  24.995  1.00  0.00     0.013 C 
ATOM      9  C   UNL A   1      31.729  28.389  23.442  1.00  0.00     0.100 C 
BRANCH   9  10
ATOM     10  C   UNL A   1      33.214  28.329  23.440  1.00  0.00     0.228 C 
ATOM     11  O   UNL A   1      33.793  29.382  23.157  1.00  0.00    -0.274 OA
ATOM     12  N   UNL A   1      34.015  27.317  23.874  1.00  0.00    -0.325 N 
ATOM     13  H   UNL A   1      34.963  27.571  23.960  1.00  0.00     0.169 HD
BRANCH  12  14
ATOM     14  C   UNL A   1      33.760  25.995  24.220  1.00  0.00     0.053 A 
ATOM     15  C   UNL A   1      34.250  25.634  25.486  1.00  0.00     0.027 A 
ATOM     16  C   UNL A   1      33.071  25.057  23.436  1.00  0.00     0.063 A 
ATOM     17  C   UNL A   1      33.893  24.422  26.062  1.00  0.00     0.002 A 
ATOM     18  C   UNL A   1      32.737  23.822  24.024  1.00  0.00     0.016 A 
ATOM     19  C   UNL A   1      33.105  23.530  25.344  1.00  0.00     0.001 A 
BRANCH  16  20
ATOM     20  C   UNL A   1      32.758  25.324  21.998  1.00  0.00     0.250 C 
ATOM     21  N   UNL A   1      31.458  25.210  21.585  1.00  0.00    -0.366 N 
ATOM     22  O   UNL A   1      33.613  25.641  21.181  1.00  0.00    -0.269 OA
ATOM     23  H   UNL A   1      30.757  24.957  22.228  1.00  0.00     0.159 HD
ATOM     24  H   UNL A   1      31.223  25.380  20.644  1.00  0.00     0.159 HD
ENDBRANCH  16  20
ENDBRANCH  12  14
ENDBRANCH   9  10
ENDBRANCH   3   5
ENDBRANCH   2   3
ENDBRANCH   1   2
BRANCH   1  25
ATOM     25  C   UNL A   1      31.465  32.767  26.450  1.00  0.00     0.275 C 
BRANCH  25  26
ATOM     26  O   UNL A   1      32.114  32.722  27.739  1.00  0.00    -0.458 OA
BRANCH  26  27
ATOM     27  C   UNL A   1      33.069  33.665  27.932  1.00  0.00     0.338 C 
ATOM     28  O   UNL A   1      32.901  34.875  27.946  1.00  0.00    -0.246 OA
BRANCH  27  29
ATOM     29  C   UNL A   1      34.362  33.054  28.305  1.00  0.00     0.060 A 
ATOM     30  C   UNL A   1      34.359  31.690  28.612  1.00  0.00     0.016 A 
ATOM     31  C   UNL A   1      35.534  33.797  28.447  1.00  0.00     0.016 A 
ATOM     32  C   UNL A   1      35.515  31.054  29.055  1.00  0.00     0.010 A 
ATOM     33  C   UNL A   1      36.694  33.164  28.924  1.00  0.00     0.010 A 
ATOM     34  C   UNL A   1      36.684  31.793  29.242  1.00  0.00    -0.014 A 
BRANCH  34  35
ATOM     35  C   UNL A   1      37.839  31.141  29.907  1.00  0.00     0.031 A 
ATOM     36  C   UNL A   1      38.105  31.429  31.358  1.00  0.00     0.074 A 
ATOM     37  C   UNL A   1      38.595  30.243  29.249  1.00  0.00     0.049 A 
ATOM     38  N   UNL A   1      39.061  30.983  32.132  1.00  0.00    -0.248 NA
ATOM     39  C   UNL A   1      37.160  32.337  32.026  1.00  0.00     0.031 C 
ATOM     40  C   UNL A   1      38.393  29.823  27.863  1.00  0.00     0.029 A 
ATOM     41  N   UNL A   1      39.687  29.523  29.664  1.00  0.00    -0.354 N 
ATOM     42  C   UNL A   1      38.840  31.561  33.375  1.00  0.00     0.074 A 
ATOM     43  C   UNL A   1      37.674  32.410  33.245  1.00  0.00     0.031 C 
ATOM     44  C   UNL A   1      39.339  28.925  27.539  1.00  0.00     0.029 A 
ATOM     45  C   UNL A   1      40.233  28.735  28.680  1.00  0.00     0.049 A 
ATOM     46  H   UNL A   1      40.045  29.567  30.581  1.00  0.00     0.167 HD
ATOM     47  C   UNL A   1      39.542  31.397  34.521  1.00  0.00     0.037 A 
ATOM     48  C   UNL A   1      41.341  27.970  28.694  1.00  0.00     0.037 A 
ATOM     49  C   UNL A   1      40.704  30.555  34.646  1.00  0.00     0.049 A 
ATOM     50  C   UNL A   1      42.159  27.875  29.957  1.00  0.00     0.074 A 
ATOM     51  C   UNL A   1      41.485  30.325  35.765  1.00  0.00     0.029 A 
ATOM     52  N   UNL A   1      41.257  29.812  33.614  1.00  0.00    -0.354 N 
ATOM     53  N   UNL A   1      41.943  28.424  31.128  1.00  0.00    -0.248 NA
ATOM     54  C   UNL A   1      43.374  27.050  29.899  1.00  0.00     0.031 C 
ATOM     55  C   UNL A   1      42.543  29.488  35.396  1.00  0.00     0.029 A 
ATOM     56  C   UNL A   1      42.384  29.143  34.064  1.00  0.00     0.049 A 
ATOM     57  H   UNL A   1      40.900  29.767  32.696  1.00  0.00     0.167 HD
ATOM     58  C   UNL A   1      42.970  27.983  31.953  1.00  0.00     0.074 A 
ATOM     59  C   UNL A   1      43.804  27.112  31.151  1.00  0.00     0.031 C 
ATOM     60  C   UNL A   1      43.200  28.269  33.259  1.00  0.00     0.037 A 
BRANCH  47  61
ATOM     61  C   UNL A   1      39.095  32.178  35.723  1.00  0.00     0.057 A 
ATOM     62  C   UNL A   1      39.503  33.500  35.946  1.00  0.00     0.134 A 
ATOM     63  C   UNL A   1      38.226  31.604  36.659  1.00  0.00     0.134 A 
ATOM     64  F   UNL A   1      40.347  34.105  35.097  1.00  0.00    -0.206 F 
ATOM     65  C   UNL A   1      39.080  34.214  37.070  1.00  0.00     0.040 A 
ATOM     66  C   UNL A   1      37.774  32.317  37.771  1.00  0.00     0.040 A 
ATOM     67  F   UNL A   1      37.793  30.344  36.505  1.00  0.00    -0.206 F 
ATOM     68  C   UNL A   1      38.208  33.624  37.983  1.00  0.00     0.006 A 
ENDBRANCH  47  61
BRANCH  48  69
ATOM     69  C   UNL A   1      41.764  27.245  27.467  1.00  0.00     0.057 A 
ATOM     70  C   UNL A   1      41.442  25.898  27.268  1.00  0.00     0.134 A 
ATOM     71  C   UNL A   1      42.533  27.875  26.480  1.00  0.00     0.134 A 
ATOM     72  F   UNL A   1      40.731  25.231  28.188  1.00  0.00    -0.206 F 
ATOM     73  C   UNL A   1      41.887  25.197  26.145  1.00  0.00     0.040 A 
ATOM     74  C   UNL A   1      42.960  27.195  25.338  1.00  0.00     0.040 A 
ATOM     75  F   UNL A   1      42.878  29.165  26.609  1.00  0.00    -0.206 F 
ATOM     76  C   UNL A   1      42.644  25.848  25.173  1.00  0.00     0.006 A 
ENDBRANCH  48  69
BRANCH  60  77
ATOM     77  C   UNL A   1      44.369  27.594  33.920  1.00  0.00     0.057 A 
ATOM     78  C   UNL A   1      45.643  28.173  33.959  1.00  0.00     0.134 A 
ATOM     79  C   UNL A   1      44.204  26.357  34.561  1.00  0.00     0.134 A 
ATOM     80  F   UNL A   1      45.875  29.349  33.356  1.00  0.00    -0.206 F 
ATOM     81  C   UNL A   1      46.717  27.535  34.585  1.00  0.00     0.040 A 
ATOM     82  C   UNL A   1      45.261  25.725  35.217  1.00  0.00     0.040 A 
ATOM     83  F   UNL A   1      43.007  25.751  34.573  1.00  0.00    -0.206 F 
ATOM     84  C   UNL A   1      46.525  26.311  35.223  1.00  0.00     0.006 A 
ENDBRANCH  60  77
ENDBRANCH  34  35
ENDBRANCH  27  29
ENDBRANCH  26  27
ENDBRANCH  25  26
ENDBRANCH   1  25
TORSDOF 14
ENDMDL
MODEL 3
REMARK VINA RESULT:     -11.1      1.122      2.093
REMARK SMILES CC1(C)[C@H](C(=O)Nc2ccccc2C(N)=O)[C@@H]1C(=O)OCCOC(=O)c1ccc(-c2c3nc(c(-c4c(F)cccc4F)c4ccc([nH]4)c(-c4c(F)cccc4F)c4nc(c(-c5c(F)cccc5F)c5ccc2[nH]5)C=C4)C=C3)cc1
REMARK SMILES IDX 21 1 20 2 18 3 19 4 17 5 1 6 2 7 3 8 4 9 5 10 6 11 7 12 8 14
REMARK SMILES IDX 9 15 13 16 10 17 12 18 11 19 14 20 15 21 16 22 22 25 23 26
REMARK SMILES IDX 24 27 25 28 26 29 27 30 79 31 28 32 78 33 29 34 30 35 31 36
REMARK SMILES IDX 72 37 32 38 77 39 71 40 73 41 33 42 76 43 70 44 69 45 34 47
REMARK SMILES IDX 60 48 43 49 59 50 44 51 47 52 58 53 74 54 45 55 46 56 57 58
REMARK SMILES IDX 75 59 48 60 35 61 36 62 41 63 37 64 38 65 40 66 42 67 39 68
REMARK SMILES IDX 61 69 62 70 67 71 63 72 64 73 66 74 68 75 65 76 49 77 50 78
REMARK SMILES IDX 55 79 51 80 52 81 54 82 56 83 53 84
REMARK H PARENT 7 13 15 23 15 24 73 46 47 57
REMARK Flexibility Score: inf
ROOT
ATOM      1  C   UNL A   1      35.836  21.180  25.519  1.00  0.00     0.274 C 
ENDROOT
BRANCH   1   2
ATOM      2  O   UNL A   1      35.808  22.577  25.165  1.00  0.00    -0.462 OA
BRANCH   2   3
ATOM      3  C   UNL A   1      35.070  22.846  24.055  1.00  0.00     0.310 C 
ATOM      4  O   UNL A   1      35.440  23.577  23.149  1.00  0.00    -0.252 OA
BRANCH   3   5
ATOM      5  C   UNL A   1      33.803  22.049  23.980  1.00  0.00     0.118 C 
ATOM      6  C   UNL A   1      31.879  21.331  22.361  1.00  0.00     0.013 C 
ATOM      7  C   UNL A   1      32.705  22.447  23.002  1.00  0.00    -0.009 C 
ATOM      8  C   UNL A   1      32.980  23.509  21.976  1.00  0.00     0.013 C 
ATOM      9  C   UNL A   1      32.459  22.577  24.499  1.00  0.00     0.100 C 
BRANCH   9  10
ATOM     10  C   UNL A   1      32.586  23.410  25.724  1.00  0.00     0.228 C 
ATOM     11  O   UNL A   1      32.796  22.792  26.773  1.00  0.00    -0.274 OA
ATOM     12  N   UNL A   1      32.674  24.766  25.813  1.00  0.00    -0.325 N 
ATOM     13  H   UNL A   1      32.949  25.087  26.703  1.00  0.00     0.169 HD
BRANCH  12  14
ATOM     14  C   UNL A   1      32.452  25.787  24.896  1.00  0.00     0.053 A 
ATOM     15  C   UNL A   1      33.627  26.306  24.328  1.00  0.00     0.027 A 
ATOM     16  C   UNL A   1      31.200  26.293  24.514  1.00  0.00     0.063 A 
ATOM     17  C   UNL A   1      33.564  27.175  23.248  1.00  0.00     0.002 A 
ATOM     18  C   UNL A   1      31.153  27.193  23.433  1.00  0.00     0.016 A 
ATOM     19  C   UNL A   1      32.324  27.590  22.776  1.00  0.00     0.001 A 
BRANCH  16  20
ATOM     20  C   UNL A   1      29.956  25.946  25.271  1.00  0.00     0.250 C 
ATOM     21  N   UNL A   1      28.764  25.957  24.599  1.00  0.00    -0.366 N 
ATOM     22  O   UNL A   1      29.963  25.654  26.459  1.00  0.00    -0.269 OA
ATOM     23  H   UNL A   1      28.739  26.189  23.642  1.00  0.00     0.159 HD
ATOM     24  H   UNL A   1      27.930  25.733  25.071  1.00  0.00     0.159 HD
ENDBRANCH  16  20
ENDBRANCH  12  14
ENDBRANCH   9  10
ENDBRANCH   3   5
ENDBRANCH   2   3
ENDBRANCH   1   2
BRANCH   1  25
ATOM     25  C   UNL A   1      37.099  20.456  25.022  1.00  0.00     0.275 C 
BRANCH  25  26
ATOM     26  O   UNL A   1      38.277  21.291  25.017  1.00  0.00    -0.458 OA
BRANCH  26  27
ATOM     27  C   UNL A   1      39.163  21.035  26.012  1.00  0.00     0.338 C 
ATOM     28  O   UNL A   1      39.612  19.941  26.321  1.00  0.00    -0.246 OA
BRANCH  27  29
ATOM     29  C   UNL A   1      39.681  22.284  26.606  1.00  0.00     0.060 A 
ATOM     30  C   UNL A   1      39.121  23.486  26.159  1.00  0.00     0.016 A 
ATOM     31  C   UNL A   1      40.748  22.308  27.505  1.00  0.00     0.016 A 
ATOM     32  C   UNL A   1      39.608  24.711  26.602  1.00  0.00     0.010 A 
ATOM     33  C   UNL A   1      41.262  23.543  27.929  1.00  0.00     0.010 A 
ATOM     34  C   UNL A   1      40.702  24.750  27.468  1.00  0.00    -0.014 A 
BRANCH  34  35
ATOM     35  C   UNL A   1      41.330  26.062  27.762  1.00  0.00     0.031 A 
ATOM     36  C   UNL A   1      42.723  26.332  27.265  1.00  0.00     0.074 A 
ATOM     37  C   UNL A   1      40.641  27.028  28.395  1.00  0.00     0.049 A 
ATOM     38  N   UNL A   1      43.467  27.397  27.418  1.00  0.00    -0.248 NA
ATOM     39  C   UNL A   1      43.357  25.257  26.486  1.00  0.00     0.031 C 
ATOM     40  C   UNL A   1      39.260  26.915  28.859  1.00  0.00     0.029 A 
ATOM     41  N   UNL A   1      41.015  28.299  28.755  1.00  0.00    -0.354 N 
ATOM     42  C   UNL A   1      44.660  27.120  26.763  1.00  0.00     0.074 A 
ATOM     43  C   UNL A   1      44.550  25.777  26.233  1.00  0.00     0.031 C 
ATOM     44  C   UNL A   1      38.905  28.067  29.454  1.00  0.00     0.029 A 
ATOM     45  C   UNL A   1      40.044  28.983  29.444  1.00  0.00     0.049 A 
ATOM     46  H   UNL A   1      41.896  28.683  28.539  1.00  0.00     0.167 HD
ATOM     47  C   UNL A   1      45.746  27.914  26.612  1.00  0.00     0.037 A 
ATOM     48  C   UNL A   1      40.081  30.199  30.021  1.00  0.00     0.037 A 
ATOM     49  C   UNL A   1      45.855  29.249  27.143  1.00  0.00     0.049 A 
ATOM     50  C   UNL A   1      41.336  31.029  29.919  1.00  0.00     0.074 A 
ATOM     51  C   UNL A   1      46.916  30.132  27.046  1.00  0.00     0.029 A 
ATOM     52  N   UNL A   1      44.869  29.889  27.880  1.00  0.00    -0.354 N 
ATOM     53  N   UNL A   1      42.459  30.760  29.297  1.00  0.00    -0.248 NA
ATOM     54  C   UNL A   1      41.326  32.333  30.598  1.00  0.00     0.031 C 
ATOM     55  C   UNL A   1      46.595  31.283  27.772  1.00  0.00     0.029 A 
ATOM     56  C   UNL A   1      45.308  31.146  28.265  1.00  0.00     0.049 A 
ATOM     57  H   UNL A   1      43.988  29.506  28.097  1.00  0.00     0.167 HD
ATOM     58  C   UNL A   1      43.272  31.873  29.478  1.00  0.00     0.074 A 
ATOM     59  C   UNL A   1      42.509  32.824  30.258  1.00  0.00     0.031 C 
ATOM     60  C   UNL A   1      44.535  32.090  29.032  1.00  0.00     0.037 A 
BRANCH  47  61
ATOM     61  C   UNL A   1      46.924  27.343  25.876  1.00  0.00     0.057 A 
ATOM     62  C   UNL A   1      47.102  27.528  24.499  1.00  0.00     0.134 A 
ATOM     63  C   UNL A   1      47.905  26.616  26.562  1.00  0.00     0.134 A 
ATOM     64  F   UNL A   1      46.193  28.202  23.779  1.00  0.00    -0.206 F 
ATOM     65  C   UNL A   1      48.202  26.989  23.827  1.00  0.00     0.040 A 
ATOM     66  C   UNL A   1      49.023  26.098  25.907  1.00  0.00     0.040 A 
ATOM     67  F   UNL A   1      47.798  26.404  27.882  1.00  0.00    -0.206 F 
ATOM     68  C   UNL A   1      49.170  26.277  24.533  1.00  0.00     0.006 A 
ENDBRANCH  47  61
BRANCH  48  69
ATOM     69  C   UNL A   1      38.903  30.707  30.772  1.00  0.00     0.057 A 
ATOM     70  C   UNL A   1      37.943  31.520  30.159  1.00  0.00     0.134 A 
ATOM     71  C   UNL A   1      38.729  30.421  32.133  1.00  0.00     0.134 A 
ATOM     72  F   UNL A   1      38.065  31.852  28.866  1.00  0.00    -0.206 F 
ATOM     73  C   UNL A   1      36.866  32.046  30.875  1.00  0.00     0.040 A 
ATOM     74  C   UNL A   1      37.641  30.916  32.853  1.00  0.00     0.040 A 
ATOM     75  F   UNL A   1      39.614  29.649  32.781  1.00  0.00    -0.206 F 
ATOM     76  C   UNL A   1      36.710  31.740  32.225  1.00  0.00     0.006 A 
ENDBRANCH  48  69
BRANCH  60  77
ATOM     77  C   UNL A   1      45.154  33.426  29.331  1.00  0.00     0.057 A 
ATOM     78  C   UNL A   1      45.009  34.526  28.476  1.00  0.00     0.134 A 
ATOM     79  C   UNL A   1      45.879  33.623  30.515  1.00  0.00     0.134 A 
ATOM     80  F   UNL A   1      44.338  34.406  27.321  1.00  0.00    -0.206 F 
ATOM     81  C   UNL A   1      45.585  35.763  28.773  1.00  0.00     0.040 A 
ATOM     82  C   UNL A   1      46.432  34.863  30.838  1.00  0.00     0.040 A 
ATOM     83  F   UNL A   1      46.048  32.616  31.386  1.00  0.00    -0.206 F 
ATOM     84  C   UNL A   1      46.293  35.937  29.961  1.00  0.00     0.006 A 
ENDBRANCH  60  77
ENDBRANCH  34  35
ENDBRANCH  27  29
ENDBRANCH  26  27
ENDBRANCH  25  26
ENDBRANCH   1  25
TORSDOF 14
ENDMDL
