MODEL 1
REMARK VINA RESULT:     -11.0      0.000      0.000
REMARK SMILES C[C@@H]1[C@H](C(=O)OCCOC(=O)c2ccc(-c3c4nc(c(-c5c(F)cccc5F)c5ccc([nH]5)c(-c5c(F)cccc5F)c5nc(c(-c6c(F)cccc6F)c6ccc3[nH]6)C=C5)C=C4)cc2)CCN1C(=O)c1c(Cl)cccc1[N+](=O)[O-]
REMARK SMILES IDX 7 1 6 2 4 3 5 4 3 5 1 6 2 7 68 8 66 9 67 10 69 11 70 12
REMARK SMILES IDX 71 13 72 14 77 15 73 16 74 17 76 18 75 19 78 20 79 21 80 22
REMARK SMILES IDX 8 23 9 24 10 25 11 26 12 27 13 28 65 29 14 30 64 31 15 32
REMARK SMILES IDX 16 33 17 34 58 35 18 36 63 37 57 38 59 39 19 40 62 41 56 42
REMARK SMILES IDX 55 43 20 45 46 46 29 47 45 48 30 49 33 50 44 51 60 52 31 53
REMARK SMILES IDX 32 54 43 56 61 57 34 58 21 59 22 60 27 61 23 62 24 63 26 64
REMARK SMILES IDX 28 65 25 66 47 67 48 68 53 69 49 70 50 71 52 72 54 73 51 74
REMARK SMILES IDX 35 75 36 76 41 77 37 78 38 79 40 80 42 81 39 82
REMARK H PARENT 59 44 33 55
REMARK Flexibility Score: inf
ROOT
ATOM      1  C   UNL A   1      31.482  31.628  26.323  1.00  0.00     0.274 C 
ENDROOT
BRANCH   1   2
ATOM      2  O   UNL A   1      31.798  30.492  27.153  1.00  0.00    -0.462 OA
BRANCH   2   3
ATOM      3  C   UNL A   1      32.854  29.739  26.775  1.00  0.00     0.311 C 
ATOM      4  O   UNL A   1      33.990  30.175  26.616  1.00  0.00    -0.252 OA
BRANCH   3   5
ATOM      5  C   UNL A   1      32.519  28.285  26.538  1.00  0.00     0.123 C 
ATOM      6  C   UNL A   1      31.352  28.628  24.231  1.00  0.00     0.032 C 
ATOM      7  C   UNL A   1      31.406  27.867  25.552  1.00  0.00     0.096 C 
ATOM      8  N   UNL A   1      31.727  26.437  25.319  1.00  0.00    -0.335 N 
ATOM      9  C   UNL A   1      33.715  27.448  26.104  1.00  0.00     0.039 C 
ATOM     10  C   UNL A   1      33.057  26.109  25.818  1.00  0.00     0.121 C 
BRANCH   8  11
ATOM     11  C   UNL A   1      30.933  25.400  24.864  1.00  0.00     0.262 C 
ATOM     12  O   UNL A   1      29.716  25.491  24.719  1.00  0.00    -0.269 OA
BRANCH  11  13
ATOM     13  C   UNL A   1      31.533  24.106  24.522  1.00  0.00     0.136 A 
ATOM     14  C   UNL A   1      32.053  23.909  23.237  1.00  0.00     0.060 A 
ATOM     15  C   UNL A   1      31.474  23.015  25.399  1.00  0.00     0.283 A 
ATOM     16  Cl  UNL A   1      32.138  25.179  22.067  1.00  0.00    -0.083 Cl
ATOM     17  C   UNL A   1      32.535  22.649  22.854  1.00  0.00     0.022 A 
ATOM     18  C   UNL A   1      31.986  21.760  25.028  1.00  0.00     0.086 A 
ATOM     19  C   UNL A   1      32.511  21.579  23.750  1.00  0.00     0.009 A 
BRANCH  15  20
ATOM     20  N   UNL A   1      30.918  23.139  26.743  1.00  0.00     0.063 N 
ATOM     21  O   UNL A   1      31.683  23.560  27.623  1.00  0.00    -0.258 OA
ATOM     22  O   UNL A   1      29.747  22.800  26.933  1.00  0.00    -0.258 OA
ENDBRANCH  15  20
ENDBRANCH  11  13
ENDBRANCH   8  11
ENDBRANCH   3   5
ENDBRANCH   2   3
ENDBRANCH   1   2
BRANCH   1  23
ATOM     23  C   UNL A   1      31.541  32.938  27.121  1.00  0.00     0.275 C 
BRANCH  23  24
ATOM     24  O   UNL A   1      32.850  33.540  27.061  1.00  0.00    -0.458 OA
BRANCH  24  25
ATOM     25  C   UNL A   1      33.251  34.193  28.176  1.00  0.00     0.338 C 
ATOM     26  O   UNL A   1      32.676  35.099  28.754  1.00  0.00    -0.246 OA
BRANCH  25  27
ATOM     27  C   UNL A   1      34.446  33.542  28.732  1.00  0.00     0.060 A 
ATOM     28  C   UNL A   1      34.275  32.317  29.384  1.00  0.00     0.016 A 
ATOM     29  C   UNL A   1      35.700  34.151  28.679  1.00  0.00     0.016 A 
ATOM     30  C   UNL A   1      35.360  31.683  29.975  1.00  0.00     0.010 A 
ATOM     31  C   UNL A   1      36.790  33.516  29.283  1.00  0.00     0.010 A 
ATOM     32  C   UNL A   1      36.624  32.281  29.934  1.00  0.00    -0.014 A 
BRANCH  32  33
ATOM     33  C   UNL A   1      37.757  31.622  30.617  1.00  0.00     0.031 A 
ATOM     34  C   UNL A   1      38.607  30.640  29.870  1.00  0.00     0.074 A 
ATOM     35  C   UNL A   1      38.044  31.944  31.892  1.00  0.00     0.049 A 
ATOM     36  N   UNL A   1      39.599  29.907  30.303  1.00  0.00    -0.248 NA
ATOM     37  C   UNL A   1      38.301  30.460  28.441  1.00  0.00     0.031 C 
ATOM     38  C   UNL A   1      37.326  32.933  32.695  1.00  0.00     0.029 A 
ATOM     39  N   UNL A   1      39.020  31.472  32.730  1.00  0.00    -0.354 N 
ATOM     40  C   UNL A   1      40.030  29.171  29.208  1.00  0.00     0.074 A 
ATOM     41  C   UNL A   1      39.183  29.534  28.092  1.00  0.00     0.031 C 
ATOM     42  C   UNL A   1      37.890  32.997  33.912  1.00  0.00     0.029 A 
ATOM     43  C   UNL A   1      38.976  32.026  33.986  1.00  0.00     0.049 A 
ATOM     44  H   UNL A   1      39.688  30.802  32.459  1.00  0.00     0.167 HD
ATOM     45  C   UNL A   1      41.045  28.276  29.143  1.00  0.00     0.037 A 
ATOM     46  C   UNL A   1      39.715  31.757  35.078  1.00  0.00     0.037 A 
ATOM     47  C   UNL A   1      41.887  27.924  30.255  1.00  0.00     0.049 A 
ATOM     48  C   UNL A   1      40.787  30.705  34.997  1.00  0.00     0.074 A 
ATOM     49  C   UNL A   1      42.929  27.014  30.296  1.00  0.00     0.029 A 
ATOM     50  N   UNL A   1      41.784  28.472  31.525  1.00  0.00    -0.354 N 
ATOM     51  N   UNL A   1      41.166  29.990  33.966  1.00  0.00    -0.248 NA
ATOM     52  C   UNL A   1      41.526  30.416  36.235  1.00  0.00     0.031 C 
ATOM     53  C   UNL A   1      43.438  26.991  31.599  1.00  0.00     0.029 A 
ATOM     54  C   UNL A   1      42.735  27.911  32.360  1.00  0.00     0.049 A 
ATOM     55  H   UNL A   1      41.131  29.159  31.793  1.00  0.00     0.167 HD
ATOM     56  C   UNL A   1      42.196  29.180  34.423  1.00  0.00     0.074 A 
ATOM     57  C   UNL A   1      42.392  29.502  35.822  1.00  0.00     0.031 C 
ATOM     58  C   UNL A   1      42.914  28.251  33.748  1.00  0.00     0.037 A 
BRANCH  45  59
ATOM     59  C   UNL A   1      41.275  27.596  27.828  1.00  0.00     0.057 A 
ATOM     60  C   UNL A   1      42.087  28.161  26.837  1.00  0.00     0.134 A 
ATOM     61  C   UNL A   1      40.699  26.348  27.561  1.00  0.00     0.134 A 
ATOM     62  F   UNL A   1      42.653  29.363  27.026  1.00  0.00    -0.206 F 
ATOM     63  C   UNL A   1      42.306  27.515  25.620  1.00  0.00     0.040 A 
ATOM     64  C   UNL A   1      40.926  25.683  26.355  1.00  0.00     0.040 A 
ATOM     65  F   UNL A   1      39.911  25.754  28.469  1.00  0.00    -0.206 F 
ATOM     66  C   UNL A   1      41.729  26.270  25.379  1.00  0.00     0.006 A 
ENDBRANCH  45  59
BRANCH  46  67
ATOM     67  C   UNL A   1      39.453  32.476  36.348  1.00  0.00     0.057 A 
ATOM     68  C   UNL A   1      40.193  33.605  36.708  1.00  0.00     0.134 A 
ATOM     69  C   UNL A   1      38.462  32.041  37.237  1.00  0.00     0.134 A 
ATOM     70  F   UNL A   1      41.172  34.054  35.907  1.00  0.00    -0.206 F 
ATOM     71  C   UNL A   1      39.967  34.274  37.912  1.00  0.00     0.040 A 
ATOM     72  C   UNL A   1      38.209  32.713  38.435  1.00  0.00     0.040 A 
ATOM     73  F   UNL A   1      37.719  30.963  36.950  1.00  0.00    -0.206 F 
ATOM     74  C   UNL A   1      38.968  33.830  38.777  1.00  0.00     0.006 A 
ENDBRANCH  46  67
BRANCH  58  75
ATOM     75  C   UNL A   1      43.992  27.540  34.508  1.00  0.00     0.057 A 
ATOM     76  C   UNL A   1      45.286  28.067  34.610  1.00  0.00     0.134 A 
ATOM     77  C   UNL A   1      43.725  26.336  35.169  1.00  0.00     0.134 A 
ATOM     78  F   UNL A   1      45.606  29.210  33.987  1.00  0.00    -0.206 F 
ATOM     79  C   UNL A   1      46.283  27.408  35.332  1.00  0.00     0.040 A 
ATOM     80  C   UNL A   1      44.707  25.678  35.909  1.00  0.00     0.040 A 
ATOM     81  F   UNL A   1      42.503  25.785  35.113  1.00  0.00    -0.206 F 
ATOM     82  C   UNL A   1      45.992  26.212  35.988  1.00  0.00     0.006 A 
ENDBRANCH  58  75
ENDBRANCH  32  33
ENDBRANCH  25  27
ENDBRANCH  24  25
ENDBRANCH  23  24
ENDBRANCH   1  23
TORSDOF 14
ENDMDL
MODEL 2
REMARK VINA RESULT:     -11.0      4.195      8.963
REMARK SMILES C[C@@H]1[C@H](C(=O)OCCOC(=O)c2ccc(-c3c4nc(c(-c5c(F)cccc5F)c5ccc([nH]5)c(-c5c(F)cccc5F)c5nc(c(-c6c(F)cccc6F)c6ccc3[nH]6)C=C5)C=C4)cc2)CCN1C(=O)c1c(Cl)cccc1[N+](=O)[O-]
REMARK SMILES IDX 7 1 6 2 4 3 5 4 3 5 1 6 2 7 68 8 66 9 67 10 69 11 70 12
REMARK SMILES IDX 71 13 72 14 77 15 73 16 74 17 76 18 75 19 78 20 79 21 80 22
REMARK SMILES IDX 8 23 9 24 10 25 11 26 12 27 13 28 65 29 14 30 64 31 15 32
REMARK SMILES IDX 16 33 17 34 58 35 18 36 63 37 57 38 59 39 19 40 62 41 56 42
REMARK SMILES IDX 55 43 20 45 46 46 29 47 45 48 30 49 33 50 44 51 60 52 31 53
REMARK SMILES IDX 32 54 43 56 61 57 34 58 21 59 22 60 27 61 23 62 24 63 26 64
REMARK SMILES IDX 28 65 25 66 47 67 48 68 53 69 49 70 50 71 52 72 54 73 51 74
REMARK SMILES IDX 35 75 36 76 41 77 37 78 38 79 40 80 42 81 39 82
REMARK H PARENT 59 44 33 55
REMARK Flexibility Score: inf
ROOT
ATOM      1  C   UNL A   1      37.775  20.889  24.962  1.00  0.00     0.274 C 
ENDROOT
BRANCH   1   2
ATOM      2  O   UNL A   1      36.699  21.530  25.676  1.00  0.00    -0.462 OA
BRANCH   2   3
ATOM      3  C   UNL A   1      35.444  21.261  25.254  1.00  0.00     0.311 C 
ATOM      4  O   UNL A   1      35.051  20.146  24.927  1.00  0.00    -0.252 OA
BRANCH   3   5
ATOM      5  C   UNL A   1      34.543  22.473  25.193  1.00  0.00     0.123 C 
ATOM      6  C   UNL A   1      33.469  22.156  27.547  1.00  0.00     0.032 C 
ATOM      7  C   UNL A   1      33.297  22.595  26.096  1.00  0.00     0.096 C 
ATOM      8  N   UNL A   1      33.007  24.048  26.020  1.00  0.00    -0.335 N 
ATOM      9  C   UNL A   1      35.278  23.788  25.414  1.00  0.00     0.039 C 
ATOM     10  C   UNL A   1      34.125  24.777  25.432  1.00  0.00     0.121 C 
BRANCH   8  11
ATOM     11  C   UNL A   1      31.839  24.746  26.268  1.00  0.00     0.262 C 
ATOM     12  O   UNL A   1      31.115  24.533  27.238  1.00  0.00    -0.269 OA
BRANCH  11  13
ATOM     13  C   UNL A   1      31.405  25.807  25.354  1.00  0.00     0.136 A 
ATOM     14  C   UNL A   1      30.928  25.463  24.082  1.00  0.00     0.060 A 
ATOM     15  C   UNL A   1      31.585  27.162  25.661  1.00  0.00     0.283 A 
ATOM     16  Cl  UNL A   1      30.702  23.822  23.589  1.00  0.00    -0.083 Cl
ATOM     17  C   UNL A   1      30.607  26.463  23.153  1.00  0.00     0.022 A 
ATOM     18  C   UNL A   1      31.235  28.166  24.742  1.00  0.00     0.086 A 
ATOM     19  C   UNL A   1      30.751  27.812  23.485  1.00  0.00     0.009 A 
BRANCH  15  20
ATOM     20  N   UNL A   1      32.106  27.592  26.955  1.00  0.00     0.063 N 
ATOM     21  O   UNL A   1      33.329  27.781  27.025  1.00  0.00    -0.258 OA
ATOM     22  O   UNL A   1      31.321  27.718  27.898  1.00  0.00    -0.258 OA
ENDBRANCH  15  20
ENDBRANCH  11  13
ENDBRANCH   8  11
ENDBRANCH   3   5
ENDBRANCH   2   3
ENDBRANCH   1   2
BRANCH   1  23
ATOM     23  C   UNL A   1      39.112  21.057  25.695  1.00  0.00     0.275 C 
BRANCH  23  24
ATOM     24  O   UNL A   1      39.723  19.784  25.989  1.00  0.00    -0.458 OA
BRANCH  24  25
ATOM     25  C   UNL A   1      41.075  19.771  26.025  1.00  0.00     0.338 C 
ATOM     26  O   UNL A   1      41.823  18.916  25.583  1.00  0.00    -0.246 OA
BRANCH  25  27
ATOM     27  C   UNL A   1      41.572  21.053  26.545  1.00  0.00     0.060 A 
ATOM     28  C   UNL A   1      41.415  21.306  27.910  1.00  0.00     0.016 A 
ATOM     29  C   UNL A   1      42.120  22.019  25.700  1.00  0.00     0.016 A 
ATOM     30  C   UNL A   1      41.818  22.523  28.446  1.00  0.00     0.010 A 
ATOM     31  C   UNL A   1      42.517  23.247  26.239  1.00  0.00     0.010 A 
ATOM     32  C   UNL A   1      42.366  23.504  27.612  1.00  0.00    -0.014 A 
BRANCH  32  33
ATOM     33  C   UNL A   1      42.737  24.815  28.187  1.00  0.00     0.031 A 
ATOM     34  C   UNL A   1      41.682  25.859  28.401  1.00  0.00     0.074 A 
ATOM     35  C   UNL A   1      44.010  25.044  28.555  1.00  0.00     0.049 A 
ATOM     36  N   UNL A   1      41.811  27.088  28.827  1.00  0.00    -0.248 NA
ATOM     37  C   UNL A   1      40.297  25.464  28.099  1.00  0.00     0.031 C 
ATOM     38  C   UNL A   1      45.105  24.078  28.453  1.00  0.00     0.029 A 
ATOM     39  N   UNL A   1      44.594  26.161  29.092  1.00  0.00    -0.354 N 
ATOM     40  C   UNL A   1      40.529  27.620  28.834  1.00  0.00     0.074 A 
ATOM     41  C   UNL A   1      39.637  26.585  28.357  1.00  0.00     0.031 C 
ATOM     42  C   UNL A   1      46.230  24.646  28.918  1.00  0.00     0.029 A 
ATOM     43  C   UNL A   1      45.943  26.023  29.307  1.00  0.00     0.049 A 
ATOM     44  H   UNL A   1      44.095  26.982  29.304  1.00  0.00     0.167 HD
ATOM     45  C   UNL A   1      40.135  28.860  29.209  1.00  0.00     0.037 A 
ATOM     46  C   UNL A   1      46.848  26.919  29.744  1.00  0.00     0.037 A 
ATOM     47  C   UNL A   1      41.027  29.883  29.688  1.00  0.00     0.049 A 
ATOM     48  C   UNL A   1      46.394  28.312  30.083  1.00  0.00     0.074 A 
ATOM     49  C   UNL A   1      40.728  31.178  30.074  1.00  0.00     0.029 A 
ATOM     50  N   UNL A   1      42.395  29.722  29.849  1.00  0.00    -0.354 N 
ATOM     51  N   UNL A   1      45.185  28.816  30.056  1.00  0.00    -0.248 NA
ATOM     52  C   UNL A   1      47.434  29.262  30.505  1.00  0.00     0.031 C 
ATOM     53  C   UNL A   1      41.922  31.810  30.442  1.00  0.00     0.029 A 
ATOM     54  C   UNL A   1      42.957  30.897  30.317  1.00  0.00     0.049 A 
ATOM     55  H   UNL A   1      42.893  28.894  29.660  1.00  0.00     0.167 HD
ATOM     56  C   UNL A   1      45.313  30.135  30.470  1.00  0.00     0.074 A 
ATOM     57  C   UNL A   1      46.717  30.348  30.757  1.00  0.00     0.031 C 
ATOM     58  C   UNL A   1      44.357  31.085  30.600  1.00  0.00     0.037 A 
BRANCH  45  59
ATOM     59  C   UNL A   1      38.678  29.183  29.085  1.00  0.00     0.057 A 
ATOM     60  C   UNL A   1      37.807  29.095  30.178  1.00  0.00     0.134 A 
ATOM     61  C   UNL A   1      38.144  29.614  27.864  1.00  0.00     0.134 A 
ATOM     62  F   UNL A   1      38.254  28.671  31.370  1.00  0.00    -0.206 F 
ATOM     63  C   UNL A   1      36.453  29.408  30.057  1.00  0.00     0.040 A 
ATOM     64  C   UNL A   1      36.796  29.949  27.735  1.00  0.00     0.040 A 
ATOM     65  F   UNL A   1      38.927  29.720  26.780  1.00  0.00    -0.206 F 
ATOM     66  C   UNL A   1      35.945  29.843  28.834  1.00  0.00     0.006 A 
ENDBRANCH  45  59
BRANCH  46  67
ATOM     67  C   UNL A   1      48.275  26.536  29.863  1.00  0.00     0.057 A 
ATOM     68  C   UNL A   1      49.179  26.776  28.824  1.00  0.00     0.134 A 
ATOM     69  C   UNL A   1      48.766  25.910  31.016  1.00  0.00     0.134 A 
ATOM     70  F   UNL A   1      48.761  27.351  27.686  1.00  0.00    -0.206 F 
ATOM     71  C   UNL A   1      50.519  26.398  28.920  1.00  0.00     0.040 A 
ATOM     72  C   UNL A   1      50.108  25.546  31.135  1.00  0.00     0.040 A 
ATOM     73  F   UNL A   1      47.948  25.651  32.047  1.00  0.00    -0.206 F 
ATOM     74  C   UNL A   1      50.988  25.785  30.081  1.00  0.00     0.006 A 
ENDBRANCH  46  67
BRANCH  58  75
ATOM     75  C   UNL A   1      44.795  32.428  31.098  1.00  0.00     0.057 A 
ATOM     76  C   UNL A   1      45.162  33.453  30.216  1.00  0.00     0.134 A 
ATOM     77  C   UNL A   1      44.820  32.708  32.469  1.00  0.00     0.134 A 
ATOM     78  F   UNL A   1      45.171  33.240  28.892  1.00  0.00    -0.206 F 
ATOM     79  C   UNL A   1      45.556  34.707  30.685  1.00  0.00     0.040 A 
ATOM     80  C   UNL A   1      45.194  33.963  32.948  1.00  0.00     0.040 A 
ATOM     81  F   UNL A   1      44.474  31.769  33.362  1.00  0.00    -0.206 F 
ATOM     82  C   UNL A   1      45.567  34.966  32.056  1.00  0.00     0.006 A 
ENDBRANCH  58  75
ENDBRANCH  32  33
ENDBRANCH  25  27
ENDBRANCH  24  25
ENDBRANCH  23  24
ENDBRANCH   1  23
TORSDOF 14
ENDMDL
MODEL 3
REMARK VINA RESULT:     -11.0      1.364      6.465
REMARK SMILES C[C@@H]1[C@H](C(=O)OCCOC(=O)c2ccc(-c3c4nc(c(-c5c(F)cccc5F)c5ccc([nH]5)c(-c5c(F)cccc5F)c5nc(c(-c6c(F)cccc6F)c6ccc3[nH]6)C=C5)C=C4)cc2)CCN1C(=O)c1c(Cl)cccc1[N+](=O)[O-]
REMARK SMILES IDX 7 1 6 2 4 3 5 4 3 5 1 6 2 7 68 8 66 9 67 10 69 11 70 12
REMARK SMILES IDX 71 13 72 14 77 15 73 16 74 17 76 18 75 19 78 20 79 21 80 22
REMARK SMILES IDX 8 23 9 24 10 25 11 26 12 27 13 28 65 29 14 30 64 31 15 32
REMARK SMILES IDX 16 33 17 34 58 35 18 36 63 37 57 38 59 39 19 40 62 41 56 42
REMARK SMILES IDX 55 43 20 45 46 46 29 47 45 48 30 49 33 50 44 51 60 52 31 53
REMARK SMILES IDX 32 54 43 56 61 57 34 58 21 59 22 60 27 61 23 62 24 63 26 64
REMARK SMILES IDX 28 65 25 66 47 67 48 68 53 69 49 70 50 71 52 72 54 73 51 74
REMARK SMILES IDX 35 75 36 76 41 77 37 78 38 79 40 80 42 81 39 82
REMARK H PARENT 59 44 33 55
REMARK Flexibility Score: inf
ROOT
ATOM      1  C   UNL A   1      31.384  31.095  26.845  1.00  0.00     0.274 C 
ENDROOT
BRANCH   1   2
ATOM      2  O   UNL A   1      31.497  30.525  25.525  1.00  0.00    -0.462 OA
BRANCH   2   3
ATOM      3  C   UNL A   1      32.456  29.590  25.347  1.00  0.00     0.311 C 
ATOM      4  O   UNL A   1      33.576  29.649  25.844  1.00  0.00    -0.252 OA
BRANCH   3   5
ATOM      5  C   UNL A   1      32.041  28.446  24.451  1.00  0.00     0.123 C 
ATOM      6  C   UNL A   1      31.519  26.752  26.363  1.00  0.00     0.032 C 
ATOM      7  C   UNL A   1      32.052  26.986  24.953  1.00  0.00     0.096 C 
ATOM      8  N   UNL A   1      31.191  26.312  23.950  1.00  0.00    -0.335 N 
ATOM      9  C   UNL A   1      30.648  28.612  23.860  1.00  0.00     0.039 C 
ATOM     10  C   UNL A   1      30.466  27.286  23.142  1.00  0.00     0.121 C 
BRANCH   8  11
ATOM     11  C   UNL A   1      31.102  24.979  23.592  1.00  0.00     0.262 C 
ATOM     12  O   UNL A   1      30.083  24.467  23.135  1.00  0.00    -0.269 OA
BRANCH  11  13
ATOM     13  C   UNL A   1      32.261  24.095  23.746  1.00  0.00     0.136 A 
ATOM     14  C   UNL A   1      32.315  23.218  24.837  1.00  0.00     0.060 A 
ATOM     15  C   UNL A   1      33.383  24.201  22.912  1.00  0.00     0.283 A 
ATOM     16  Cl  UNL A   1      31.000  23.038  25.947  1.00  0.00    -0.083 Cl
ATOM     17  C   UNL A   1      33.459  22.440  25.064  1.00  0.00     0.022 A 
ATOM     18  C   UNL A   1      34.518  23.399  23.121  1.00  0.00     0.086 A 
ATOM     19  C   UNL A   1      34.554  22.523  24.203  1.00  0.00     0.009 A 
BRANCH  15  20
ATOM     20  N   UNL A   1      33.410  25.115  21.775  1.00  0.00     0.063 N 
ATOM     21  O   UNL A   1      33.916  26.229  21.972  1.00  0.00    -0.258 OA
ATOM     22  O   UNL A   1      32.914  24.747  20.707  1.00  0.00    -0.258 OA
ENDBRANCH  15  20
ENDBRANCH  11  13
ENDBRANCH   8  11
ENDBRANCH   3   5
ENDBRANCH   2   3
ENDBRANCH   1   2
BRANCH   1  23
ATOM     23  C   UNL A   1      31.403  32.629  26.795  1.00  0.00     0.275 C 
BRANCH  23  24
ATOM     24  O   UNL A   1      32.750  33.144  26.772  1.00  0.00    -0.458 OA
BRANCH  24  25
ATOM     25  C   UNL A   1      33.151  33.801  27.885  1.00  0.00     0.338 C 
ATOM     26  O   UNL A   1      32.569  34.701  28.466  1.00  0.00    -0.246 OA
BRANCH  25  27
ATOM     27  C   UNL A   1      34.355  33.163  28.434  1.00  0.00     0.060 A 
ATOM     28  C   UNL A   1      34.258  31.827  28.834  1.00  0.00     0.016 A 
ATOM     29  C   UNL A   1      35.539  33.877  28.621  1.00  0.00     0.016 A 
ATOM     30  C   UNL A   1      35.350  31.188  29.409  1.00  0.00     0.010 A 
ATOM     31  C   UNL A   1      36.634  33.236  29.208  1.00  0.00     0.010 A 
ATOM     32  C   UNL A   1      36.543  31.892  29.606  1.00  0.00    -0.014 A 
BRANCH  32  33
ATOM     33  C   UNL A   1      37.677  31.216  30.272  1.00  0.00     0.031 A 
ATOM     34  C   UNL A   1      37.964  31.493  31.717  1.00  0.00     0.074 A 
ATOM     35  C   UNL A   1      38.415  30.324  29.588  1.00  0.00     0.049 A 
ATOM     36  N   UNL A   1      38.946  31.059  32.463  1.00  0.00    -0.248 NA
ATOM     37  C   UNL A   1      37.016  32.375  32.417  1.00  0.00     0.031 C 
ATOM     38  C   UNL A   1      38.187  29.929  28.198  1.00  0.00     0.029 A 
ATOM     39  N   UNL A   1      39.505  29.587  29.974  1.00  0.00    -0.354 N 
ATOM     40  C   UNL A   1      38.744  31.621  33.716  1.00  0.00     0.074 A 
ATOM     41  C   UNL A   1      37.553  32.440  33.628  1.00  0.00     0.031 C 
ATOM     42  C   UNL A   1      39.108  29.016  27.848  1.00  0.00     0.029 A 
ATOM     43  C   UNL A   1      40.013  28.798  28.972  1.00  0.00     0.049 A 
ATOM     44  H   UNL A   1      39.885  29.620  30.881  1.00  0.00     0.167 HD
ATOM     45  C   UNL A   1      39.484  31.462  34.839  1.00  0.00     0.037 A 
ATOM     46  C   UNL A   1      41.103  28.008  28.960  1.00  0.00     0.037 A 
ATOM     47  C   UNL A   1      40.663  30.642  34.922  1.00  0.00     0.049 A 
ATOM     48  C   UNL A   1      41.950  27.909  30.198  1.00  0.00     0.074 A 
ATOM     49  C   UNL A   1      41.495  30.431  36.008  1.00  0.00     0.029 A 
ATOM     50  N   UNL A   1      41.175  29.891  33.873  1.00  0.00    -0.354 N 
ATOM     51  N   UNL A   1      41.770  28.470  31.369  1.00  0.00    -0.248 NA
ATOM     52  C   UNL A   1      43.157  27.074  30.109  1.00  0.00     0.031 C 
ATOM     53  C   UNL A   1      42.528  29.575  35.608  1.00  0.00     0.029 A 
ATOM     54  C   UNL A   1      42.319  29.227  34.283  1.00  0.00     0.049 A 
ATOM     55  H   UNL A   1      40.783  29.839  32.971  1.00  0.00     0.167 HD
ATOM     56  C   UNL A   1      42.828  28.045  32.161  1.00  0.00     0.074 A 
ATOM     57  C   UNL A   1      43.638  27.168  31.341  1.00  0.00     0.031 C 
ATOM     58  C   UNL A   1      43.107  28.355  33.450  1.00  0.00     0.037 A 
BRANCH  45  59
ATOM     59  C   UNL A   1      39.053  32.218  36.058  1.00  0.00     0.057 A 
ATOM     60  C   UNL A   1      39.456  33.539  36.288  1.00  0.00     0.134 A 
ATOM     61  C   UNL A   1      38.201  31.627  36.999  1.00  0.00     0.134 A 
ATOM     62  F   UNL A   1      40.286  34.155  35.432  1.00  0.00    -0.206 F 
ATOM     63  C   UNL A   1      39.041  34.241  37.420  1.00  0.00     0.040 A 
ATOM     64  C   UNL A   1      37.763  32.324  38.125  1.00  0.00     0.040 A 
ATOM     65  F   UNL A   1      37.779  30.365  36.836  1.00  0.00    -0.206 F 
ATOM     66  C   UNL A   1      38.186  33.635  38.340  1.00  0.00     0.006 A 
ENDBRANCH  45  59
BRANCH  46  67
ATOM     67  C   UNL A   1      41.471  27.269  27.728  1.00  0.00     0.057 A 
ATOM     68  C   UNL A   1      42.194  27.885  26.702  1.00  0.00     0.134 A 
ATOM     69  C   UNL A   1      41.098  25.932  27.544  1.00  0.00     0.134 A 
ATOM     70  F   UNL A   1      42.558  29.172  26.811  1.00  0.00    -0.206 F 
ATOM     71  C   UNL A   1      42.524  27.203  25.530  1.00  0.00     0.040 A 
ATOM     72  C   UNL A   1      41.440  25.231  26.387  1.00  0.00     0.040 A 
ATOM     73  F   UNL A   1      40.403  25.286  28.491  1.00  0.00    -0.206 F 
ATOM     74  C   UNL A   1      42.151  25.869  25.373  1.00  0.00     0.006 A 
ENDBRANCH  46  67
BRANCH  58  75
ATOM     75  C   UNL A   1      44.320  27.719  34.055  1.00  0.00     0.057 A 
ATOM     76  C   UNL A   1      44.260  26.462  34.671  1.00  0.00     0.134 A 
ATOM     77  C   UNL A   1      45.566  28.354  33.992  1.00  0.00     0.134 A 
ATOM     78  F   UNL A   1      43.092  25.811  34.774  1.00  0.00    -0.206 F 
ATOM     79  C   UNL A   1      45.397  25.868  35.220  1.00  0.00     0.040 A 
ATOM     80  C   UNL A   1      46.713  27.761  34.520  1.00  0.00     0.040 A 
ATOM     81  F   UNL A   1      45.689  29.556  33.409  1.00  0.00    -0.206 F 
ATOM     82  C   UNL A   1      46.629  26.516  35.140  1.00  0.00     0.006 A 
ENDBRANCH  58  75
ENDBRANCH  32  33
ENDBRANCH  25  27
ENDBRANCH  24  25
ENDBRANCH  23  24
ENDBRANCH   1  23
TORSDOF 14
ENDMDL
