MODEL 1
REMARK VINA RESULT:     -13.1      0.000      0.000
REMARK SMILES Cc1c(CCC(=O)N2CCC[C@H]2C(=O)OCCOC(=O)c2ccc(-c3c4nc(c(-c5c(F)cccc5F)c5ccc([nH]5)c(-c5c(F)cccc5F)c5nc(c(-c6c(F)cccc6F)c6ccc3[nH]6)C=C5)C=C4)cc2)c(=O)oc2cc3oc4c(c3cc12)CCCC4
REMARK SMILES IDX 16 1 15 2 13 3 14 4 12 5 8 6 9 7 10 8 11 9 6 10 7 11 5 12
REMARK SMILES IDX 4 13 3 14 1 15 2 16 86 17 75 18 78 19 85 20 76 21 77 22
REMARK SMILES IDX 79 23 84 24 80 25 83 26 81 27 82 28 87 29 90 30 88 31 89 32
REMARK SMILES IDX 17 33 18 34 19 35 20 36 21 37 22 38 74 39 23 40 73 41 24 42
REMARK SMILES IDX 25 43 26 44 67 45 27 46 72 47 66 48 68 49 28 50 71 51 65 52
REMARK SMILES IDX 64 53 29 55 55 56 38 57 54 58 39 59 42 60 53 61 69 62 40 63
REMARK SMILES IDX 41 64 52 66 70 67 43 68 30 69 31 70 36 71 32 72 33 73 35 74
REMARK SMILES IDX 37 75 34 76 56 77 57 78 62 79 58 80 59 81 61 82 63 83 60 84
REMARK SMILES IDX 44 85 45 86 50 87 46 88 47 89 49 90 51 91 48 92
REMARK H PARENT 68 54 42 65
REMARK Flexibility Score: inf
ROOT
ATOM      1  C   UNL A   1      37.592  20.960  24.951  1.00  0.00     0.274 C 
ENDROOT
BRANCH   1   2
ATOM      2  O   UNL A   1      36.510  21.457  25.783  1.00  0.00    -0.461 OA
BRANCH   2   3
ATOM      3  C   UNL A   1      35.264  21.065  25.416  1.00  0.00     0.328 C 
ATOM      4  O   UNL A   1      35.026  19.989  24.867  1.00  0.00    -0.250 OA
BRANCH   3   5
ATOM      5  C   UNL A   1      34.135  22.100  25.625  1.00  0.00     0.195 C 
ATOM      6  N   UNL A   1      32.722  22.008  25.192  1.00  0.00    -0.329 N 
ATOM      7  C   UNL A   1      31.834  22.440  26.263  1.00  0.00     0.120 C 
ATOM      8  C   UNL A   1      32.725  22.981  27.363  1.00  0.00     0.024 C 
ATOM      9  C   UNL A   1      34.032  22.252  27.151  1.00  0.00     0.039 C 
BRANCH   6  10
ATOM     10  C   UNL A   1      32.381  21.986  23.849  1.00  0.00     0.223 C 
ATOM     11  O   UNL A   1      32.325  20.919  23.239  1.00  0.00    -0.275 OA
BRANCH  10  12
ATOM     12  C   UNL A   1      32.094  23.298  23.096  1.00  0.00     0.105 C 
BRANCH  12  13
ATOM     13  C   UNL A   1      33.315  24.121  22.648  1.00  0.00     0.053 C 
BRANCH  13  14
ATOM     14  C   UNL A   1      33.131  25.577  22.962  1.00  0.00     0.042 A 
ATOM     15  C   UNL A   1      31.878  26.064  20.817  1.00  0.00     0.046 C 
ATOM     16  C   UNL A   1      32.358  26.382  22.212  1.00  0.00    -0.030 A 
ATOM     17  C   UNL A   1      31.788  27.511  22.944  1.00  0.00     0.022 A 
ATOM     18  C   UNL A   1      33.782  26.082  24.210  1.00  0.00     0.339 A 
ATOM     19  C   UNL A   1      32.469  28.067  24.027  1.00  0.00     0.142 A 
ATOM     20  C   UNL A   1      30.477  27.911  22.710  1.00  0.00     0.024 A 
ATOM     21  O   UNL A   1      34.467  25.352  24.918  1.00  0.00    -0.246 OA
ATOM     22  O   UNL A   1      33.631  27.435  24.499  1.00  0.00    -0.422 OA
ATOM     23  C   UNL A   1      32.004  29.183  24.742  1.00  0.00     0.095 A 
ATOM     24  C   UNL A   1      29.945  28.972  23.438  1.00  0.00     0.025 A 
ATOM     25  C   UNL A   1      30.762  29.652  24.331  1.00  0.00     0.138 A 
ATOM     26  C   UNL A   1      28.746  29.702  23.323  1.00  0.00     0.001 A 
ATOM     27  O   UNL A   1      30.211  30.878  24.594  1.00  0.00    -0.461 OA
ATOM     28  C   UNL A   1      29.111  30.945  23.793  1.00  0.00     0.108 A 
ATOM     29  C   UNL A   1      27.687  29.572  22.292  1.00  0.00     0.040 C 
ATOM     30  C   UNL A   1      28.862  32.158  22.958  1.00  0.00     0.076 C 
ATOM     31  C   UNL A   1      28.082  30.464  21.098  1.00  0.00     0.005 C 
ATOM     32  C   UNL A   1      28.993  31.675  21.475  1.00  0.00     0.008 C 
ENDBRANCH  13  14
ENDBRANCH  12  13
ENDBRANCH  10  12
ENDBRANCH   6  10
ENDBRANCH   3   5
ENDBRANCH   2   3
ENDBRANCH   1   2
BRANCH   1  33
ATOM     33  C   UNL A   1      38.845  20.665  25.769  1.00  0.00     0.275 C 
BRANCH  33  34
ATOM     34  O   UNL A   1      39.549  21.891  25.977  1.00  0.00    -0.458 OA
BRANCH  34  35
ATOM     35  C   UNL A   1      40.237  21.971  27.146  1.00  0.00     0.338 C 
ATOM     36  O   UNL A   1      40.535  21.084  27.902  1.00  0.00    -0.246 OA
BRANCH  35  37
ATOM     37  C   UNL A   1      40.604  23.390  27.271  1.00  0.00     0.060 A 
ATOM     38  C   UNL A   1      41.897  23.808  26.989  1.00  0.00     0.016 A 
ATOM     39  C   UNL A   1      39.655  24.281  27.771  1.00  0.00     0.016 A 
ATOM     40  C   UNL A   1      42.228  25.141  27.219  1.00  0.00     0.010 A 
ATOM     41  C   UNL A   1      39.985  25.599  28.024  1.00  0.00     0.010 A 
ATOM     42  C   UNL A   1      41.273  26.040  27.735  1.00  0.00    -0.014 A 
BRANCH  42  43
ATOM     43  C   UNL A   1      41.662  27.445  27.925  1.00  0.00     0.031 A 
ATOM     44  C   UNL A   1      40.546  28.455  27.882  1.00  0.00     0.074 A 
ATOM     45  C   UNL A   1      42.674  27.679  28.781  1.00  0.00     0.049 A 
ATOM     46  N   UNL A   1      39.799  28.825  28.883  1.00  0.00    -0.248 NA
ATOM     47  C   UNL A   1      40.071  28.944  26.584  1.00  0.00     0.031 C 
ATOM     48  C   UNL A   1      42.800  27.092  30.117  1.00  0.00     0.029 A 
ATOM     49  N   UNL A   1      43.660  28.630  28.714  1.00  0.00    -0.354 N 
ATOM     50  C   UNL A   1      38.751  29.570  28.358  1.00  0.00     0.074 A 
ATOM     51  C   UNL A   1      38.966  29.619  26.930  1.00  0.00     0.031 C 
ATOM     52  C   UNL A   1      43.708  27.805  30.810  1.00  0.00     0.029 A 
ATOM     53  C   UNL A   1      44.283  28.829  29.941  1.00  0.00     0.049 A 
ATOM     54  H   UNL A   1      43.899  29.117  27.892  1.00  0.00     0.167 HD
ATOM     55  C   UNL A   1      37.754  30.120  29.103  1.00  0.00     0.037 A 
ATOM     56  C   UNL A   1      44.781  30.032  30.335  1.00  0.00     0.037 A 
ATOM     57  C   UNL A   1      37.837  29.913  30.514  1.00  0.00     0.049 A 
ATOM     58  C   UNL A   1      43.521  30.678  30.864  1.00  0.00     0.074 A 
ATOM     59  C   UNL A   1      37.310  29.047  31.446  1.00  0.00     0.029 A 
ATOM     60  N   UNL A   1      38.668  30.739  31.231  1.00  0.00    -0.354 N 
ATOM     61  N   UNL A   1      42.958  30.440  32.020  1.00  0.00    -0.248 NA
ATOM     62  C   UNL A   1      42.645  31.335  29.890  1.00  0.00     0.031 C 
ATOM     63  C   UNL A   1      38.201  29.106  32.564  1.00  0.00     0.029 A 
ATOM     64  C   UNL A   1      39.236  29.972  32.214  1.00  0.00     0.049 A 
ATOM     65  H   UNL A   1      38.825  31.698  31.070  1.00  0.00     0.167 HD
ATOM     66  C   UNL A   1      41.589  30.642  31.813  1.00  0.00     0.074 A 
ATOM     67  C   UNL A   1      41.472  31.247  30.503  1.00  0.00     0.031 C 
ATOM     68  C   UNL A   1      40.617  30.113  32.615  1.00  0.00     0.037 A 
BRANCH  55  69
ATOM     69  C   UNL A   1      36.717  31.034  28.580  1.00  0.00     0.057 A 
ATOM     70  C   UNL A   1      36.960  32.414  28.625  1.00  0.00     0.134 A 
ATOM     71  C   UNL A   1      35.430  30.610  28.245  1.00  0.00     0.134 A 
ATOM     72  F   UNL A   1      38.178  32.874  28.958  1.00  0.00    -0.206 F 
ATOM     73  C   UNL A   1      35.949  33.344  28.387  1.00  0.00     0.040 A 
ATOM     74  C   UNL A   1      34.410  31.533  27.995  1.00  0.00     0.040 A 
ATOM     75  F   UNL A   1      35.132  29.303  28.204  1.00  0.00    -0.206 F 
ATOM     76  C   UNL A   1      34.665  32.903  28.082  1.00  0.00     0.006 A 
ENDBRANCH  55  69
BRANCH  56  77
ATOM     77  C   UNL A   1      45.721  30.658  29.351  1.00  0.00     0.057 A 
ATOM     78  C   UNL A   1      47.062  30.854  29.745  1.00  0.00     0.134 A 
ATOM     79  C   UNL A   1      45.414  31.038  28.041  1.00  0.00     0.134 A 
ATOM     80  F   UNL A   1      47.438  30.631  31.015  1.00  0.00    -0.206 F 
ATOM     81  C   UNL A   1      48.060  31.254  28.853  1.00  0.00     0.040 A 
ATOM     82  C   UNL A   1      46.406  31.424  27.130  1.00  0.00     0.040 A 
ATOM     83  F   UNL A   1      44.154  31.030  27.590  1.00  0.00    -0.206 F 
ATOM     84  C   UNL A   1      47.737  31.508  27.527  1.00  0.00     0.006 A 
ENDBRANCH  56  77
BRANCH  68  85
ATOM     85  C   UNL A   1      41.100  29.407  33.834  1.00  0.00     0.057 A 
ATOM     86  C   UNL A   1      41.305  28.026  33.826  1.00  0.00     0.134 A 
ATOM     87  C   UNL A   1      41.403  30.102  35.014  1.00  0.00     0.134 A 
ATOM     88  F   UNL A   1      41.044  27.305  32.724  1.00  0.00    -0.206 F 
ATOM     89  C   UNL A   1      41.811  27.361  34.944  1.00  0.00     0.040 A 
ATOM     90  C   UNL A   1      41.934  29.453  36.128  1.00  0.00     0.040 A 
ATOM     91  F   UNL A   1      41.213  31.428  35.103  1.00  0.00    -0.206 F 
ATOM     92  C   UNL A   1      42.139  28.077  36.094  1.00  0.00     0.006 A 
ENDBRANCH  68  85
ENDBRANCH  42  43
ENDBRANCH  35  37
ENDBRANCH  34  35
ENDBRANCH  33  34
ENDBRANCH   1  33
TORSDOF 15
ENDMDL
MODEL 2
REMARK VINA RESULT:     -12.7      1.151      1.816
REMARK SMILES Cc1c(CCC(=O)N2CCC[C@H]2C(=O)OCCOC(=O)c2ccc(-c3c4nc(c(-c5c(F)cccc5F)c5ccc([nH]5)c(-c5c(F)cccc5F)c5nc(c(-c6c(F)cccc6F)c6ccc3[nH]6)C=C5)C=C4)cc2)c(=O)oc2cc3oc4c(c3cc12)CCCC4
REMARK SMILES IDX 16 1 15 2 13 3 14 4 12 5 8 6 9 7 10 8 11 9 6 10 7 11 5 12
REMARK SMILES IDX 4 13 3 14 1 15 2 16 86 17 75 18 78 19 85 20 76 21 77 22
REMARK SMILES IDX 79 23 84 24 80 25 83 26 81 27 82 28 87 29 90 30 88 31 89 32
REMARK SMILES IDX 17 33 18 34 19 35 20 36 21 37 22 38 74 39 23 40 73 41 24 42
REMARK SMILES IDX 25 43 26 44 67 45 27 46 72 47 66 48 68 49 28 50 71 51 65 52
REMARK SMILES IDX 64 53 29 55 55 56 38 57 54 58 39 59 42 60 53 61 69 62 40 63
REMARK SMILES IDX 41 64 52 66 70 67 43 68 30 69 31 70 36 71 32 72 33 73 35 74
REMARK SMILES IDX 37 75 34 76 56 77 57 78 62 79 58 80 59 81 61 82 63 83 60 84
REMARK SMILES IDX 44 85 45 86 50 87 46 88 47 89 49 90 51 91 48 92
REMARK H PARENT 68 54 42 65
REMARK Flexibility Score: inf
ROOT
ATOM      1  C   UNL A   1      37.968  21.330  25.334  1.00  0.00     0.274 C 
ENDROOT
BRANCH   1   2
ATOM      2  O   UNL A   1      37.135  20.266  24.803  1.00  0.00    -0.461 OA
BRANCH   2   3
ATOM      3  C   UNL A   1      35.800  20.417  24.998  1.00  0.00     0.328 C 
ATOM      4  O   UNL A   1      34.974  19.543  24.734  1.00  0.00    -0.250 OA
BRANCH   3   5
ATOM      5  C   UNL A   1      35.335  21.810  25.479  1.00  0.00     0.195 C 
ATOM      6  N   UNL A   1      34.516  22.803  24.745  1.00  0.00    -0.329 N 
ATOM      7  C   UNL A   1      33.493  23.361  25.618  1.00  0.00     0.120 C 
ATOM      8  C   UNL A   1      33.776  22.821  27.005  1.00  0.00     0.024 C 
ATOM      9  C   UNL A   1      34.505  21.524  26.739  1.00  0.00     0.039 C 
BRANCH   6  10
ATOM     10  C   UNL A   1      34.988  23.415  23.595  1.00  0.00     0.223 C 
ATOM     11  O   UNL A   1      35.901  22.903  22.948  1.00  0.00    -0.275 OA
BRANCH  10  12
ATOM     12  C   UNL A   1      34.395  24.755  23.126  1.00  0.00     0.105 C 
BRANCH  12  13
ATOM     13  C   UNL A   1      33.121  24.684  22.265  1.00  0.00     0.053 C 
BRANCH  13  14
ATOM     14  C   UNL A   1      31.979  25.398  22.928  1.00  0.00     0.042 A 
ATOM     15  C   UNL A   1      33.065  27.677  22.749  1.00  0.00     0.046 C 
ATOM     16  C   UNL A   1      31.908  26.739  22.991  1.00  0.00    -0.030 A 
ATOM     17  C   UNL A   1      30.545  27.260  23.065  1.00  0.00     0.022 A 
ATOM     18  C   UNL A   1      30.864  24.545  23.446  1.00  0.00     0.339 A 
ATOM     19  C   UNL A   1      29.535  26.515  23.675  1.00  0.00     0.142 A 
ATOM     20  C   UNL A   1      30.189  28.401  22.355  1.00  0.00     0.024 A 
ATOM     21  O   UNL A   1      30.903  23.322  23.370  1.00  0.00    -0.246 OA
ATOM     22  O   UNL A   1      29.809  25.197  24.077  1.00  0.00    -0.422 OA
ATOM     23  C   UNL A   1      28.218  26.976  23.826  1.00  0.00     0.095 A 
ATOM     24  C   UNL A   1      28.877  28.866  22.419  1.00  0.00     0.025 A 
ATOM     25  C   UNL A   1      27.974  28.217  23.251  1.00  0.00     0.138 A 
ATOM     26  C   UNL A   1      28.260  30.048  21.965  1.00  0.00     0.001 A 
ATOM     27  O   UNL A   1      26.921  29.056  23.505  1.00  0.00    -0.461 OA
ATOM     28  C   UNL A   1      27.249  30.224  22.885  1.00  0.00     0.108 A 
ATOM     29  C   UNL A   1      28.891  31.220  21.311  1.00  0.00     0.040 C 
ATOM     30  C   UNL A   1      27.126  31.522  23.613  1.00  0.00     0.076 C 
ATOM     31  C   UNL A   1      29.383  32.169  22.422  1.00  0.00     0.005 C 
ATOM     32  C   UNL A   1      28.589  32.056  23.762  1.00  0.00     0.008 C 
ENDBRANCH  13  14
ENDBRANCH  12  13
ENDBRANCH  10  12
ENDBRANCH   6  10
ENDBRANCH   3   5
ENDBRANCH   2   3
ENDBRANCH   1   2
BRANCH   1  33
ATOM     33  C   UNL A   1      39.333  20.811  25.776  1.00  0.00     0.275 C 
BRANCH  33  34
ATOM     34  O   UNL A   1      40.166  21.933  26.080  1.00  0.00    -0.458 OA
BRANCH  34  35
ATOM     35  C   UNL A   1      40.615  21.987  27.361  1.00  0.00     0.338 C 
ATOM     36  O   UNL A   1      40.764  21.084  28.142  1.00  0.00    -0.246 OA
BRANCH  35  37
ATOM     37  C   UNL A   1      40.947  23.402  27.584  1.00  0.00     0.060 A 
ATOM     38  C   UNL A   1      39.970  24.295  28.004  1.00  0.00     0.016 A 
ATOM     39  C   UNL A   1      42.232  23.842  27.271  1.00  0.00     0.016 A 
ATOM     40  C   UNL A   1      40.303  25.643  28.105  1.00  0.00     0.010 A 
ATOM     41  C   UNL A   1      42.561  25.183  27.345  1.00  0.00     0.010 A 
ATOM     42  C   UNL A   1      41.598  26.090  27.777  1.00  0.00    -0.014 A 
BRANCH  42  43
ATOM     43  C   UNL A   1      41.909  27.518  27.935  1.00  0.00     0.031 A 
ATOM     44  C   UNL A   1      40.740  28.465  27.867  1.00  0.00     0.074 A 
ATOM     45  C   UNL A   1      42.905  27.827  28.786  1.00  0.00     0.049 A 
ATOM     46  N   UNL A   1      39.972  28.817  28.858  1.00  0.00    -0.248 NA
ATOM     47  C   UNL A   1      40.242  28.897  26.557  1.00  0.00     0.031 C 
ATOM     48  C   UNL A   1      43.060  27.279  30.135  1.00  0.00     0.029 A 
ATOM     49  N   UNL A   1      43.838  28.829  28.698  1.00  0.00    -0.354 N 
ATOM     50  C   UNL A   1      38.886  29.492  28.315  1.00  0.00     0.074 A 
ATOM     51  C   UNL A   1      39.101  29.519  26.887  1.00  0.00     0.031 C 
ATOM     52  C   UNL A   1      43.927  28.056  30.812  1.00  0.00     0.029 A 
ATOM     53  C   UNL A   1      44.447  29.090  29.920  1.00  0.00     0.049 A 
ATOM     54  H   UNL A   1      44.052  29.309  27.865  1.00  0.00     0.167 HD
ATOM     55  C   UNL A   1      37.859  30.004  29.047  1.00  0.00     0.037 A 
ATOM     56  C   UNL A   1      44.878  30.327  30.287  1.00  0.00     0.037 A 
ATOM     57  C   UNL A   1      37.950  29.835  30.462  1.00  0.00     0.049 A 
ATOM     58  C   UNL A   1      43.584  30.915  30.799  1.00  0.00     0.074 A 
ATOM     59  C   UNL A   1      37.469  28.964  31.414  1.00  0.00     0.029 A 
ATOM     60  N   UNL A   1      38.734  30.721  31.161  1.00  0.00    -0.354 N 
ATOM     61  N   UNL A   1      43.031  30.675  31.960  1.00  0.00    -0.248 NA
ATOM     62  C   UNL A   1      42.675  31.501  29.809  1.00  0.00     0.031 C 
ATOM     63  C   UNL A   1      38.353  29.097  32.531  1.00  0.00     0.029 A 
ATOM     64  C   UNL A   1      39.341  30.010  32.162  1.00  0.00     0.049 A 
ATOM     65  H   UNL A   1      38.839  31.683  30.978  1.00  0.00     0.167 HD
ATOM     66  C   UNL A   1      41.655  30.797  31.748  1.00  0.00     0.074 A 
ATOM     67  C   UNL A   1      41.508  31.364  30.423  1.00  0.00     0.031 C 
ATOM     68  C   UNL A   1      40.711  30.235  32.560  1.00  0.00     0.037 A 
BRANCH  55  69
ATOM     69  C   UNL A   1      36.775  30.848  28.502  1.00  0.00     0.057 A 
ATOM     70  C   UNL A   1      36.925  32.241  28.551  1.00  0.00     0.134 A 
ATOM     71  C   UNL A   1      35.527  30.340  28.140  1.00  0.00     0.134 A 
ATOM     72  F   UNL A   1      38.103  32.780  28.909  1.00  0.00    -0.206 F 
ATOM     73  C   UNL A   1      35.861  33.102  28.292  1.00  0.00     0.040 A 
ATOM     74  C   UNL A   1      34.453  31.194  27.869  1.00  0.00     0.040 A 
ATOM     75  F   UNL A   1      35.316  29.016  28.094  1.00  0.00    -0.206 F 
ATOM     76  C   UNL A   1      34.615  32.577  27.960  1.00  0.00     0.006 A 
ENDBRANCH  55  69
BRANCH  56  77
ATOM     77  C   UNL A   1      45.784  30.980  29.289  1.00  0.00     0.057 A 
ATOM     78  C   UNL A   1      47.135  31.180  29.649  1.00  0.00     0.134 A 
ATOM     79  C   UNL A   1      45.437  31.382  27.996  1.00  0.00     0.134 A 
ATOM     80  F   UNL A   1      47.548  30.936  30.903  1.00  0.00    -0.206 F 
ATOM     81  C   UNL A   1      48.103  31.607  28.737  1.00  0.00     0.040 A 
ATOM     82  C   UNL A   1      46.400  31.794  27.064  1.00  0.00     0.040 A 
ATOM     83  F   UNL A   1      44.165  31.372  27.580  1.00  0.00    -0.206 F 
ATOM     84  C   UNL A   1      47.741  31.882  27.426  1.00  0.00     0.006 A 
ENDBRANCH  56  77
BRANCH  68  85
ATOM     85  C   UNL A   1      41.229  29.584  33.796  1.00  0.00     0.057 A 
ATOM     86  C   UNL A   1      41.429  30.324  34.963  1.00  0.00     0.134 A 
ATOM     87  C   UNL A   1      41.493  28.208  33.845  1.00  0.00     0.134 A 
ATOM     88  F   UNL A   1      41.184  31.644  34.984  1.00  0.00    -0.206 F 
ATOM     89  C   UNL A   1      41.859  29.716  36.143  1.00  0.00     0.040 A 
ATOM     90  C   UNL A   1      41.897  27.583  35.026  1.00  0.00     0.040 A 
ATOM     91  F   UNL A   1      41.343  27.436  32.758  1.00  0.00    -0.206 F 
ATOM     92  C   UNL A   1      42.081  28.340  36.180  1.00  0.00     0.006 A 
ENDBRANCH  68  85
ENDBRANCH  42  43
ENDBRANCH  35  37
ENDBRANCH  34  35
ENDBRANCH  33  34
ENDBRANCH   1  33
TORSDOF 15
ENDMDL
MODEL 3
REMARK VINA RESULT:     -12.7      2.429      8.322
REMARK SMILES Cc1c(CCC(=O)N2CCC[C@H]2C(=O)OCCOC(=O)c2ccc(-c3c4nc(c(-c5c(F)cccc5F)c5ccc([nH]5)c(-c5c(F)cccc5F)c5nc(c(-c6c(F)cccc6F)c6ccc3[nH]6)C=C5)C=C4)cc2)c(=O)oc2cc3oc4c(c3cc12)CCCC4
REMARK SMILES IDX 16 1 15 2 13 3 14 4 12 5 8 6 9 7 10 8 11 9 6 10 7 11 5 12
REMARK SMILES IDX 4 13 3 14 1 15 2 16 86 17 75 18 78 19 85 20 76 21 77 22
REMARK SMILES IDX 79 23 84 24 80 25 83 26 81 27 82 28 87 29 90 30 88 31 89 32
REMARK SMILES IDX 17 33 18 34 19 35 20 36 21 37 22 38 74 39 23 40 73 41 24 42
REMARK SMILES IDX 25 43 26 44 67 45 27 46 72 47 66 48 68 49 28 50 71 51 65 52
REMARK SMILES IDX 64 53 29 55 55 56 38 57 54 58 39 59 42 60 53 61 69 62 40 63
REMARK SMILES IDX 41 64 52 66 70 67 43 68 30 69 31 70 36 71 32 72 33 73 35 74
REMARK SMILES IDX 37 75 34 76 56 77 57 78 62 79 58 80 59 81 61 82 63 83 60 84
REMARK SMILES IDX 44 85 45 86 50 87 46 88 47 89 49 90 51 91 48 92
REMARK H PARENT 68 54 42 65
REMARK Flexibility Score: inf
ROOT
ATOM      1  C   UNL A   1      33.012  30.457  27.207  1.00  0.00     0.274 C 
ENDROOT
BRANCH   1   2
ATOM      2  O   UNL A   1      32.627  30.206  25.829  1.00  0.00    -0.461 OA
BRANCH   2   3
ATOM      3  C   UNL A   1      31.813  29.137  25.637  1.00  0.00     0.328 C 
ATOM      4  O   UNL A   1      31.535  28.328  26.523  1.00  0.00    -0.250 OA
BRANCH   3   5
ATOM      5  C   UNL A   1      31.318  28.910  24.190  1.00  0.00     0.195 C 
ATOM      6  N   UNL A   1      30.702  27.691  23.618  1.00  0.00    -0.329 N 
ATOM      7  C   UNL A   1      29.548  28.040  22.801  1.00  0.00     0.120 C 
ATOM      8  C   UNL A   1      29.527  29.553  22.720  1.00  0.00     0.024 C 
ATOM      9  C   UNL A   1      30.241  29.986  23.980  1.00  0.00     0.039 C 
BRANCH   6  10
ATOM     10  C   UNL A   1      31.418  26.510  23.503  1.00  0.00     0.223 C 
ATOM     11  O   UNL A   1      32.447  26.469  22.829  1.00  0.00    -0.275 OA
BRANCH  10  12
ATOM     12  C   UNL A   1      30.924  25.227  24.196  1.00  0.00     0.105 C 
BRANCH  12  13
ATOM     13  C   UNL A   1      31.255  25.077  25.691  1.00  0.00     0.053 C 
BRANCH  13  14
ATOM     14  C   UNL A   1      32.275  23.999  25.914  1.00  0.00     0.042 A 
ATOM     15  C   UNL A   1      30.544  22.193  26.299  1.00  0.00     0.046 C 
ATOM     16  C   UNL A   1      31.938  22.702  26.027  1.00  0.00    -0.030 A 
ATOM     17  C   UNL A   1      32.989  21.776  25.611  1.00  0.00     0.022 A 
ATOM     18  C   UNL A   1      33.710  24.422  25.918  1.00  0.00     0.339 A 
ATOM     19  C   UNL A   1      34.333  22.125  25.746  1.00  0.00     0.142 A 
ATOM     20  C   UNL A   1      32.671  20.631  24.889  1.00  0.00     0.024 A 
ATOM     21  O   UNL A   1      34.032  25.598  25.789  1.00  0.00    -0.246 OA
ATOM     22  O   UNL A   1      34.661  23.432  26.142  1.00  0.00    -0.422 OA
ATOM     23  C   UNL A   1      35.392  21.264  25.415  1.00  0.00     0.095 A 
ATOM     24  C   UNL A   1      33.691  19.775  24.480  1.00  0.00     0.025 A 
ATOM     25  C   UNL A   1      34.996  20.050  24.866  1.00  0.00     0.138 A 
ATOM     26  C   UNL A   1      33.684  18.492  23.899  1.00  0.00     0.001 A 
ATOM     27  O   UNL A   1      35.744  18.908  24.753  1.00  0.00    -0.461 OA
ATOM     28  C   UNL A   1      34.857  17.946  24.376  1.00  0.00     0.108 A 
ATOM     29  C   UNL A   1      32.519  17.622  23.606  1.00  0.00     0.040 C 
ATOM     30  C   UNL A   1      34.831  16.630  25.081  1.00  0.00     0.076 C 
ATOM     31  C   UNL A   1      32.211  16.804  24.875  1.00  0.00     0.005 C 
ATOM     32  C   UNL A   1      33.444  16.573  25.805  1.00  0.00     0.008 C 
ENDBRANCH  13  14
ENDBRANCH  12  13
ENDBRANCH  10  12
ENDBRANCH   6  10
ENDBRANCH   3   5
ENDBRANCH   2   3
ENDBRANCH   1   2
BRANCH   1  33
ATOM     33  C   UNL A   1      33.345  31.928  27.441  1.00  0.00     0.275 C 
BRANCH  33  34
ATOM     34  O   UNL A   1      34.326  32.010  28.477  1.00  0.00    -0.458 OA
BRANCH  34  35
ATOM     35  C   UNL A   1      35.461  32.680  28.144  1.00  0.00     0.338 C 
ATOM     36  O   UNL A   1      35.570  33.727  27.563  1.00  0.00    -0.246 OA
BRANCH  35  37
ATOM     37  C   UNL A   1      36.554  31.873  28.707  1.00  0.00     0.060 A 
ATOM     38  C   UNL A   1      36.876  30.642  28.151  1.00  0.00     0.016 A 
ATOM     39  C   UNL A   1      37.187  32.324  29.864  1.00  0.00     0.016 A 
ATOM     40  C   UNL A   1      37.848  29.866  28.776  1.00  0.00     0.010 A 
ATOM     41  C   UNL A   1      38.135  31.546  30.503  1.00  0.00     0.010 A 
ATOM     42  C   UNL A   1      38.480  30.316  29.953  1.00  0.00    -0.014 A 
BRANCH  42  43
ATOM     43  C   UNL A   1      39.526  29.475  30.554  1.00  0.00     0.031 A 
ATOM     44  C   UNL A   1      39.628  28.066  30.033  1.00  0.00     0.074 A 
ATOM     45  C   UNL A   1      40.673  30.092  30.894  1.00  0.00     0.049 A 
ATOM     46  N   UNL A   1      40.311  27.673  28.995  1.00  0.00    -0.248 NA
ATOM     47  C   UNL A   1      38.734  27.036  30.571  1.00  0.00     0.031 C 
ATOM     48  C   UNL A   1      41.413  31.023  30.041  1.00  0.00     0.029 A 
ATOM     49  N   UNL A   1      41.498  29.853  31.964  1.00  0.00    -0.354 N 
ATOM     50  C   UNL A   1      39.930  26.364  28.726  1.00  0.00     0.074 A 
ATOM     51  C   UNL A   1      38.954  26.013  29.733  1.00  0.00     0.031 C 
ATOM     52  C   UNL A   1      42.657  31.159  30.540  1.00  0.00     0.029 A 
ATOM     53  C   UNL A   1      42.764  30.400  31.784  1.00  0.00     0.049 A 
ATOM     54  H   UNL A   1      41.226  29.351  32.767  1.00  0.00     0.167 HD
ATOM     55  C   UNL A   1      40.424  25.619  27.701  1.00  0.00     0.037 A 
ATOM     56  C   UNL A   1      43.895  29.839  32.290  1.00  0.00     0.037 A 
ATOM     57  C   UNL A   1      41.412  26.250  26.884  1.00  0.00     0.049 A 
ATOM     58  C   UNL A   1      44.180  28.811  31.219  1.00  0.00     0.074 A 
ATOM     59  C   UNL A   1      41.456  26.928  25.687  1.00  0.00     0.029 A 
ATOM     60  N   UNL A   1      42.706  26.262  27.344  1.00  0.00    -0.354 N 
ATOM     61  N   UNL A   1      44.720  29.042  30.051  1.00  0.00    -0.248 NA
ATOM     62  C   UNL A   1      43.475  27.530  31.315  1.00  0.00     0.031 C 
ATOM     63  C   UNL A   1      42.662  27.696  25.731  1.00  0.00     0.029 A 
ATOM     64  C   UNL A   1      43.246  27.466  26.977  1.00  0.00     0.049 A 
ATOM     65  H   UNL A   1      43.160  25.543  27.841  1.00  0.00     0.167 HD
ATOM     66  C   UNL A   1      44.169  28.085  29.193  1.00  0.00     0.074 A 
ATOM     67  C   UNL A   1      43.460  27.152  30.044  1.00  0.00     0.031 C 
ATOM     68  C   UNL A   1      44.133  28.219  27.834  1.00  0.00     0.037 A 
BRANCH  55  69
ATOM     69  C   UNL A   1      40.140  24.184  27.490  1.00  0.00     0.057 A 
ATOM     70  C   UNL A   1      41.033  23.242  28.018  1.00  0.00     0.134 A 
ATOM     71  C   UNL A   1      39.154  23.727  26.614  1.00  0.00     0.134 A 
ATOM     72  F   UNL A   1      42.010  23.634  28.854  1.00  0.00    -0.206 F 
ATOM     73  C   UNL A   1      40.978  21.896  27.659  1.00  0.00     0.040 A 
ATOM     74  C   UNL A   1      39.082  22.378  26.252  1.00  0.00     0.040 A 
ATOM     75  F   UNL A   1      38.283  24.583  26.060  1.00  0.00    -0.206 F 
ATOM     76  C   UNL A   1      40.005  21.463  26.763  1.00  0.00     0.006 A 
ENDBRANCH  55  69
BRANCH  56  77
ATOM     77  C   UNL A   1      43.833  29.556  33.759  1.00  0.00     0.057 A 
ATOM     78  C   UNL A   1      43.238  30.524  34.598  1.00  0.00     0.134 A 
ATOM     79  C   UNL A   1      44.272  28.392  34.396  1.00  0.00     0.134 A 
ATOM     80  F   UNL A   1      42.886  31.724  34.109  1.00  0.00    -0.206 F 
ATOM     81  C   UNL A   1      42.961  30.285  35.946  1.00  0.00     0.040 A 
ATOM     82  C   UNL A   1      43.985  28.131  35.743  1.00  0.00     0.040 A 
ATOM     83  F   UNL A   1      44.971  27.458  33.740  1.00  0.00    -0.206 F 
ATOM     84  C   UNL A   1      43.305  29.068  36.516  1.00  0.00     0.006 A 
ENDBRANCH  56  77
BRANCH  68  85
ATOM     85  C   UNL A   1      44.852  29.400  27.283  1.00  0.00     0.057 A 
ATOM     86  C   UNL A   1      44.176  30.597  27.034  1.00  0.00     0.134 A 
ATOM     87  C   UNL A   1      46.232  29.369  27.033  1.00  0.00     0.134 A 
ATOM     88  F   UNL A   1      42.857  30.694  27.263  1.00  0.00    -0.206 F 
ATOM     89  C   UNL A   1      44.850  31.728  26.572  1.00  0.00     0.040 A 
ATOM     90  C   UNL A   1      46.921  30.501  26.597  1.00  0.00     0.040 A 
ATOM     91  F   UNL A   1      46.945  28.249  27.230  1.00  0.00    -0.206 F 
ATOM     92  C   UNL A   1      46.229  31.686  26.365  1.00  0.00     0.006 A 
ENDBRANCH  68  85
ENDBRANCH  42  43
ENDBRANCH  35  37
ENDBRANCH  34  35
ENDBRANCH  33  34
ENDBRANCH   1  33
TORSDOF 15
ENDMDL
