MODEL 1
REMARK VINA RESULT:     -11.9      0.000      0.000
REMARK SMILES Cc1ccc(C(=O)OCCOC(=O)c2ccc(-c3c4nc(c(-c5c(F)cccc5F)c5ccc([nH]5)c(-c5c(F)cccc5F)c5nc(c(-c6c(F)cccc6F)c6ccc3[nH]6)C=C5)C=C4)cc2)cc1NC(=O)c1ccc(Br)o1
REMARK SMILES IDX 9 1 8 2 6 3 7 4 5 5 1 6 2 7 3 8 69 9 4 10 68 11 70 12 71 13
REMARK SMILES IDX 72 15 73 16 74 17 78 18 75 19 76 20 77 21 10 22 11 23 12 24
REMARK SMILES IDX 13 25 14 26 15 27 67 28 16 29 66 30 17 31 18 32 19 33 60 34
REMARK SMILES IDX 20 35 65 36 59 37 61 38 21 39 64 40 58 41 57 42 22 44 48 45
REMARK SMILES IDX 31 46 47 47 32 48 35 49 46 50 62 51 33 52 34 53 45 55 63 56
REMARK SMILES IDX 36 57 23 58 24 59 29 60 25 61 26 62 28 63 30 64 27 65 49 66
REMARK SMILES IDX 50 67 55 68 51 69 52 70 54 71 56 72 53 73 37 74 38 75 43 76
REMARK SMILES IDX 39 77 40 78 42 79 44 80 41 81
REMARK H PARENT 70 14 61 43 35 54
REMARK Flexibility Score: inf
ROOT
ATOM      1  C   UNL A   1      33.237  31.794  27.739  1.00  0.00     0.275 C 
ENDROOT
BRANCH   1   2
ATOM      2  O   UNL A   1      32.745  30.546  27.229  1.00  0.00    -0.458 OA
BRANCH   2   3
ATOM      3  C   UNL A   1      31.856  30.720  26.227  1.00  0.00     0.338 C 
ATOM      4  O   UNL A   1      31.064  31.646  26.107  1.00  0.00    -0.246 OA
BRANCH   3   5
ATOM      5  C   UNL A   1      31.715  29.573  25.331  1.00  0.00     0.062 A 
ATOM      6  C   UNL A   1      29.652  26.081  23.932  1.00  0.00     0.046 C 
ATOM      7  C   UNL A   1      30.440  27.250  24.461  1.00  0.00    -0.027 A 
ATOM      8  C   UNL A   1      30.385  28.441  23.697  1.00  0.00     0.006 A 
ATOM      9  C   UNL A   1      31.156  27.247  25.673  1.00  0.00     0.045 A 
ATOM     10  C   UNL A   1      30.975  29.619  24.158  1.00  0.00     0.016 A 
ATOM     11  C   UNL A   1      31.899  28.373  26.004  1.00  0.00     0.042 A 
BRANCH   9  12
ATOM     12  N   UNL A   1      31.104  26.161  26.571  1.00  0.00    -0.319 N 
ATOM     13  C   UNL A   1      31.777  24.941  26.557  1.00  0.00     0.291 C 
ATOM     14  H   UNL A   1      30.492  26.285  27.332  1.00  0.00     0.170 HD
ATOM     15  O   UNL A   1      31.377  24.064  27.324  1.00  0.00    -0.265 OA
BRANCH  13  16
ATOM     16  C   UNL A   1      32.957  24.761  25.730  1.00  0.00     0.193 A 
ATOM     17  C   UNL A   1      33.136  24.773  24.358  1.00  0.00     0.057 A 
ATOM     18  O   UNL A   1      34.154  24.471  26.336  1.00  0.00    -0.444 OA
ATOM     19  C   UNL A   1      34.497  24.451  24.118  1.00  0.00     0.059 A 
ATOM     20  C   UNL A   1      35.067  24.252  25.351  1.00  0.00     0.170 A 
ATOM     21  Br  UNL A   1      36.828  23.699  25.625  1.00  0.00    -0.008 Br
ENDBRANCH  13  16
ENDBRANCH   9  12
ENDBRANCH   3   5
ENDBRANCH   2   3
ENDBRANCH   1   2
BRANCH   1  22
ATOM     22  C   UNL A   1      34.763  31.905  27.707  1.00  0.00     0.275 C 
BRANCH  22  23
ATOM     23  O   UNL A   1      35.573  30.853  28.307  1.00  0.00    -0.458 OA
BRANCH  23  24
ATOM     24  C   UNL A   1      36.000  29.694  27.760  1.00  0.00     0.338 C 
ATOM     25  O   UNL A   1      35.283  29.013  27.027  1.00  0.00    -0.246 OA
BRANCH  24  26
ATOM     26  C   UNL A   1      37.360  29.244  28.067  1.00  0.00     0.060 A 
ATOM     27  C   UNL A   1      38.396  29.553  27.165  1.00  0.00     0.016 A 
ATOM     28  C   UNL A   1      37.615  28.583  29.264  1.00  0.00     0.016 A 
ATOM     29  C   UNL A   1      39.710  29.263  27.489  1.00  0.00     0.010 A 
ATOM     30  C   UNL A   1      38.914  28.427  29.659  1.00  0.00     0.010 A 
ATOM     31  C   UNL A   1      39.940  28.692  28.735  1.00  0.00    -0.014 A 
BRANCH  31  32
ATOM     32  C   UNL A   1      41.139  27.936  29.028  1.00  0.00     0.031 A 
ATOM     33  C   UNL A   1      41.301  26.579  28.504  1.00  0.00     0.074 A 
ATOM     34  C   UNL A   1      42.058  28.780  29.546  1.00  0.00     0.049 A 
ATOM     35  N   UNL A   1      42.113  25.691  28.948  1.00  0.00    -0.248 NA
ATOM     36  C   UNL A   1      40.466  26.067  27.422  1.00  0.00     0.031 C 
ATOM     37  C   UNL A   1      43.500  28.748  29.635  1.00  0.00     0.029 A 
ATOM     38  N   UNL A   1      41.714  29.946  30.258  1.00  0.00    -0.354 N 
ATOM     39  C   UNL A   1      42.232  24.741  27.946  1.00  0.00     0.074 A 
ATOM     40  C   UNL A   1      41.048  24.895  27.143  1.00  0.00     0.031 C 
ATOM     41  C   UNL A   1      43.879  29.596  30.617  1.00  0.00     0.029 A 
ATOM     42  C   UNL A   1      42.664  30.094  31.263  1.00  0.00     0.049 A 
ATOM     43  H   UNL A   1      40.951  30.542  30.079  1.00  0.00     0.167 HD
ATOM     44  C   UNL A   1      43.451  24.150  27.759  1.00  0.00     0.037 A 
ATOM     45  C   UNL A   1      42.244  29.795  32.530  1.00  0.00     0.037 A 
ATOM     46  C   UNL A   1      44.383  24.694  28.748  1.00  0.00     0.049 A 
ATOM     47  C   UNL A   1      42.903  28.511  32.977  1.00  0.00     0.074 A 
ATOM     48  C   UNL A   1      45.287  25.742  28.657  1.00  0.00     0.029 A 
ATOM     49  N   UNL A   1      44.143  24.496  30.103  1.00  0.00    -0.354 N 
ATOM     50  N   UNL A   1      43.157  27.493  32.195  1.00  0.00    -0.248 NA
ATOM     51  C   UNL A   1      43.456  28.359  34.316  1.00  0.00     0.031 C 
ATOM     52  C   UNL A   1      45.510  26.235  29.970  1.00  0.00     0.029 A 
ATOM     53  C   UNL A   1      44.722  25.509  30.848  1.00  0.00     0.049 A 
ATOM     54  H   UNL A   1      43.633  23.741  30.479  1.00  0.00     0.167 HD
ATOM     55  C   UNL A   1      43.983  26.623  32.860  1.00  0.00     0.074 A 
ATOM     56  C   UNL A   1      44.108  27.192  34.192  1.00  0.00     0.031 C 
ATOM     57  C   UNL A   1      44.576  25.531  32.291  1.00  0.00     0.037 A 
BRANCH  44  58
ATOM     58  C   UNL A   1      43.912  23.425  26.507  1.00  0.00     0.057 A 
ATOM     59  C   UNL A   1      43.641  22.046  26.343  1.00  0.00     0.134 A 
ATOM     60  C   UNL A   1      44.636  23.991  25.442  1.00  0.00     0.134 A 
ATOM     61  F   UNL A   1      42.881  21.368  27.213  1.00  0.00    -0.206 F 
ATOM     62  C   UNL A   1      44.126  21.283  25.272  1.00  0.00     0.040 A 
ATOM     63  C   UNL A   1      45.148  23.233  24.373  1.00  0.00     0.040 A 
ATOM     64  F   UNL A   1      44.843  25.309  25.353  1.00  0.00    -0.206 F 
ATOM     65  C   UNL A   1      44.904  21.870  24.290  1.00  0.00     0.006 A 
ENDBRANCH  44  58
BRANCH  45  66
ATOM     66  C   UNL A   1      40.826  30.219  32.823  1.00  0.00     0.057 A 
ATOM     67  C   UNL A   1      39.830  29.223  32.951  1.00  0.00     0.134 A 
ATOM     68  C   UNL A   1      40.456  31.504  33.232  1.00  0.00     0.134 A 
ATOM     69  F   UNL A   1      40.088  27.958  32.575  1.00  0.00    -0.206 F 
ATOM     70  C   UNL A   1      38.584  29.463  33.545  1.00  0.00     0.040 A 
ATOM     71  C   UNL A   1      39.196  31.764  33.806  1.00  0.00     0.040 A 
ATOM     72  F   UNL A   1      41.321  32.524  33.159  1.00  0.00    -0.206 F 
ATOM     73  C   UNL A   1      38.268  30.738  33.991  1.00  0.00     0.006 A 
ENDBRANCH  45  66
BRANCH  57  74
ATOM     74  C   UNL A   1      45.173  24.392  33.070  1.00  0.00     0.057 A 
ATOM     75  C   UNL A   1      46.435  24.455  33.672  1.00  0.00     0.134 A 
ATOM     76  C   UNL A   1      44.394  23.262  33.409  1.00  0.00     0.134 A 
ATOM     77  F   UNL A   1      47.228  25.528  33.535  1.00  0.00    -0.206 F 
ATOM     78  C   UNL A   1      46.919  23.437  34.497  1.00  0.00     0.040 A 
ATOM     79  C   UNL A   1      44.837  22.280  34.293  1.00  0.00     0.040 A 
ATOM     80  F   UNL A   1      43.153  23.081  32.931  1.00  0.00    -0.206 F 
ATOM     81  C   UNL A   1      46.113  22.355  34.824  1.00  0.00     0.006 A 
ENDBRANCH  57  74
ENDBRANCH  31  32
ENDBRANCH  24  26
ENDBRANCH  23  24
ENDBRANCH  22  23
ENDBRANCH   1  22
TORSDOF 13
ENDMDL
MODEL 2
REMARK VINA RESULT:     -11.9      3.524      8.820
REMARK SMILES Cc1ccc(C(=O)OCCOC(=O)c2ccc(-c3c4nc(c(-c5c(F)cccc5F)c5ccc([nH]5)c(-c5c(F)cccc5F)c5nc(c(-c6c(F)cccc6F)c6ccc3[nH]6)C=C5)C=C4)cc2)cc1NC(=O)c1ccc(Br)o1
REMARK SMILES IDX 9 1 8 2 6 3 7 4 5 5 1 6 2 7 3 8 69 9 4 10 68 11 70 12 71 13
REMARK SMILES IDX 72 15 73 16 74 17 78 18 75 19 76 20 77 21 10 22 11 23 12 24
REMARK SMILES IDX 13 25 14 26 15 27 67 28 16 29 66 30 17 31 18 32 19 33 60 34
REMARK SMILES IDX 20 35 65 36 59 37 61 38 21 39 64 40 58 41 57 42 22 44 48 45
REMARK SMILES IDX 31 46 47 47 32 48 35 49 46 50 62 51 33 52 34 53 45 55 63 56
REMARK SMILES IDX 36 57 23 58 24 59 29 60 25 61 26 62 28 63 30 64 27 65 49 66
REMARK SMILES IDX 50 67 55 68 51 69 52 70 54 71 56 72 53 73 37 74 38 75 43 76
REMARK SMILES IDX 39 77 40 78 42 79 44 80 41 81
REMARK H PARENT 70 14 61 43 35 54
REMARK Flexibility Score: inf
ROOT
ATOM      1  C   UNL A   1      37.463  21.378  24.741  1.00  0.00     0.275 C 
ENDROOT
BRANCH   1   2
ATOM      2  O   UNL A   1      36.317  20.769  25.354  1.00  0.00    -0.458 OA
BRANCH   2   3
ATOM      3  C   UNL A   1      35.370  21.675  25.679  1.00  0.00     0.338 C 
ATOM      4  O   UNL A   1      35.308  22.325  26.714  1.00  0.00    -0.246 OA
BRANCH   3   5
ATOM      5  C   UNL A   1      34.222  21.708  24.774  1.00  0.00     0.062 A 
ATOM      6  C   UNL A   1      30.634  23.508  23.261  1.00  0.00     0.046 C 
ATOM      7  C   UNL A   1      31.840  22.812  23.833  1.00  0.00    -0.027 A 
ATOM      8  C   UNL A   1      33.030  22.889  23.070  1.00  0.00     0.006 A 
ATOM      9  C   UNL A   1      31.868  22.161  25.081  1.00  0.00     0.045 A 
ATOM     10  C   UNL A   1      34.235  22.387  23.564  1.00  0.00     0.016 A 
ATOM     11  C   UNL A   1      33.029  21.498  25.453  1.00  0.00     0.042 A 
BRANCH   9  12
ATOM     12  N   UNL A   1      30.777  22.204  25.973  1.00  0.00    -0.319 N 
ATOM     13  C   UNL A   1      30.283  23.251  26.749  1.00  0.00     0.291 C 
ATOM     14  H   UNL A   1      30.284  21.357  26.063  1.00  0.00     0.170 HD
ATOM     15  O   UNL A   1      29.467  22.969  27.627  1.00  0.00    -0.265 OA
BRANCH  13  16
ATOM     16  C   UNL A   1      30.657  24.624  26.458  1.00  0.00     0.193 A 
ATOM     17  C   UNL A   1      29.937  25.690  25.949  1.00  0.00     0.057 A 
ATOM     18  O   UNL A   1      31.960  25.009  26.645  1.00  0.00    -0.444 OA
ATOM     19  C   UNL A   1      30.850  26.766  25.797  1.00  0.00     0.059 A 
ATOM     20  C   UNL A   1      32.071  26.294  26.210  1.00  0.00     0.170 A 
ATOM     21  Br  UNL A   1      33.663  27.264  26.125  1.00  0.00    -0.008 Br
ENDBRANCH  13  16
ENDBRANCH   9  12
ENDBRANCH   3   5
ENDBRANCH   2   3
ENDBRANCH   1   2
BRANCH   1  22
ATOM     22  C   UNL A   1      38.630  21.592  25.708  1.00  0.00     0.275 C 
BRANCH  22  23
ATOM     23  O   UNL A   1      38.939  22.937  26.175  1.00  0.00    -0.458 OA
BRANCH  23  24
ATOM     24  C   UNL A   1      39.988  23.358  26.915  1.00  0.00     0.338 C 
ATOM     25  O   UNL A   1      40.932  22.619  27.193  1.00  0.00    -0.246 OA
BRANCH  24  26
ATOM     26  C   UNL A   1      39.980  24.741  27.401  1.00  0.00     0.060 A 
ATOM     27  C   UNL A   1      40.432  25.762  26.544  1.00  0.00     0.016 A 
ATOM     28  C   UNL A   1      39.471  25.026  28.663  1.00  0.00     0.016 A 
ATOM     29  C   UNL A   1      40.311  27.089  26.920  1.00  0.00     0.010 A 
ATOM     30  C   UNL A   1      39.211  26.329  28.982  1.00  0.00     0.010 A 
ATOM     31  C   UNL A   1      39.708  27.344  28.145  1.00  0.00    -0.014 A 
BRANCH  31  32
ATOM     32  C   UNL A   1      39.915  28.584  28.864  1.00  0.00     0.031 A 
ATOM     33  C   UNL A   1      38.920  29.654  28.788  1.00  0.00     0.074 A 
ATOM     34  C   UNL A   1      40.930  28.405  29.738  1.00  0.00     0.049 A 
ATOM     35  N   UNL A   1      39.118  30.889  29.070  1.00  0.00    -0.248 NA
ATOM     36  C   UNL A   1      37.566  29.414  28.296  1.00  0.00     0.031 C 
ATOM     37  C   UNL A   1      41.316  29.065  30.963  1.00  0.00     0.029 A 
ATOM     38  N   UNL A   1      41.970  27.478  29.527  1.00  0.00    -0.354 N 
ATOM     39  C   UNL A   1      37.863  31.448  29.256  1.00  0.00     0.074 A 
ATOM     40  C   UNL A   1      36.958  30.577  28.556  1.00  0.00     0.031 C 
ATOM     41  C   UNL A   1      42.621  28.796  31.193  1.00  0.00     0.029 A 
ATOM     42  C   UNL A   1      43.128  28.055  30.037  1.00  0.00     0.049 A 
ATOM     43  H   UNL A   1      41.893  26.594  29.101  1.00  0.00     0.167 HD
ATOM     44  C   UNL A   1      37.721  32.410  30.218  1.00  0.00     0.037 A 
ATOM     45  C   UNL A   1      44.023  28.517  29.113  1.00  0.00     0.037 A 
ATOM     46  C   UNL A   1      39.027  32.635  30.840  1.00  0.00     0.049 A 
ATOM     47  C   UNL A   1      44.023  30.028  29.140  1.00  0.00     0.074 A 
ATOM     48  C   UNL A   1      39.589  32.092  31.985  1.00  0.00     0.029 A 
ATOM     49  N   UNL A   1      40.082  33.114  30.071  1.00  0.00    -0.354 N 
ATOM     50  N   UNL A   1      42.964  30.769  29.342  1.00  0.00    -0.248 NA
ATOM     51  C   UNL A   1      45.260  30.795  29.088  1.00  0.00     0.031 C 
ATOM     52  C   UNL A   1      41.000  32.161  31.849  1.00  0.00     0.029 A 
ATOM     53  C   UNL A   1      41.292  32.716  30.613  1.00  0.00     0.049 A 
ATOM     54  H   UNL A   1      39.983  33.659  29.256  1.00  0.00     0.167 HD
ATOM     55  C   UNL A   1      43.366  32.061  29.562  1.00  0.00     0.074 A 
ATOM     56  C   UNL A   1      44.805  32.031  29.355  1.00  0.00     0.031 C 
ATOM     57  C   UNL A   1      42.538  33.072  29.962  1.00  0.00     0.037 A 
BRANCH  44  58
ATOM     58  C   UNL A   1      36.417  32.845  30.863  1.00  0.00     0.057 A 
ATOM     59  C   UNL A   1      35.606  33.821  30.240  1.00  0.00     0.134 A 
ATOM     60  C   UNL A   1      35.905  32.381  32.088  1.00  0.00     0.134 A 
ATOM     61  F   UNL A   1      35.891  34.303  29.022  1.00  0.00    -0.206 F 
ATOM     62  C   UNL A   1      34.448  34.354  30.822  1.00  0.00     0.040 A 
ATOM     63  C   UNL A   1      34.757  32.923  32.696  1.00  0.00     0.040 A 
ATOM     64  F   UNL A   1      36.456  31.349  32.737  1.00  0.00    -0.206 F 
ATOM     65  C   UNL A   1      34.030  33.922  32.068  1.00  0.00     0.006 A 
ENDBRANCH  44  58
BRANCH  45  66
ATOM     66  C   UNL A   1      44.144  27.647  27.886  1.00  0.00     0.057 A 
ATOM     67  C   UNL A   1      43.621  28.122  26.660  1.00  0.00     0.134 A 
ATOM     68  C   UNL A   1      44.956  26.512  27.801  1.00  0.00     0.134 A 
ATOM     69  F   UNL A   1      42.821  29.202  26.641  1.00  0.00    -0.206 F 
ATOM     70  C   UNL A   1      43.970  27.572  25.420  1.00  0.00     0.040 A 
ATOM     71  C   UNL A   1      45.292  25.933  26.561  1.00  0.00     0.040 A 
ATOM     72  F   UNL A   1      45.507  25.979  28.899  1.00  0.00    -0.206 F 
ATOM     73  C   UNL A   1      44.823  26.479  25.366  1.00  0.00     0.006 A 
ENDBRANCH  45  66
BRANCH  57  74
ATOM     74  C   UNL A   1      42.877  34.534  29.856  1.00  0.00     0.057 A 
ATOM     75  C   UNL A   1      43.348  35.290  30.937  1.00  0.00     0.134 A 
ATOM     76  C   UNL A   1      42.932  35.174  28.597  1.00  0.00     0.134 A 
ATOM     77  F   UNL A   1      43.468  34.765  32.165  1.00  0.00    -0.206 F 
ATOM     78  C   UNL A   1      43.779  36.611  30.790  1.00  0.00     0.040 A 
ATOM     79  C   UNL A   1      43.432  36.464  28.429  1.00  0.00     0.040 A 
ATOM     80  F   UNL A   1      42.541  34.562  27.468  1.00  0.00    -0.206 F 
ATOM     81  C   UNL A   1      43.838  37.195  29.532  1.00  0.00     0.006 A 
ENDBRANCH  57  74
ENDBRANCH  31  32
ENDBRANCH  24  26
ENDBRANCH  23  24
ENDBRANCH  22  23
ENDBRANCH   1  22
TORSDOF 13
ENDMDL
MODEL 3
REMARK VINA RESULT:     -11.8      1.705      2.394
REMARK SMILES Cc1ccc(C(=O)OCCOC(=O)c2ccc(-c3c4nc(c(-c5c(F)cccc5F)c5ccc([nH]5)c(-c5c(F)cccc5F)c5nc(c(-c6c(F)cccc6F)c6ccc3[nH]6)C=C5)C=C4)cc2)cc1NC(=O)c1ccc(Br)o1
REMARK SMILES IDX 9 1 8 2 6 3 7 4 5 5 1 6 2 7 3 8 69 9 4 10 68 11 70 12 71 13
REMARK SMILES IDX 72 15 73 16 74 17 78 18 75 19 76 20 77 21 10 22 11 23 12 24
REMARK SMILES IDX 13 25 14 26 15 27 67 28 16 29 66 30 17 31 18 32 19 33 60 34
REMARK SMILES IDX 20 35 65 36 59 37 61 38 21 39 64 40 58 41 57 42 22 44 48 45
REMARK SMILES IDX 31 46 47 47 32 48 35 49 46 50 62 51 33 52 34 53 45 55 63 56
REMARK SMILES IDX 36 57 23 58 24 59 29 60 25 61 26 62 28 63 30 64 27 65 49 66
REMARK SMILES IDX 50 67 55 68 51 69 52 70 54 71 56 72 53 73 37 74 38 75 43 76
REMARK SMILES IDX 39 77 40 78 42 79 44 80 41 81
REMARK H PARENT 70 14 61 43 35 54
REMARK Flexibility Score: inf
ROOT
ATOM      1  C   UNL A   1      32.997  29.611  25.565  1.00  0.00     0.275 C 
ENDROOT
BRANCH   1   2
ATOM      2  O   UNL A   1      32.684  28.395  24.868  1.00  0.00    -0.458 OA
BRANCH   2   3
ATOM      3  C   UNL A   1      33.541  28.155  23.852  1.00  0.00     0.338 C 
ATOM      4  O   UNL A   1      33.977  28.976  23.056  1.00  0.00    -0.246 OA
BRANCH   3   5
ATOM      5  C   UNL A   1      33.790  26.739  23.587  1.00  0.00     0.062 A 
ATOM      6  C   UNL A   1      32.629  22.609  23.633  1.00  0.00     0.046 C 
ATOM      7  C   UNL A   1      33.094  24.040  23.688  1.00  0.00    -0.027 A 
ATOM      8  C   UNL A   1      33.097  24.746  22.461  1.00  0.00     0.006 A 
ATOM      9  C   UNL A   1      33.455  24.718  24.868  1.00  0.00     0.045 A 
ATOM     10  C   UNL A   1      33.391  26.110  22.416  1.00  0.00     0.016 A 
ATOM     11  C   UNL A   1      33.935  26.016  24.763  1.00  0.00     0.042 A 
BRANCH   9  12
ATOM     12  N   UNL A   1      33.300  24.136  26.143  1.00  0.00    -0.319 N 
ATOM     13  C   UNL A   1      34.050  23.153  26.787  1.00  0.00     0.291 C 
ATOM     14  H   UNL A   1      32.538  24.479  26.663  1.00  0.00     0.170 HD
ATOM     15  O   UNL A   1      33.567  22.645  27.800  1.00  0.00    -0.265 OA
BRANCH  13  16
ATOM     16  C   UNL A   1      35.384  22.821  26.320  1.00  0.00     0.193 A 
ATOM     17  C   UNL A   1      36.490  23.606  26.046  1.00  0.00     0.057 A 
ATOM     18  O   UNL A   1      35.675  21.514  26.019  1.00  0.00    -0.444 OA
ATOM     19  C   UNL A   1      37.491  22.740  25.534  1.00  0.00     0.059 A 
ATOM     20  C   UNL A   1      36.938  21.484  25.514  1.00  0.00     0.170 A 
ATOM     21  Br  UNL A   1      37.783  19.967  24.830  1.00  0.00    -0.008 Br
ENDBRANCH  13  16
ENDBRANCH   9  12
ENDBRANCH   3   5
ENDBRANCH   2   3
ENDBRANCH   1   2
BRANCH   1  22
ATOM     22  C   UNL A   1      34.114  29.450  26.599  1.00  0.00     0.275 C 
BRANCH  22  23
ATOM     23  O   UNL A   1      34.260  30.439  27.658  1.00  0.00    -0.458 OA
BRANCH  23  24
ATOM     24  C   UNL A   1      35.376  31.073  28.079  1.00  0.00     0.338 C 
ATOM     25  O   UNL A   1      35.405  32.288  28.273  1.00  0.00    -0.246 OA
BRANCH  24  26
ATOM     26  C   UNL A   1      36.585  30.274  28.298  1.00  0.00     0.060 A 
ATOM     27  C   UNL A   1      36.695  29.523  29.484  1.00  0.00     0.016 A 
ATOM     28  C   UNL A   1      37.565  30.219  27.313  1.00  0.00     0.016 A 
ATOM     29  C   UNL A   1      37.757  28.653  29.661  1.00  0.00     0.010 A 
ATOM     30  C   UNL A   1      38.534  29.261  27.409  1.00  0.00     0.010 A 
ATOM     31  C   UNL A   1      38.666  28.549  28.615  1.00  0.00    -0.014 A 
BRANCH  31  32
ATOM     32  C   UNL A   1      40.016  28.066  28.812  1.00  0.00     0.031 A 
ATOM     33  C   UNL A   1      40.353  26.676  28.504  1.00  0.00     0.074 A 
ATOM     34  C   UNL A   1      40.825  29.131  29.008  1.00  0.00     0.049 A 
ATOM     35  N   UNL A   1      41.375  26.033  28.939  1.00  0.00    -0.248 NA
ATOM     36  C   UNL A   1      39.482  25.834  27.690  1.00  0.00     0.031 C 
ATOM     37  C   UNL A   1      42.244  29.346  28.841  1.00  0.00     0.029 A 
ATOM     38  N   UNL A   1      40.375  30.345  29.563  1.00  0.00    -0.354 N 
ATOM     39  C   UNL A   1      41.523  24.935  28.106  1.00  0.00     0.074 A 
ATOM     40  C   UNL A   1      40.227  24.737  27.514  1.00  0.00     0.031 C 
ATOM     41  C   UNL A   1      42.595  30.421  29.583  1.00  0.00     0.029 A 
ATOM     42  C   UNL A   1      41.416  30.837  30.342  1.00  0.00     0.049 A 
ATOM     43  H   UNL A   1      39.495  30.764  29.426  1.00  0.00     0.167 HD
ATOM     44  C   UNL A   1      42.791  24.520  27.806  1.00  0.00     0.037 A 
ATOM     45  C   UNL A   1      41.250  30.731  31.695  1.00  0.00     0.037 A 
ATOM     46  C   UNL A   1      43.738  25.390  28.506  1.00  0.00     0.049 A 
ATOM     47  C   UNL A   1      42.199  29.682  32.227  1.00  0.00     0.074 A 
ATOM     48  C   UNL A   1      44.405  26.529  28.080  1.00  0.00     0.029 A 
ATOM     49  N   UNL A   1      43.741  25.427  29.896  1.00  0.00    -0.354 N 
ATOM     50  N   UNL A   1      42.523  28.583  31.596  1.00  0.00    -0.248 NA
ATOM     51  C   UNL A   1      42.960  29.887  33.452  1.00  0.00     0.031 C 
ATOM     52  C   UNL A   1      44.720  27.300  29.229  1.00  0.00     0.029 A 
ATOM     53  C   UNL A   1      44.221  26.646  30.343  1.00  0.00     0.049 A 
ATOM     54  H   UNL A   1      43.444  24.690  30.479  1.00  0.00     0.167 HD
ATOM     55  C   UNL A   1      43.587  28.004  32.239  1.00  0.00     0.074 A 
ATOM     56  C   UNL A   1      43.796  28.837  33.412  1.00  0.00     0.031 C 
ATOM     57  C   UNL A   1      44.286  26.929  31.765  1.00  0.00     0.037 A 
BRANCH  44  58
ATOM     58  C   UNL A   1      43.193  23.644  26.632  1.00  0.00     0.057 A 
ATOM     59  C   UNL A   1      43.156  22.235  26.750  1.00  0.00     0.134 A 
ATOM     60  C   UNL A   1      43.643  24.096  25.378  1.00  0.00     0.134 A 
ATOM     61  F   UNL A   1      42.663  21.631  27.840  1.00  0.00    -0.206 F 
ATOM     62  C   UNL A   1      43.613  21.362  25.754  1.00  0.00     0.040 A 
ATOM     63  C   UNL A   1      44.126  23.232  24.378  1.00  0.00     0.040 A 
ATOM     64  F   UNL A   1      43.593  25.388  25.035  1.00  0.00    -0.206 F 
ATOM     65  C   UNL A   1      44.124  21.859  24.568  1.00  0.00     0.006 A 
ENDBRANCH  44  58
BRANCH  45  66
ATOM     66  C   UNL A   1      39.836  30.975  32.162  1.00  0.00     0.057 A 
ATOM     67  C   UNL A   1      39.086  29.883  32.659  1.00  0.00     0.134 A 
ATOM     68  C   UNL A   1      39.285  32.240  32.382  1.00  0.00     0.134 A 
ATOM     69  F   UNL A   1      39.530  28.626  32.488  1.00  0.00    -0.206 F 
ATOM     70  C   UNL A   1      37.920  30.043  33.419  1.00  0.00     0.040 A 
ATOM     71  C   UNL A   1      38.098  32.413  33.121  1.00  0.00     0.040 A 
ATOM     72  F   UNL A   1      39.911  33.345  31.957  1.00  0.00    -0.206 F 
ATOM     73  C   UNL A   1      37.429  31.317  33.666  1.00  0.00     0.006 A 
ENDBRANCH  45  66
BRANCH  57  74
ATOM     74  C   UNL A   1      45.195  26.076  32.605  1.00  0.00     0.057 A 
ATOM     75  C   UNL A   1      46.591  26.163  32.551  1.00  0.00     0.134 A 
ATOM     76  C   UNL A   1      44.675  25.278  33.650  1.00  0.00     0.134 A 
ATOM     77  F   UNL A   1      47.214  26.980  31.689  1.00  0.00    -0.206 F 
ATOM     78  C   UNL A   1      47.416  25.455  33.429  1.00  0.00     0.040 A 
ATOM     79  C   UNL A   1      45.488  24.630  34.578  1.00  0.00     0.040 A 
ATOM     80  F   UNL A   1      43.356  25.125  33.842  1.00  0.00    -0.206 F 
ATOM     81  C   UNL A   1      46.866  24.700  34.456  1.00  0.00     0.006 A 
ENDBRANCH  57  74
ENDBRANCH  31  32
ENDBRANCH  24  26
ENDBRANCH  23  24
ENDBRANCH  22  23
ENDBRANCH   1  22
TORSDOF 13
ENDMDL
