MODEL 1
REMARK VINA RESULT:     -11.7      0.000      0.000
REMARK SMILES Cc1cc(C(=O)Nc2ccn(C)n2)sc1/C=C/C(=O)OCCOC(=O)c1ccc(-c2c3nc(c(-c4c(F)cccc4F)c4ccc([nH]4)c(-c4c(F)cccc4F)c4nc(c(-c5c(F)cccc5F)c5ccc2[nH]5)C=C4)C=C3)cc1
REMARK SMILES IDX 21 1 20 2 18 3 19 4 17 5 16 6 15 7 1 8 2 9 3 10 4 11 14 12
REMARK SMILES IDX 5 13 6 14 7 15 8 17 9 18 13 19 10 20 11 21 12 22 22 23 23 24
REMARK SMILES IDX 24 25 25 26 26 27 27 28 79 29 28 30 78 31 29 32 30 33 31 34
REMARK SMILES IDX 72 35 32 36 77 37 71 38 73 39 33 40 76 41 70 42 69 43 34 45
REMARK SMILES IDX 60 46 43 47 59 48 44 49 47 50 58 51 74 52 45 53 46 54 57 56
REMARK SMILES IDX 75 57 48 58 35 59 36 60 41 61 37 62 38 63 40 64 42 65 39 66
REMARK SMILES IDX 61 67 62 68 67 69 63 70 64 71 66 72 68 73 65 74 49 75 50 76
REMARK SMILES IDX 55 77 51 78 52 79 54 80 56 81 53 82
REMARK H PARENT 7 16 73 44 47 55
REMARK Flexibility Score: inf
ROOT
ATOM      1  C   UNL A   1      34.452  33.779  29.977  1.00  0.00     0.275 C 
ENDROOT
BRANCH   1   2
ATOM      2  O   UNL A   1      33.832  32.678  29.286  1.00  0.00    -0.459 OA
BRANCH   2   3
ATOM      3  C   UNL A   1      34.355  32.382  28.073  1.00  0.00     0.330 C 
ATOM      4  O   UNL A   1      35.426  32.776  27.636  1.00  0.00    -0.247 OA
BRANCH   3   5
ATOM      5  C   UNL A   1      33.529  31.430  27.306  1.00  0.00     0.095 C 
ATOM      6  C   UNL A   1      33.819  30.141  27.067  1.00  0.00     0.027 C 
BRANCH   6   7
ATOM      7  C   UNL A   1      33.038  29.301  26.201  1.00  0.00     0.031 A 
ATOM      8  C   UNL A   1      31.404  28.201  27.872  1.00  0.00     0.046 C 
ATOM      9  C   UNL A   1      32.039  28.385  26.529  1.00  0.00    -0.032 A 
ATOM     10  C   UNL A   1      31.660  27.584  25.394  1.00  0.00     0.029 A 
ATOM     11  C   UNL A   1      32.309  27.929  24.223  1.00  0.00     0.093 A 
ATOM     12  S   UNL A   1      33.241  29.328  24.489  1.00  0.00    -0.130 S 
BRANCH  11  13
ATOM     13  C   UNL A   1      32.076  27.343  22.901  1.00  0.00     0.266 C 
ATOM     14  O   UNL A   1      32.960  26.693  22.334  1.00  0.00    -0.268 OA
ATOM     15  N   UNL A   1      30.844  27.378  22.293  1.00  0.00    -0.304 N 
ATOM     16  H   UNL A   1      30.650  26.611  21.707  1.00  0.00     0.171 HD
BRANCH  15  17
ATOM     17  C   UNL A   1      29.842  28.308  22.371  1.00  0.00     0.154 A 
ATOM     18  C   UNL A   1      28.664  28.299  23.154  1.00  0.00     0.068 A 
ATOM     19  N   UNL A   1      29.949  29.438  21.671  1.00  0.00    -0.155 NA
ATOM     20  C   UNL A   1      28.006  29.460  22.823  1.00  0.00     0.110 A 
ATOM     21  N   UNL A   1      28.768  30.055  21.863  1.00  0.00    -0.274 N 
ATOM     22  C   UNL A   1      28.407  31.175  21.027  1.00  0.00     0.173 C 
ENDBRANCH  15  17
ENDBRANCH  11  13
ENDBRANCH   6   7
ENDBRANCH   3   5
ENDBRANCH   2   3
ENDBRANCH   1   2
BRANCH   1  23
ATOM     23  C   UNL A   1      34.429  33.590  31.498  1.00  0.00     0.275 C 
BRANCH  23  24
ATOM     24  O   UNL A   1      34.730  32.234  31.883  1.00  0.00    -0.458 OA
BRANCH  24  25
ATOM     25  C   UNL A   1      35.820  32.093  32.672  1.00  0.00     0.338 C 
ATOM     26  O   UNL A   1      35.906  32.339  33.862  1.00  0.00    -0.246 OA
BRANCH  25  27
ATOM     27  C   UNL A   1      36.910  31.458  31.911  1.00  0.00     0.060 A 
ATOM     28  C   UNL A   1      38.006  30.981  32.632  1.00  0.00     0.016 A 
ATOM     29  C   UNL A   1      36.901  31.398  30.515  1.00  0.00     0.016 A 
ATOM     30  C   UNL A   1      39.100  30.449  31.957  1.00  0.00     0.010 A 
ATOM     31  C   UNL A   1      38.011  30.871  29.840  1.00  0.00     0.010 A 
ATOM     32  C   UNL A   1      39.130  30.411  30.557  1.00  0.00    -0.014 A 
BRANCH  32  33
ATOM     33  C   UNL A   1      40.355  29.932  29.864  1.00  0.00     0.031 A 
ATOM     34  C   UNL A   1      41.525  30.856  29.665  1.00  0.00     0.074 A 
ATOM     35  C   UNL A   1      40.442  28.652  29.458  1.00  0.00     0.049 A 
ATOM     36  N   UNL A   1      42.664  30.630  29.057  1.00  0.00    -0.248 NA
ATOM     37  C   UNL A   1      41.403  32.209  30.230  1.00  0.00     0.031 C 
ATOM     38  C   UNL A   1      39.398  27.642  29.623  1.00  0.00     0.029 A 
ATOM     39  N   UNL A   1      41.460  27.982  28.822  1.00  0.00    -0.354 N 
ATOM     40  C   UNL A   1      43.384  31.816  29.148  1.00  0.00     0.074 A 
ATOM     41  C   UNL A   1      42.549  32.761  29.858  1.00  0.00     0.031 C 
ATOM     42  C   UNL A   1      39.828  26.480  29.105  1.00  0.00     0.029 A 
ATOM     43  C   UNL A   1      41.158  26.675  28.532  1.00  0.00     0.049 A 
ATOM     44  H   UNL A   1      42.322  28.400  28.597  1.00  0.00     0.167 HD
ATOM     45  C   UNL A   1      44.630  32.090  28.688  1.00  0.00     0.037 A 
ATOM     46  C   UNL A   1      41.858  25.745  27.854  1.00  0.00     0.037 A 
ATOM     47  C   UNL A   1      45.470  31.149  27.993  1.00  0.00     0.049 A 
ATOM     48  C   UNL A   1      43.213  26.091  27.301  1.00  0.00     0.074 A 
ATOM     49  C   UNL A   1      46.753  31.335  27.503  1.00  0.00     0.029 A 
ATOM     50  N   UNL A   1      45.113  29.845  27.686  1.00  0.00    -0.354 N 
ATOM     51  N   UNL A   1      43.881  27.214  27.395  1.00  0.00    -0.248 NA
ATOM     52  C   UNL A   1      43.908  25.040  26.544  1.00  0.00     0.031 C 
ATOM     53  C   UNL A   1      47.156  30.155  26.868  1.00  0.00     0.029 A 
ATOM     54  C   UNL A   1      46.142  29.221  26.999  1.00  0.00     0.049 A 
ATOM     55  H   UNL A   1      44.255  29.424  27.922  1.00  0.00     0.167 HD
ATOM     56  C   UNL A   1      45.080  27.001  26.727  1.00  0.00     0.074 A 
ATOM     57  C   UNL A   1      45.054  25.635  26.245  1.00  0.00     0.031 C 
ATOM     58  C   UNL A   1      46.108  27.860  26.527  1.00  0.00     0.037 A 
BRANCH  45  59
ATOM     59  C   UNL A   1      45.155  33.479  28.901  1.00  0.00     0.057 A 
ATOM     60  C   UNL A   1      45.986  33.798  29.982  1.00  0.00     0.134 A 
ATOM     61  C   UNL A   1      44.859  34.500  27.989  1.00  0.00     0.134 A 
ATOM     62  F   UNL A   1      46.299  32.866  30.896  1.00  0.00    -0.206 F 
ATOM     63  C   UNL A   1      46.488  35.088  30.160  1.00  0.00     0.040 A 
ATOM     64  C   UNL A   1      45.372  35.789  28.144  1.00  0.00     0.040 A 
ATOM     65  F   UNL A   1      44.074  34.259  26.928  1.00  0.00    -0.206 F 
ATOM     66  C   UNL A   1      46.186  36.086  29.235  1.00  0.00     0.006 A 
ENDBRANCH  45  59
BRANCH  46  67
ATOM     67  C   UNL A   1      41.279  24.396  27.639  1.00  0.00     0.057 A 
ATOM     68  C   UNL A   1      40.269  24.184  26.694  1.00  0.00     0.134 A 
ATOM     69  C   UNL A   1      41.715  23.291  28.380  1.00  0.00     0.134 A 
ATOM     70  F   UNL A   1      39.795  25.208  25.971  1.00  0.00    -0.206 F 
ATOM     71  C   UNL A   1      39.705  22.922  26.501  1.00  0.00     0.040 A 
ATOM     72  C   UNL A   1      41.178  22.020  28.181  1.00  0.00     0.040 A 
ATOM     73  F   UNL A   1      42.680  23.433  29.301  1.00  0.00    -0.206 F 
ATOM     74  C   UNL A   1      40.165  21.833  27.242  1.00  0.00     0.006 A 
ENDBRANCH  46  67
BRANCH  58  75
ATOM     75  C   UNL A   1      47.302  27.342  25.783  1.00  0.00     0.057 A 
ATOM     76  C   UNL A   1      48.356  26.694  26.440  1.00  0.00     0.134 A 
ATOM     77  C   UNL A   1      47.385  27.464  24.391  1.00  0.00     0.134 A 
ATOM     78  F   UNL A   1      48.344  26.558  27.775  1.00  0.00    -0.206 F 
ATOM     79  C   UNL A   1      49.460  26.204  25.739  1.00  0.00     0.040 A 
ATOM     80  C   UNL A   1      48.472  26.958  23.677  1.00  0.00     0.040 A 
ATOM     81  F   UNL A   1      46.406  28.069  23.701  1.00  0.00    -0.206 F 
ATOM     82  C   UNL A   1      49.516  26.330  24.352  1.00  0.00     0.006 A 
ENDBRANCH  58  75
ENDBRANCH  32  33
ENDBRANCH  25  27
ENDBRANCH  24  25
ENDBRANCH  23  24
ENDBRANCH   1  23
TORSDOF 14
ENDMDL
MODEL 2
REMARK VINA RESULT:     -11.6      5.657     10.484
REMARK SMILES Cc1cc(C(=O)Nc2ccn(C)n2)sc1/C=C/C(=O)OCCOC(=O)c1ccc(-c2c3nc(c(-c4c(F)cccc4F)c4ccc([nH]4)c(-c4c(F)cccc4F)c4nc(c(-c5c(F)cccc5F)c5ccc2[nH]5)C=C4)C=C3)cc1
REMARK SMILES IDX 21 1 20 2 18 3 19 4 17 5 16 6 15 7 1 8 2 9 3 10 4 11 14 12
REMARK SMILES IDX 5 13 6 14 7 15 8 17 9 18 13 19 10 20 11 21 12 22 22 23 23 24
REMARK SMILES IDX 24 25 25 26 26 27 27 28 79 29 28 30 78 31 29 32 30 33 31 34
REMARK SMILES IDX 72 35 32 36 77 37 71 38 73 39 33 40 76 41 70 42 69 43 34 45
REMARK SMILES IDX 60 46 43 47 59 48 44 49 47 50 58 51 74 52 45 53 46 54 57 56
REMARK SMILES IDX 75 57 48 58 35 59 36 60 41 61 37 62 38 63 40 64 42 65 39 66
REMARK SMILES IDX 61 67 62 68 67 69 63 70 64 71 66 72 68 73 65 74 49 75 50 76
REMARK SMILES IDX 55 77 51 78 52 79 54 80 56 81 53 82
REMARK H PARENT 7 16 73 44 47 55
REMARK Flexibility Score: inf
ROOT
ATOM      1  C   UNL A   1      42.318  20.885  26.015  1.00  0.00     0.275 C 
ENDROOT
BRANCH   1   2
ATOM      2  O   UNL A   1      41.071  21.449  25.566  1.00  0.00    -0.459 OA
BRANCH   2   3
ATOM      3  C   UNL A   1      40.095  21.524  26.500  1.00  0.00     0.330 C 
ATOM      4  O   UNL A   1      40.257  21.712  27.697  1.00  0.00    -0.247 OA
BRANCH   3   5
ATOM      5  C   UNL A   1      38.738  21.437  25.926  1.00  0.00     0.095 C 
ATOM      6  C   UNL A   1      37.875  22.454  25.772  1.00  0.00     0.027 C 
BRANCH   6   7
ATOM      7  C   UNL A   1      36.519  22.282  25.327  1.00  0.00     0.031 A 
ATOM      8  C   UNL A   1      36.695  22.953  22.840  1.00  0.00     0.046 C 
ATOM      9  C   UNL A   1      35.957  22.569  24.084  1.00  0.00    -0.032 A 
ATOM     10  C   UNL A   1      34.522  22.463  24.114  1.00  0.00     0.029 A 
ATOM     11  C   UNL A   1      34.016  22.042  25.330  1.00  0.00     0.093 A 
ATOM     12  S   UNL A   1      35.305  21.625  26.360  1.00  0.00    -0.130 S 
BRANCH  11  13
ATOM     13  C   UNL A   1      32.608  21.775  25.635  1.00  0.00     0.266 C 
ATOM     14  O   UNL A   1      31.936  22.587  26.279  1.00  0.00    -0.268 OA
ATOM     15  N   UNL A   1      31.944  20.687  25.121  1.00  0.00    -0.304 N 
ATOM     16  H   UNL A   1      30.982  20.826  24.965  1.00  0.00     0.171 HD
BRANCH  15  17
ATOM     17  C   UNL A   1      32.405  19.440  24.789  1.00  0.00     0.154 A 
ATOM     18  C   UNL A   1      32.849  18.948  23.541  1.00  0.00     0.068 A 
ATOM     19  N   UNL A   1      32.527  18.518  25.746  1.00  0.00    -0.155 NA
ATOM     20  C   UNL A   1      33.170  17.630  23.771  1.00  0.00     0.110 A 
ATOM     21  N   UNL A   1      32.868  17.400  25.079  1.00  0.00    -0.274 N 
ATOM     22  C   UNL A   1      32.806  16.125  25.753  1.00  0.00     0.173 C 
ENDBRANCH  15  17
ENDBRANCH  11  13
ENDBRANCH   6   7
ENDBRANCH   3   5
ENDBRANCH   2   3
ENDBRANCH   1   2
BRANCH   1  23
ATOM     23  C   UNL A   1      43.526  21.564  25.359  1.00  0.00     0.275 C 
BRANCH  23  24
ATOM     24  O   UNL A   1      44.043  22.646  26.159  1.00  0.00    -0.458 OA
BRANCH  24  25
ATOM     25  C   UNL A   1      43.913  23.876  25.609  1.00  0.00     0.338 C 
ATOM     26  O   UNL A   1      44.166  24.202  24.463  1.00  0.00    -0.246 OA
BRANCH  25  27
ATOM     27  C   UNL A   1      43.280  24.791  26.574  1.00  0.00     0.060 A 
ATOM     28  C   UNL A   1      43.870  26.042  26.758  1.00  0.00     0.016 A 
ATOM     29  C   UNL A   1      42.177  24.409  27.344  1.00  0.00     0.016 A 
ATOM     30  C   UNL A   1      43.364  26.913  27.718  1.00  0.00     0.010 A 
ATOM     31  C   UNL A   1      41.679  25.286  28.318  1.00  0.00     0.010 A 
ATOM     32  C   UNL A   1      42.282  26.538  28.527  1.00  0.00    -0.014 A 
BRANCH  32  33
ATOM     33  C   UNL A   1      41.830  27.448  29.612  1.00  0.00     0.031 A 
ATOM     34  C   UNL A   1      42.553  27.474  30.931  1.00  0.00     0.074 A 
ATOM     35  C   UNL A   1      40.804  28.292  29.399  1.00  0.00     0.049 A 
ATOM     36  N   UNL A   1      42.287  28.175  32.006  1.00  0.00    -0.248 NA
ATOM     37  C   UNL A   1      43.732  26.604  31.056  1.00  0.00     0.031 C 
ATOM     38  C   UNL A   1      40.043  28.398  28.155  1.00  0.00     0.029 A 
ATOM     39  N   UNL A   1      40.225  29.224  30.227  1.00  0.00    -0.354 N 
ATOM     40  C   UNL A   1      43.252  27.816  32.941  1.00  0.00     0.074 A 
ATOM     41  C   UNL A   1      44.099  26.826  32.310  1.00  0.00     0.031 C 
ATOM     42  C   UNL A   1      39.098  29.342  28.299  1.00  0.00     0.029 A 
ATOM     43  C   UNL A   1      39.159  29.875  29.658  1.00  0.00     0.049 A 
ATOM     44  H   UNL A   1      40.545  29.406  31.140  1.00  0.00     0.167 HD
ATOM     45  C   UNL A   1      43.419  28.273  34.206  1.00  0.00     0.037 A 
ATOM     46  C   UNL A   1      38.306  30.778  30.180  1.00  0.00     0.037 A 
ATOM     47  C   UNL A   1      42.587  29.267  34.833  1.00  0.00     0.049 A 
ATOM     48  C   UNL A   1      38.476  31.225  31.605  1.00  0.00     0.074 A 
ATOM     49  C   UNL A   1      42.693  29.802  36.107  1.00  0.00     0.029 A 
ATOM     50  N   UNL A   1      41.494  29.876  34.236  1.00  0.00    -0.354 N 
ATOM     51  N   UNL A   1      39.392  30.878  32.476  1.00  0.00    -0.248 NA
ATOM     52  C   UNL A   1      37.490  32.187  32.120  1.00  0.00     0.031 C 
ATOM     53  C   UNL A   1      41.641  30.706  36.292  1.00  0.00     0.029 A 
ATOM     54  C   UNL A   1      40.906  30.766  35.120  1.00  0.00     0.049 A 
ATOM     55  H   UNL A   1      41.182  29.701  33.319  1.00  0.00     0.167 HD
ATOM     56  C   UNL A   1      39.105  31.590  33.634  1.00  0.00     0.074 A 
ATOM     57  C   UNL A   1      37.939  32.401  33.350  1.00  0.00     0.031 C 
ATOM     58  C   UNL A   1      39.748  31.571  34.826  1.00  0.00     0.037 A 
BRANCH  45  59
ATOM     59  C   UNL A   1      44.539  27.682  35.011  1.00  0.00     0.057 A 
ATOM     60  C   UNL A   1      45.812  28.265  35.048  1.00  0.00     0.134 A 
ATOM     61  C   UNL A   1      44.328  26.539  35.793  1.00  0.00     0.134 A 
ATOM     62  F   UNL A   1      46.081  29.356  34.314  1.00  0.00    -0.206 F 
ATOM     63  C   UNL A   1      46.841  27.721  35.818  1.00  0.00     0.040 A 
ATOM     64  C   UNL A   1      45.343  25.997  36.584  1.00  0.00     0.040 A 
ATOM     65  F   UNL A   1      43.130  25.936  35.808  1.00  0.00    -0.206 F 
ATOM     66  C   UNL A   1      46.605  26.587  36.594  1.00  0.00     0.006 A 
ENDBRANCH  45  59
BRANCH  46  67
ATOM     67  C   UNL A   1      37.193  31.305  29.353  1.00  0.00     0.057 A 
ATOM     68  C   UNL A   1      37.263  32.573  28.765  1.00  0.00     0.134 A 
ATOM     69  C   UNL A   1      36.030  30.556  29.138  1.00  0.00     0.134 A 
ATOM     70  F   UNL A   1      38.343  33.345  28.954  1.00  0.00    -0.206 F 
ATOM     71  C   UNL A   1      36.211  33.083  28.002  1.00  0.00     0.040 A 
ATOM     72  C   UNL A   1      34.981  31.042  28.358  1.00  0.00     0.040 A 
ATOM     73  F   UNL A   1      35.903  29.333  29.676  1.00  0.00    -0.206 F 
ATOM     74  C   UNL A   1      35.068  32.313  27.792  1.00  0.00     0.006 A 
ENDBRANCH  46  67
BRANCH  58  75
ATOM     75  C   UNL A   1      39.226  32.475  35.903  1.00  0.00     0.057 A 
ATOM     76  C   UNL A   1      38.280  32.037  36.839  1.00  0.00     0.134 A 
ATOM     77  C   UNL A   1      39.698  33.787  36.025  1.00  0.00     0.134 A 
ATOM     78  F   UNL A   1      37.778  30.795  36.767  1.00  0.00    -0.206 F 
ATOM     79  C   UNL A   1      37.808  32.880  37.846  1.00  0.00     0.040 A 
ATOM     80  C   UNL A   1      39.250  34.632  37.041  1.00  0.00     0.040 A 
ATOM     81  F   UNL A   1      40.609  34.267  35.165  1.00  0.00    -0.206 F 
ATOM     82  C   UNL A   1      38.299  34.181  37.953  1.00  0.00     0.006 A 
ENDBRANCH  58  75
ENDBRANCH  32  33
ENDBRANCH  25  27
ENDBRANCH  24  25
ENDBRANCH  23  24
ENDBRANCH   1  23
TORSDOF 14
ENDMDL
MODEL 3
REMARK VINA RESULT:     -11.4      1.436      2.772
REMARK SMILES Cc1cc(C(=O)Nc2ccn(C)n2)sc1/C=C/C(=O)OCCOC(=O)c1ccc(-c2c3nc(c(-c4c(F)cccc4F)c4ccc([nH]4)c(-c4c(F)cccc4F)c4nc(c(-c5c(F)cccc5F)c5ccc2[nH]5)C=C4)C=C3)cc1
REMARK SMILES IDX 21 1 20 2 18 3 19 4 17 5 16 6 15 7 1 8 2 9 3 10 4 11 14 12
REMARK SMILES IDX 5 13 6 14 7 15 8 17 9 18 13 19 10 20 11 21 12 22 22 23 23 24
REMARK SMILES IDX 24 25 25 26 26 27 27 28 79 29 28 30 78 31 29 32 30 33 31 34
REMARK SMILES IDX 72 35 32 36 77 37 71 38 73 39 33 40 76 41 70 42 69 43 34 45
REMARK SMILES IDX 60 46 43 47 59 48 44 49 47 50 58 51 74 52 45 53 46 54 57 56
REMARK SMILES IDX 75 57 48 58 35 59 36 60 41 61 37 62 38 63 40 64 42 65 39 66
REMARK SMILES IDX 61 67 62 68 67 69 63 70 64 71 66 72 68 73 65 74 49 75 50 76
REMARK SMILES IDX 55 77 51 78 52 79 54 80 56 81 53 82
REMARK H PARENT 7 16 73 44 47 55
REMARK Flexibility Score: inf
ROOT
ATOM      1  C   UNL A   1      34.378  34.735  30.972  1.00  0.00     0.275 C 
ENDROOT
BRANCH   1   2
ATOM      2  O   UNL A   1      33.525  34.181  29.952  1.00  0.00    -0.459 OA
BRANCH   2   3
ATOM      3  C   UNL A   1      34.011  34.240  28.691  1.00  0.00     0.330 C 
ATOM      4  O   UNL A   1      34.724  35.122  28.234  1.00  0.00    -0.247 OA
BRANCH   3   5
ATOM      5  C   UNL A   1      33.665  33.054  27.883  1.00  0.00     0.095 C 
ATOM      6  C   UNL A   1      33.891  31.773  28.217  1.00  0.00     0.027 C 
BRANCH   6   7
ATOM      7  C   UNL A   1      33.649  30.669  27.329  1.00  0.00     0.031 A 
ATOM      8  C   UNL A   1      35.774  29.242  27.676  1.00  0.00     0.046 C 
ATOM      9  C   UNL A   1      34.483  29.598  27.008  1.00  0.00    -0.032 A 
ATOM     10  C   UNL A   1      33.958  28.829  25.909  1.00  0.00     0.029 A 
ATOM     11  C   UNL A   1      32.729  29.268  25.455  1.00  0.00     0.093 A 
ATOM     12  S   UNL A   1      32.159  30.502  26.479  1.00  0.00    -0.130 S 
BRANCH  11  13
ATOM     13  C   UNL A   1      31.922  28.642  24.403  1.00  0.00     0.266 C 
ATOM     14  O   UNL A   1      31.281  29.332  23.604  1.00  0.00    -0.268 OA
ATOM     15  N   UNL A   1      31.941  27.286  24.180  1.00  0.00    -0.304 N 
ATOM     16  H   UNL A   1      31.793  27.020  23.243  1.00  0.00     0.171 HD
BRANCH  15  17
ATOM     17  C   UNL A   1      32.132  26.245  25.049  1.00  0.00     0.154 A 
ATOM     18  C   UNL A   1      31.344  25.834  26.148  1.00  0.00     0.068 A 
ATOM     19  N   UNL A   1      33.168  25.425  24.861  1.00  0.00    -0.155 NA
ATOM     20  C   UNL A   1      32.012  24.757  26.683  1.00  0.00     0.110 A 
ATOM     21  N   UNL A   1      33.142  24.616  25.935  1.00  0.00    -0.274 N 
ATOM     22  C   UNL A   1      34.284  23.781  26.224  1.00  0.00     0.173 C 
ENDBRANCH  15  17
ENDBRANCH  11  13
ENDBRANCH   6   7
ENDBRANCH   3   5
ENDBRANCH   2   3
ENDBRANCH   1   2
BRANCH   1  23
ATOM     23  C   UNL A   1      34.388  33.876  32.242  1.00  0.00     0.275 C 
BRANCH  23  24
ATOM     24  O   UNL A   1      34.919  32.558  32.003  1.00  0.00    -0.458 OA
BRANCH  24  25
ATOM     25  C   UNL A   1      35.948  32.202  32.807  1.00  0.00     0.338 C 
ATOM     26  O   UNL A   1      35.993  32.272  34.023  1.00  0.00    -0.246 OA
BRANCH  25  27
ATOM     27  C   UNL A   1      37.014  31.573  32.007  1.00  0.00     0.060 A 
ATOM     28  C   UNL A   1      38.060  30.961  32.698  1.00  0.00     0.016 A 
ATOM     29  C   UNL A   1      37.033  31.647  30.611  1.00  0.00     0.016 A 
ATOM     30  C   UNL A   1      39.135  30.425  31.993  1.00  0.00     0.010 A 
ATOM     31  C   UNL A   1      38.124  31.116  29.908  1.00  0.00     0.010 A 
ATOM     32  C   UNL A   1      39.194  30.519  30.596  1.00  0.00    -0.014 A 
BRANCH  32  33
ATOM     33  C   UNL A   1      40.403  30.030  29.882  1.00  0.00     0.031 A 
ATOM     34  C   UNL A   1      41.576  30.945  29.661  1.00  0.00     0.074 A 
ATOM     35  C   UNL A   1      40.473  28.749  29.475  1.00  0.00     0.049 A 
ATOM     36  N   UNL A   1      42.702  30.709  29.032  1.00  0.00    -0.248 NA
ATOM     37  C   UNL A   1      41.475  32.298  30.226  1.00  0.00     0.031 C 
ATOM     38  C   UNL A   1      39.424  27.747  29.661  1.00  0.00     0.029 A 
ATOM     39  N   UNL A   1      41.473  28.070  28.822  1.00  0.00    -0.354 N 
ATOM     40  C   UNL A   1      43.433  31.889  29.109  1.00  0.00     0.074 A 
ATOM     41  C   UNL A   1      42.618  32.842  29.832  1.00  0.00     0.031 C 
ATOM     42  C   UNL A   1      39.835  26.581  29.136  1.00  0.00     0.029 A 
ATOM     43  C   UNL A   1      41.156  26.765  28.539  1.00  0.00     0.049 A 
ATOM     44  H   UNL A   1      42.334  28.481  28.581  1.00  0.00     0.167 HD
ATOM     45  C   UNL A   1      44.672  32.153  28.625  1.00  0.00     0.037 A 
ATOM     46  C   UNL A   1      41.837  25.829  27.850  1.00  0.00     0.037 A 
ATOM     47  C   UNL A   1      45.492  31.205  27.916  1.00  0.00     0.049 A 
ATOM     48  C   UNL A   1      43.183  26.164  27.271  1.00  0.00     0.074 A 
ATOM     49  C   UNL A   1      46.767  31.380  27.403  1.00  0.00     0.029 A 
ATOM     50  N   UNL A   1      45.119  29.903  27.617  1.00  0.00    -0.354 N 
ATOM     51  N   UNL A   1      43.861  27.282  27.352  1.00  0.00    -0.248 NA
ATOM     52  C   UNL A   1      43.856  25.107  26.503  1.00  0.00     0.031 C 
ATOM     53  C   UNL A   1      47.149  30.197  26.761  1.00  0.00     0.029 A 
ATOM     54  C   UNL A   1      46.130  29.271  26.912  1.00  0.00     0.049 A 
ATOM     55  H   UNL A   1      44.262  29.490  27.869  1.00  0.00     0.167 HD
ATOM     56  C   UNL A   1      45.046  27.059  26.662  1.00  0.00     0.074 A 
ATOM     57  C   UNL A   1      45.002  25.693  26.182  1.00  0.00     0.031 C 
ATOM     58  C   UNL A   1      46.077  27.910  26.443  1.00  0.00     0.037 A 
BRANCH  45  59
ATOM     59  C   UNL A   1      45.212  33.538  28.827  1.00  0.00     0.057 A 
ATOM     60  C   UNL A   1      44.961  34.571  27.915  1.00  0.00     0.134 A 
ATOM     61  C   UNL A   1      45.957  33.852  29.971  1.00  0.00     0.134 A 
ATOM     62  F   UNL A   1      44.262  34.332  26.795  1.00  0.00    -0.206 F 
ATOM     63  C   UNL A   1      45.449  35.862  28.123  1.00  0.00     0.040 A 
ATOM     64  C   UNL A   1      46.432  35.145  30.201  1.00  0.00     0.040 A 
ATOM     65  F   UNL A   1      46.228  32.911  30.888  1.00  0.00    -0.206 F 
ATOM     66  C   UNL A   1      46.182  36.152  29.273  1.00  0.00     0.006 A 
ENDBRANCH  45  59
BRANCH  46  67
ATOM     67  C   UNL A   1      41.243  24.485  27.647  1.00  0.00     0.057 A 
ATOM     68  C   UNL A   1      41.680  23.380  28.386  1.00  0.00     0.134 A 
ATOM     69  C   UNL A   1      40.230  24.273  26.703  1.00  0.00     0.134 A 
ATOM     70  F   UNL A   1      42.662  23.518  29.288  1.00  0.00    -0.206 F 
ATOM     71  C   UNL A   1      41.139  22.109  28.186  1.00  0.00     0.040 A 
ATOM     72  C   UNL A   1      39.664  23.013  26.510  1.00  0.00     0.040 A 
ATOM     73  F   UNL A   1      39.770  25.293  25.964  1.00  0.00    -0.206 F 
ATOM     74  C   UNL A   1      40.123  21.924  27.249  1.00  0.00     0.006 A 
ENDBRANCH  46  67
BRANCH  58  75
ATOM     75  C   UNL A   1      47.254  27.382  25.677  1.00  0.00     0.057 A 
ATOM     76  C   UNL A   1      47.365  27.543  24.290  1.00  0.00     0.134 A 
ATOM     77  C   UNL A   1      48.304  26.733  26.340  1.00  0.00     0.134 A 
ATOM     78  F   UNL A   1      46.386  28.143  23.595  1.00  0.00    -0.206 F 
ATOM     79  C   UNL A   1      48.469  27.059  23.587  1.00  0.00     0.040 A 
ATOM     80  C   UNL A   1      49.423  26.265  25.651  1.00  0.00     0.040 A 
ATOM     81  F   UNL A   1      48.262  26.552  27.668  1.00  0.00    -0.206 F 
ATOM     82  C   UNL A   1      49.506  26.423  24.269  1.00  0.00     0.006 A 
ENDBRANCH  58  75
ENDBRANCH  32  33
ENDBRANCH  25  27
ENDBRANCH  24  25
ENDBRANCH  23  24
ENDBRANCH   1  23
TORSDOF 14
ENDMDL
