MODEL 1
REMARK VINA RESULT:      -9.9      0.000      0.000
REMARK SMILES C[C@H](Nc1ccc(N(C)C)cc1)[C@@H](C)C(=O)OCCOC(=O)c1ccc(-c2c3nc(c(-c4c(F)cccc4F)c4ccc([nH]4)c(-c4c(F)cccc4F)c4nc(c(-c5c(F)cccc5F)c5ccc2[nH]5)C=C4)C=C3)cc1
REMARK SMILES IDX 18 1 17 2 15 3 16 4 13 5 14 6 2 7 1 8 3 9 4 11 5 12 12 13
REMARK SMILES IDX 6 14 11 15 7 16 8 17 9 18 10 19 19 20 20 21 21 22 22 23
REMARK SMILES IDX 23 24 24 25 76 26 25 27 75 28 26 29 27 30 28 31 69 32 29 33
REMARK SMILES IDX 74 34 68 35 70 36 30 37 73 38 67 39 66 40 31 42 57 43 40 44
REMARK SMILES IDX 56 45 41 46 44 47 55 48 71 49 42 50 43 51 54 53 72 54 45 55
REMARK SMILES IDX 32 56 33 57 38 58 34 59 35 60 37 61 39 62 36 63 58 64 59 65
REMARK SMILES IDX 64 66 60 67 61 68 63 69 65 70 62 71 46 72 47 73 52 74 48 75
REMARK SMILES IDX 49 76 51 77 53 78 50 79
REMARK H PARENT 3 10 70 41 44 52
REMARK Flexibility Score: inf
ROOT
ATOM      1  C   UNL A   1      33.817  34.150  28.766  1.00  0.00     0.274 C 
ENDROOT
BRANCH   1   2
ATOM      2  O   UNL A   1      33.651  34.248  30.195  1.00  0.00    -0.462 OA
BRANCH   2   3
ATOM      3  C   UNL A   1      32.972  35.341  30.633  1.00  0.00     0.310 C 
ATOM      4  O   UNL A   1      32.508  36.213  29.905  1.00  0.00    -0.252 OA
BRANCH   3   5
ATOM      5  C   UNL A   1      32.889  35.437  32.145  1.00  0.00     0.118 C 
ATOM      6  C   UNL A   1      31.546  36.090  32.472  1.00  0.00     0.022 C 
BRANCH   5   7
ATOM      7  C   UNL A   1      34.089  36.151  32.809  1.00  0.00     0.090 C 
ATOM      8  C   UNL A   1      34.097  37.653  32.481  1.00  0.00     0.031 C 
BRANCH   7   9
ATOM      9  N   UNL A   1      35.343  35.573  32.306  1.00  0.00    -0.382 N 
ATOM     10  H   UNL A   1      35.795  36.004  31.545  1.00  0.00     0.160 HD
BRANCH   9  11
ATOM     11  C   UNL A   1      35.908  34.440  32.870  1.00  0.00     0.034 A 
ATOM     12  C   UNL A   1      36.552  33.516  32.050  1.00  0.00     0.028 A 
ATOM     13  C   UNL A   1      35.941  34.203  34.240  1.00  0.00     0.028 A 
ATOM     14  C   UNL A   1      37.255  32.424  32.586  1.00  0.00     0.028 A 
ATOM     15  C   UNL A   1      36.643  33.108  34.770  1.00  0.00     0.028 A 
ATOM     16  C   UNL A   1      37.348  32.196  33.966  1.00  0.00     0.036 A 
BRANCH  16  17
ATOM     17  N   UNL A   1      38.101  31.167  34.514  1.00  0.00    -0.378 N 
ATOM     18  C   UNL A   1      38.380  31.034  35.939  1.00  0.00     0.143 C 
ATOM     19  C   UNL A   1      38.760  30.191  33.650  1.00  0.00     0.143 C 
ENDBRANCH  16  17
ENDBRANCH   9  11
ENDBRANCH   7   9
ENDBRANCH   5   7
ENDBRANCH   3   5
ENDBRANCH   2   3
ENDBRANCH   1   2
BRANCH   1  20
ATOM     20  C   UNL A   1      34.897  33.130  28.408  1.00  0.00     0.275 C 
BRANCH  20  21
ATOM     21  O   UNL A   1      34.585  31.868  29.020  1.00  0.00    -0.458 OA
BRANCH  21  22
ATOM     22  C   UNL A   1      34.762  30.779  28.239  1.00  0.00     0.338 C 
ATOM     23  O   UNL A   1      33.977  30.315  27.432  1.00  0.00    -0.246 OA
BRANCH  22  24
ATOM     24  C   UNL A   1      36.090  30.191  28.502  1.00  0.00     0.060 A 
ATOM     25  C   UNL A   1      36.423  29.688  29.763  1.00  0.00     0.016 A 
ATOM     26  C   UNL A   1      37.047  30.227  27.487  1.00  0.00     0.016 A 
ATOM     27  C   UNL A   1      37.725  29.265  30.027  1.00  0.00     0.010 A 
ATOM     28  C   UNL A   1      38.331  29.738  27.732  1.00  0.00     0.010 A 
ATOM     29  C   UNL A   1      38.689  29.274  29.009  1.00  0.00    -0.014 A 
BRANCH  29  30
ATOM     30  C   UNL A   1      40.077  28.820  29.270  1.00  0.00     0.031 A 
ATOM     31  C   UNL A   1      41.054  29.741  29.948  1.00  0.00     0.074 A 
ATOM     32  C   UNL A   1      40.472  27.596  28.874  1.00  0.00     0.049 A 
ATOM     33  N   UNL A   1      42.347  29.609  30.100  1.00  0.00    -0.248 NA
ATOM     34  C   UNL A   1      40.503  30.979  30.520  1.00  0.00     0.031 C 
ATOM     35  C   UNL A   1      39.617  26.593  28.238  1.00  0.00     0.029 A 
ATOM     36  N   UNL A   1      41.703  26.992  28.938  1.00  0.00    -0.354 N 
ATOM     37  C   UNL A   1      42.771  30.763  30.746  1.00  0.00     0.074 A 
ATOM     38  C   UNL A   1      41.598  31.587  30.953  1.00  0.00     0.031 C 
ATOM     39  C   UNL A   1      40.346  25.495  27.981  1.00  0.00     0.029 A 
ATOM     40  C   UNL A   1      41.730  25.742  28.371  1.00  0.00     0.049 A 
ATOM     41  H   UNL A   1      42.491  27.415  29.351  1.00  0.00     0.167 HD
ATOM     42  C   UNL A   1      44.025  31.103  31.131  1.00  0.00     0.037 A 
ATOM     43  C   UNL A   1      42.759  24.904  28.154  1.00  0.00     0.037 A 
ATOM     44  C   UNL A   1      45.183  30.267  30.954  1.00  0.00     0.049 A 
ATOM     45  C   UNL A   1      44.145  25.319  28.557  1.00  0.00     0.074 A 
ATOM     46  C   UNL A   1      46.493  30.518  31.325  1.00  0.00     0.029 A 
ATOM     47  N   UNL A   1      45.167  29.013  30.364  1.00  0.00    -0.354 N 
ATOM     48  N   UNL A   1      44.540  26.425  29.136  1.00  0.00    -0.248 NA
ATOM     49  C   UNL A   1      45.230  24.372  28.262  1.00  0.00     0.031 C 
ATOM     50  C   UNL A   1      47.276  29.425  30.933  1.00  0.00     0.029 A 
ATOM     51  C   UNL A   1      46.446  28.480  30.351  1.00  0.00     0.049 A 
ATOM     52  H   UNL A   1      44.366  28.566  30.008  1.00  0.00     0.167 HD
ATOM     53  C   UNL A   1      45.915  26.305  29.287  1.00  0.00     0.074 A 
ATOM     54  C   UNL A   1      46.283  25.010  28.753  1.00  0.00     0.031 C 
ATOM     55  C   UNL A   1      46.794  27.189  29.817  1.00  0.00     0.037 A 
BRANCH  42  56
ATOM     56  C   UNL A   1      44.211  32.451  31.759  1.00  0.00     0.057 A 
ATOM     57  C   UNL A   1      44.145  32.640  33.145  1.00  0.00     0.134 A 
ATOM     58  C   UNL A   1      44.491  33.571  30.965  1.00  0.00     0.134 A 
ATOM     59  F   UNL A   1      43.866  31.611  33.958  1.00  0.00    -0.206 F 
ATOM     60  C   UNL A   1      44.332  33.899  33.718  1.00  0.00     0.040 A 
ATOM     61  C   UNL A   1      44.701  34.831  31.529  1.00  0.00     0.040 A 
ATOM     62  F   UNL A   1      44.571  33.458  29.631  1.00  0.00    -0.206 F 
ATOM     63  C   UNL A   1      44.617  34.998  32.909  1.00  0.00     0.006 A 
ENDBRANCH  42  56
BRANCH  43  64
ATOM     64  C   UNL A   1      42.519  23.597  27.496  1.00  0.00     0.057 A 
ATOM     65  C   UNL A   1      42.577  23.469  26.105  1.00  0.00     0.134 A 
ATOM     66  C   UNL A   1      42.233  22.446  28.241  1.00  0.00     0.134 A 
ATOM     67  F   UNL A   1      42.825  24.542  25.338  1.00  0.00    -0.206 F 
ATOM     68  C   UNL A   1      42.351  22.245  25.474  1.00  0.00     0.040 A 
ATOM     69  C   UNL A   1      42.029  21.211  27.626  1.00  0.00     0.040 A 
ATOM     70  F   UNL A   1      42.167  22.505  29.579  1.00  0.00    -0.206 F 
ATOM     71  C   UNL A   1      42.083  21.110  26.237  1.00  0.00     0.006 A 
ENDBRANCH  43  64
BRANCH  55  72
ATOM     72  C   UNL A   1      48.230  26.768  29.870  1.00  0.00     0.057 A 
ATOM     73  C   UNL A   1      49.142  27.135  28.872  1.00  0.00     0.134 A 
ATOM     74  C   UNL A   1      48.712  26.005  30.942  1.00  0.00     0.134 A 
ATOM     75  F   UNL A   1      48.737  27.852  27.813  1.00  0.00    -0.206 F 
ATOM     76  C   UNL A   1      50.478  26.738  28.927  1.00  0.00     0.040 A 
ATOM     77  C   UNL A   1      50.050  25.620  31.018  1.00  0.00     0.040 A 
ATOM     78  F   UNL A   1      47.889  25.628  31.932  1.00  0.00    -0.206 F 
ATOM     79  C   UNL A   1      50.937  25.982  30.005  1.00  0.00     0.006 A 
ENDBRANCH  55  72
ENDBRANCH  29  30
ENDBRANCH  22  24
ENDBRANCH  21  22
ENDBRANCH  20  21
ENDBRANCH   1  20
TORSDOF 15
ENDMDL
MODEL 2
REMARK VINA RESULT:      -9.8      4.141      7.563
REMARK SMILES C[C@H](Nc1ccc(N(C)C)cc1)[C@@H](C)C(=O)OCCOC(=O)c1ccc(-c2c3nc(c(-c4c(F)cccc4F)c4ccc([nH]4)c(-c4c(F)cccc4F)c4nc(c(-c5c(F)cccc5F)c5ccc2[nH]5)C=C4)C=C3)cc1
REMARK SMILES IDX 18 1 17 2 15 3 16 4 13 5 14 6 2 7 1 8 3 9 4 11 5 12 12 13
REMARK SMILES IDX 6 14 11 15 7 16 8 17 9 18 10 19 19 20 20 21 21 22 22 23
REMARK SMILES IDX 23 24 24 25 76 26 25 27 75 28 26 29 27 30 28 31 69 32 29 33
REMARK SMILES IDX 74 34 68 35 70 36 30 37 73 38 67 39 66 40 31 42 57 43 40 44
REMARK SMILES IDX 56 45 41 46 44 47 55 48 71 49 42 50 43 51 54 53 72 54 45 55
REMARK SMILES IDX 32 56 33 57 38 58 34 59 35 60 37 61 39 62 36 63 58 64 59 65
REMARK SMILES IDX 64 66 60 67 61 68 63 69 65 70 62 71 46 72 47 73 52 74 48 75
REMARK SMILES IDX 49 76 51 77 53 78 50 79
REMARK H PARENT 3 10 70 41 44 52
REMARK Flexibility Score: inf
ROOT
ATOM      1  C   UNL A   1      32.904  35.043  28.770  1.00  0.00     0.274 C 
ENDROOT
BRANCH   1   2
ATOM      2  O   UNL A   1      33.677  33.867  29.088  1.00  0.00    -0.462 OA
BRANCH   2   3
ATOM      3  C   UNL A   1      34.753  33.639  28.289  1.00  0.00     0.310 C 
ATOM      4  O   UNL A   1      34.982  34.232  27.240  1.00  0.00    -0.252 OA
BRANCH   3   5
ATOM      5  C   UNL A   1      35.641  32.509  28.778  1.00  0.00     0.118 C 
ATOM      6  C   UNL A   1      37.073  32.873  28.382  1.00  0.00     0.022 C 
BRANCH   5   7
ATOM      7  C   UNL A   1      35.216  31.104  28.293  1.00  0.00     0.090 C 
ATOM      8  C   UNL A   1      36.387  30.365  27.625  1.00  0.00     0.031 C 
BRANCH   7   9
ATOM      9  N   UNL A   1      34.140  31.234  27.301  1.00  0.00    -0.382 N 
ATOM     10  H   UNL A   1      33.959  32.117  26.906  1.00  0.00     0.160 HD
BRANCH   9  11
ATOM     11  C   UNL A   1      33.371  30.150  26.903  1.00  0.00     0.034 A 
ATOM     12  C   UNL A   1      32.491  30.291  25.834  1.00  0.00     0.028 A 
ATOM     13  C   UNL A   1      33.486  28.884  27.467  1.00  0.00     0.028 A 
ATOM     14  C   UNL A   1      31.792  29.191  25.309  1.00  0.00     0.028 A 
ATOM     15  C   UNL A   1      32.783  27.789  26.940  1.00  0.00     0.028 A 
ATOM     16  C   UNL A   1      31.933  27.896  25.826  1.00  0.00     0.036 A 
BRANCH  16  17
ATOM     17  N   UNL A   1      31.310  26.787  25.271  1.00  0.00    -0.378 N 
ATOM     18  C   UNL A   1      31.770  25.416  25.461  1.00  0.00     0.143 C 
ATOM     19  C   UNL A   1      30.185  26.952  24.354  1.00  0.00     0.143 C 
ENDBRANCH  16  17
ENDBRANCH   9  11
ENDBRANCH   7   9
ENDBRANCH   5   7
ENDBRANCH   3   5
ENDBRANCH   2   3
ENDBRANCH   1   2
BRANCH   1  20
ATOM     20  C   UNL A   1      32.896  36.025  29.939  1.00  0.00     0.275 C 
BRANCH  20  21
ATOM     21  O   UNL A   1      32.299  35.400  31.086  1.00  0.00    -0.458 OA
BRANCH  21  22
ATOM     22  C   UNL A   1      32.689  35.883  32.287  1.00  0.00     0.338 C 
ATOM     23  O   UNL A   1      32.178  36.791  32.917  1.00  0.00    -0.246 OA
BRANCH  22  24
ATOM     24  C   UNL A   1      33.871  35.138  32.760  1.00  0.00     0.060 A 
ATOM     25  C   UNL A   1      35.151  35.696  32.701  1.00  0.00     0.016 A 
ATOM     26  C   UNL A   1      33.700  33.821  33.188  1.00  0.00     0.016 A 
ATOM     27  C   UNL A   1      36.267  34.924  33.023  1.00  0.00     0.010 A 
ATOM     28  C   UNL A   1      34.812  33.072  33.578  1.00  0.00     0.010 A 
ATOM     29  C   UNL A   1      36.107  33.608  33.478  1.00  0.00    -0.014 A 
BRANCH  29  30
ATOM     30  C   UNL A   1      37.283  32.776  33.832  1.00  0.00     0.031 A 
ATOM     31  C   UNL A   1      38.021  33.025  35.118  1.00  0.00     0.074 A 
ATOM     32  C   UNL A   1      37.708  31.817  32.988  1.00  0.00     0.049 A 
ATOM     33  N   UNL A   1      39.168  32.540  35.521  1.00  0.00    -0.248 NA
ATOM     34  C   UNL A   1      37.389  33.952  36.069  1.00  0.00     0.031 C 
ATOM     35  C   UNL A   1      37.064  31.449  31.727  1.00  0.00     0.029 A 
ATOM     36  N   UNL A   1      38.796  30.982  33.062  1.00  0.00    -0.354 N 
ATOM     37  C   UNL A   1      39.416  33.134  36.753  1.00  0.00     0.074 A 
ATOM     38  C   UNL A   1      38.303  34.018  37.028  1.00  0.00     0.031 C 
ATOM     39  C   UNL A   1      37.761  30.457  31.151  1.00  0.00     0.029 A 
ATOM     40  C   UNL A   1      38.935  30.166  31.968  1.00  0.00     0.049 A 
ATOM     41  H   UNL A   1      39.417  30.971  33.827  1.00  0.00     0.167 HD
ATOM     42  C   UNL A   1      40.476  32.955  37.577  1.00  0.00     0.037 A 
ATOM     43  C   UNL A   1      39.916  29.307  31.638  1.00  0.00     0.037 A 
ATOM     44  C   UNL A   1      41.564  32.050  37.316  1.00  0.00     0.049 A 
ATOM     45  C   UNL A   1      41.099  29.154  32.551  1.00  0.00     0.074 A 
ATOM     46  C   UNL A   1      42.677  31.789  38.098  1.00  0.00     0.029 A 
ATOM     47  N   UNL A   1      41.671  31.250  36.189  1.00  0.00    -0.354 N 
ATOM     48  N   UNL A   1      41.341  29.744  33.695  1.00  0.00    -0.248 NA
ATOM     49  C   UNL A   1      42.152  28.225  32.117  1.00  0.00     0.031 C 
ATOM     50  C   UNL A   1      43.471  30.850  37.430  1.00  0.00     0.029 A 
ATOM     51  C   UNL A   1      42.836  30.502  36.249  1.00  0.00     0.049 A 
ATOM     52  H   UNL A   1      41.017  31.218  35.455  1.00  0.00     0.167 HD
ATOM     53  C   UNL A   1      42.564  29.251  34.126  1.00  0.00     0.074 A 
ATOM     54  C   UNL A   1      43.008  28.300  33.127  1.00  0.00     0.031 C 
ATOM     55  C   UNL A   1      43.260  29.559  35.247  1.00  0.00     0.037 A 
BRANCH  42  56
ATOM     56  C   UNL A   1      40.522  33.778  38.829  1.00  0.00     0.057 A 
ATOM     57  C   UNL A   1      39.871  33.381  40.003  1.00  0.00     0.134 A 
ATOM     58  C   UNL A   1      41.254  34.972  38.867  1.00  0.00     0.134 A 
ATOM     59  F   UNL A   1      39.141  32.255  40.027  1.00  0.00    -0.206 F 
ATOM     60  C   UNL A   1      39.931  34.151  41.166  1.00  0.00     0.040 A 
ATOM     61  C   UNL A   1      41.339  35.740  40.030  1.00  0.00     0.040 A 
ATOM     62  F   UNL A   1      41.904  35.408  37.777  1.00  0.00    -0.206 F 
ATOM     63  C   UNL A   1      40.672  35.332  41.182  1.00  0.00     0.006 A 
ENDBRANCH  42  56
BRANCH  43  64
ATOM     64  C   UNL A   1      39.834  28.545  30.368  1.00  0.00     0.057 A 
ATOM     65  C   UNL A   1      39.160  27.322  30.304  1.00  0.00     0.134 A 
ATOM     66  C   UNL A   1      40.420  29.025  29.191  1.00  0.00     0.134 A 
ATOM     67  F   UNL A   1      38.598  26.802  31.406  1.00  0.00    -0.206 F 
ATOM     68  C   UNL A   1      39.078  26.595  29.116  1.00  0.00     0.040 A 
ATOM     69  C   UNL A   1      40.326  28.321  27.990  1.00  0.00     0.040 A 
ATOM     70  F   UNL A   1      41.078  30.194  29.189  1.00  0.00    -0.206 F 
ATOM     71  C   UNL A   1      39.657  27.099  27.952  1.00  0.00     0.006 A 
ENDBRANCH  43  64
BRANCH  55  72
ATOM     72  C   UNL A   1      44.556  28.839  35.461  1.00  0.00     0.057 A 
ATOM     73  C   UNL A   1      44.616  27.618  36.143  1.00  0.00     0.134 A 
ATOM     74  C   UNL A   1      45.754  29.364  34.961  1.00  0.00     0.134 A 
ATOM     75  F   UNL A   1      43.504  27.073  36.659  1.00  0.00    -0.206 F 
ATOM     76  C   UNL A   1      45.827  26.954  36.340  1.00  0.00     0.040 A 
ATOM     77  C   UNL A   1      46.969  28.699  35.133  1.00  0.00     0.040 A 
ATOM     78  F   UNL A   1      45.762  30.528  34.293  1.00  0.00    -0.206 F 
ATOM     79  C   UNL A   1      47.008  27.492  35.830  1.00  0.00     0.006 A 
ENDBRANCH  55  72
ENDBRANCH  29  30
ENDBRANCH  22  24
ENDBRANCH  21  22
ENDBRANCH  20  21
ENDBRANCH   1  20
TORSDOF 15
ENDMDL
MODEL 3
REMARK VINA RESULT:      -9.6      2.120      3.130
REMARK SMILES C[C@H](Nc1ccc(N(C)C)cc1)[C@@H](C)C(=O)OCCOC(=O)c1ccc(-c2c3nc(c(-c4c(F)cccc4F)c4ccc([nH]4)c(-c4c(F)cccc4F)c4nc(c(-c5c(F)cccc5F)c5ccc2[nH]5)C=C4)C=C3)cc1
REMARK SMILES IDX 18 1 17 2 15 3 16 4 13 5 14 6 2 7 1 8 3 9 4 11 5 12 12 13
REMARK SMILES IDX 6 14 11 15 7 16 8 17 9 18 10 19 19 20 20 21 21 22 22 23
REMARK SMILES IDX 23 24 24 25 76 26 25 27 75 28 26 29 27 30 28 31 69 32 29 33
REMARK SMILES IDX 74 34 68 35 70 36 30 37 73 38 67 39 66 40 31 42 57 43 40 44
REMARK SMILES IDX 56 45 41 46 44 47 55 48 71 49 42 50 43 51 54 53 72 54 45 55
REMARK SMILES IDX 32 56 33 57 38 58 34 59 35 60 37 61 39 62 36 63 58 64 59 65
REMARK SMILES IDX 64 66 60 67 61 68 63 69 65 70 62 71 46 72 47 73 52 74 48 75
REMARK SMILES IDX 49 76 51 77 53 78 50 79
REMARK H PARENT 3 10 70 41 44 52
REMARK Flexibility Score: inf
ROOT
ATOM      1  C   UNL A   1      33.556  34.524  28.553  1.00  0.00     0.274 C 
ENDROOT
BRANCH   1   2
ATOM      2  O   UNL A   1      32.890  34.572  29.832  1.00  0.00    -0.462 OA
BRANCH   2   3
ATOM      3  C   UNL A   1      33.143  35.677  30.583  1.00  0.00     0.310 C 
ATOM      4  O   UNL A   1      32.984  36.832  30.202  1.00  0.00    -0.252 OA
BRANCH   3   5
ATOM      5  C   UNL A   1      33.721  35.359  31.950  1.00  0.00     0.118 C 
ATOM      6  C   UNL A   1      34.112  36.695  32.583  1.00  0.00     0.022 C 
BRANCH   5   7
ATOM      7  C   UNL A   1      34.878  34.334  31.935  1.00  0.00     0.090 C 
ATOM      8  C   UNL A   1      34.522  33.077  32.747  1.00  0.00     0.031 C 
BRANCH   7   9
ATOM      9  N   UNL A   1      36.074  34.937  32.540  1.00  0.00    -0.382 N 
ATOM     10  H   UNL A   1      35.961  35.627  33.234  1.00  0.00     0.160 HD
BRANCH   9  11
ATOM     11  C   UNL A   1      37.356  34.565  32.164  1.00  0.00     0.034 A 
ATOM     12  C   UNL A   1      37.601  34.199  30.843  1.00  0.00     0.028 A 
ATOM     13  C   UNL A   1      38.448  34.611  33.023  1.00  0.00     0.028 A 
ATOM     14  C   UNL A   1      38.905  33.944  30.382  1.00  0.00     0.028 A 
ATOM     15  C   UNL A   1      39.748  34.353  32.557  1.00  0.00     0.028 A 
ATOM     16  C   UNL A   1      40.027  34.038  31.217  1.00  0.00     0.036 A 
BRANCH  16  17
ATOM     17  N   UNL A   1      41.326  33.865  30.760  1.00  0.00    -0.378 N 
ATOM     18  C   UNL A   1      41.847  32.602  30.252  1.00  0.00     0.143 C 
ATOM     19  C   UNL A   1      42.298  34.951  30.865  1.00  0.00     0.143 C 
ENDBRANCH  16  17
ENDBRANCH   9  11
ENDBRANCH   7   9
ENDBRANCH   5   7
ENDBRANCH   3   5
ENDBRANCH   2   3
ENDBRANCH   1   2
BRANCH   1  20
ATOM     20  C   UNL A   1      34.922  33.852  28.671  1.00  0.00     0.275 C 
BRANCH  20  21
ATOM     21  O   UNL A   1      35.069  32.878  27.626  1.00  0.00    -0.458 OA
BRANCH  21  22
ATOM     22  C   UNL A   1      34.694  31.618  27.942  1.00  0.00     0.338 C 
ATOM     23  O   UNL A   1      33.578  31.138  27.859  1.00  0.00    -0.246 OA
BRANCH  22  24
ATOM     24  C   UNL A   1      35.864  30.860  28.426  1.00  0.00     0.060 A 
ATOM     25  C   UNL A   1      35.746  29.931  29.464  1.00  0.00     0.016 A 
ATOM     26  C   UNL A   1      37.117  31.154  27.889  1.00  0.00     0.016 A 
ATOM     27  C   UNL A   1      36.884  29.329  29.998  1.00  0.00     0.010 A 
ATOM     28  C   UNL A   1      38.248  30.498  28.377  1.00  0.00     0.010 A 
ATOM     29  C   UNL A   1      38.146  29.597  29.451  1.00  0.00    -0.014 A 
BRANCH  29  30
ATOM     30  C   UNL A   1      39.368  28.961  30.002  1.00  0.00     0.031 A 
ATOM     31  C   UNL A   1      40.003  29.507  31.251  1.00  0.00     0.074 A 
ATOM     32  C   UNL A   1      39.925  27.912  29.369  1.00  0.00     0.049 A 
ATOM     33  N   UNL A   1      41.162  29.217  31.785  1.00  0.00    -0.248 NA
ATOM     34  C   UNL A   1      39.236  30.523  31.987  1.00  0.00     0.031 C 
ATOM     35  C   UNL A   1      39.393  27.263  28.170  1.00  0.00     0.029 A 
ATOM     36  N   UNL A   1      41.076  27.214  29.641  1.00  0.00    -0.354 N 
ATOM     37  C   UNL A   1      41.282  30.042  32.896  1.00  0.00     0.074 A 
ATOM     38  C   UNL A   1      40.081  30.849  32.956  1.00  0.00     0.031 C 
ATOM     39  C   UNL A   1      40.208  26.256  27.817  1.00  0.00     0.029 A 
ATOM     40  C   UNL A   1      41.352  26.233  28.723  1.00  0.00     0.049 A 
ATOM     41  H   UNL A   1      41.648  27.401  30.421  1.00  0.00     0.167 HD
ATOM     42  C   UNL A   1      42.303  30.119  33.783  1.00  0.00     0.037 A 
ATOM     43  C   UNL A   1      42.423  25.428  28.599  1.00  0.00     0.037 A 
ATOM     44  C   UNL A   1      43.480  29.292  33.741  1.00  0.00     0.049 A 
ATOM     45  C   UNL A   1      43.558  25.557  29.575  1.00  0.00     0.074 A 
ATOM     46  C   UNL A   1      44.562  29.285  34.605  1.00  0.00     0.029 A 
ATOM     47  N   UNL A   1      43.724  28.317  32.786  1.00  0.00    -0.354 N 
ATOM     48  N   UNL A   1      43.677  26.364  30.600  1.00  0.00    -0.248 NA
ATOM     49  C   UNL A   1      44.713  24.673  29.364  1.00  0.00     0.031 C 
ATOM     50  C   UNL A   1      45.475  28.324  34.155  1.00  0.00     0.029 A 
ATOM     51  C   UNL A   1      44.944  27.709  33.032  1.00  0.00     0.049 A 
ATOM     52  H   UNL A   1      43.120  28.091  32.043  1.00  0.00     0.167 HD
ATOM     53  C   UNL A   1      44.912  26.077  31.166  1.00  0.00     0.074 A 
ATOM     54  C   UNL A   1      45.496  25.011  30.379  1.00  0.00     0.031 C 
ATOM     55  C   UNL A   1      45.509  26.648  32.240  1.00  0.00     0.037 A 
BRANCH  42  56
ATOM     56  C   UNL A   1      42.200  31.154  34.864  1.00  0.00     0.057 A 
ATOM     57  C   UNL A   1      42.532  32.495  34.640  1.00  0.00     0.134 A 
ATOM     58  C   UNL A   1      41.734  30.805  36.138  1.00  0.00     0.134 A 
ATOM     59  F   UNL A   1      42.999  32.890  33.446  1.00  0.00    -0.206 F 
ATOM     60  C   UNL A   1      42.421  33.451  35.652  1.00  0.00     0.040 A 
ATOM     61  C   UNL A   1      41.599  31.756  37.151  1.00  0.00     0.040 A 
ATOM     62  F   UNL A   1      41.396  29.537  36.416  1.00  0.00    -0.206 F 
ATOM     63  C   UNL A   1      41.948  33.082  36.910  1.00  0.00     0.006 A 
ENDBRANCH  42  56
BRANCH  43  64
ATOM     64  C   UNL A   1      42.484  24.447  27.489  1.00  0.00     0.057 A 
ATOM     65  C   UNL A   1      42.014  23.141  27.655  1.00  0.00     0.134 A 
ATOM     66  C   UNL A   1      43.007  24.793  26.237  1.00  0.00     0.134 A 
ATOM     67  F   UNL A   1      41.523  22.745  28.839  1.00  0.00    -0.206 F 
ATOM     68  C   UNL A   1      42.069  22.208  26.618  1.00  0.00     0.040 A 
ATOM     69  C   UNL A   1      43.046  23.879  25.185  1.00  0.00     0.040 A 
ATOM     70  F   UNL A   1      43.471  26.032  26.016  1.00  0.00    -0.206 F 
ATOM     71  C   UNL A   1      42.580  22.579  25.376  1.00  0.00     0.006 A 
ENDBRANCH  43  64
BRANCH  55  72
ATOM     72  C   UNL A   1      46.848  26.108  32.638  1.00  0.00     0.057 A 
ATOM     73  C   UNL A   1      48.036  26.602  32.083  1.00  0.00     0.134 A 
ATOM     74  C   UNL A   1      46.953  25.096  33.600  1.00  0.00     0.134 A 
ATOM     75  F   UNL A   1      48.000  27.560  31.145  1.00  0.00    -0.206 F 
ATOM     76  C   UNL A   1      49.280  26.093  32.457  1.00  0.00     0.040 A 
ATOM     77  C   UNL A   1      48.192  24.594  33.998  1.00  0.00     0.040 A 
ATOM     78  F   UNL A   1      45.852  24.585  34.172  1.00  0.00    -0.206 F 
ATOM     79  C   UNL A   1      49.361  25.089  33.421  1.00  0.00     0.006 A 
ENDBRANCH  55  72
ENDBRANCH  29  30
ENDBRANCH  22  24
ENDBRANCH  21  22
ENDBRANCH  20  21
ENDBRANCH   1  20
TORSDOF 15
ENDMDL
