MODEL 1
REMARK VINA RESULT:     -10.9      0.000      0.000
REMARK SMILES O=C(OCCOC(=O)c1ccc(OCc2sccc2Br)cn1)c1ccc(-c2c3nc(c(-c4c(F)cccc4F)c4ccc([nH]4)c(-c4c(F)cccc4F)c4nc(c(-c5c(F)cccc5F)c5ccc2[nH]5)C=C4)C=C3)cc1
REMARK SMILES IDX 5 1 4 2 3 3 2 4 1 5 23 6 24 7 76 8 25 9 75 10 26 11 27 12
REMARK SMILES IDX 28 13 69 14 29 15 74 16 68 17 70 18 30 19 73 20 67 21 66 22
REMARK SMILES IDX 31 24 57 25 40 26 56 27 41 28 44 29 55 30 71 31 42 32 43 33
REMARK SMILES IDX 54 35 72 36 45 37 32 38 33 39 38 40 34 41 35 42 37 43 39 44
REMARK SMILES IDX 36 45 58 46 59 47 64 48 60 49 61 50 63 51 65 52 62 53 46 54
REMARK SMILES IDX 47 55 52 56 48 57 49 58 51 59 53 60 50 61 6 62 7 63 8 64
REMARK SMILES IDX 9 65 10 66 22 67 11 68 21 69 12 70 13 71 14 72 15 73 16 74
REMARK SMILES IDX 19 75 17 76 18 77 20 78
REMARK H PARENT 70 23 44 34
REMARK Flexibility Score: inf
ROOT
ATOM      1  C   UNL A   1      42.937  21.270  26.020  1.00  0.00     0.275 C 
ENDROOT
BRANCH   1   2
ATOM      2  C   UNL A   1      43.915  21.915  25.035  1.00  0.00     0.275 C 
BRANCH   2   3
ATOM      3  O   UNL A   1      43.529  23.231  24.608  1.00  0.00    -0.458 OA
BRANCH   3   4
ATOM      4  C   UNL A   1      44.119  24.401  24.951  1.00  0.00     0.338 C 
ATOM      5  O   UNL A   1      45.262  24.647  24.574  1.00  0.00    -0.246 OA
BRANCH   4   6
ATOM      6  C   UNL A   1      43.497  25.334  25.936  1.00  0.00     0.060 A 
ATOM      7  C   UNL A   1      43.985  26.596  26.285  1.00  0.00     0.016 A 
ATOM      8  C   UNL A   1      42.370  24.848  26.619  1.00  0.00     0.016 A 
ATOM      9  C   UNL A   1      43.343  27.374  27.256  1.00  0.00     0.010 A 
ATOM     10  C   UNL A   1      41.730  25.622  27.591  1.00  0.00     0.010 A 
ATOM     11  C   UNL A   1      42.218  26.888  27.926  1.00  0.00    -0.014 A 
BRANCH  11  12
ATOM     12  C   UNL A   1      41.662  27.641  29.077  1.00  0.00     0.031 A 
ATOM     13  C   UNL A   1      42.330  27.500  30.415  1.00  0.00     0.074 A 
ATOM     14  C   UNL A   1      40.618  28.475  28.913  1.00  0.00     0.049 A 
ATOM     15  N   UNL A   1      42.055  28.095  31.546  1.00  0.00    -0.248 NA
ATOM     16  C   UNL A   1      43.474  26.575  30.484  1.00  0.00     0.031 C 
ATOM     17  C   UNL A   1      39.930  28.719  27.646  1.00  0.00     0.029 A 
ATOM     18  N   UNL A   1      39.950  29.274  29.807  1.00  0.00    -0.354 N 
ATOM     19  C   UNL A   1      43.012  27.645  32.448  1.00  0.00     0.074 A 
ATOM     20  C   UNL A   1      43.825  26.670  31.757  1.00  0.00     0.031 C 
ATOM     21  C   UNL A   1      38.919  29.581  27.848  1.00  0.00     0.029 A 
ATOM     22  C   UNL A   1      38.884  29.952  29.258  1.00  0.00     0.049 A 
ATOM     23  H   UNL A   1      40.209  29.355  30.753  1.00  0.00     0.167 HD
ATOM     24  C   UNL A   1      43.218  28.038  33.726  1.00  0.00     0.037 A 
ATOM     25  C   UNL A   1      37.985  30.771  29.838  1.00  0.00     0.037 A 
ATOM     26  C   UNL A   1      42.398  29.003  34.404  1.00  0.00     0.049 A 
ATOM     27  C   UNL A   1      38.148  31.072  31.310  1.00  0.00     0.074 A 
ATOM     28  C   UNL A   1      42.514  29.490  35.692  1.00  0.00     0.029 A 
ATOM     29  N   UNL A   1      41.293  29.622  33.835  1.00  0.00    -0.354 N 
ATOM     30  N   UNL A   1      39.086  30.674  32.138  1.00  0.00    -0.248 NA
ATOM     31  C   UNL A   1      37.136  31.937  31.931  1.00  0.00     0.031 C 
ATOM     32  C   UNL A   1      41.455  30.379  35.916  1.00  0.00     0.029 A 
ATOM     33  C   UNL A   1      40.703  30.472  34.754  1.00  0.00     0.049 A 
ATOM     34  H   UNL A   1      40.977  29.479  32.914  1.00  0.00     0.167 HD
ATOM     35  C   UNL A   1      38.826  31.307  33.347  1.00  0.00     0.074 A 
ATOM     36  C   UNL A   1      37.620  32.087  33.155  1.00  0.00     0.031 C 
ATOM     37  C   UNL A   1      39.528  31.269  34.508  1.00  0.00     0.037 A 
BRANCH  24  38
ATOM     38  C   UNL A   1      44.374  27.413  34.452  1.00  0.00     0.057 A 
ATOM     39  C   UNL A   1      45.654  27.983  34.423  1.00  0.00     0.134 A 
ATOM     40  C   UNL A   1      44.216  26.215  35.159  1.00  0.00     0.134 A 
ATOM     41  F   UNL A   1      45.876  29.122  33.750  1.00  0.00    -0.206 F 
ATOM     42  C   UNL A   1      46.745  27.362  35.037  1.00  0.00     0.040 A 
ATOM     43  C   UNL A   1      45.294  25.598  35.797  1.00  0.00     0.040 A 
ATOM     44  F   UNL A   1      43.017  25.619  35.230  1.00  0.00    -0.206 F 
ATOM     45  C   UNL A   1      46.565  26.165  35.727  1.00  0.00     0.006 A 
ENDBRANCH  24  38
BRANCH  25  46
ATOM     46  C   UNL A   1      36.863  31.373  29.055  1.00  0.00     0.057 A 
ATOM     47  C   UNL A   1      36.888  32.707  28.635  1.00  0.00     0.134 A 
ATOM     48  C   UNL A   1      35.701  30.649  28.756  1.00  0.00     0.134 A 
ATOM     49  F   UNL A   1      37.965  33.468  28.873  1.00  0.00    -0.206 F 
ATOM     50  C   UNL A   1      35.789  33.303  28.004  1.00  0.00     0.040 A 
ATOM     51  C   UNL A   1      34.600  31.224  28.120  1.00  0.00     0.040 A 
ATOM     52  F   UNL A   1      35.617  29.352  29.057  1.00  0.00    -0.206 F 
ATOM     53  C   UNL A   1      34.636  32.562  27.754  1.00  0.00     0.006 A 
ENDBRANCH  25  46
BRANCH  37  54
ATOM     54  C   UNL A   1      39.067  32.168  35.616  1.00  0.00     0.057 A 
ATOM     55  C   UNL A   1      38.237  31.715  36.647  1.00  0.00     0.134 A 
ATOM     56  C   UNL A   1      39.507  33.496  35.671  1.00  0.00     0.134 A 
ATOM     57  F   UNL A   1      37.771  30.456  36.642  1.00  0.00    -0.206 F 
ATOM     58  C   UNL A   1      37.846  32.559  37.687  1.00  0.00     0.040 A 
ATOM     59  C   UNL A   1      39.143  34.343  36.717  1.00  0.00     0.040 A 
ATOM     60  F   UNL A   1      40.311  33.987  34.716  1.00  0.00    -0.206 F 
ATOM     61  C   UNL A   1      38.305  33.875  37.728  1.00  0.00     0.006 A 
ENDBRANCH  37  54
ENDBRANCH  11  12
ENDBRANCH   4   6
ENDBRANCH   3   4
ENDBRANCH   2   3
ENDBRANCH   1   2
BRANCH   1  62
ATOM     62  O   UNL A   1      41.563  21.391  25.612  1.00  0.00    -0.457 OA
BRANCH  62  63
ATOM     63  C   UNL A   1      40.658  21.276  26.627  1.00  0.00     0.357 C 
ATOM     64  O   UNL A   1      40.854  20.737  27.704  1.00  0.00    -0.244 OA
BRANCH  63  65
ATOM     65  C   UNL A   1      39.402  21.990  26.263  1.00  0.00     0.148 A 
ATOM     66  C   UNL A   1      38.482  21.442  25.374  1.00  0.00     0.040 A 
ATOM     67  N   UNL A   1      39.230  23.198  26.850  1.00  0.00    -0.245 NA
ATOM     68  C   UNL A   1      37.332  22.181  25.053  1.00  0.00     0.050 A 
ATOM     69  C   UNL A   1      38.120  23.888  26.503  1.00  0.00     0.158 A 
ATOM     70  C   UNL A   1      37.143  23.437  25.620  1.00  0.00     0.138 A 
BRANCH  70  71
ATOM     71  O   UNL A   1      36.133  24.316  25.381  1.00  0.00    -0.486 OA
BRANCH  71  72
ATOM     72  C   UNL A   1      35.050  23.954  24.526  1.00  0.00     0.277 C 
BRANCH  72  73
ATOM     73  C   UNL A   1      33.746  24.026  25.266  1.00  0.00     0.056 A 
ATOM     74  S   UNL A   1      32.529  25.055  24.615  1.00  0.00    -0.144 S 
ATOM     75  C   UNL A   1      33.235  23.345  26.353  1.00  0.00     0.035 A 
ATOM     76  C   UNL A   1      31.481  24.792  25.933  1.00  0.00     0.066 A 
ATOM     77  C   UNL A   1      31.972  23.833  26.786  1.00  0.00     0.028 A 
ATOM     78  Br  UNL A   1      34.020  21.883  27.255  1.00  0.00    -0.049 Br
ENDBRANCH  72  73
ENDBRANCH  71  72
ENDBRANCH  70  71
ENDBRANCH  63  65
ENDBRANCH  62  63
ENDBRANCH   1  62
TORSDOF 14
ENDMDL
MODEL 2
REMARK VINA RESULT:     -10.9      0.803      1.362
REMARK SMILES O=C(OCCOC(=O)c1ccc(OCc2sccc2Br)cn1)c1ccc(-c2c3nc(c(-c4c(F)cccc4F)c4ccc([nH]4)c(-c4c(F)cccc4F)c4nc(c(-c5c(F)cccc5F)c5ccc2[nH]5)C=C4)C=C3)cc1
REMARK SMILES IDX 5 1 4 2 3 3 2 4 1 5 23 6 24 7 76 8 25 9 75 10 26 11 27 12
REMARK SMILES IDX 28 13 69 14 29 15 74 16 68 17 70 18 30 19 73 20 67 21 66 22
REMARK SMILES IDX 31 24 57 25 40 26 56 27 41 28 44 29 55 30 71 31 42 32 43 33
REMARK SMILES IDX 54 35 72 36 45 37 32 38 33 39 38 40 34 41 35 42 37 43 39 44
REMARK SMILES IDX 36 45 58 46 59 47 64 48 60 49 61 50 63 51 65 52 62 53 46 54
REMARK SMILES IDX 47 55 52 56 48 57 49 58 51 59 53 60 50 61 6 62 7 63 8 64
REMARK SMILES IDX 9 65 10 66 22 67 11 68 21 69 12 70 13 71 14 72 15 73 16 74
REMARK SMILES IDX 19 75 17 76 18 77 20 78
REMARK H PARENT 70 23 44 34
REMARK Flexibility Score: inf
ROOT
ATOM      1  C   UNL A   1      42.811  20.964  26.053  1.00  0.00     0.275 C 
ENDROOT
BRANCH   1   2
ATOM      2  C   UNL A   1      43.903  21.757  25.332  1.00  0.00     0.275 C 
BRANCH   2   3
ATOM      3  O   UNL A   1      43.468  23.034  24.838  1.00  0.00    -0.458 OA
BRANCH   3   4
ATOM      4  C   UNL A   1      44.030  24.239  25.097  1.00  0.00     0.338 C 
ATOM      5  O   UNL A   1      45.148  24.501  24.659  1.00  0.00    -0.246 OA
BRANCH   4   6
ATOM      6  C   UNL A   1      43.417  25.201  26.060  1.00  0.00     0.060 A 
ATOM      7  C   UNL A   1      43.876  26.493  26.324  1.00  0.00     0.016 A 
ATOM      8  C   UNL A   1      42.336  24.715  26.813  1.00  0.00     0.016 A 
ATOM      9  C   UNL A   1      43.248  27.299  27.281  1.00  0.00     0.010 A 
ATOM     10  C   UNL A   1      41.710  25.517  27.771  1.00  0.00     0.010 A 
ATOM     11  C   UNL A   1      42.168  26.813  28.022  1.00  0.00    -0.014 A 
BRANCH  11  12
ATOM     12  C   UNL A   1      41.634  27.606  29.155  1.00  0.00     0.031 A 
ATOM     13  C   UNL A   1      42.319  27.501  30.489  1.00  0.00     0.074 A 
ATOM     14  C   UNL A   1      40.594  28.443  28.980  1.00  0.00     0.049 A 
ATOM     15  N   UNL A   1      42.065  28.134  31.604  1.00  0.00    -0.248 NA
ATOM     16  C   UNL A   1      43.456  26.570  30.571  1.00  0.00     0.031 C 
ATOM     17  C   UNL A   1      39.891  28.653  27.716  1.00  0.00     0.029 A 
ATOM     18  N   UNL A   1      39.945  29.275  29.858  1.00  0.00    -0.354 N 
ATOM     19  C   UNL A   1      43.030  27.703  32.506  1.00  0.00     0.074 A 
ATOM     20  C   UNL A   1      43.825  26.701  31.835  1.00  0.00     0.031 C 
ATOM     21  C   UNL A   1      38.890  29.529  27.904  1.00  0.00     0.029 A 
ATOM     22  C   UNL A   1      38.877  29.944  29.302  1.00  0.00     0.049 A 
ATOM     23  H   UNL A   1      40.218  29.383  30.797  1.00  0.00     0.167 HD
ATOM     24  C   UNL A   1      43.257  28.135  33.769  1.00  0.00     0.037 A 
ATOM     25  C   UNL A   1      37.993  30.789  29.868  1.00  0.00     0.037 A 
ATOM     26  C   UNL A   1      42.454  29.127  34.427  1.00  0.00     0.049 A 
ATOM     27  C   UNL A   1      38.178  31.134  31.328  1.00  0.00     0.074 A 
ATOM     28  C   UNL A   1      42.591  29.653  35.698  1.00  0.00     0.029 A 
ATOM     29  N   UNL A   1      41.346  29.737  33.854  1.00  0.00    -0.354 N 
ATOM     30  N   UNL A   1      39.124  30.754  32.155  1.00  0.00    -0.248 NA
ATOM     31  C   UNL A   1      37.181  32.026  31.935  1.00  0.00     0.031 C 
ATOM     32  C   UNL A   1      41.543  30.556  35.908  1.00  0.00     0.029 A 
ATOM     33  C   UNL A   1      40.775  30.619  34.754  1.00  0.00     0.049 A 
ATOM     34  H   UNL A   1      41.016  29.568  32.942  1.00  0.00     0.167 HD
ATOM     35  C   UNL A   1      38.886  31.426  33.347  1.00  0.00     0.074 A 
ATOM     36  C   UNL A   1      37.684  32.210  33.148  1.00  0.00     0.031 C 
ATOM     37  C   UNL A   1      39.603  31.419  34.499  1.00  0.00     0.037 A 
BRANCH  24  38
ATOM     38  C   UNL A   1      44.418  27.522  34.498  1.00  0.00     0.057 A 
ATOM     39  C   UNL A   1      44.269  26.363  35.273  1.00  0.00     0.134 A 
ATOM     40  C   UNL A   1      45.687  28.111  34.454  1.00  0.00     0.134 A 
ATOM     41  F   UNL A   1      43.075  25.759  35.370  1.00  0.00    -0.206 F 
ATOM     42  C   UNL A   1      45.331  25.835  36.011  1.00  0.00     0.040 A 
ATOM     43  C   UNL A   1      46.762  27.578  35.168  1.00  0.00     0.040 A 
ATOM     44  F   UNL A   1      45.899  29.218  33.729  1.00  0.00    -0.206 F 
ATOM     45  C   UNL A   1      46.583  26.444  35.958  1.00  0.00     0.006 A 
ENDBRANCH  24  38
BRANCH  25  46
ATOM     46  C   UNL A   1      36.864  31.375  29.083  1.00  0.00     0.057 A 
ATOM     47  C   UNL A   1      36.881  32.704  28.646  1.00  0.00     0.134 A 
ATOM     48  C   UNL A   1      35.705  30.642  28.795  1.00  0.00     0.134 A 
ATOM     49  F   UNL A   1      37.955  33.474  28.872  1.00  0.00    -0.206 F 
ATOM     50  C   UNL A   1      35.777  33.287  28.012  1.00  0.00     0.040 A 
ATOM     51  C   UNL A   1      34.599  31.203  28.157  1.00  0.00     0.040 A 
ATOM     52  F   UNL A   1      35.629  29.348  29.112  1.00  0.00    -0.206 F 
ATOM     53  C   UNL A   1      34.627  32.537  27.775  1.00  0.00     0.006 A 
ENDBRANCH  25  46
BRANCH  37  54
ATOM     54  C   UNL A   1      39.165  32.355  35.585  1.00  0.00     0.057 A 
ATOM     55  C   UNL A   1      38.302  31.955  36.611  1.00  0.00     0.134 A 
ATOM     56  C   UNL A   1      39.659  33.665  35.624  1.00  0.00     0.134 A 
ATOM     57  F   UNL A   1      37.784  30.717  36.620  1.00  0.00    -0.206 F 
ATOM     58  C   UNL A   1      37.931  32.833  37.631  1.00  0.00     0.040 A 
ATOM     59  C   UNL A   1      39.316  34.544  36.650  1.00  0.00     0.040 A 
ATOM     60  F   UNL A   1      40.497  34.105  34.673  1.00  0.00    -0.206 F 
ATOM     61  C   UNL A   1      38.445  34.130  37.656  1.00  0.00     0.006 A 
ENDBRANCH  37  54
ENDBRANCH  11  12
ENDBRANCH   4   6
ENDBRANCH   3   4
ENDBRANCH   2   3
ENDBRANCH   1   2
BRANCH   1  62
ATOM     62  O   UNL A   1      41.482  21.370  25.684  1.00  0.00    -0.457 OA
BRANCH  62  63
ATOM     63  C   UNL A   1      40.579  21.350  26.706  1.00  0.00     0.357 C 
ATOM     64  O   UNL A   1      40.747  20.838  27.802  1.00  0.00    -0.244 OA
BRANCH  63  65
ATOM     65  C   UNL A   1      39.369  22.130  26.323  1.00  0.00     0.148 A 
ATOM     66  C   UNL A   1      39.137  23.410  26.818  1.00  0.00     0.040 A 
ATOM     67  N   UNL A   1      38.521  21.504  25.472  1.00  0.00    -0.245 NA
ATOM     68  C   UNL A   1      37.962  24.077  26.437  1.00  0.00     0.050 A 
ATOM     69  C   UNL A   1      37.392  22.171  25.141  1.00  0.00     0.158 A 
ATOM     70  C   UNL A   1      37.060  23.447  25.586  1.00  0.00     0.138 A 
BRANCH  70  71
ATOM     71  O   UNL A   1      35.851  23.907  25.164  1.00  0.00    -0.486 OA
BRANCH  71  72
ATOM     72  C   UNL A   1      34.653  23.484  25.811  1.00  0.00     0.277 C 
BRANCH  72  73
ATOM     73  C   UNL A   1      33.661  22.974  24.807  1.00  0.00     0.056 A 
ATOM     74  S   UNL A   1      32.816  24.146  23.872  1.00  0.00    -0.144 S 
ATOM     75  C   UNL A   1      33.324  21.709  24.367  1.00  0.00     0.035 A 
ATOM     76  C   UNL A   1      31.833  22.969  23.127  1.00  0.00     0.066 A 
ATOM     77  C   UNL A   1      32.226  21.695  23.465  1.00  0.00     0.028 A 
ATOM     78  Br  UNL A   1      34.166  20.081  24.823  1.00  0.00    -0.049 Br
ENDBRANCH  72  73
ENDBRANCH  71  72
ENDBRANCH  70  71
ENDBRANCH  63  65
ENDBRANCH  62  63
ENDBRANCH   1  62
TORSDOF 14
ENDMDL
MODEL 3
REMARK VINA RESULT:     -10.6      4.865     10.117
REMARK SMILES O=C(OCCOC(=O)c1ccc(OCc2sccc2Br)cn1)c1ccc(-c2c3nc(c(-c4c(F)cccc4F)c4ccc([nH]4)c(-c4c(F)cccc4F)c4nc(c(-c5c(F)cccc5F)c5ccc2[nH]5)C=C4)C=C3)cc1
REMARK SMILES IDX 5 1 4 2 3 3 2 4 1 5 23 6 24 7 76 8 25 9 75 10 26 11 27 12
REMARK SMILES IDX 28 13 69 14 29 15 74 16 68 17 70 18 30 19 73 20 67 21 66 22
REMARK SMILES IDX 31 24 57 25 40 26 56 27 41 28 44 29 55 30 71 31 42 32 43 33
REMARK SMILES IDX 54 35 72 36 45 37 32 38 33 39 38 40 34 41 35 42 37 43 39 44
REMARK SMILES IDX 36 45 58 46 59 47 64 48 60 49 61 50 63 51 65 52 62 53 46 54
REMARK SMILES IDX 47 55 52 56 48 57 49 58 51 59 53 60 50 61 6 62 7 63 8 64
REMARK SMILES IDX 9 65 10 66 22 67 11 68 21 69 12 70 13 71 14 72 15 73 16 74
REMARK SMILES IDX 19 75 17 76 18 77 20 78
REMARK H PARENT 70 23 44 34
REMARK Flexibility Score: inf
ROOT
ATOM      1  C   UNL A   1      34.386  34.106  30.409  1.00  0.00     0.275 C 
ENDROOT
BRANCH   1   2
ATOM      2  C   UNL A   1      34.524  33.979  31.928  1.00  0.00     0.275 C 
BRANCH   2   3
ATOM      3  O   UNL A   1      34.823  32.647  32.377  1.00  0.00    -0.458 OA
BRANCH   3   4
ATOM      4  C   UNL A   1      35.939  32.243  33.031  1.00  0.00     0.338 C 
ATOM      5  O   UNL A   1      36.131  32.594  34.193  1.00  0.00    -0.246 OA
BRANCH   4   6
ATOM      6  C   UNL A   1      37.047  31.533  32.327  1.00  0.00     0.060 A 
ATOM      7  C   UNL A   1      38.179  30.983  32.934  1.00  0.00     0.016 A 
ATOM      8  C   UNL A   1      36.964  31.497  30.925  1.00  0.00     0.016 A 
ATOM      9  C   UNL A   1      39.182  30.373  32.171  1.00  0.00     0.010 A 
ATOM     10  C   UNL A   1      37.966  30.891  30.162  1.00  0.00     0.010 A 
ATOM     11  C   UNL A   1      39.090  30.334  30.778  1.00  0.00    -0.014 A 
BRANCH  11  12
ATOM     12  C   UNL A   1      40.241  29.853  29.976  1.00  0.00     0.031 A 
ATOM     13  C   UNL A   1      41.363  30.810  29.688  1.00  0.00     0.074 A 
ATOM     14  C   UNL A   1      40.305  28.573  29.563  1.00  0.00     0.049 A 
ATOM     15  N   UNL A   1      42.488  30.602  29.056  1.00  0.00    -0.248 NA
ATOM     16  C   UNL A   1      41.203  32.182  30.198  1.00  0.00     0.031 C 
ATOM     17  C   UNL A   1      39.292  27.554  29.830  1.00  0.00     0.029 A 
ATOM     18  N   UNL A   1      41.257  27.905  28.834  1.00  0.00    -0.354 N 
ATOM     19  C   UNL A   1      43.182  31.805  29.124  1.00  0.00     0.074 A 
ATOM     20  C   UNL A   1      42.323  32.757  29.788  1.00  0.00     0.031 C 
ATOM     21  C   UNL A   1      39.658  26.399  29.249  1.00  0.00     0.029 A 
ATOM     22  C   UNL A   1      40.931  26.594  28.565  1.00  0.00     0.049 A 
ATOM     23  H   UNL A   1      42.095  28.324  28.532  1.00  0.00     0.167 HD
ATOM     24  C   UNL A   1      44.439  32.079  28.704  1.00  0.00     0.037 A 
ATOM     25  C   UNL A   1      41.591  25.666  27.844  1.00  0.00     0.037 A 
ATOM     26  C   UNL A   1      45.281  31.124  28.038  1.00  0.00     0.049 A 
ATOM     27  C   UNL A   1      42.927  26.049  27.251  1.00  0.00     0.074 A 
ATOM     28  C   UNL A   1      46.575  31.280  27.576  1.00  0.00     0.029 A 
ATOM     29  N   UNL A   1      44.895  29.827  27.730  1.00  0.00    -0.354 N 
ATOM     30  N   UNL A   1      43.591  27.177  27.364  1.00  0.00    -0.248 NA
ATOM     31  C   UNL A   1      43.612  25.036  26.437  1.00  0.00     0.031 C 
ATOM     32  C   UNL A   1      46.959  30.085  26.955  1.00  0.00     0.029 A 
ATOM     33  C   UNL A   1      45.918  29.175  27.064  1.00  0.00     0.049 A 
ATOM     34  H   UNL A   1      44.023  29.428  27.954  1.00  0.00     0.167 HD
ATOM     35  C   UNL A   1      44.802  26.977  26.712  1.00  0.00     0.074 A 
ATOM     36  C   UNL A   1      44.766  25.633  26.174  1.00  0.00     0.031 C 
ATOM     37  C   UNL A   1      45.860  27.817  26.585  1.00  0.00     0.037 A 
BRANCH  24  38
ATOM     38  C   UNL A   1      44.955  33.465  28.960  1.00  0.00     0.057 A 
ATOM     39  C   UNL A   1      44.768  34.501  28.034  1.00  0.00     0.134 A 
ATOM     40  C   UNL A   1      45.672  33.762  30.125  1.00  0.00     0.134 A 
ATOM     41  F   UNL A   1      44.104  34.278  26.890  1.00  0.00    -0.206 F 
ATOM     42  C   UNL A   1      45.311  35.771  28.238  1.00  0.00     0.040 A 
ATOM     43  C   UNL A   1      46.199  35.035  30.352  1.00  0.00     0.040 A 
ATOM     44  F   UNL A   1      45.883  32.819  31.054  1.00  0.00    -0.206 F 
ATOM     45  C   UNL A   1      46.029  36.041  29.401  1.00  0.00     0.006 A 
ENDBRANCH  24  38
BRANCH  25  46
ATOM     46  C   UNL A   1      41.028  24.297  27.636  1.00  0.00     0.057 A 
ATOM     47  C   UNL A   1      41.557  23.175  28.283  1.00  0.00     0.134 A 
ATOM     48  C   UNL A   1      39.981  24.058  26.736  1.00  0.00     0.134 A 
ATOM     49  F   UNL A   1      42.555  23.316  29.167  1.00  0.00    -0.206 F 
ATOM     50  C   UNL A   1      41.107  21.880  28.001  1.00  0.00     0.040 A 
ATOM     51  C   UNL A   1      39.513  22.775  26.449  1.00  0.00     0.040 A 
ATOM     52  F   UNL A   1      39.370  25.076  26.126  1.00  0.00    -0.206 F 
ATOM     53  C   UNL A   1      40.088  21.677  27.073  1.00  0.00     0.006 A 
ENDBRANCH  25  46
BRANCH  37  54
ATOM     54  C   UNL A   1      47.093  27.271  25.928  1.00  0.00     0.057 A 
ATOM     55  C   UNL A   1      47.339  27.426  24.561  1.00  0.00     0.134 A 
ATOM     56  C   UNL A   1      48.067  26.621  26.696  1.00  0.00     0.134 A 
ATOM     57  F   UNL A   1      46.437  28.028  23.770  1.00  0.00    -0.206 F 
ATOM     58  C   UNL A   1      48.508  26.939  23.974  1.00  0.00     0.040 A 
ATOM     59  C   UNL A   1      49.250  26.150  26.127  1.00  0.00     0.040 A 
ATOM     60  F   UNL A   1      47.891  26.448  28.015  1.00  0.00    -0.206 F 
ATOM     61  C   UNL A   1      49.471  26.305  24.760  1.00  0.00     0.006 A 
ENDBRANCH  37  54
ENDBRANCH  11  12
ENDBRANCH   4   6
ENDBRANCH   3   4
ENDBRANCH   2   3
ENDBRANCH   1   2
BRANCH   1  62
ATOM     62  O   UNL A   1      34.255  32.837  29.746  1.00  0.00    -0.457 OA
BRANCH  62  63
ATOM     63  C   UNL A   1      34.362  32.894  28.387  1.00  0.00     0.357 C 
ATOM     64  O   UNL A   1      34.635  33.887  27.730  1.00  0.00    -0.244 OA
BRANCH  63  65
ATOM     65  C   UNL A   1      34.182  31.532  27.812  1.00  0.00     0.148 A 
ATOM     66  C   UNL A   1      35.199  30.582  27.849  1.00  0.00     0.040 A 
ATOM     67  N   UNL A   1      32.972  31.295  27.251  1.00  0.00    -0.245 NA
ATOM     68  C   UNL A   1      34.971  29.328  27.262  1.00  0.00     0.050 A 
ATOM     69  C   UNL A   1      32.795  30.081  26.681  1.00  0.00     0.158 A 
ATOM     70  C   UNL A   1      33.747  29.066  26.655  1.00  0.00     0.138 A 
BRANCH  70  71
ATOM     71  O   UNL A   1      33.371  27.942  25.987  1.00  0.00    -0.486 OA
BRANCH  71  72
ATOM     72  C   UNL A   1      32.908  28.026  24.641  1.00  0.00     0.277 C 
BRANCH  72  73
ATOM     73  C   UNL A   1      31.526  27.451  24.520  1.00  0.00     0.056 A 
ATOM     74  S   UNL A   1      31.077  26.240  25.658  1.00  0.00    -0.144 S 
ATOM     75  C   UNL A   1      30.440  27.756  23.725  1.00  0.00     0.035 A 
ATOM     76  C   UNL A   1      29.581  25.955  24.893  1.00  0.00     0.066 A 
ATOM     77  C   UNL A   1      29.352  26.855  23.879  1.00  0.00     0.028 A 
ATOM     78  Br  UNL A   1      30.275  29.206  22.525  1.00  0.00    -0.049 Br
ENDBRANCH  72  73
ENDBRANCH  71  72
ENDBRANCH  70  71
ENDBRANCH  63  65
ENDBRANCH  62  63
ENDBRANCH   1  62
TORSDOF 14
ENDMDL
