MODEL 1
REMARK VINA RESULT:     -11.2      0.000      0.000
REMARK SMILES O=C(CC1(NC(=O)C2(c3ccccc3)CC2)CCC1)OCCOC(=O)c1ccc(-c2c3nc(c(-c4c(F)cccc4F)c4ccc([nH]4)c(-c4c(F)cccc4F)c4nc(c(-c5c(F)cccc5F)c5ccc2[nH]5)C=C4)C=C3)cc1
REMARK SMILES IDX 21 1 20 2 2 3 1 4 3 5 4 6 17 7 19 8 18 9 5 10 6 11 7 13 8 14
REMARK SMILES IDX 15 15 16 16 9 17 10 18 14 19 11 20 13 21 12 22 22 23 23 24
REMARK SMILES IDX 24 25 25 26 26 27 27 28 79 29 28 30 78 31 29 32 30 33 31 34
REMARK SMILES IDX 72 35 32 36 77 37 71 38 73 39 33 40 76 41 70 42 69 43 34 45
REMARK SMILES IDX 60 46 43 47 59 48 44 49 47 50 58 51 74 52 45 53 46 54 57 56
REMARK SMILES IDX 75 57 48 58 35 59 36 60 41 61 37 62 38 63 40 64 42 65 39 66
REMARK SMILES IDX 61 67 62 68 67 69 63 70 64 71 66 72 68 73 65 74 49 75 50 76
REMARK SMILES IDX 55 77 51 78 52 79 54 80 56 81 53 82
REMARK H PARENT 5 12 73 44 47 55
REMARK Flexibility Score: inf
ROOT
ATOM      1  C   UNL A   1      31.712  31.554  26.695  1.00  0.00     0.274 C 
ENDROOT
BRANCH   1   2
ATOM      2  O   UNL A   1      32.890  30.766  26.322  1.00  0.00    -0.462 OA
BRANCH   2   3
ATOM      3  C   UNL A   1      32.826  29.502  25.785  1.00  0.00     0.308 C 
ATOM      4  O   UNL A   1      33.825  28.805  25.656  1.00  0.00    -0.252 OA
BRANCH   3   5
ATOM      5  C   UNL A   1      31.466  29.083  25.332  1.00  0.00     0.151 C 
BRANCH   5   6
ATOM      6  C   UNL A   1      31.073  29.039  23.856  1.00  0.00     0.051 C 
ATOM      7  C   UNL A   1      29.963  27.986  23.563  1.00  0.00     0.029 C 
ATOM      8  C   UNL A   1      30.035  30.140  23.471  1.00  0.00     0.029 C 
ATOM      9  C   UNL A   1      29.016  29.085  23.073  1.00  0.00     0.005 C 
BRANCH   6  10
ATOM     10  N   UNL A   1      32.184  28.980  22.866  1.00  0.00    -0.349 N 
ATOM     11  C   UNL A   1      33.072  27.988  22.502  1.00  0.00     0.231 C 
ATOM     12  H   UNL A   1      32.313  29.821  22.371  1.00  0.00     0.164 HD
ATOM     13  O   UNL A   1      34.119  28.322  21.949  1.00  0.00    -0.274 OA
BRANCH  11  14
ATOM     14  C   UNL A   1      32.753  26.512  22.656  1.00  0.00     0.074 C 
ATOM     15  C   UNL A   1      31.611  26.029  21.745  1.00  0.00     0.023 C 
ATOM     16  C   UNL A   1      33.008  25.614  21.433  1.00  0.00     0.023 C 
BRANCH  14  17
ATOM     17  C   UNL A   1      33.009  25.859  24.022  1.00  0.00    -0.032 A 
ATOM     18  C   UNL A   1      34.289  25.449  24.396  1.00  0.00     0.005 A 
ATOM     19  C   UNL A   1      31.993  25.516  24.917  1.00  0.00     0.005 A 
ATOM     20  C   UNL A   1      34.556  24.592  25.463  1.00  0.00     0.000 A 
ATOM     21  C   UNL A   1      32.252  24.731  26.058  1.00  0.00     0.000 A 
ATOM     22  C   UNL A   1      33.529  24.243  26.315  1.00  0.00     0.000 A 
ENDBRANCH  14  17
ENDBRANCH  11  14
ENDBRANCH   6  10
ENDBRANCH   5   6
ENDBRANCH   3   5
ENDBRANCH   2   3
ENDBRANCH   1   2
BRANCH   1  23
ATOM     23  C   UNL A   1      32.032  33.067  26.816  1.00  0.00     0.275 C 
BRANCH  23  24
ATOM     24  O   UNL A   1      32.256  33.449  28.205  1.00  0.00    -0.458 OA
BRANCH  24  25
ATOM     25  C   UNL A   1      33.286  34.309  28.455  1.00  0.00     0.338 C 
ATOM     26  O   UNL A   1      33.196  35.523  28.528  1.00  0.00    -0.246 OA
BRANCH  25  27
ATOM     27  C   UNL A   1      34.526  33.563  28.843  1.00  0.00     0.060 A 
ATOM     28  C   UNL A   1      34.377  32.328  29.492  1.00  0.00     0.016 A 
ATOM     29  C   UNL A   1      35.815  33.995  28.510  1.00  0.00     0.016 A 
ATOM     30  C   UNL A   1      35.492  31.513  29.767  1.00  0.00     0.010 A 
ATOM     31  C   UNL A   1      36.930  33.168  28.772  1.00  0.00     0.010 A 
ATOM     32  C   UNL A   1      36.785  31.919  29.413  1.00  0.00    -0.014 A 
BRANCH  32  33
ATOM     33  C   UNL A   1      37.980  31.208  29.982  1.00  0.00     0.031 A 
ATOM     34  C   UNL A   1      38.339  31.531  31.406  1.00  0.00     0.074 A 
ATOM     35  C   UNL A   1      38.724  30.278  29.345  1.00  0.00     0.049 A 
ATOM     36  N   UNL A   1      39.268  31.016  32.169  1.00  0.00    -0.248 NA
ATOM     37  C   UNL A   1      37.520  32.564  32.059  1.00  0.00     0.031 C 
ATOM     38  C   UNL A   1      38.479  29.776  28.004  1.00  0.00     0.029 A 
ATOM     39  N   UNL A   1      39.848  29.583  29.743  1.00  0.00    -0.354 N 
ATOM     40  C   UNL A   1      39.114  31.631  33.400  1.00  0.00     0.074 A 
ATOM     41  C   UNL A   1      38.061  32.613  33.262  1.00  0.00     0.031 C 
ATOM     42  C   UNL A   1      39.443  28.903  27.658  1.00  0.00     0.029 A 
ATOM     43  C   UNL A   1      40.364  28.742  28.780  1.00  0.00     0.049 A 
ATOM     44  H   UNL A   1      40.246  29.679  30.639  1.00  0.00     0.167 HD
ATOM     45  C   UNL A   1      39.757  31.386  34.565  1.00  0.00     0.037 A 
ATOM     46  C   UNL A   1      41.435  27.919  28.802  1.00  0.00     0.037 A 
ATOM     47  C   UNL A   1      40.832  30.454  34.729  1.00  0.00     0.049 A 
ATOM     48  C   UNL A   1      42.237  27.768  30.071  1.00  0.00     0.074 A 
ATOM     49  C   UNL A   1      41.555  30.169  35.872  1.00  0.00     0.029 A 
ATOM     50  N   UNL A   1      41.357  29.670  33.713  1.00  0.00    -0.354 N 
ATOM     51  N   UNL A   1      42.034  28.310  31.247  1.00  0.00    -0.248 NA
ATOM     52  C   UNL A   1      43.403  26.869  30.024  1.00  0.00     0.031 C 
ATOM     53  C   UNL A   1      42.554  29.248  35.537  1.00  0.00     0.029 A 
ATOM     54  C   UNL A   1      42.420  28.926  34.196  1.00  0.00     0.049 A 
ATOM     55  H   UNL A   1      41.024  29.648  32.787  1.00  0.00     0.167 HD
ATOM     56  C   UNL A   1      43.006  27.779  32.086  1.00  0.00     0.074 A 
ATOM     57  C   UNL A   1      43.807  26.878  31.287  1.00  0.00     0.031 C 
ATOM     58  C   UNL A   1      43.205  28.013  33.406  1.00  0.00     0.037 A 
BRANCH  45  59
ATOM     59  C   UNL A   1      39.295  32.190  35.738  1.00  0.00     0.057 A 
ATOM     60  C   UNL A   1      38.315  31.703  36.613  1.00  0.00     0.134 A 
ATOM     61  C   UNL A   1      39.760  33.493  35.933  1.00  0.00     0.134 A 
ATOM     62  F   UNL A   1      37.805  30.473  36.448  1.00  0.00    -0.206 F 
ATOM     63  C   UNL A   1      37.782  32.505  37.622  1.00  0.00     0.040 A 
ATOM     64  C   UNL A   1      39.252  34.296  36.953  1.00  0.00     0.040 A 
ATOM     65  F   UNL A   1      40.687  34.016  35.116  1.00  0.00    -0.206 F 
ATOM     66  C   UNL A   1      38.252  33.806  37.792  1.00  0.00     0.006 A 
ENDBRANCH  45  59
BRANCH  46  67
ATOM     67  C   UNL A   1      41.818  27.121  27.603  1.00  0.00     0.057 A 
ATOM     68  C   UNL A   1      42.583  27.682  26.573  1.00  0.00     0.134 A 
ATOM     69  C   UNL A   1      41.350  25.815  27.416  1.00  0.00     0.134 A 
ATOM     70  F   UNL A   1      43.030  28.943  26.674  1.00  0.00    -0.206 F 
ATOM     71  C   UNL A   1      42.852  26.983  25.393  1.00  0.00     0.040 A 
ATOM     72  C   UNL A   1      41.626  25.099  26.248  1.00  0.00     0.040 A 
ATOM     73  F   UNL A   1      40.598  25.224  28.355  1.00  0.00    -0.206 F 
ATOM     74  C   UNL A   1      42.372  25.686  25.228  1.00  0.00     0.006 A 
ENDBRANCH  46  67
BRANCH  58  75
ATOM     75  C   UNL A   1      44.301  27.258  34.098  1.00  0.00     0.057 A 
ATOM     76  C   UNL A   1      45.598  27.772  34.214  1.00  0.00     0.134 A 
ATOM     77  C   UNL A   1      44.034  26.030  34.719  1.00  0.00     0.134 A 
ATOM     78  F   UNL A   1      45.922  28.936  33.632  1.00  0.00    -0.206 F 
ATOM     79  C   UNL A   1      46.593  27.089  34.916  1.00  0.00     0.040 A 
ATOM     80  C   UNL A   1      45.013  25.350  35.444  1.00  0.00     0.040 A 
ATOM     81  F   UNL A   1      42.810  25.485  34.652  1.00  0.00    -0.206 F 
ATOM     82  C   UNL A   1      46.298  25.878  35.542  1.00  0.00     0.006 A 
ENDBRANCH  58  75
ENDBRANCH  32  33
ENDBRANCH  25  27
ENDBRANCH  24  25
ENDBRANCH  23  24
ENDBRANCH   1  23
TORSDOF 15
ENDMDL
MODEL 2
REMARK VINA RESULT:     -11.0      0.878      2.171
REMARK SMILES O=C(CC1(NC(=O)C2(c3ccccc3)CC2)CCC1)OCCOC(=O)c1ccc(-c2c3nc(c(-c4c(F)cccc4F)c4ccc([nH]4)c(-c4c(F)cccc4F)c4nc(c(-c5c(F)cccc5F)c5ccc2[nH]5)C=C4)C=C3)cc1
REMARK SMILES IDX 21 1 20 2 2 3 1 4 3 5 4 6 17 7 19 8 18 9 5 10 6 11 7 13 8 14
REMARK SMILES IDX 15 15 16 16 9 17 10 18 14 19 11 20 13 21 12 22 22 23 23 24
REMARK SMILES IDX 24 25 25 26 26 27 27 28 79 29 28 30 78 31 29 32 30 33 31 34
REMARK SMILES IDX 72 35 32 36 77 37 71 38 73 39 33 40 76 41 70 42 69 43 34 45
REMARK SMILES IDX 60 46 43 47 59 48 44 49 47 50 58 51 74 52 45 53 46 54 57 56
REMARK SMILES IDX 75 57 48 58 35 59 36 60 41 61 37 62 38 63 40 64 42 65 39 66
REMARK SMILES IDX 61 67 62 68 67 69 63 70 64 71 66 72 68 73 65 74 49 75 50 76
REMARK SMILES IDX 55 77 51 78 52 79 54 80 56 81 53 82
REMARK H PARENT 5 12 73 44 47 55
REMARK Flexibility Score: inf
ROOT
ATOM      1  C   UNL A   1      31.571  31.052  26.349  1.00  0.00     0.274 C 
ENDROOT
BRANCH   1   2
ATOM      2  O   UNL A   1      31.924  29.992  27.297  1.00  0.00    -0.462 OA
BRANCH   2   3
ATOM      3  C   UNL A   1      31.608  28.666  27.114  1.00  0.00     0.308 C 
ATOM      4  O   UNL A   1      31.312  27.939  28.054  1.00  0.00    -0.252 OA
BRANCH   3   5
ATOM      5  C   UNL A   1      31.707  28.188  25.703  1.00  0.00     0.151 C 
BRANCH   5   6
ATOM      6  C   UNL A   1      32.967  27.519  25.153  1.00  0.00     0.051 C 
ATOM      7  C   UNL A   1      34.104  27.421  26.213  1.00  0.00     0.029 C 
ATOM      8  C   UNL A   1      32.890  25.960  25.189  1.00  0.00     0.029 C 
ATOM      9  C   UNL A   1      34.084  25.892  26.126  1.00  0.00     0.005 C 
BRANCH   6  10
ATOM     10  N   UNL A   1      33.463  28.001  23.834  1.00  0.00    -0.349 N 
ATOM     11  C   UNL A   1      33.171  27.653  22.531  1.00  0.00     0.231 C 
ATOM     12  H   UNL A   1      34.137  28.715  23.906  1.00  0.00     0.164 HD
ATOM     13  O   UNL A   1      33.994  27.929  21.659  1.00  0.00    -0.274 OA
BRANCH  11  14
ATOM     14  C   UNL A   1      31.837  27.049  22.128  1.00  0.00     0.074 C 
ATOM     15  C   UNL A   1      31.940  26.054  20.958  1.00  0.00     0.023 C 
ATOM     16  C   UNL A   1      31.671  25.533  22.329  1.00  0.00     0.023 C 
BRANCH  14  17
ATOM     17  C   UNL A   1      30.571  27.890  22.346  1.00  0.00    -0.032 A 
ATOM     18  C   UNL A   1      30.553  29.254  22.054  1.00  0.00     0.005 A 
ATOM     19  C   UNL A   1      29.415  27.400  22.957  1.00  0.00     0.005 A 
ATOM     20  C   UNL A   1      29.568  30.136  22.497  1.00  0.00     0.000 A 
ATOM     21  C   UNL A   1      28.360  28.257  23.329  1.00  0.00     0.000 A 
ATOM     22  C   UNL A   1      28.450  29.631  23.126  1.00  0.00     0.000 A 
ENDBRANCH  14  17
ENDBRANCH  11  14
ENDBRANCH   6  10
ENDBRANCH   5   6
ENDBRANCH   3   5
ENDBRANCH   2   3
ENDBRANCH   1   2
BRANCH   1  23
ATOM     23  C   UNL A   1      31.534  32.450  27.018  1.00  0.00     0.275 C 
BRANCH  23  24
ATOM     24  O   UNL A   1      32.818  33.129  26.893  1.00  0.00    -0.458 OA
BRANCH  24  25
ATOM     25  C   UNL A   1      33.313  33.733  28.012  1.00  0.00     0.338 C 
ATOM     26  O   UNL A   1      32.735  34.577  28.678  1.00  0.00    -0.246 OA
BRANCH  25  27
ATOM     27  C   UNL A   1      34.583  33.079  28.459  1.00  0.00     0.060 A 
ATOM     28  C   UNL A   1      34.551  31.708  28.756  1.00  0.00     0.016 A 
ATOM     29  C   UNL A   1      35.812  33.747  28.508  1.00  0.00     0.016 A 
ATOM     30  C   UNL A   1      35.732  31.000  29.054  1.00  0.00     0.010 A 
ATOM     31  C   UNL A   1      36.999  33.031  28.789  1.00  0.00     0.010 A 
ATOM     32  C   UNL A   1      36.973  31.649  29.076  1.00  0.00    -0.014 A 
BRANCH  32  33
ATOM     33  C   UNL A   1      38.165  30.975  29.694  1.00  0.00     0.031 A 
ATOM     34  C   UNL A   1      38.482  31.342  31.117  1.00  0.00     0.074 A 
ATOM     35  C   UNL A   1      38.939  30.041  29.101  1.00  0.00     0.049 A 
ATOM     36  N   UNL A   1      39.399  30.863  31.917  1.00  0.00    -0.248 NA
ATOM     37  C   UNL A   1      37.629  32.377  31.721  1.00  0.00     0.031 C 
ATOM     38  C   UNL A   1      38.737  29.499  27.769  1.00  0.00     0.029 A 
ATOM     39  N   UNL A   1      40.065  29.376  29.547  1.00  0.00    -0.354 N 
ATOM     40  C   UNL A   1      39.203  31.508  33.127  1.00  0.00     0.074 A 
ATOM     41  C   UNL A   1      38.138  32.467  32.936  1.00  0.00     0.031 C 
ATOM     42  C   UNL A   1      39.724  28.634  27.471  1.00  0.00     0.029 A 
ATOM     43  C   UNL A   1      40.619  28.520  28.619  1.00  0.00     0.049 A 
ATOM     44  H   UNL A   1      40.438  29.503  30.449  1.00  0.00     0.167 HD
ATOM     45  C   UNL A   1      39.820  31.304  34.314  1.00  0.00     0.037 A 
ATOM     46  C   UNL A   1      41.703  27.716  28.691  1.00  0.00     0.037 A 
ATOM     47  C   UNL A   1      40.905  30.396  34.530  1.00  0.00     0.049 A 
ATOM     48  C   UNL A   1      42.474  27.612  29.983  1.00  0.00     0.074 A 
ATOM     49  C   UNL A   1      41.604  30.154  35.699  1.00  0.00     0.029 A 
ATOM     50  N   UNL A   1      41.469  29.595  33.549  1.00  0.00    -0.354 N 
ATOM     51  N   UNL A   1      42.232  28.181  31.138  1.00  0.00    -0.248 NA
ATOM     52  C   UNL A   1      43.656  26.732  29.990  1.00  0.00     0.031 C 
ATOM     53  C   UNL A   1      42.626  29.241  35.414  1.00  0.00     0.029 A 
ATOM     54  C   UNL A   1      42.531  28.882  34.079  1.00  0.00     0.049 A 
ATOM     55  H   UNL A   1      41.161  29.542  32.616  1.00  0.00     0.167 HD
ATOM     56  C   UNL A   1      43.191  27.690  32.016  1.00  0.00     0.074 A 
ATOM     57  C   UNL A   1      44.027  26.782  31.262  1.00  0.00     0.031 C 
ATOM     58  C   UNL A   1      43.352  27.962  33.333  1.00  0.00     0.037 A 
BRANCH  45  59
ATOM     59  C   UNL A   1      39.315  32.131  35.453  1.00  0.00     0.057 A 
ATOM     60  C   UNL A   1      38.342  31.640  36.334  1.00  0.00     0.134 A 
ATOM     61  C   UNL A   1      39.730  33.457  35.607  1.00  0.00     0.134 A 
ATOM     62  F   UNL A   1      37.879  30.386  36.207  1.00  0.00    -0.206 F 
ATOM     63  C   UNL A   1      37.768  32.456  37.308  1.00  0.00     0.040 A 
ATOM     64  C   UNL A   1      39.180  34.275  36.592  1.00  0.00     0.040 A 
ATOM     65  F   UNL A   1      40.646  33.985  34.782  1.00  0.00    -0.206 F 
ATOM     66  C   UNL A   1      38.188  33.779  37.437  1.00  0.00     0.006 A 
ENDBRANCH  45  59
BRANCH  46  67
ATOM     67  C   UNL A   1      42.129  26.893  27.524  1.00  0.00     0.057 A 
ATOM     68  C   UNL A   1      42.917  27.437  26.502  1.00  0.00     0.134 A 
ATOM     69  C   UNL A   1      41.683  25.577  27.357  1.00  0.00     0.134 A 
ATOM     70  F   UNL A   1      43.346  28.706  26.584  1.00  0.00    -0.206 F 
ATOM     71  C   UNL A   1      43.228  26.713  25.348  1.00  0.00     0.040 A 
ATOM     72  C   UNL A   1      42.001  24.835  26.215  1.00  0.00     0.040 A 
ATOM     73  F   UNL A   1      40.911  24.999  28.289  1.00  0.00    -0.206 F 
ATOM     74  C   UNL A   1      42.769  25.406  25.203  1.00  0.00     0.006 A 
ENDBRANCH  46  67
BRANCH  58  75
ATOM     75  C   UNL A   1      44.442  27.244  34.073  1.00  0.00     0.057 A 
ATOM     76  C   UNL A   1      45.719  27.796  34.231  1.00  0.00     0.134 A 
ATOM     77  C   UNL A   1      44.186  26.016  34.698  1.00  0.00     0.134 A 
ATOM     78  F   UNL A   1      46.033  28.963  33.649  1.00  0.00    -0.206 F 
ATOM     79  C   UNL A   1      46.706  27.147  34.976  1.00  0.00     0.040 A 
ATOM     80  C   UNL A   1      45.157  25.370  35.465  1.00  0.00     0.040 A 
ATOM     81  F   UNL A   1      42.981  25.436  34.592  1.00  0.00    -0.206 F 
ATOM     82  C   UNL A   1      46.422  25.935  35.604  1.00  0.00     0.006 A 
ENDBRANCH  58  75
ENDBRANCH  32  33
ENDBRANCH  25  27
ENDBRANCH  24  25
ENDBRANCH  23  24
ENDBRANCH   1  23
TORSDOF 15
ENDMDL
MODEL 3
REMARK VINA RESULT:     -10.9      4.779      9.918
REMARK SMILES O=C(CC1(NC(=O)C2(c3ccccc3)CC2)CCC1)OCCOC(=O)c1ccc(-c2c3nc(c(-c4c(F)cccc4F)c4ccc([nH]4)c(-c4c(F)cccc4F)c4nc(c(-c5c(F)cccc5F)c5ccc2[nH]5)C=C4)C=C3)cc1
REMARK SMILES IDX 21 1 20 2 2 3 1 4 3 5 4 6 17 7 19 8 18 9 5 10 6 11 7 13 8 14
REMARK SMILES IDX 15 15 16 16 9 17 10 18 14 19 11 20 13 21 12 22 22 23 23 24
REMARK SMILES IDX 24 25 25 26 26 27 27 28 79 29 28 30 78 31 29 32 30 33 31 34
REMARK SMILES IDX 72 35 32 36 77 37 71 38 73 39 33 40 76 41 70 42 69 43 34 45
REMARK SMILES IDX 60 46 43 47 59 48 44 49 47 50 58 51 74 52 45 53 46 54 57 56
REMARK SMILES IDX 75 57 48 58 35 59 36 60 41 61 37 62 38 63 40 64 42 65 39 66
REMARK SMILES IDX 61 67 62 68 67 69 63 70 64 71 66 72 68 73 65 74 49 75 50 76
REMARK SMILES IDX 55 77 51 78 52 79 54 80 56 81 53 82
REMARK H PARENT 5 12 73 44 47 55
REMARK Flexibility Score: inf
ROOT
ATOM      1  C   UNL A   1      37.901  20.251  24.963  1.00  0.00     0.274 C 
ENDROOT
BRANCH   1   2
ATOM      2  O   UNL A   1      37.381  21.296  25.850  1.00  0.00    -0.462 OA
BRANCH   2   3
ATOM      3  C   UNL A   1      36.316  22.106  25.534  1.00  0.00     0.308 C 
ATOM      4  O   UNL A   1      36.189  23.222  26.024  1.00  0.00    -0.252 OA
BRANCH   3   5
ATOM      5  C   UNL A   1      35.321  21.497  24.602  1.00  0.00     0.151 C 
BRANCH   5   6
ATOM      6  C   UNL A   1      34.117  20.699  25.100  1.00  0.00     0.051 C 
ATOM      7  C   UNL A   1      32.963  20.643  24.056  1.00  0.00     0.029 C 
ATOM      8  C   UNL A   1      34.285  19.159  24.897  1.00  0.00     0.029 C 
ATOM      9  C   UNL A   1      33.074  19.117  23.979  1.00  0.00     0.005 C 
BRANCH   6  10
ATOM     10  N   UNL A   1      33.626  21.008  26.471  1.00  0.00    -0.349 N 
ATOM     11  C   UNL A   1      32.995  22.104  27.023  1.00  0.00     0.231 C 
ATOM     12  H   UNL A   1      33.783  20.281  27.117  1.00  0.00     0.164 HD
ATOM     13  O   UNL A   1      33.051  22.252  28.243  1.00  0.00    -0.274 OA
BRANCH  11  14
ATOM     14  C   UNL A   1      32.150  23.059  26.198  1.00  0.00     0.074 C 
ATOM     15  C   UNL A   1      30.838  22.439  25.688  1.00  0.00     0.023 C 
ATOM     16  C   UNL A   1      30.781  23.454  26.778  1.00  0.00     0.023 C 
BRANCH  14  17
ATOM     17  C   UNL A   1      32.873  24.155  25.401  1.00  0.00    -0.032 A 
ATOM     18  C   UNL A   1      33.373  25.294  26.034  1.00  0.00     0.005 A 
ATOM     19  C   UNL A   1      32.970  24.160  24.008  1.00  0.00     0.005 A 
ATOM     20  C   UNL A   1      33.762  26.454  25.363  1.00  0.00     0.000 A 
ATOM     21  C   UNL A   1      33.452  25.284  23.309  1.00  0.00     0.000 A 
ATOM     22  C   UNL A   1      33.820  26.444  23.986  1.00  0.00     0.000 A 
ENDBRANCH  14  17
ENDBRANCH  11  14
ENDBRANCH   6  10
ENDBRANCH   5   6
ENDBRANCH   3   5
ENDBRANCH   2   3
ENDBRANCH   1   2
BRANCH   1  23
ATOM     23  C   UNL A   1      38.918  19.325  25.680  1.00  0.00     0.275 C 
BRANCH  23  24
ATOM     24  O   UNL A   1      40.286  19.639  25.286  1.00  0.00    -0.458 OA
BRANCH  24  25
ATOM     25  C   UNL A   1      41.222  19.687  26.279  1.00  0.00     0.338 C 
ATOM     26  O   UNL A   1      41.913  18.751  26.649  1.00  0.00    -0.246 OA
BRANCH  25  27
ATOM     27  C   UNL A   1      41.458  21.096  26.727  1.00  0.00     0.060 A 
ATOM     28  C   UNL A   1      41.051  22.136  25.878  1.00  0.00     0.016 A 
ATOM     29  C   UNL A   1      41.980  21.422  27.984  1.00  0.00     0.016 A 
ATOM     30  C   UNL A   1      41.120  23.481  26.290  1.00  0.00     0.010 A 
ATOM     31  C   UNL A   1      42.032  22.771  28.403  1.00  0.00     0.010 A 
ATOM     32  C   UNL A   1      41.612  23.820  27.557  1.00  0.00    -0.014 A 
BRANCH  32  33
ATOM     33  C   UNL A   1      41.976  25.244  27.868  1.00  0.00     0.031 A 
ATOM     34  C   UNL A   1      43.344  25.697  27.439  1.00  0.00     0.074 A 
ATOM     35  C   UNL A   1      41.169  26.157  28.450  1.00  0.00     0.049 A 
ATOM     36  N   UNL A   1      43.890  26.883  27.511  1.00  0.00    -0.248 NA
ATOM     37  C   UNL A   1      44.201  24.669  26.827  1.00  0.00     0.031 C 
ATOM     38  C   UNL A   1      39.792  25.931  28.852  1.00  0.00     0.029 A 
ATOM     39  N   UNL A   1      41.393  27.471  28.810  1.00  0.00    -0.354 N 
ATOM     40  C   UNL A   1      45.134  26.750  26.915  1.00  0.00     0.074 A 
ATOM     41  C   UNL A   1      45.295  25.357  26.562  1.00  0.00     0.031 C 
ATOM     42  C   UNL A   1      39.303  27.031  29.454  1.00  0.00     0.029 A 
ATOM     43  C   UNL A   1      40.326  28.074  29.442  1.00  0.00     0.049 A 
ATOM     44  H   UNL A   1      42.241  27.937  28.631  1.00  0.00     0.167 HD
ATOM     45  C   UNL A   1      46.056  27.701  26.642  1.00  0.00     0.037 A 
ATOM     46  C   UNL A   1      40.175  29.324  29.932  1.00  0.00     0.037 A 
ATOM     47  C   UNL A   1      45.950  29.080  27.014  1.00  0.00     0.049 A 
ATOM     48  C   UNL A   1      41.279  30.337  29.751  1.00  0.00     0.074 A 
ATOM     49  C   UNL A   1      46.858  30.101  26.799  1.00  0.00     0.029 A 
ATOM     50  N   UNL A   1      44.880  29.629  27.703  1.00  0.00    -0.354 N 
ATOM     51  N   UNL A   1      42.423  30.209  29.124  1.00  0.00    -0.248 NA
ATOM     52  C   UNL A   1      41.060  31.677  30.322  1.00  0.00     0.031 C 
ATOM     53  C   UNL A   1      46.359  31.260  27.403  1.00  0.00     0.029 A 
ATOM     54  C   UNL A   1      45.121  30.969  27.952  1.00  0.00     0.049 A 
ATOM     55  H   UNL A   1      44.071  29.139  27.975  1.00  0.00     0.167 HD
ATOM     56  C   UNL A   1      43.031  31.458  29.179  1.00  0.00     0.074 A 
ATOM     57  C   UNL A   1      42.136  32.331  29.907  1.00  0.00     0.031 C 
ATOM     58  C   UNL A   1      44.220  31.844  28.659  1.00  0.00     0.037 A 
BRANCH  45  59
ATOM     59  C   UNL A   1      47.276  27.227  25.918  1.00  0.00     0.057 A 
ATOM     60  C   UNL A   1      48.394  26.745  26.613  1.00  0.00     0.134 A 
ATOM     61  C   UNL A   1      47.369  27.345  24.529  1.00  0.00     0.134 A 
ATOM     62  F   UNL A   1      48.373  26.648  27.952  1.00  0.00    -0.206 F 
ATOM     63  C   UNL A   1      49.581  26.437  25.951  1.00  0.00     0.040 A 
ATOM     64  C   UNL A   1      48.543  27.016  23.853  1.00  0.00     0.040 A 
ATOM     65  F   UNL A   1      46.335  27.814  23.813  1.00  0.00    -0.206 F 
ATOM     66  C   UNL A   1      49.656  26.573  24.566  1.00  0.00     0.006 A 
ENDBRANCH  45  59
BRANCH  46  67
ATOM     67  C   UNL A   1      38.917  29.738  30.613  1.00  0.00     0.057 A 
ATOM     68  C   UNL A   1      38.699  29.456  31.967  1.00  0.00     0.134 A 
ATOM     69  C   UNL A   1      37.868  30.338  29.907  1.00  0.00     0.134 A 
ATOM     70  F   UNL A   1      39.651  28.847  32.691  1.00  0.00    -0.206 F 
ATOM     71  C   UNL A   1      37.480  29.735  32.590  1.00  0.00     0.040 A 
ATOM     72  C   UNL A   1      36.648  30.639  30.522  1.00  0.00     0.040 A 
ATOM     73  F   UNL A   1      38.002  30.621  28.603  1.00  0.00    -0.206 F 
ATOM     74  C   UNL A   1      36.449  30.328  31.866  1.00  0.00     0.006 A 
ENDBRANCH  46  67
BRANCH  58  75
ATOM     75  C   UNL A   1      44.622  33.282  28.810  1.00  0.00     0.057 A 
ATOM     76  C   UNL A   1      45.371  33.732  29.903  1.00  0.00     0.134 A 
ATOM     77  C   UNL A   1      44.314  34.213  27.809  1.00  0.00     0.134 A 
ATOM     78  F   UNL A   1      45.689  32.895  30.901  1.00  0.00    -0.206 F 
ATOM     79  C   UNL A   1      45.794  35.060  30.000  1.00  0.00     0.040 A 
ATOM     80  C   UNL A   1      44.751  35.536  27.883  1.00  0.00     0.040 A 
ATOM     81  F   UNL A   1      43.605  33.845  26.731  1.00  0.00    -0.206 F 
ATOM     82  C   UNL A   1      45.491  35.964  28.982  1.00  0.00     0.006 A 
ENDBRANCH  58  75
ENDBRANCH  32  33
ENDBRANCH  25  27
ENDBRANCH  24  25
ENDBRANCH  23  24
ENDBRANCH   1  23
TORSDOF 15
ENDMDL
