MODEL 1
REMARK VINA RESULT:     -12.1      0.000      0.000
REMARK SMILES CC1=C[C@H](C)[C@H](CN2C[C@@]34C=C[C@@H](O3)[C@H](C(=O)OCCOC(=O)c3ccc(-c5c6nc(c(-c7c(F)cccc7F)c7ccc([nH]7)c(-c7c(F)cccc7F)c7nc(c(-c8c(F)cccc8F)c8ccc5[nH]8)C=C7)C=C6)cc3)[C@@H]4C2=O)[C@H](C)C1
REMARK SMILES IDX 19 1 18 2 16 3 17 4 15 5 8 6 9 7 79 8 10 9 78 10 80 11 11 12
REMARK SMILES IDX 14 13 12 14 13 15 7 16 6 17 1 18 2 19 3 20 83 21 4 22 81 23
REMARK SMILES IDX 5 24 82 25 20 26 21 27 22 28 23 29 24 30 25 31 77 32 26 33
REMARK SMILES IDX 76 34 27 35 28 36 29 37 70 38 30 39 75 40 69 41 71 42 31 43
REMARK SMILES IDX 74 44 68 45 67 46 32 48 58 49 41 50 57 51 42 52 45 53 56 54
REMARK SMILES IDX 72 55 43 56 44 57 55 59 73 60 46 61 33 62 34 63 39 64 35 65
REMARK SMILES IDX 36 66 38 67 40 68 37 69 59 70 60 71 65 72 61 73 62 74 64 75
REMARK SMILES IDX 66 76 63 77 47 78 48 79 53 80 49 81 50 82 52 83 54 84 51 85
REMARK H PARENT 71 47 45 58
REMARK Flexibility Score: inf
ROOT
ATOM      1  C   UNL A   1      32.873  29.382  24.607  1.00  0.00     0.274 C 
ENDROOT
BRANCH   1   2
ATOM      2  O   UNL A   1      32.234  28.283  23.923  1.00  0.00    -0.462 OA
BRANCH   2   3
ATOM      3  C   UNL A   1      32.962  27.151  23.939  1.00  0.00     0.312 C 
ATOM      4  O   UNL A   1      33.880  26.898  23.159  1.00  0.00    -0.252 OA
BRANCH   3   5
ATOM      5  C   UNL A   1      32.682  26.213  25.060  1.00  0.00     0.148 C 
ATOM      6  N   UNL A   1      31.038  23.007  24.046  1.00  0.00    -0.339 N 
ATOM      7  C   UNL A   1      30.755  23.134  25.505  1.00  0.00     0.160 C 
ATOM      8  C   UNL A   1      31.260  24.360  23.551  1.00  0.00     0.230 C 
ATOM      9  C   UNL A   1      31.115  24.589  25.839  1.00  0.00     0.117 C 
ATOM     10  C   UNL A   1      32.042  24.925  24.681  1.00  0.00     0.133 C 
ATOM     11  O   UNL A   1      31.135  24.787  22.426  1.00  0.00    -0.274 OA
ATOM     12  C   UNL A   1      30.027  25.608  26.042  1.00  0.00     0.009 C 
ATOM     13  O   UNL A   1      32.009  25.001  26.894  1.00  0.00    -0.360 OA
ATOM     14  C   UNL A   1      30.636  26.741  26.421  1.00  0.00     0.004 C 
ATOM     15  C   UNL A   1      32.095  26.446  26.447  1.00  0.00     0.157 C 
BRANCH   6  16
ATOM     16  C   UNL A   1      32.180  22.184  23.654  1.00  0.00     0.124 C 
BRANCH  16  17
ATOM     17  C   UNL A   1      33.239  21.698  24.637  1.00  0.00     0.018 C 
ATOM     18  C   UNL A   1      37.233  19.710  24.958  1.00  0.00     0.039 C 
ATOM     19  C   UNL A   1      35.878  20.354  24.863  1.00  0.00    -0.077 C 
ATOM     20  C   UNL A   1      34.759  19.620  24.841  1.00  0.00    -0.025 C 
ATOM     21  C   UNL A   1      35.878  21.845  24.808  1.00  0.00     0.034 C 
ATOM     22  C   UNL A   1      33.358  20.148  24.709  1.00  0.00     0.014 C 
ATOM     23  C   UNL A   1      34.570  22.515  24.368  1.00  0.00    -0.005 C 
ATOM     24  C   UNL A   1      32.676  19.359  23.583  1.00  0.00     0.012 C 
ATOM     25  C   UNL A   1      34.757  23.092  22.940  1.00  0.00     0.008 C 
ENDBRANCH  16  17
ENDBRANCH   6  16
ENDBRANCH   3   5
ENDBRANCH   2   3
ENDBRANCH   1   2
BRANCH   1  26
ATOM     26  C   UNL A   1      31.860  30.135  25.475  1.00  0.00     0.275 C 
BRANCH  26  27
ATOM     27  O   UNL A   1      32.295  30.269  26.847  1.00  0.00    -0.458 OA
BRANCH  27  28
ATOM     28  C   UNL A   1      32.913  31.437  27.132  1.00  0.00     0.338 C 
ATOM     29  O   UNL A   1      32.428  32.557  27.106  1.00  0.00    -0.246 OA
BRANCH  28  30
ATOM     30  C   UNL A   1      34.298  31.219  27.578  1.00  0.00     0.060 A 
ATOM     31  C   UNL A   1      34.692  29.933  27.935  1.00  0.00     0.016 A 
ATOM     32  C   UNL A   1      35.129  32.300  27.857  1.00  0.00     0.016 A 
ATOM     33  C   UNL A   1      35.848  29.722  28.678  1.00  0.00     0.010 A 
ATOM     34  C   UNL A   1      36.355  32.075  28.497  1.00  0.00     0.010 A 
ATOM     35  C   UNL A   1      36.711  30.789  28.944  1.00  0.00    -0.014 A 
BRANCH  35  36
ATOM     36  C   UNL A   1      37.986  30.554  29.673  1.00  0.00     0.031 A 
ATOM     37  C   UNL A   1      39.067  29.706  29.059  1.00  0.00     0.074 A 
ATOM     38  C   UNL A   1      38.167  31.089  30.898  1.00  0.00     0.049 A 
ATOM     39  N   UNL A   1      40.151  29.223  29.612  1.00  0.00    -0.248 NA
ATOM     40  C   UNL A   1      38.903  29.345  27.642  1.00  0.00     0.031 C 
ATOM     41  C   UNL A   1      37.219  31.967  31.589  1.00  0.00     0.029 A 
ATOM     42  N   UNL A   1      39.202  30.955  31.788  1.00  0.00    -0.354 N 
ATOM     43  C   UNL A   1      40.772  28.461  28.629  1.00  0.00     0.074 A 
ATOM     44  C   UNL A   1      39.946  28.548  27.444  1.00  0.00     0.031 C 
ATOM     45  C   UNL A   1      37.715  32.291  32.792  1.00  0.00     0.029 A 
ATOM     46  C   UNL A   1      38.971  31.580  32.991  1.00  0.00     0.049 A 
ATOM     47  H   UNL A   1      40.030  30.460  31.587  1.00  0.00     0.167 HD
ATOM     48  C   UNL A   1      41.922  27.752  28.714  1.00  0.00     0.037 A 
ATOM     49  C   UNL A   1      39.658  31.540  34.148  1.00  0.00     0.037 A 
ATOM     50  C   UNL A   1      42.762  27.708  29.884  1.00  0.00     0.049 A 
ATOM     51  C   UNL A   1      40.907  30.709  34.228  1.00  0.00     0.074 A 
ATOM     52  C   UNL A   1      43.968  27.049  30.053  1.00  0.00     0.029 A 
ATOM     53  N   UNL A   1      42.487  28.352  31.080  1.00  0.00    -0.354 N 
ATOM     54  N   UNL A   1      41.477  29.984  33.297  1.00  0.00    -0.248 NA
ATOM     55  C   UNL A   1      41.602  30.682  35.522  1.00  0.00     0.031 C 
ATOM     56  C   UNL A   1      44.400  27.258  31.368  1.00  0.00     0.029 A 
ATOM     57  C   UNL A   1      43.488  28.086  32.000  1.00  0.00     0.049 A 
ATOM     58  H   UNL A   1      41.697  28.915  31.251  1.00  0.00     0.167 HD
ATOM     59  C   UNL A   1      42.606  29.431  33.886  1.00  0.00     0.074 A 
ATOM     60  C   UNL A   1      42.651  29.920  35.248  1.00  0.00     0.031 C 
ATOM     61  C   UNL A   1      43.522  28.590  33.348  1.00  0.00     0.037 A 
BRANCH  48  62
ATOM     62  C   UNL A   1      42.335  26.933  27.527  1.00  0.00     0.057 A 
ATOM     63  C   UNL A   1      41.944  25.599  27.367  1.00  0.00     0.134 A 
ATOM     64  C   UNL A   1      43.078  27.519  26.493  1.00  0.00     0.134 A 
ATOM     65  F   UNL A   1      41.241  24.977  28.325  1.00  0.00    -0.206 F 
ATOM     66  C   UNL A   1      42.284  24.873  26.224  1.00  0.00     0.040 A 
ATOM     67  C   UNL A   1      43.404  26.810  25.335  1.00  0.00     0.040 A 
ATOM     68  F   UNL A   1      43.479  28.795  26.580  1.00  0.00    -0.206 F 
ATOM     69  C   UNL A   1      43.008  25.481  25.199  1.00  0.00     0.006 A 
ENDBRANCH  48  62
BRANCH  49  70
ATOM     70  C   UNL A   1      39.148  32.259  35.344  1.00  0.00     0.057 A 
ATOM     71  C   UNL A   1      39.471  33.598  35.580  1.00  0.00     0.134 A 
ATOM     72  C   UNL A   1      38.344  31.613  36.292  1.00  0.00     0.134 A 
ATOM     73  F   UNL A   1      40.256  34.266  34.720  1.00  0.00    -0.206 F 
ATOM     74  C   UNL A   1      39.032  34.265  36.725  1.00  0.00     0.040 A 
ATOM     75  C   UNL A   1      37.873  32.275  37.425  1.00  0.00     0.040 A 
ATOM     76  F   UNL A   1      37.994  30.329  36.122  1.00  0.00    -0.206 F 
ATOM     77  C   UNL A   1      38.226  33.604  37.649  1.00  0.00     0.006 A 
ENDBRANCH  49  70
BRANCH  61  78
ATOM     78  C   UNL A   1      44.668  28.179  34.223  1.00  0.00     0.057 A 
ATOM     79  C   UNL A   1      45.841  28.939  34.309  1.00  0.00     0.134 A 
ATOM     80  C   UNL A   1      44.582  27.025  35.012  1.00  0.00     0.134 A 
ATOM     81  F   UNL A   1      45.992  30.046  33.566  1.00  0.00    -0.206 F 
ATOM     82  C   UNL A   1      46.899  28.553  35.134  1.00  0.00     0.040 A 
ATOM     83  C   UNL A   1      45.622  26.644  35.860  1.00  0.00     0.040 A 
ATOM     84  F   UNL A   1      43.483  26.258  34.980  1.00  0.00    -0.206 F 
ATOM     85  C   UNL A   1      46.787  27.405  35.918  1.00  0.00     0.006 A 
ENDBRANCH  61  78
ENDBRANCH  35  36
ENDBRANCH  28  30
ENDBRANCH  27  28
ENDBRANCH  26  27
ENDBRANCH   1  26
TORSDOF 13
ENDMDL
MODEL 2
REMARK VINA RESULT:     -12.1      3.620      8.718
REMARK SMILES CC1=C[C@H](C)[C@H](CN2C[C@@]34C=C[C@@H](O3)[C@H](C(=O)OCCOC(=O)c3ccc(-c5c6nc(c(-c7c(F)cccc7F)c7ccc([nH]7)c(-c7c(F)cccc7F)c7nc(c(-c8c(F)cccc8F)c8ccc5[nH]8)C=C7)C=C6)cc3)[C@@H]4C2=O)[C@H](C)C1
REMARK SMILES IDX 19 1 18 2 16 3 17 4 15 5 8 6 9 7 79 8 10 9 78 10 80 11 11 12
REMARK SMILES IDX 14 13 12 14 13 15 7 16 6 17 1 18 2 19 3 20 83 21 4 22 81 23
REMARK SMILES IDX 5 24 82 25 20 26 21 27 22 28 23 29 24 30 25 31 77 32 26 33
REMARK SMILES IDX 76 34 27 35 28 36 29 37 70 38 30 39 75 40 69 41 71 42 31 43
REMARK SMILES IDX 74 44 68 45 67 46 32 48 58 49 41 50 57 51 42 52 45 53 56 54
REMARK SMILES IDX 72 55 43 56 44 57 55 59 73 60 46 61 33 62 34 63 39 64 35 65
REMARK SMILES IDX 36 66 38 67 40 68 37 69 59 70 60 71 65 72 61 73 62 74 64 75
REMARK SMILES IDX 66 76 63 77 47 78 48 79 53 80 49 81 50 82 52 83 54 84 51 85
REMARK H PARENT 71 47 45 58
REMARK Flexibility Score: inf
ROOT
ATOM      1  C   UNL A   1      35.199  21.471  26.379  1.00  0.00     0.274 C 
ENDROOT
BRANCH   1   2
ATOM      2  O   UNL A   1      33.954  21.898  25.787  1.00  0.00    -0.462 OA
BRANCH   2   3
ATOM      3  C   UNL A   1      33.690  23.203  25.985  1.00  0.00     0.312 C 
ATOM      4  O   UNL A   1      33.403  23.702  27.073  1.00  0.00    -0.252 OA
BRANCH   3   5
ATOM      5  C   UNL A   1      33.878  24.091  24.806  1.00  0.00     0.148 C 
ATOM      6  N   UNL A   1      30.711  25.115  23.096  1.00  0.00    -0.339 N 
ATOM      7  C   UNL A   1      31.780  25.336  22.079  1.00  0.00     0.160 C 
ATOM      8  C   UNL A   1      31.215  24.096  24.007  1.00  0.00     0.230 C 
ATOM      9  C   UNL A   1      33.002  24.599  22.644  1.00  0.00     0.117 C 
ATOM     10  C   UNL A   1      32.633  24.525  24.117  1.00  0.00     0.133 C 
ATOM     11  O   UNL A   1      30.594  23.337  24.717  1.00  0.00    -0.274 OA
ATOM     12  C   UNL A   1      33.415  23.270  22.069  1.00  0.00     0.009 C 
ATOM     13  O   UNL A   1      34.310  25.180  22.828  1.00  0.00    -0.360 OA
ATOM     14  C   UNL A   1      34.559  22.932  22.682  1.00  0.00     0.004 C 
ATOM     15  C   UNL A   1      34.861  24.028  23.642  1.00  0.00     0.157 C 
BRANCH   6  16
ATOM     16  C   UNL A   1      30.291  26.270  23.887  1.00  0.00     0.124 C 
BRANCH  16  17
ATOM     17  C   UNL A   1      31.116  27.545  24.011  1.00  0.00     0.018 C 
ATOM     18  C   UNL A   1      31.456  31.434  26.196  1.00  0.00     0.039 C 
ATOM     19  C   UNL A   1      31.335  30.142  25.437  1.00  0.00    -0.077 C 
ATOM     20  C   UNL A   1      30.604  30.058  24.318  1.00  0.00    -0.025 C 
ATOM     21  C   UNL A   1      32.089  28.988  26.009  1.00  0.00     0.034 C 
ATOM     22  C   UNL A   1      30.380  28.818  23.501  1.00  0.00     0.014 C 
ATOM     23  C   UNL A   1      31.722  27.597  25.475  1.00  0.00    -0.005 C 
ATOM     24  C   UNL A   1      28.866  28.684  23.277  1.00  0.00     0.012 C 
ATOM     25  C   UNL A   1      30.949  26.825  26.577  1.00  0.00     0.008 C 
ENDBRANCH  16  17
ENDBRANCH   6  16
ENDBRANCH   3   5
ENDBRANCH   2   3
ENDBRANCH   1   2
BRANCH   1  26
ATOM     26  C   UNL A   1      36.114  20.854  25.317  1.00  0.00     0.275 C 
BRANCH  26  27
ATOM     27  O   UNL A   1      37.270  21.675  25.035  1.00  0.00    -0.458 OA
BRANCH  27  28
ATOM     28  C   UNL A   1      38.406  21.282  25.656  1.00  0.00     0.338 C 
ATOM     29  O   UNL A   1      38.929  20.180  25.615  1.00  0.00    -0.246 OA
BRANCH  28  30
ATOM     30  C   UNL A   1      39.040  22.399  26.375  1.00  0.00     0.060 A 
ATOM     31  C   UNL A   1      38.599  23.694  26.122  1.00  0.00     0.016 A 
ATOM     32  C   UNL A   1      40.200  22.194  27.115  1.00  0.00     0.016 A 
ATOM     33  C   UNL A   1      39.367  24.792  26.492  1.00  0.00     0.010 A 
ATOM     34  C   UNL A   1      40.911  23.302  27.596  1.00  0.00     0.010 A 
ATOM     35  C   UNL A   1      40.521  24.612  27.260  1.00  0.00    -0.014 A 
BRANCH  35  36
ATOM     36  C   UNL A   1      41.304  25.789  27.722  1.00  0.00     0.031 A 
ATOM     37  C   UNL A   1      40.651  26.854  28.562  1.00  0.00     0.074 A 
ATOM     38  C   UNL A   1      42.599  25.913  27.369  1.00  0.00     0.049 A 
ATOM     39  N   UNL A   1      41.101  28.039  28.888  1.00  0.00    -0.248 NA
ATOM     40  C   UNL A   1      39.314  26.550  29.096  1.00  0.00     0.031 C 
ATOM     41  C   UNL A   1      43.366  24.932  26.597  1.00  0.00     0.029 A 
ATOM     42  N   UNL A   1      43.496  26.926  27.599  1.00  0.00    -0.354 N 
ATOM     43  C   UNL A   1      40.085  28.641  29.622  1.00  0.00     0.074 A 
ATOM     44  C   UNL A   1      38.997  27.690  29.696  1.00  0.00     0.031 C 
ATOM     45  C   UNL A   1      44.614  25.392  26.415  1.00  0.00     0.029 A 
ATOM     46  C   UNL A   1      44.710  26.729  26.984  1.00  0.00     0.049 A 
ATOM     47  H   UNL A   1      43.291  27.717  28.149  1.00  0.00     0.167 HD
ATOM     48  C   UNL A   1      40.067  29.877  30.176  1.00  0.00     0.037 A 
ATOM     49  C   UNL A   1      45.765  27.553  26.839  1.00  0.00     0.037 A 
ATOM     50  C   UNL A   1      41.172  30.799  30.136  1.00  0.00     0.049 A 
ATOM     51  C   UNL A   1      45.699  28.935  27.426  1.00  0.00     0.074 A 
ATOM     52  C   UNL A   1      41.262  32.059  30.704  1.00  0.00     0.029 A 
ATOM     53  N   UNL A   1      42.380  30.560  29.500  1.00  0.00    -0.354 N 
ATOM     54  N   UNL A   1      44.731  29.497  28.105  1.00  0.00    -0.248 NA
ATOM     55  C   UNL A   1      46.868  29.799  27.215  1.00  0.00     0.031 C 
ATOM     56  C   UNL A   1      42.509  32.600  30.371  1.00  0.00     0.029 A 
ATOM     57  C   UNL A   1      43.212  31.659  29.638  1.00  0.00     0.049 A 
ATOM     58  H   UNL A   1      42.612  29.732  29.020  1.00  0.00     0.167 HD
ATOM     59  C   UNL A   1      45.180  30.773  28.420  1.00  0.00     0.074 A 
ATOM     60  C   UNL A   1      46.516  30.894  27.874  1.00  0.00     0.031 C 
ATOM     61  C   UNL A   1      44.543  31.757  29.098  1.00  0.00     0.037 A 
BRANCH  48  62
ATOM     62  C   UNL A   1      38.804  30.329  30.847  1.00  0.00     0.057 A 
ATOM     63  C   UNL A   1      37.790  31.003  30.156  1.00  0.00     0.134 A 
ATOM     64  C   UNL A   1      38.571  30.016  32.193  1.00  0.00     0.134 A 
ATOM     65  F   UNL A   1      37.954  31.341  28.868  1.00  0.00    -0.206 F 
ATOM     66  C   UNL A   1      36.594  31.359  30.783  1.00  0.00     0.040 A 
ATOM     67  C   UNL A   1      37.370  30.346  32.824  1.00  0.00     0.040 A 
ATOM     68  F   UNL A   1      39.499  29.366  32.912  1.00  0.00    -0.206 F 
ATOM     69  C   UNL A   1      36.377  31.022  32.118  1.00  0.00     0.006 A 
ENDBRANCH  48  62
BRANCH  49  70
ATOM     70  C   UNL A   1      46.949  27.118  26.055  1.00  0.00     0.057 A 
ATOM     71  C   UNL A   1      47.049  27.379  24.685  1.00  0.00     0.134 A 
ATOM     72  C   UNL A   1      47.997  26.408  26.654  1.00  0.00     0.134 A 
ATOM     73  F   UNL A   1      46.066  28.036  24.049  1.00  0.00    -0.206 F 
ATOM     74  C   UNL A   1      48.137  26.932  23.933  1.00  0.00     0.040 A 
ATOM     75  C   UNL A   1      49.105  25.981  25.922  1.00  0.00     0.040 A 
ATOM     76  F   UNL A   1      47.964  26.129  27.966  1.00  0.00    -0.206 F 
ATOM     77  C   UNL A   1      49.172  26.235  24.554  1.00  0.00     0.006 A 
ENDBRANCH  49  70
BRANCH  61  78
ATOM     78  C   UNL A   1      45.298  33.034  29.318  1.00  0.00     0.057 A 
ATOM     79  C   UNL A   1      45.198  34.113  28.431  1.00  0.00     0.134 A 
ATOM     80  C   UNL A   1      46.110  33.195  30.448  1.00  0.00     0.134 A 
ATOM     81  F   UNL A   1      44.449  34.016  27.322  1.00  0.00    -0.206 F 
ATOM     82  C   UNL A   1      45.898  35.301  28.649  1.00  0.00     0.040 A 
ATOM     83  C   UNL A   1      46.793  34.386  30.690  1.00  0.00     0.040 A 
ATOM     84  F   UNL A   1      46.242  32.201  31.338  1.00  0.00    -0.206 F 
ATOM     85  C   UNL A   1      46.692  35.441  29.786  1.00  0.00     0.006 A 
ENDBRANCH  61  78
ENDBRANCH  35  36
ENDBRANCH  28  30
ENDBRANCH  27  28
ENDBRANCH  26  27
ENDBRANCH   1  26
TORSDOF 13
ENDMDL
MODEL 3
REMARK VINA RESULT:     -12.1      3.807      8.827
REMARK SMILES CC1=C[C@H](C)[C@H](CN2C[C@@]34C=C[C@@H](O3)[C@H](C(=O)OCCOC(=O)c3ccc(-c5c6nc(c(-c7c(F)cccc7F)c7ccc([nH]7)c(-c7c(F)cccc7F)c7nc(c(-c8c(F)cccc8F)c8ccc5[nH]8)C=C7)C=C6)cc3)[C@@H]4C2=O)[C@H](C)C1
REMARK SMILES IDX 19 1 18 2 16 3 17 4 15 5 8 6 9 7 79 8 10 9 78 10 80 11 11 12
REMARK SMILES IDX 14 13 12 14 13 15 7 16 6 17 1 18 2 19 3 20 83 21 4 22 81 23
REMARK SMILES IDX 5 24 82 25 20 26 21 27 22 28 23 29 24 30 25 31 77 32 26 33
REMARK SMILES IDX 76 34 27 35 28 36 29 37 70 38 30 39 75 40 69 41 71 42 31 43
REMARK SMILES IDX 74 44 68 45 67 46 32 48 58 49 41 50 57 51 42 52 45 53 56 54
REMARK SMILES IDX 72 55 43 56 44 57 55 59 73 60 46 61 33 62 34 63 39 64 35 65
REMARK SMILES IDX 36 66 38 67 40 68 37 69 59 70 60 71 65 72 61 73 62 74 64 75
REMARK SMILES IDX 66 76 63 77 47 78 48 79 53 80 49 81 50 82 52 83 54 84 51 85
REMARK H PARENT 71 47 45 58
REMARK Flexibility Score: inf
ROOT
ATOM      1  C   UNL A   1      36.166  22.317  23.797  1.00  0.00     0.274 C 
ENDROOT
BRANCH   1   2
ATOM      2  O   UNL A   1      34.759  22.030  23.946  1.00  0.00    -0.462 OA
BRANCH   2   3
ATOM      3  C   UNL A   1      33.970  22.843  23.218  1.00  0.00     0.312 C 
ATOM      4  O   UNL A   1      34.220  23.220  22.074  1.00  0.00    -0.252 OA
BRANCH   3   5
ATOM      5  C   UNL A   1      32.661  23.197  23.831  1.00  0.00     0.148 C 
ATOM      6  N   UNL A   1      32.754  26.154  26.123  1.00  0.00    -0.339 N 
ATOM      7  C   UNL A   1      31.513  25.418  26.503  1.00  0.00     0.160 C 
ATOM      8  C   UNL A   1      33.646  25.171  25.523  1.00  0.00     0.230 C 
ATOM      9  C   UNL A   1      31.657  24.049  25.822  1.00  0.00     0.117 C 
ATOM     10  C   UNL A   1      32.668  24.378  24.735  1.00  0.00     0.133 C 
ATOM     11  O   UNL A   1      34.853  25.199  25.428  1.00  0.00    -0.274 OA
ATOM     12  C   UNL A   1      32.033  22.838  26.634  1.00  0.00     0.009 C 
ATOM     13  O   UNL A   1      30.673  23.444  24.959  1.00  0.00    -0.360 OA
ATOM     14  C   UNL A   1      31.976  21.791  25.799  1.00  0.00     0.004 C 
ATOM     15  C   UNL A   1      31.580  22.334  24.470  1.00  0.00     0.157 C 
BRANCH   6  16
ATOM     16  C   UNL A   1      32.611  27.272  25.193  1.00  0.00     0.124 C 
BRANCH  16  17
ATOM     17  C   UNL A   1      31.265  27.759  24.670  1.00  0.00     0.018 C 
ATOM     18  C   UNL A   1      29.308  30.461  21.689  1.00  0.00     0.039 C 
ATOM     19  C   UNL A   1      29.956  29.571  22.713  1.00  0.00    -0.077 C 
ATOM     20  C   UNL A   1      30.280  30.029  23.929  1.00  0.00    -0.025 C 
ATOM     21  C   UNL A   1      30.192  28.163  22.281  1.00  0.00     0.034 C 
ATOM     22  C   UNL A   1      30.963  29.246  25.014  1.00  0.00     0.014 C 
ATOM     23  C   UNL A   1      31.146  27.330  23.148  1.00  0.00    -0.005 C 
ATOM     24  C   UNL A   1      32.150  30.086  25.507  1.00  0.00     0.012 C 
ATOM     25  C   UNL A   1      32.475  27.124  22.376  1.00  0.00     0.008 C 
ENDBRANCH  16  17
ENDBRANCH   6  16
ENDBRANCH   3   5
ENDBRANCH   2   3
ENDBRANCH   1   2
BRANCH   1  26
ATOM     26  C   UNL A   1      37.010  21.172  24.364  1.00  0.00     0.275 C 
BRANCH  26  27
ATOM     27  O   UNL A   1      37.392  21.391  25.740  1.00  0.00    -0.458 OA
BRANCH  27  28
ATOM     28  C   UNL A   1      38.711  21.227  25.992  1.00  0.00     0.338 C 
ATOM     29  O   UNL A   1      39.407  20.268  25.700  1.00  0.00    -0.246 OA
BRANCH  28  30
ATOM     30  C   UNL A   1      39.290  22.421  26.629  1.00  0.00     0.060 A 
ATOM     31  C   UNL A   1      38.883  23.677  26.191  1.00  0.00     0.016 A 
ATOM     32  C   UNL A   1      40.379  22.306  27.486  1.00  0.00     0.016 A 
ATOM     33  C   UNL A   1      39.625  24.813  26.496  1.00  0.00     0.010 A 
ATOM     34  C   UNL A   1      41.055  23.463  27.896  1.00  0.00     0.010 A 
ATOM     35  C   UNL A   1      40.707  24.724  27.377  1.00  0.00    -0.014 A 
BRANCH  35  36
ATOM     36  C   UNL A   1      41.456  25.949  27.766  1.00  0.00     0.031 A 
ATOM     37  C   UNL A   1      40.782  27.032  28.565  1.00  0.00     0.074 A 
ATOM     38  C   UNL A   1      42.740  26.098  27.383  1.00  0.00     0.049 A 
ATOM     39  N   UNL A   1      41.196  28.246  28.824  1.00  0.00    -0.248 NA
ATOM     40  C   UNL A   1      39.465  26.710  29.139  1.00  0.00     0.031 C 
ATOM     41  C   UNL A   1      43.527  25.107  26.646  1.00  0.00     0.029 A 
ATOM     42  N   UNL A   1      43.606  27.151  27.546  1.00  0.00    -0.354 N 
ATOM     43  C   UNL A   1      40.173  28.850  29.546  1.00  0.00     0.074 A 
ATOM     44  C   UNL A   1      39.119  27.868  29.687  1.00  0.00     0.031 C 
ATOM     45  C   UNL A   1      44.755  25.598  26.418  1.00  0.00     0.029 A 
ATOM     46  C   UNL A   1      44.815  26.965  26.919  1.00  0.00     0.049 A 
ATOM     47  H   UNL A   1      43.383  27.961  28.060  1.00  0.00     0.167 HD
ATOM     48  C   UNL A   1      40.121  30.110  30.039  1.00  0.00     0.037 A 
ATOM     49  C   UNL A   1      45.838  27.816  26.713  1.00  0.00     0.037 A 
ATOM     50  C   UNL A   1      41.194  31.066  29.933  1.00  0.00     0.049 A 
ATOM     51  C   UNL A   1      45.735  29.222  27.232  1.00  0.00     0.074 A 
ATOM     52  C   UNL A   1      41.250  32.355  30.436  1.00  0.00     0.029 A 
ATOM     53  N   UNL A   1      42.398  30.836  29.286  1.00  0.00    -0.354 N 
ATOM     54  N   UNL A   1      44.759  29.785  27.901  1.00  0.00    -0.248 NA
ATOM     55  C   UNL A   1      46.869  30.113  26.957  1.00  0.00     0.031 C 
ATOM     56  C   UNL A   1      42.471  32.920  30.053  1.00  0.00     0.029 A 
ATOM     57  C   UNL A   1      43.194  31.968  29.355  1.00  0.00     0.049 A 
ATOM     58  H   UNL A   1      42.650  29.994  28.844  1.00  0.00     0.167 HD
ATOM     59  C   UNL A   1      45.170  31.089  28.145  1.00  0.00     0.074 A 
ATOM     60  C   UNL A   1      46.491  31.227  27.568  1.00  0.00     0.031 C 
ATOM     61  C   UNL A   1      44.510  32.084  28.785  1.00  0.00     0.037 A 
BRANCH  48  62
ATOM     62  C   UNL A   1      38.855  30.553  30.711  1.00  0.00     0.057 A 
ATOM     63  C   UNL A   1      37.803  31.146  30.005  1.00  0.00     0.134 A 
ATOM     64  C   UNL A   1      38.662  30.311  32.078  1.00  0.00     0.134 A 
ATOM     65  F   UNL A   1      37.927  31.414  28.696  1.00  0.00    -0.206 F 
ATOM     66  C   UNL A   1      36.606  31.492  30.636  1.00  0.00     0.040 A 
ATOM     67  C   UNL A   1      37.462  30.630  32.715  1.00  0.00     0.040 A 
ATOM     68  F   UNL A   1      39.629  29.739  32.811  1.00  0.00    -0.206 F 
ATOM     69  C   UNL A   1      36.430  31.226  31.994  1.00  0.00     0.006 A 
ENDBRANCH  48  62
BRANCH  49  70
ATOM     70  C   UNL A   1      47.022  27.382  25.929  1.00  0.00     0.057 A 
ATOM     71  C   UNL A   1      47.065  27.524  24.539  1.00  0.00     0.134 A 
ATOM     72  C   UNL A   1      48.130  26.791  26.551  1.00  0.00     0.134 A 
ATOM     73  F   UNL A   1      46.026  28.062  23.882  1.00  0.00    -0.206 F 
ATOM     74  C   UNL A   1      48.156  27.077  23.792  1.00  0.00     0.040 A 
ATOM     75  C   UNL A   1      49.240  26.367  25.821  1.00  0.00     0.040 A 
ATOM     76  F   UNL A   1      48.153  26.630  27.883  1.00  0.00    -0.206 F 
ATOM     77  C   UNL A   1      49.250  26.500  24.434  1.00  0.00     0.006 A 
ENDBRANCH  49  70
BRANCH  61  78
ATOM     78  C   UNL A   1      45.225  33.394  28.927  1.00  0.00     0.057 A 
ATOM     79  C   UNL A   1      46.073  33.660  30.010  1.00  0.00     0.134 A 
ATOM     80  C   UNL A   1      45.085  34.390  27.952  1.00  0.00     0.134 A 
ATOM     81  F   UNL A   1      46.236  32.753  30.985  1.00  0.00    -0.206 F 
ATOM     82  C   UNL A   1      46.741  34.880  30.129  1.00  0.00     0.040 A 
ATOM     83  C   UNL A   1      45.768  35.603  28.047  1.00  0.00     0.040 A 
ATOM     84  F   UNL A   1      44.293  34.195  26.888  1.00  0.00    -0.206 F 
ATOM     85  C   UNL A   1      46.594  35.852  29.140  1.00  0.00     0.006 A 
ENDBRANCH  61  78
ENDBRANCH  35  36
ENDBRANCH  28  30
ENDBRANCH  27  28
ENDBRANCH  26  27
ENDBRANCH   1  26
TORSDOF 13
ENDMDL
