MODEL 1
REMARK VINA RESULT:     -11.3      0.000      0.000
REMARK SMILES Cc1ccc(-c2ncccc2C(=O)OCCOC(=O)c2ccc(-c3c4nc(c(-c5c(F)cccc5F)c5ccc([nH]5)c(-c5c(F)cccc5F)c5nc(c(-c6c(F)cccc6F)c6ccc3[nH]6)C=C5)C=C4)cc2)c(C)c1
REMARK SMILES IDX 16 1 15 2 14 3 12 4 13 5 11 6 6 7 7 8 8 9 10 10 9 11 5 12
REMARK SMILES IDX 1 13 2 14 3 15 76 16 4 17 74 18 75 19 17 20 18 21 19 22
REMARK SMILES IDX 20 23 21 24 73 25 22 26 72 27 23 28 24 29 25 30 66 31 26 32
REMARK SMILES IDX 71 33 65 34 67 35 27 36 70 37 64 38 63 39 28 41 54 42 37 43
REMARK SMILES IDX 53 44 38 45 41 46 52 47 68 48 39 49 40 50 51 52 69 53 42 54
REMARK SMILES IDX 29 55 30 56 35 57 31 58 32 59 34 60 36 61 33 62 55 63 56 64
REMARK SMILES IDX 61 65 57 66 58 67 60 68 62 69 59 70 43 71 44 72 49 73 45 74
REMARK SMILES IDX 46 75 48 76 50 77 47 78
REMARK H PARENT 67 40 41 51
REMARK Flexibility Score: inf
ROOT
ATOM      1  C   UNL A   1      33.356  29.667  27.029  1.00  0.00     0.275 C 
ENDROOT
BRANCH   1   2
ATOM      2  C   UNL A   1      33.794  28.792  25.860  1.00  0.00     0.275 C 
BRANCH   2   3
ATOM      3  O   UNL A   1      34.131  27.467  26.337  1.00  0.00    -0.458 OA
BRANCH   3   4
ATOM      4  C   UNL A   1      33.280  26.469  25.983  1.00  0.00     0.340 C 
ATOM      5  O   UNL A   1      32.205  26.217  26.500  1.00  0.00    -0.246 OA
BRANCH   4   6
ATOM      6  C   UNL A   1      33.910  25.612  24.959  1.00  0.00     0.086 A 
ATOM      7  C   UNL A   1      33.449  25.478  23.632  1.00  0.00     0.085 A 
ATOM      8  N   UNL A   1      33.957  24.534  22.798  1.00  0.00    -0.255 NA
ATOM      9  C   UNL A   1      34.907  23.704  23.301  1.00  0.00     0.112 A 
ATOM     10  C   UNL A   1      34.914  24.759  25.430  1.00  0.00     0.019 A 
ATOM     11  C   UNL A   1      35.416  23.779  24.589  1.00  0.00     0.021 A 
BRANCH   7  12
ATOM     12  C   UNL A   1      32.293  26.228  23.097  1.00  0.00     0.004 A 
ATOM     13  C   UNL A   1      27.905  29.057  22.971  1.00  0.00     0.044 C 
ATOM     14  C   UNL A   1      29.178  28.290  23.106  1.00  0.00    -0.051 A 
ATOM     15  C   UNL A   1      30.717  29.080  22.642  1.00  0.00     0.004 A 
ATOM     16  C   UNL A   1      29.205  26.582  23.495  1.00  0.00     0.007 A 
ATOM     17  C   UNL A   1      32.408  27.967  22.589  1.00  0.00     0.011 A 
ATOM     18  C   UNL A   1      30.682  25.593  23.487  1.00  0.00    -0.041 A 
ATOM     19  C   UNL A   1      30.510  24.094  23.496  1.00  0.00     0.045 C 
ENDBRANCH   7  12
ENDBRANCH   4   6
ENDBRANCH   3   4
ENDBRANCH   2   3
ENDBRANCH   1   2
BRANCH   1  20
ATOM     20  O   UNL A   1      34.197  29.358  28.151  1.00  0.00    -0.458 OA
BRANCH  20  21
ATOM     21  C   UNL A   1      35.023  30.360  28.503  1.00  0.00     0.338 C 
ATOM     22  O   UNL A   1      34.741  31.528  28.713  1.00  0.00    -0.246 OA
BRANCH  21  23
ATOM     23  C   UNL A   1      36.370  29.851  28.725  1.00  0.00     0.060 A 
ATOM     24  C   UNL A   1      37.156  29.928  30.343  1.00  0.00     0.016 A 
ATOM     25  C   UNL A   1      37.398  29.709  27.308  1.00  0.00     0.016 A 
ATOM     26  C   UNL A   1      39.177  29.890  30.409  1.00  0.00     0.010 A 
ATOM     27  C   UNL A   1      39.170  29.604  27.395  1.00  0.00     0.010 A 
ATOM     28  C   UNL A   1      40.116  29.664  28.898  1.00  0.00    -0.014 A 
BRANCH  28  29
ATOM     29  C   UNL A   1      41.529  29.066  28.901  1.00  0.00     0.031 A 
ATOM     30  C   UNL A   1      42.719  30.000  28.812  1.00  0.00     0.074 A 
ATOM     31  C   UNL A   1      41.792  27.739  28.750  1.00  0.00     0.049 A 
ATOM     32  N   UNL A   1      43.924  29.789  28.336  1.00  0.00    -0.248 NA
ATOM     33  C   UNL A   1      42.508  31.370  29.302  1.00  0.00     0.031 C 
ATOM     34  C   UNL A   1      40.871  26.617  28.885  1.00  0.00     0.029 A 
ATOM     35  N   UNL A   1      42.959  27.098  28.351  1.00  0.00    -0.354 N 
ATOM     36  C   UNL A   1      44.589  31.009  28.427  1.00  0.00     0.074 A 
ATOM     37  C   UNL A   1      43.616  31.974  28.896  1.00  0.00     0.031 C 
ATOM     38  C   UNL A   1      41.427  25.481  28.459  1.00  0.00     0.029 A 
ATOM     39  C   UNL A   1      42.777  25.763  28.033  1.00  0.00     0.049 A 
ATOM     40  H   UNL A   1      43.832  27.551  28.299  1.00  0.00     0.167 HD
ATOM     41  C   UNL A   1      45.899  31.297  28.219  1.00  0.00     0.037 A 
ATOM     42  C   UNL A   1      43.564  24.834  27.460  1.00  0.00     0.037 A 
ATOM     43  C   UNL A   1      46.905  30.328  27.868  1.00  0.00     0.049 A 
ATOM     44  C   UNL A   1      44.993  25.164  27.183  1.00  0.00     0.074 A 
ATOM     45  C   UNL A   1      48.271  30.514  27.728  1.00  0.00     0.029 A 
ATOM     46  N   UNL A   1      46.663  28.983  27.639  1.00  0.00    -0.354 N 
ATOM     47  N   UNL A   1      45.599  26.316  27.298  1.00  0.00    -0.248 NA
ATOM     48  C   UNL A   1      45.864  24.056  26.768  1.00  0.00     0.031 C 
ATOM     49  C   UNL A   1      48.854  29.284  27.406  1.00  0.00     0.029 A 
ATOM     50  C   UNL A   1      47.855  28.327  27.372  1.00  0.00     0.049 A 
ATOM     51  H   UNL A   1      45.776  28.556  27.663  1.00  0.00     0.167 HD
ATOM     52  C   UNL A   1      46.938  26.055  27.059  1.00  0.00     0.074 A 
ATOM     53  C   UNL A   1      47.051  24.644  26.759  1.00  0.00     0.031 C 
ATOM     54  C   UNL A   1      47.979  26.917  27.118  1.00  0.00     0.037 A 
BRANCH  41  55
ATOM     55  C   UNL A   1      46.335  32.720  28.446  1.00  0.00     0.057 A 
ATOM     56  C   UNL A   1      46.302  33.667  27.413  1.00  0.00     0.134 A 
ATOM     57  C   UNL A   1      46.767  33.157  29.703  1.00  0.00     0.134 A 
ATOM     58  F   UNL A   1      45.893  33.319  26.183  1.00  0.00    -0.206 F 
ATOM     59  C   UNL A   1      46.739  34.978  27.604  1.00  0.00     0.040 A 
ATOM     60  C   UNL A   1      47.173  34.477  29.918  1.00  0.00     0.040 A 
ATOM     61  F   UNL A   1      46.799  32.314  30.748  1.00  0.00    -0.206 F 
ATOM     62  C   UNL A   1      47.174  35.387  28.862  1.00  0.00     0.006 A 
ENDBRANCH  41  55
BRANCH  42  63
ATOM     63  C   UNL A   1      43.035  23.470  27.174  1.00  0.00     0.057 A 
ATOM     64  C   UNL A   1      42.619  23.106  25.888  1.00  0.00     0.134 A 
ATOM     65  C   UNL A   1      42.922  22.505  28.184  1.00  0.00     0.134 A 
ATOM     66  F   UNL A   1      42.701  23.986  24.880  1.00  0.00    -0.206 F 
ATOM     67  C   UNL A   1      42.071  21.850  25.622  1.00  0.00     0.040 A 
ATOM     68  C   UNL A   1      42.396  21.236  27.927  1.00  0.00     0.040 A 
ATOM     69  F   UNL A   1      43.327  22.778  29.432  1.00  0.00    -0.206 F 
ATOM     70  C   UNL A   1      41.956  20.910  26.645  1.00  0.00     0.006 A 
ENDBRANCH  42  63
BRANCH  54  71
ATOM     71  C   UNL A   1      49.351  26.346  26.950  1.00  0.00     0.057 A 
ATOM     72  C   UNL A   1      49.972  26.252  25.701  1.00  0.00     0.134 A 
ATOM     73  C   UNL A   1      50.076  25.925  28.073  1.00  0.00     0.134 A 
ATOM     74  F   UNL A   1      49.318  26.614  24.587  1.00  0.00    -0.206 F 
ATOM     75  C   UNL A   1      51.268  25.752  25.572  1.00  0.00     0.040 A 
ATOM     76  C   UNL A   1      51.380  25.447  27.959  1.00  0.00     0.040 A 
ATOM     77  F   UNL A   1      49.532  25.983  29.297  1.00  0.00    -0.206 F 
ATOM     78  C   UNL A   1      51.980  25.359  26.704  1.00  0.00     0.006 A 
ENDBRANCH  54  71
ENDBRANCH  28  29
ENDBRANCH  21  23
ENDBRANCH  20  21
ENDBRANCH   1  20
TORSDOF 12
ENDMDL
MODEL 2
REMARK VINA RESULT:     -11.2      8.906     14.687
REMARK SMILES Cc1ccc(-c2ncccc2C(=O)OCCOC(=O)c2ccc(-c3c4nc(c(-c5c(F)cccc5F)c5ccc([nH]5)c(-c5c(F)cccc5F)c5nc(c(-c6c(F)cccc6F)c6ccc3[nH]6)C=C5)C=C4)cc2)c(C)c1
REMARK SMILES IDX 16 1 15 2 14 3 12 4 13 5 11 6 6 7 7 8 8 9 10 10 9 11 5 12
REMARK SMILES IDX 1 13 2 14 3 15 76 16 4 17 74 18 75 19 17 20 18 21 19 22
REMARK SMILES IDX 20 23 21 24 73 25 22 26 72 27 23 28 24 29 25 30 66 31 26 32
REMARK SMILES IDX 71 33 65 34 67 35 27 36 70 37 64 38 63 39 28 41 54 42 37 43
REMARK SMILES IDX 53 44 38 45 41 46 52 47 68 48 39 49 40 50 51 52 69 53 42 54
REMARK SMILES IDX 29 55 30 56 35 57 31 58 32 59 34 60 36 61 33 62 55 63 56 64
REMARK SMILES IDX 61 65 57 66 58 67 60 68 62 69 59 70 43 71 44 72 49 73 45 74
REMARK SMILES IDX 46 75 48 76 50 77 47 78
REMARK H PARENT 67 40 41 51
REMARK Flexibility Score: inf
ROOT
ATOM      1  C   UNL A   1      45.386  23.500  38.523  1.00  0.00     0.275 C 
ENDROOT
BRANCH   1   2
ATOM      2  C   UNL A   1      46.239  22.687  39.491  1.00  0.00     0.275 C 
BRANCH   2   3
ATOM      3  O   UNL A   1      46.000  21.273  39.288  1.00  0.00    -0.458 OA
BRANCH   3   4
ATOM      4  C   UNL A   1      45.907  20.514  40.411  1.00  0.00     0.340 C 
ATOM      5  O   UNL A   1      45.170  20.715  41.361  1.00  0.00    -0.246 OA
BRANCH   4   6
ATOM      6  C   UNL A   1      46.947  19.467  40.397  1.00  0.00     0.086 A 
ATOM      7  C   UNL A   1      46.692  18.082  40.494  1.00  0.00     0.085 A 
ATOM      8  N   UNL A   1      47.700  17.188  40.665  1.00  0.00    -0.255 NA
ATOM      9  C   UNL A   1      48.961  17.681  40.769  1.00  0.00     0.112 A 
ATOM     10  C   UNL A   1      48.264  19.933  40.476  1.00  0.00     0.019 A 
ATOM     11  C   UNL A   1      49.291  19.025  40.676  1.00  0.00     0.021 A 
BRANCH   7  12
ATOM     12  C   UNL A   1      45.330  17.514  40.573  1.00  0.00     0.004 A 
ATOM     13  C   UNL A   1      41.436  14.041  40.348  1.00  0.00     0.044 C 
ATOM     14  C   UNL A   1      42.617  14.949  40.429  1.00  0.00    -0.051 A 
ATOM     15  C   UNL A   1      43.160  15.521  42.037  1.00  0.00     0.004 A 
ATOM     16  C   UNL A   1      43.359  15.650  39.004  1.00  0.00     0.007 A 
ATOM     17  C   UNL A   1      44.598  16.943  42.133  1.00  0.00     0.011 A 
ATOM     18  C   UNL A   1      44.646  16.874  39.064  1.00  0.00    -0.041 A 
ATOM     19  C   UNL A   1      44.940  17.632  37.793  1.00  0.00     0.045 C 
ENDBRANCH   7  12
ENDBRANCH   4   6
ENDBRANCH   3   4
ENDBRANCH   2   3
ENDBRANCH   1   2
BRANCH   1  20
ATOM     20  O   UNL A   1      46.240  23.966  37.467  1.00  0.00    -0.458 OA
BRANCH  20  21
ATOM     21  C   UNL A   1      45.920  23.477  36.255  1.00  0.00     0.338 C 
ATOM     22  O   UNL A   1      46.024  22.328  35.856  1.00  0.00    -0.246 OA
BRANCH  21  23
ATOM     23  C   UNL A   1      45.295  24.511  35.441  1.00  0.00     0.060 A 
ATOM     24  C   UNL A   1      46.179  26.006  34.968  1.00  0.00     0.016 A 
ATOM     25  C   UNL A   1      43.539  24.545  35.430  1.00  0.00     0.016 A 
ATOM     26  C   UNL A   1      45.081  27.639  34.499  1.00  0.00     0.010 A 
ATOM     27  C   UNL A   1      42.594  25.969  34.944  1.00  0.00     0.010 A 
ATOM     28  C   UNL A   1      43.292  27.527  34.450  1.00  0.00    -0.014 A 
BRANCH  28  29
ATOM     29  C   UNL A   1      42.443  28.472  33.590  1.00  0.00     0.031 A 
ATOM     30  C   UNL A   1      41.526  29.463  34.278  1.00  0.00     0.074 A 
ATOM     31  C   UNL A   1      42.281  28.336  32.245  1.00  0.00     0.049 A 
ATOM     32  N   UNL A   1      40.409  30.013  33.860  1.00  0.00    -0.248 NA
ATOM     33  C   UNL A   1      41.908  29.865  35.639  1.00  0.00     0.031 C 
ATOM     34  C   UNL A   1      43.078  27.541  31.318  1.00  0.00     0.029 A 
ATOM     35  N   UNL A   1      41.287  28.831  31.409  1.00  0.00    -0.354 N 
ATOM     36  C   UNL A   1      39.940  30.780  34.922  1.00  0.00     0.074 A 
ATOM     37  C   UNL A   1      40.833  30.531  36.036  1.00  0.00     0.031 C 
ATOM     38  C   UNL A   1      42.500  27.479  30.116  1.00  0.00     0.029 A 
ATOM     39  C   UNL A   1      41.284  28.255  30.150  1.00  0.00     0.049 A 
ATOM     40  H   UNL A   1      40.646  29.526  31.685  1.00  0.00     0.167 HD
ATOM     41  C   UNL A   1      38.915  31.668  34.960  1.00  0.00     0.037 A 
ATOM     42  C   UNL A   1      40.428  28.304  29.112  1.00  0.00     0.037 A 
ATOM     43  C   UNL A   1      38.091  32.017  33.831  1.00  0.00     0.049 A 
ATOM     44  C   UNL A   1      39.270  29.244  29.171  1.00  0.00     0.074 A 
ATOM     45  C   UNL A   1      37.091  32.973  33.756  1.00  0.00     0.029 A 
ATOM     46  N   UNL A   1      38.196  31.452  32.570  1.00  0.00    -0.354 N 
ATOM     47  N   UNL A   1      38.863  29.971  30.178  1.00  0.00    -0.248 NA
ATOM     48  C   UNL A   1      38.497  29.427  27.936  1.00  0.00     0.031 C 
ATOM     49  C   UNL A   1      36.584  32.981  32.451  1.00  0.00     0.029 A 
ATOM     50  C   UNL A   1      37.288  32.049  31.709  1.00  0.00     0.049 A 
ATOM     51  H   UNL A   1      38.822  30.735  32.323  1.00  0.00     0.167 HD
ATOM     52  C   UNL A   1      37.846  30.765  29.674  1.00  0.00     0.074 A 
ATOM     53  C   UNL A   1      37.675  30.406  28.283  1.00  0.00     0.031 C 
ATOM     54  C   UNL A   1      37.144  31.728  30.314  1.00  0.00     0.037 A 
BRANCH  41  55
ATOM     55  C   UNL A   1      38.677  32.390  36.259  1.00  0.00     0.057 A 
ATOM     56  C   UNL A   1      39.139  33.698  36.463  1.00  0.00     0.134 A 
ATOM     57  C   UNL A   1      37.966  31.792  37.306  1.00  0.00     0.134 A 
ATOM     58  F   UNL A   1      39.824  34.335  35.500  1.00  0.00    -0.206 F 
ATOM     59  C   UNL A   1      38.956  34.362  37.676  1.00  0.00     0.040 A 
ATOM     60  C   UNL A   1      37.743  32.459  38.514  1.00  0.00     0.040 A 
ATOM     61  F   UNL A   1      37.469  30.552  37.174  1.00  0.00    -0.206 F 
ATOM     62  C   UNL A   1      38.253  33.742  38.706  1.00  0.00     0.006 A 
ENDBRANCH  41  55
BRANCH  42  63
ATOM     63  C   UNL A   1      40.676  27.486  27.892  1.00  0.00     0.057 A 
ATOM     64  C   UNL A   1      40.147  26.197  27.761  1.00  0.00     0.134 A 
ATOM     65  C   UNL A   1      41.455  27.972  26.833  1.00  0.00     0.134 A 
ATOM     66  F   UNL A   1      39.394  25.675  28.740  1.00  0.00    -0.206 F 
ATOM     67  C   UNL A   1      40.419  25.402  26.646  1.00  0.00     0.040 A 
ATOM     68  C   UNL A   1      41.716  27.196  25.702  1.00  0.00     0.040 A 
ATOM     69  F   UNL A   1      41.969  29.209  26.881  1.00  0.00    -0.206 F 
ATOM     70  C   UNL A   1      41.209  25.901  25.611  1.00  0.00     0.006 A 
ENDBRANCH  42  63
BRANCH  54  71
ATOM     71  C   UNL A   1      36.188  32.537  29.496  1.00  0.00     0.057 A 
ATOM     72  C   UNL A   1      36.475  33.844  29.092  1.00  0.00     0.134 A 
ATOM     73  C   UNL A   1      34.978  31.972  29.072  1.00  0.00     0.134 A 
ATOM     74  F   UNL A   1      37.605  34.448  29.489  1.00  0.00    -0.206 F 
ATOM     75  C   UNL A   1      35.586  34.568  28.296  1.00  0.00     0.040 A 
ATOM     76  C   UNL A   1      34.094  32.677  28.256  1.00  0.00     0.040 A 
ATOM     77  F   UNL A   1      34.644  30.725  29.432  1.00  0.00    -0.206 F 
ATOM     78  C   UNL A   1      34.397  33.980  27.866  1.00  0.00     0.006 A 
ENDBRANCH  54  71
ENDBRANCH  28  29
ENDBRANCH  21  23
ENDBRANCH  20  21
ENDBRANCH   1  20
TORSDOF 12
ENDMDL
MODEL 3
REMARK VINA RESULT:     -11.1      5.644      9.852
REMARK SMILES Cc1ccc(-c2ncccc2C(=O)OCCOC(=O)c2ccc(-c3c4nc(c(-c5c(F)cccc5F)c5ccc([nH]5)c(-c5c(F)cccc5F)c5nc(c(-c6c(F)cccc6F)c6ccc3[nH]6)C=C5)C=C4)cc2)c(C)c1
REMARK SMILES IDX 16 1 15 2 14 3 12 4 13 5 11 6 6 7 7 8 8 9 10 10 9 11 5 12
REMARK SMILES IDX 1 13 2 14 3 15 76 16 4 17 74 18 75 19 17 20 18 21 19 22
REMARK SMILES IDX 20 23 21 24 73 25 22 26 72 27 23 28 24 29 25 30 66 31 26 32
REMARK SMILES IDX 71 33 65 34 67 35 27 36 70 37 64 38 63 39 28 41 54 42 37 43
REMARK SMILES IDX 53 44 38 45 41 46 52 47 68 48 39 49 40 50 51 52 69 53 42 54
REMARK SMILES IDX 29 55 30 56 35 57 31 58 32 59 34 60 36 61 33 62 55 63 56 64
REMARK SMILES IDX 61 65 57 66 58 67 60 68 62 69 59 70 43 71 44 72 49 73 45 74
REMARK SMILES IDX 46 75 48 76 50 77 47 78
REMARK H PARENT 67 40 41 51
REMARK Flexibility Score: inf
ROOT
ATOM      1  C   UNL A   1      36.786  23.199  25.519  1.00  0.00     0.275 C 
ENDROOT
BRANCH   1   2
ATOM      2  C   UNL A   1      36.509  21.923  24.731  1.00  0.00     0.275 C 
BRANCH   2   3
ATOM      3  O   UNL A   1      35.972  20.907  25.614  1.00  0.00    -0.458 OA
BRANCH   3   4
ATOM      4  C   UNL A   1      34.650  21.008  25.906  1.00  0.00     0.340 C 
ATOM      5  O   UNL A   1      34.168  21.360  26.969  1.00  0.00    -0.246 OA
BRANCH   4   6
ATOM      6  C   UNL A   1      33.847  20.479  24.785  1.00  0.00     0.086 A 
ATOM      7  C   UNL A   1      32.970  21.250  23.993  1.00  0.00     0.085 A 
ATOM      8  N   UNL A   1      32.122  20.669  23.105  1.00  0.00    -0.255 NA
ATOM      9  C   UNL A   1      32.131  19.313  23.029  1.00  0.00     0.112 A 
ATOM     10  C   UNL A   1      33.849  19.086  24.655  1.00  0.00     0.019 A 
ATOM     11  C   UNL A   1      32.968  18.489  23.768  1.00  0.00     0.021 A 
BRANCH   7  12
ATOM     12  C   UNL A   1      32.790  22.707  24.169  1.00  0.00     0.004 A 
ATOM     13  C   UNL A   1      33.102  27.476  26.271  1.00  0.00     0.044 C 
ATOM     14  C   UNL A   1      33.104  26.088  25.725  1.00  0.00    -0.051 A 
ATOM     15  C   UNL A   1      34.059  25.741  24.250  1.00  0.00     0.004 A 
ATOM     16  C   UNL A   1      32.042  24.838  26.341  1.00  0.00     0.007 A 
ATOM     17  C   UNL A   1      33.867  23.928  23.368  1.00  0.00     0.011 A 
ATOM     18  C   UNL A   1      31.882  23.229  25.603  1.00  0.00    -0.041 A 
ATOM     19  C   UNL A   1      30.697  22.393  26.017  1.00  0.00     0.045 C 
ENDBRANCH   7  12
ENDBRANCH   4   6
ENDBRANCH   3   4
ENDBRANCH   2   3
ENDBRANCH   1   2
BRANCH   1  20
ATOM     20  O   UNL A   1      38.054  23.717  25.087  1.00  0.00    -0.458 OA
BRANCH  20  21
ATOM     21  C   UNL A   1      39.046  23.539  25.979  1.00  0.00     0.338 C 
ATOM     22  O   UNL A   1      39.715  22.536  26.168  1.00  0.00    -0.246 OA
BRANCH  21  23
ATOM     23  C   UNL A   1      39.331  24.786  26.675  1.00  0.00     0.060 A 
ATOM     24  C   UNL A   1      40.700  25.849  26.189  1.00  0.00     0.016 A 
ATOM     25  C   UNL A   1      38.705  24.932  28.310  1.00  0.00     0.016 A 
ATOM     26  C   UNL A   1      41.452  27.110  27.581  1.00  0.00     0.010 A 
ATOM     27  C   UNL A   1      39.333  26.099  29.494  1.00  0.00     0.010 A 
ATOM     28  C   UNL A   1      40.676  27.223  29.194  1.00  0.00    -0.014 A 
BRANCH  28  29
ATOM     29  C   UNL A   1      40.786  28.484  30.061  1.00  0.00     0.031 A 
ATOM     30  C   UNL A   1      41.656  28.447  31.301  1.00  0.00     0.074 A 
ATOM     31  C   UNL A   1      39.979  29.572  29.925  1.00  0.00     0.049 A 
ATOM     32  N   UNL A   1      41.572  29.139  32.414  1.00  0.00    -0.248 NA
ATOM     33  C   UNL A   1      42.757  27.473  31.293  1.00  0.00     0.031 C 
ATOM     34  C   UNL A   1      39.118  29.920  28.800  1.00  0.00     0.029 A 
ATOM     35  N   UNL A   1      39.685  30.587  30.828  1.00  0.00    -0.354 N 
ATOM     36  C   UNL A   1      42.573  28.646  33.246  1.00  0.00     0.074 A 
ATOM     37  C   UNL A   1      43.172  27.525  32.551  1.00  0.00     0.031 C 
ATOM     38  C   UNL A   1      38.315  30.942  29.104  1.00  0.00     0.029 A 
ATOM     39  C   UNL A   1      38.605  31.367  30.453  1.00  0.00     0.049 A 
ATOM     40  H   UNL A   1      40.197  30.737  31.655  1.00  0.00     0.167 HD
ATOM     41  C   UNL A   1      43.014  29.118  34.440  1.00  0.00     0.037 A 
ATOM     42  C   UNL A   1      37.889  32.319  31.080  1.00  0.00     0.037 A 
ATOM     43  C   UNL A   1      42.511  30.300  35.090  1.00  0.00     0.049 A 
ATOM     44  C   UNL A   1      38.343  32.805  32.416  1.00  0.00     0.074 A 
ATOM     45  C   UNL A   1      42.960  30.903  36.254  1.00  0.00     0.029 A 
ATOM     46  N   UNL A   1      41.471  31.084  34.614  1.00  0.00    -0.354 N 
ATOM     47  N   UNL A   1      39.303  32.337  33.169  1.00  0.00    -0.248 NA
ATOM     48  C   UNL A   1      37.667  33.991  32.958  1.00  0.00     0.031 C 
ATOM     49  C   UNL A   1      42.188  32.046  36.487  1.00  0.00     0.029 A 
ATOM     50  C   UNL A   1      41.275  32.169  35.454  1.00  0.00     0.049 A 
ATOM     51  H   UNL A   1      40.950  30.897  33.800  1.00  0.00     0.167 HD
ATOM     52  C   UNL A   1      39.408  33.223  34.229  1.00  0.00     0.074 A 
ATOM     53  C   UNL A   1      38.392  34.236  34.039  1.00  0.00     0.031 C 
ATOM     54  C   UNL A   1      40.297  33.203  35.247  1.00  0.00     0.037 A 
BRANCH  41  55
ATOM     55  C   UNL A   1      44.161  28.389  35.086  1.00  0.00     0.057 A 
ATOM     56  C   UNL A   1      43.942  27.349  36.002  1.00  0.00     0.134 A 
ATOM     57  C   UNL A   1      45.490  28.704  34.780  1.00  0.00     0.134 A 
ATOM     58  F   UNL A   1      42.694  26.990  36.337  1.00  0.00    -0.206 F 
ATOM     59  C   UNL A   1      44.999  26.692  36.634  1.00  0.00     0.040 A 
ATOM     60  C   UNL A   1      46.558  28.030  35.378  1.00  0.00     0.040 A 
ATOM     61  F   UNL A   1      45.777  29.669  33.892  1.00  0.00    -0.206 F 
ATOM     62  C   UNL A   1      46.313  27.031  36.319  1.00  0.00     0.006 A 
ENDBRANCH  41  55
BRANCH  42  63
ATOM     63  C   UNL A   1      36.703  32.931  30.416  1.00  0.00     0.057 A 
ATOM     64  C   UNL A   1      36.848  33.911  29.428  1.00  0.00     0.134 A 
ATOM     65  C   UNL A   1      35.399  32.555  30.763  1.00  0.00     0.134 A 
ATOM     66  F   UNL A   1      38.070  34.314  29.053  1.00  0.00    -0.206 F 
ATOM     67  C   UNL A   1      35.743  34.530  28.840  1.00  0.00     0.040 A 
ATOM     68  C   UNL A   1      34.284  33.149  30.167  1.00  0.00     0.040 A 
ATOM     69  F   UNL A   1      35.189  31.602  31.682  1.00  0.00    -0.206 F 
ATOM     70  C   UNL A   1      34.454  34.150  29.211  1.00  0.00     0.006 A 
ENDBRANCH  42  63
BRANCH  54  71
ATOM     71  C   UNL A   1      40.282  34.363  36.191  1.00  0.00     0.057 A 
ATOM     72  C   UNL A   1      41.043  35.515  35.969  1.00  0.00     0.134 A 
ATOM     73  C   UNL A   1      39.454  34.336  37.321  1.00  0.00     0.134 A 
ATOM     74  F   UNL A   1      41.876  35.588  34.920  1.00  0.00    -0.206 F 
ATOM     75  C   UNL A   1      40.985  36.601  36.842  1.00  0.00     0.040 A 
ATOM     76  C   UNL A   1      39.369  35.425  38.187  1.00  0.00     0.040 A 
ATOM     77  F   UNL A   1      38.705  33.257  37.592  1.00  0.00    -0.206 F 
ATOM     78  C   UNL A   1      40.137  36.563  37.948  1.00  0.00     0.006 A 
ENDBRANCH  54  71
ENDBRANCH  28  29
ENDBRANCH  21  23
ENDBRANCH  20  21
ENDBRANCH   1  20
TORSDOF 12
ENDMDL
