MODEL 1
REMARK VINA RESULT:     -10.8      0.000      0.000
REMARK SMILES C[N@H+]1CC[C@@H](Cc2nccnc2C(=O)OCCOC(=O)c2ccc(-c3c4nc(c(-c5c(F)cccc5F)c5ccc([nH]5)c(-c5c(F)cccc5F)c5nc(c(-c6c(F)cccc6F)c6ccc3[nH]6)C=C5)C=C4)cc2)C1
REMARK SMILES IDX 16 1 15 2 13 3 14 4 12 5 7 6 8 7 9 8 11 9 10 10 6 11 5 12
REMARK SMILES IDX 1 13 2 14 3 15 75 16 4 18 17 19 18 20 19 21 20 22 21 23
REMARK SMILES IDX 22 24 74 25 23 26 73 27 24 28 25 29 26 30 67 31 27 32 72 33
REMARK SMILES IDX 66 34 68 35 28 36 71 37 65 38 64 39 29 41 55 42 38 43 54 44
REMARK SMILES IDX 39 45 42 46 53 47 69 48 40 49 41 50 52 52 70 53 43 54 30 55
REMARK SMILES IDX 31 56 36 57 32 58 33 59 35 60 37 61 34 62 56 63 57 64 62 65
REMARK SMILES IDX 58 66 59 67 61 68 63 69 60 70 44 71 45 72 50 73 46 74 47 75
REMARK SMILES IDX 49 76 51 77 48 78
REMARK H PARENT 2 17 68 40 42 51
REMARK Flexibility Score: inf
ROOT
ATOM      1  C   UNL A   1      32.015  30.946  26.785  1.00  0.00     0.275 C 
ENDROOT
BRANCH   1   2
ATOM      2  O   UNL A   1      31.381  30.332  25.644  1.00  0.00    -0.457 OA
BRANCH   2   3
ATOM      3  C   UNL A   1      32.039  29.303  25.051  1.00  0.00     0.358 C 
ATOM      4  O   UNL A   1      33.218  29.300  24.741  1.00  0.00    -0.244 OA
BRANCH   3   5
ATOM      5  C   UNL A   1      31.146  28.110  24.923  1.00  0.00     0.169 A 
ATOM      6  C   UNL A   1      30.229  27.906  23.888  1.00  0.00     0.074 A 
ATOM      7  N   UNL A   1      29.434  26.792  23.870  1.00  0.00    -0.257 NA
ATOM      8  C   UNL A   1      29.574  25.921  24.891  1.00  0.00     0.131 A 
ATOM      9  N   UNL A   1      31.306  27.194  25.929  1.00  0.00    -0.246 NA
ATOM     10  C   UNL A   1      30.498  26.113  25.895  1.00  0.00     0.132 A 
BRANCH   6  11
ATOM     11  C   UNL A   1      30.081  28.800  22.685  1.00  0.00     0.068 C 
BRANCH  11  12
ATOM     12  C   UNL A   1      28.941  29.818  22.819  1.00  0.00     0.056 C 
ATOM     13  C   UNL A   1      28.583  33.459  22.925  1.00  0.00     0.332 C 
ATOM     14  N   UNL A   1      28.281  32.041  22.802  1.00  0.00    -0.337 N 
ATOM     15  C   UNL A   1      28.099  31.618  21.416  1.00  0.00     0.262 C 
ATOM     16  C   UNL A   1      29.367  31.200  23.311  1.00  0.00     0.266 C 
ATOM     17  H   UNL A   1      27.422  31.925  23.339  1.00  0.00     0.347 HD
ATOM     18  C   UNL A   1      28.238  30.100  21.483  1.00  0.00     0.071 C 
ENDBRANCH  11  12
ENDBRANCH   6  11
ENDBRANCH   3   5
ENDBRANCH   2   3
ENDBRANCH   1   2
BRANCH   1  19
ATOM     19  C   UNL A   1      31.639  32.428  26.868  1.00  0.00     0.275 C 
BRANCH  19  20
ATOM     20  O   UNL A   1      32.811  33.258  26.764  1.00  0.00    -0.458 OA
BRANCH  20  21
ATOM     21  C   UNL A   1      33.233  33.793  27.932  1.00  0.00     0.338 C 
ATOM     22  O   UNL A   1      32.651  34.618  28.622  1.00  0.00    -0.246 OA
BRANCH  21  23
ATOM     23  C   UNL A   1      34.470  33.129  28.362  1.00  0.00     0.060 A 
ATOM     24  C   UNL A   1      34.356  31.841  28.886  1.00  0.00     0.016 A 
ATOM     25  C   UNL A   1      35.708  33.773  28.329  1.00  0.00     0.016 A 
ATOM     26  C   UNL A   1      35.470  31.192  29.403  1.00  0.00     0.010 A 
ATOM     27  C   UNL A   1      36.832  33.120  28.850  1.00  0.00     0.010 A 
ATOM     28  C   UNL A   1      36.714  31.834  29.406  1.00  0.00    -0.014 A 
BRANCH  28  29
ATOM     29  C   UNL A   1      37.862  31.176  30.075  1.00  0.00     0.031 A 
ATOM     30  C   UNL A   1      38.127  31.442  31.529  1.00  0.00     0.074 A 
ATOM     31  C   UNL A   1      38.623  30.295  29.400  1.00  0.00     0.049 A 
ATOM     32  N   UNL A   1      39.095  31.000  32.290  1.00  0.00    -0.248 NA
ATOM     33  C   UNL A   1      37.171  32.323  32.221  1.00  0.00     0.031 C 
ATOM     34  C   UNL A   1      38.432  29.911  28.002  1.00  0.00     0.029 A 
ATOM     35  N   UNL A   1      39.706  29.558  29.807  1.00  0.00    -0.354 N 
ATOM     36  C   UNL A   1      38.881  31.565  33.540  1.00  0.00     0.074 A 
ATOM     37  C   UNL A   1      37.698  32.391  33.435  1.00  0.00     0.031 C 
ATOM     38  C   UNL A   1      39.358  28.998  27.670  1.00  0.00     0.029 A 
ATOM     39  C   UNL A   1      40.233  28.766  28.816  1.00  0.00     0.049 A 
ATOM     40  H   UNL A   1      40.069  29.592  30.721  1.00  0.00     0.167 HD
ATOM     41  C   UNL A   1      39.604  31.404  34.673  1.00  0.00     0.037 A 
ATOM     42  C   UNL A   1      41.311  27.959  28.830  1.00  0.00     0.037 A 
ATOM     43  C   UNL A   1      40.766  30.563  34.785  1.00  0.00     0.049 A 
ATOM     44  C   UNL A   1      42.123  27.833  30.088  1.00  0.00     0.074 A 
ATOM     45  C   UNL A   1      41.564  30.333  35.891  1.00  0.00     0.029 A 
ATOM     46  N   UNL A   1      41.292  29.807  33.747  1.00  0.00    -0.354 N 
ATOM     47  N   UNL A   1      41.923  28.389  31.258  1.00  0.00    -0.248 NA
ATOM     48  C   UNL A   1      43.315  26.975  30.024  1.00  0.00     0.031 C 
ATOM     49  C   UNL A   1      42.591  29.460  35.517  1.00  0.00     0.029 A 
ATOM     50  C   UNL A   1      42.413  29.121  34.186  1.00  0.00     0.049 A 
ATOM     51  H   UNL A   1      40.924  29.765  32.836  1.00  0.00     0.167 HD
ATOM     52  C   UNL A   1      42.955  27.940  32.073  1.00  0.00     0.074 A 
ATOM     53  C   UNL A   1      43.768  27.051  31.269  1.00  0.00     0.031 C 
ATOM     54  C   UNL A   1      43.207  28.239  33.370  1.00  0.00     0.037 A 
BRANCH  41  55
ATOM     55  C   UNL A   1      39.172  32.182  35.879  1.00  0.00     0.057 A 
ATOM     56  C   UNL A   1      39.621  33.486  36.119  1.00  0.00     0.134 A 
ATOM     57  C   UNL A   1      38.278  31.624  36.801  1.00  0.00     0.134 A 
ATOM     58  F   UNL A   1      40.491  34.071  35.282  1.00  0.00    -0.206 F 
ATOM     59  C   UNL A   1      39.210  34.202  37.247  1.00  0.00     0.040 A 
ATOM     60  C   UNL A   1      37.844  32.336  37.919  1.00  0.00     0.040 A 
ATOM     61  F   UNL A   1      37.810  30.378  36.627  1.00  0.00    -0.206 F 
ATOM     62  C   UNL A   1      38.314  33.627  38.148  1.00  0.00     0.006 A 
ENDBRANCH  41  55
BRANCH  42  63
ATOM     63  C   UNL A   1      41.697  27.222  27.602  1.00  0.00     0.057 A 
ATOM     64  C   UNL A   1      41.318  25.890  27.407  1.00  0.00     0.134 A 
ATOM     65  C   UNL A   1      42.461  27.831  26.599  1.00  0.00     0.134 A 
ATOM     66  F   UNL A   1      40.605  25.247  28.343  1.00  0.00    -0.206 F 
ATOM     67  C   UNL A   1      41.691  25.185  26.261  1.00  0.00     0.040 A 
ATOM     68  C   UNL A   1      42.824  27.146  25.439  1.00  0.00     0.040 A 
ATOM     69  F   UNL A   1      42.858  29.105  26.730  1.00  0.00    -0.206 F 
ATOM     70  C   UNL A   1      42.442  25.816  25.270  1.00  0.00     0.006 A 
ENDBRANCH  42  63
BRANCH  54  71
ATOM     71  C   UNL A   1      44.398  27.585  34.001  1.00  0.00     0.057 A 
ATOM     72  C   UNL A   1      45.642  28.224  34.060  1.00  0.00     0.134 A 
ATOM     73  C   UNL A   1      44.290  26.317  34.589  1.00  0.00     0.134 A 
ATOM     74  F   UNL A   1      45.812  29.432  33.504  1.00  0.00    -0.206 F 
ATOM     75  C   UNL A   1      46.743  27.618  34.667  1.00  0.00     0.040 A 
ATOM     76  C   UNL A   1      45.379  25.711  35.215  1.00  0.00     0.040 A 
ATOM     77  F   UNL A   1      43.123  25.656  34.571  1.00  0.00    -0.206 F 
ATOM     78  C   UNL A   1      46.611  26.360  35.252  1.00  0.00     0.006 A 
ENDBRANCH  54  71
ENDBRANCH  28  29
ENDBRANCH  21  23
ENDBRANCH  20  21
ENDBRANCH  19  20
ENDBRANCH   1  19
TORSDOF 13
ENDMDL
MODEL 2
REMARK VINA RESULT:     -10.8      5.653     10.392
REMARK SMILES C[N@H+]1CC[C@@H](Cc2nccnc2C(=O)OCCOC(=O)c2ccc(-c3c4nc(c(-c5c(F)cccc5F)c5ccc([nH]5)c(-c5c(F)cccc5F)c5nc(c(-c6c(F)cccc6F)c6ccc3[nH]6)C=C5)C=C4)cc2)C1
REMARK SMILES IDX 16 1 15 2 13 3 14 4 12 5 7 6 8 7 9 8 11 9 10 10 6 11 5 12
REMARK SMILES IDX 1 13 2 14 3 15 75 16 4 18 17 19 18 20 19 21 20 22 21 23
REMARK SMILES IDX 22 24 74 25 23 26 73 27 24 28 25 29 26 30 67 31 27 32 72 33
REMARK SMILES IDX 66 34 68 35 28 36 71 37 65 38 64 39 29 41 55 42 38 43 54 44
REMARK SMILES IDX 39 45 42 46 53 47 69 48 40 49 41 50 52 52 70 53 43 54 30 55
REMARK SMILES IDX 31 56 36 57 32 58 33 59 35 60 37 61 34 62 56 63 57 64 62 65
REMARK SMILES IDX 58 66 59 67 61 68 63 69 60 70 44 71 45 72 50 73 46 74 47 75
REMARK SMILES IDX 49 76 51 77 48 78
REMARK H PARENT 2 17 68 40 42 51
REMARK Flexibility Score: inf
ROOT
ATOM      1  C   UNL A   1      36.275  19.907  25.000  1.00  0.00     0.275 C 
ENDROOT
BRANCH   1   2
ATOM      2  O   UNL A   1      35.990  21.133  25.705  1.00  0.00    -0.457 OA
BRANCH   2   3
ATOM      3  C   UNL A   1      34.685  21.411  25.958  1.00  0.00     0.358 C 
ATOM      4  O   UNL A   1      34.170  21.445  27.063  1.00  0.00    -0.244 OA
BRANCH   3   5
ATOM      5  C   UNL A   1      33.971  21.787  24.699  1.00  0.00     0.169 A 
ATOM      6  C   UNL A   1      32.901  21.078  24.147  1.00  0.00     0.074 A 
ATOM      7  N   UNL A   1      32.326  21.485  22.973  1.00  0.00    -0.257 NA
ATOM      8  C   UNL A   1      32.845  22.583  22.384  1.00  0.00     0.131 A 
ATOM      9  N   UNL A   1      34.457  22.924  24.110  1.00  0.00    -0.246 NA
ATOM     10  C   UNL A   1      33.883  23.293  22.946  1.00  0.00     0.132 A 
BRANCH   6  11
ATOM     11  C   UNL A   1      32.230  19.895  24.794  1.00  0.00     0.068 C 
BRANCH  11  12
ATOM     12  C   UNL A   1      33.134  18.660  24.891  1.00  0.00     0.056 C 
ATOM     13  C   UNL A   1      32.733  15.068  25.468  1.00  0.00     0.332 C 
ATOM     14  N   UNL A   1      33.297  16.355  25.093  1.00  0.00    -0.337 N 
ATOM     15  C   UNL A   1      33.300  16.575  23.649  1.00  0.00     0.262 C 
ATOM     16  C   UNL A   1      32.528  17.475  25.641  1.00  0.00     0.266 C 
ATOM     17  H   UNL A   1      34.247  16.325  25.464  1.00  0.00     0.347 HD
ATOM     18  C   UNL A   1      33.498  18.082  23.516  1.00  0.00     0.071 C 
ENDBRANCH  11  12
ENDBRANCH   6  11
ENDBRANCH   3   5
ENDBRANCH   2   3
ENDBRANCH   1   2
BRANCH   1  19
ATOM     19  C   UNL A   1      37.781  19.633  24.999  1.00  0.00     0.275 C 
BRANCH  19  20
ATOM     20  O   UNL A   1      38.518  20.825  25.330  1.00  0.00    -0.458 OA
BRANCH  20  21
ATOM     21  C   UNL A   1      39.582  20.628  26.142  1.00  0.00     0.338 C 
ATOM     22  O   UNL A   1      40.177  19.579  26.342  1.00  0.00    -0.246 OA
BRANCH  21  23
ATOM     23  C   UNL A   1      40.043  21.918  26.672  1.00  0.00     0.060 A 
ATOM     24  C   UNL A   1      39.475  23.071  26.132  1.00  0.00     0.016 A 
ATOM     25  C   UNL A   1      41.065  22.007  27.619  1.00  0.00     0.016 A 
ATOM     26  C   UNL A   1      39.933  24.326  26.515  1.00  0.00     0.010 A 
ATOM     27  C   UNL A   1      41.529  23.271  28.005  1.00  0.00     0.010 A 
ATOM     28  C   UNL A   1      40.978  24.435  27.441  1.00  0.00    -0.014 A 
BRANCH  28  29
ATOM     29  C   UNL A   1      41.537  25.775  27.741  1.00  0.00     0.031 A 
ATOM     30  C   UNL A   1      42.910  26.134  27.248  1.00  0.00     0.074 A 
ATOM     31  C   UNL A   1      40.794  26.687  28.393  1.00  0.00     0.049 A 
ATOM     32  N   UNL A   1      43.595  27.233  27.432  1.00  0.00    -0.248 NA
ATOM     33  C   UNL A   1      43.604  25.120  26.436  1.00  0.00     0.031 C 
ATOM     34  C   UNL A   1      39.428  26.477  28.872  1.00  0.00     0.029 A 
ATOM     35  N   UNL A   1      41.084  27.978  28.758  1.00  0.00    -0.354 N 
ATOM     36  C   UNL A   1      44.807  27.036  26.783  1.00  0.00     0.074 A 
ATOM     37  C   UNL A   1      44.769  25.709  26.208  1.00  0.00     0.031 C 
ATOM     38  C   UNL A   1      38.992  27.604  29.456  1.00  0.00     0.029 A 
ATOM     39  C   UNL A   1      40.062  28.599  29.431  1.00  0.00     0.049 A 
ATOM     40  H   UNL A   1      41.942  28.415  28.555  1.00  0.00     0.167 HD
ATOM     41  C   UNL A   1      45.853  27.888  26.673  1.00  0.00     0.037 A 
ATOM     42  C   UNL A   1      40.003  29.827  29.980  1.00  0.00     0.037 A 
ATOM     43  C   UNL A   1      45.882  29.218  27.222  1.00  0.00     0.049 A 
ATOM     44  C   UNL A   1      41.195  30.737  29.883  1.00  0.00     0.074 A 
ATOM     45  C   UNL A   1      46.895  30.157  27.160  1.00  0.00     0.029 A 
ATOM     46  N   UNL A   1      44.841  29.797  27.932  1.00  0.00    -0.354 N 
ATOM     47  N   UNL A   1      42.343  30.532  29.284  1.00  0.00    -0.248 NA
ATOM     48  C   UNL A   1      41.086  32.045  30.544  1.00  0.00     0.031 C 
ATOM     49  C   UNL A   1      46.480  31.296  27.858  1.00  0.00     0.029 A 
ATOM     50  C   UNL A   1      45.195  31.078  28.326  1.00  0.00     0.049 A 
ATOM     51  H   UNL A   1      43.979  29.363  28.127  1.00  0.00     0.167 HD
ATOM     52  C   UNL A   1      43.089  31.687  29.486  1.00  0.00     0.074 A 
ATOM     53  C   UNL A   1      42.256  32.596  30.246  1.00  0.00     0.031 C 
ATOM     54  C   UNL A   1      44.350  31.968  29.080  1.00  0.00     0.037 A 
BRANCH  41  55
ATOM     55  C   UNL A   1      47.069  27.391  25.951  1.00  0.00     0.057 A 
ATOM     56  C   UNL A   1      48.103  26.720  26.616  1.00  0.00     0.134 A 
ATOM     57  C   UNL A   1      47.197  27.570  24.568  1.00  0.00     0.134 A 
ATOM     58  F   UNL A   1      48.048  26.532  27.943  1.00  0.00    -0.206 F 
ATOM     59  C   UNL A   1      49.231  26.261  25.932  1.00  0.00     0.040 A 
ATOM     60  C   UNL A   1      48.308  27.098  23.870  1.00  0.00     0.040 A 
ATOM     61  F   UNL A   1      46.240  28.204  23.873  1.00  0.00    -0.206 F 
ATOM     62  C   UNL A   1      49.333  26.445  24.553  1.00  0.00     0.006 A 
ENDBRANCH  41  55
BRANCH  42  63
ATOM     63  C   UNL A   1      38.776  30.261  30.693  1.00  0.00     0.057 A 
ATOM     64  C   UNL A   1      38.576  29.956  32.043  1.00  0.00     0.134 A 
ATOM     65  C   UNL A   1      37.772  30.983  30.036  1.00  0.00     0.134 A 
ATOM     66  F   UNL A   1      39.492  29.246  32.718  1.00  0.00    -0.206 F 
ATOM     67  C   UNL A   1      37.417  30.347  32.715  1.00  0.00     0.040 A 
ATOM     68  C   UNL A   1      36.618  31.399  30.700  1.00  0.00     0.040 A 
ATOM     69  F   UNL A   1      37.905  31.302  28.740  1.00  0.00    -0.206 F 
ATOM     70  C   UNL A   1      36.436  31.076  32.044  1.00  0.00     0.006 A 
ENDBRANCH  42  63
BRANCH  54  71
ATOM     71  C   UNL A   1      44.896  33.318  29.434  1.00  0.00     0.057 A 
ATOM     72  C   UNL A   1      45.633  33.527  30.606  1.00  0.00     0.134 A 
ATOM     73  C   UNL A   1      44.712  34.410  28.576  1.00  0.00     0.134 A 
ATOM     74  F   UNL A   1      45.831  32.524  31.473  1.00  0.00    -0.206 F 
ATOM     75  C   UNL A   1      46.156  34.782  30.920  1.00  0.00     0.040 A 
ATOM     76  C   UNL A   1      45.247  35.664  28.872  1.00  0.00     0.040 A 
ATOM     77  F   UNL A   1      44.021  34.271  27.435  1.00  0.00    -0.206 F 
ATOM     78  C   UNL A   1      45.969  35.854  30.049  1.00  0.00     0.006 A 
ENDBRANCH  54  71
ENDBRANCH  28  29
ENDBRANCH  21  23
ENDBRANCH  20  21
ENDBRANCH  19  20
ENDBRANCH   1  19
TORSDOF 13
ENDMDL
MODEL 3
REMARK VINA RESULT:     -10.7      5.424     10.756
REMARK SMILES C[N@H+]1CC[C@@H](Cc2nccnc2C(=O)OCCOC(=O)c2ccc(-c3c4nc(c(-c5c(F)cccc5F)c5ccc([nH]5)c(-c5c(F)cccc5F)c5nc(c(-c6c(F)cccc6F)c6ccc3[nH]6)C=C5)C=C4)cc2)C1
REMARK SMILES IDX 16 1 15 2 13 3 14 4 12 5 7 6 8 7 9 8 11 9 10 10 6 11 5 12
REMARK SMILES IDX 1 13 2 14 3 15 75 16 4 18 17 19 18 20 19 21 20 22 21 23
REMARK SMILES IDX 22 24 74 25 23 26 73 27 24 28 25 29 26 30 67 31 27 32 72 33
REMARK SMILES IDX 66 34 68 35 28 36 71 37 65 38 64 39 29 41 55 42 38 43 54 44
REMARK SMILES IDX 39 45 42 46 53 47 69 48 40 49 41 50 52 52 70 53 43 54 30 55
REMARK SMILES IDX 31 56 36 57 32 58 33 59 35 60 37 61 34 62 56 63 57 64 62 65
REMARK SMILES IDX 58 66 59 67 61 68 63 69 60 70 44 71 45 72 50 73 46 74 47 75
REMARK SMILES IDX 49 76 51 77 48 78
REMARK H PARENT 2 17 68 40 42 51
REMARK Flexibility Score: inf
ROOT
ATOM      1  C   UNL A   1      40.970  21.145  27.464  1.00  0.00     0.275 C 
ENDROOT
BRANCH   1   2
ATOM      2  O   UNL A   1      42.157  20.346  27.285  1.00  0.00    -0.457 OA
BRANCH   2   3
ATOM      3  C   UNL A   1      42.317  19.736  26.083  1.00  0.00     0.358 C 
ATOM      4  O   UNL A   1      41.416  19.322  25.372  1.00  0.00    -0.244 OA
BRANCH   3   5
ATOM      5  C   UNL A   1      43.758  19.734  25.679  1.00  0.00     0.169 A 
ATOM      6  C   UNL A   1      44.474  20.863  25.275  1.00  0.00     0.074 A 
ATOM      7  N   UNL A   1      45.786  20.759  24.898  1.00  0.00    -0.257 NA
ATOM      8  C   UNL A   1      46.337  19.527  24.929  1.00  0.00     0.131 A 
ATOM      9  N   UNL A   1      44.345  18.498  25.746  1.00  0.00    -0.246 NA
ATOM     10  C   UNL A   1      45.634  18.421  25.353  1.00  0.00     0.132 A 
BRANCH   6  11
ATOM     11  C   UNL A   1      43.940  22.271  25.293  1.00  0.00     0.068 C 
BRANCH  11  12
ATOM     12  C   UNL A   1      44.980  23.312  25.729  1.00  0.00     0.056 C 
ATOM     13  C   UNL A   1      45.422  26.937  25.494  1.00  0.00     0.332 C 
ATOM     14  N   UNL A   1      45.567  25.548  25.902  1.00  0.00    -0.337 N 
ATOM     15  C   UNL A   1      44.924  25.262  27.182  1.00  0.00     0.262 C 
ATOM     16  C   UNL A   1      44.940  24.626  24.952  1.00  0.00     0.266 C 
ATOM     17  H   UNL A   1      46.577  25.413  25.958  1.00  0.00     0.347 HD
ATOM     18  C   UNL A   1      44.811  23.740  27.194  1.00  0.00     0.071 C 
ENDBRANCH  11  12
ENDBRANCH   6  11
ENDBRANCH   3   5
ENDBRANCH   2   3
ENDBRANCH   1   2
BRANCH   1  19
ATOM     19  C   UNL A   1      41.345  22.612  27.684  1.00  0.00     0.275 C 
BRANCH  19  20
ATOM     20  O   UNL A   1      40.488  23.480  26.918  1.00  0.00    -0.458 OA
BRANCH  20  21
ATOM     21  C   UNL A   1      41.057  24.644  26.532  1.00  0.00     0.338 C 
ATOM     22  O   UNL A   1      41.652  24.868  25.488  1.00  0.00    -0.246 OA
BRANCH  21  23
ATOM     23  C   UNL A   1      40.739  25.696  27.506  1.00  0.00     0.060 A 
ATOM     24  C   UNL A   1      41.601  26.791  27.570  1.00  0.00     0.016 A 
ATOM     25  C   UNL A   1      39.668  25.584  28.396  1.00  0.00     0.016 A 
ATOM     26  C   UNL A   1      41.417  27.774  28.534  1.00  0.00     0.010 A 
ATOM     27  C   UNL A   1      39.483  26.574  29.368  1.00  0.00     0.010 A 
ATOM     28  C   UNL A   1      40.367  27.664  29.454  1.00  0.00    -0.014 A 
BRANCH  28  29
ATOM     29  C   UNL A   1      40.264  28.655  30.552  1.00  0.00     0.031 A 
ATOM     30  C   UNL A   1      39.239  29.749  30.471  1.00  0.00     0.074 A 
ATOM     31  C   UNL A   1      41.041  28.537  31.643  1.00  0.00     0.049 A 
ATOM     32  N   UNL A   1      39.010  30.734  31.302  1.00  0.00    -0.248 NA
ATOM     33  C   UNL A   1      38.347  29.730  29.299  1.00  0.00     0.031 C 
ATOM     34  C   UNL A   1      42.034  27.486  31.863  1.00  0.00     0.029 A 
ATOM     35  N   UNL A   1      41.109  29.306  32.777  1.00  0.00    -0.354 N 
ATOM     36  C   UNL A   1      37.969  31.464  30.744  1.00  0.00     0.074 A 
ATOM     37  C   UNL A   1      37.617  30.817  29.499  1.00  0.00     0.031 C 
ATOM     38  C   UNL A   1      42.604  27.669  33.065  1.00  0.00     0.029 A 
ATOM     39  C   UNL A   1      42.047  28.871  33.680  1.00  0.00     0.049 A 
ATOM     40  H   UNL A   1      40.538  30.094  32.929  1.00  0.00     0.167 HD
ATOM     41  C   UNL A   1      37.361  32.572  31.229  1.00  0.00     0.037 A 
ATOM     42  C   UNL A   1      42.427  29.396  34.860  1.00  0.00     0.037 A 
ATOM     43  C   UNL A   1      37.695  33.202  32.480  1.00  0.00     0.049 A 
ATOM     44  C   UNL A   1      41.767  30.652  35.356  1.00  0.00     0.074 A 
ATOM     45  C   UNL A   1      37.133  34.325  33.059  1.00  0.00     0.029 A 
ATOM     46  N   UNL A   1      38.679  32.753  33.348  1.00  0.00    -0.354 N 
ATOM     47  N   UNL A   1      40.798  31.346  34.810  1.00  0.00    -0.248 NA
ATOM     48  C   UNL A   1      42.258  31.201  36.627  1.00  0.00     0.031 C 
ATOM     49  C   UNL A   1      37.797  34.575  34.265  1.00  0.00     0.029 A 
ATOM     50  C   UNL A   1      38.749  33.587  34.452  1.00  0.00     0.049 A 
ATOM     51  H   UNL A   1      39.244  31.960  33.201  1.00  0.00     0.167 HD
ATOM     52  C   UNL A   1      40.556  32.406  35.675  1.00  0.00     0.074 A 
ATOM     53  C   UNL A   1      41.466  32.253  36.790  1.00  0.00     0.031 C 
ATOM     54  C   UNL A   1      39.661  33.416  35.554  1.00  0.00     0.037 A 
BRANCH  41  55
ATOM     55  C   UNL A   1      36.288  33.191  30.386  1.00  0.00     0.057 A 
ATOM     56  C   UNL A   1      36.586  33.959  29.254  1.00  0.00     0.134 A 
ATOM     57  C   UNL A   1      34.937  32.999  30.702  1.00  0.00     0.134 A 
ATOM     58  F   UNL A   1      37.861  34.193  28.908  1.00  0.00    -0.206 F 
ATOM     59  C   UNL A   1      35.577  34.530  28.475  1.00  0.00     0.040 A 
ATOM     60  C   UNL A   1      33.920  33.547  29.921  1.00  0.00     0.040 A 
ATOM     61  F   UNL A   1      34.586  32.272  31.774  1.00  0.00    -0.206 F 
ATOM     62  C   UNL A   1      34.239  34.319  28.806  1.00  0.00     0.006 A 
ENDBRANCH  41  55
BRANCH  42  63
ATOM     63  C   UNL A   1      43.503  28.745  35.647  1.00  0.00     0.057 A 
ATOM     64  C   UNL A   1      44.844  29.109  35.481  1.00  0.00     0.134 A 
ATOM     65  C   UNL A   1      43.216  27.739  36.577  1.00  0.00     0.134 A 
ATOM     66  F   UNL A   1      45.182  30.051  34.588  1.00  0.00    -0.206 F 
ATOM     67  C   UNL A   1      45.863  28.490  36.207  1.00  0.00     0.040 A 
ATOM     68  C   UNL A   1      44.221  27.126  37.324  1.00  0.00     0.040 A 
ATOM     69  F   UNL A   1      41.950  27.345  36.777  1.00  0.00    -0.206 F 
ATOM     70  C   UNL A   1      45.551  27.499  37.136  1.00  0.00     0.006 A 
ENDBRANCH  42  63
BRANCH  54  71
ATOM     71  C   UNL A   1      39.613  34.421  36.664  1.00  0.00     0.057 A 
ATOM     72  C   UNL A   1      38.894  34.180  37.841  1.00  0.00     0.134 A 
ATOM     73  C   UNL A   1      40.324  35.624  36.570  1.00  0.00     0.134 A 
ATOM     74  F   UNL A   1      38.183  33.053  37.985  1.00  0.00    -0.206 F 
ATOM     75  C   UNL A   1      38.870  35.112  38.881  1.00  0.00     0.040 A 
ATOM     76  C   UNL A   1      40.323  36.553  37.611  1.00  0.00     0.040 A 
ATOM     77  F   UNL A   1      41.038  35.909  35.470  1.00  0.00    -0.206 F 
ATOM     78  C   UNL A   1      39.590  36.299  38.770  1.00  0.00     0.006 A 
ENDBRANCH  54  71
ENDBRANCH  28  29
ENDBRANCH  21  23
ENDBRANCH  20  21
ENDBRANCH  19  20
ENDBRANCH   1  19
TORSDOF 13
ENDMDL
