MODEL 1
REMARK VINA RESULT:     -10.1      0.000      0.000
REMARK SMILES O=C(/C=C/c1ccc(O)c(O)c1)OCCOC(=O)c1ccc(-c2c3nc(c(-c4c(F)cccc4F)c4ccc([nH]4)c(-c4c(F)cccc4F)c4nc(c(-c5c(F)cccc5F)c5ccc2[nH]5)C=C4)C=C3)cc1
REMARK SMILES IDX 14 1 13 2 2 3 1 4 3 5 4 6 5 7 6 8 12 9 7 10 10 11 8 12 11 13
REMARK SMILES IDX 9 15 15 17 16 18 17 19 18 20 19 21 20 22 72 23 21 24 71 25
REMARK SMILES IDX 22 26 23 27 24 28 65 29 25 30 70 31 64 32 66 33 26 34 69 35
REMARK SMILES IDX 63 36 62 37 27 39 53 40 36 41 52 42 37 43 40 44 51 45 67 46
REMARK SMILES IDX 38 47 39 48 50 50 68 51 41 52 28 53 29 54 34 55 30 56 31 57
REMARK SMILES IDX 33 58 35 59 32 60 54 61 55 62 60 63 56 64 57 65 59 66 61 67
REMARK SMILES IDX 58 68 42 69 43 70 48 71 44 72 45 73 47 74 49 75 46 76
REMARK H PARENT 11 14 9 16 66 38 40 49
REMARK Flexibility Score: inf
ROOT
ATOM      1  C   UNL A   1      33.093  36.850  31.216  1.00  0.00     0.275 C 
ENDROOT
BRANCH   1   2
ATOM      2  O   UNL A   1      34.183  36.339  32.015  1.00  0.00    -0.459 OA
BRANCH   2   3
ATOM      3  C   UNL A   1      34.237  36.225  33.363  1.00  0.00     0.330 C 
ATOM      4  O   UNL A   1      33.843  37.131  34.092  1.00  0.00    -0.247 OA
BRANCH   3   5
ATOM      5  C   UNL A   1      34.945  35.092  33.974  1.00  0.00     0.094 C 
ATOM      6  C   UNL A   1      36.047  34.490  33.509  1.00  0.00     0.016 C 
BRANCH   6   7
ATOM      7  C   UNL A   1      36.752  33.476  34.299  1.00  0.00    -0.021 A 
ATOM      8  C   UNL A   1      37.317  33.762  35.551  1.00  0.00     0.012 A 
ATOM      9  C   UNL A   1      36.873  32.185  33.769  1.00  0.00     0.058 A 
ATOM     10  C   UNL A   1      38.001  32.774  36.268  1.00  0.00     0.051 A 
ATOM     11  C   UNL A   1      37.551  31.211  34.487  1.00  0.00     0.157 A 
ATOM     12  C   UNL A   1      38.110  31.499  35.729  1.00  0.00     0.157 A 
BRANCH  11  13
ATOM     13  O   UNL A   1      37.666  29.957  33.960  1.00  0.00    -0.504 OA
ATOM     14  H   UNL A   1      38.349  29.767  33.348  1.00  0.00     0.293 HD
ENDBRANCH  11  13
BRANCH  12  15
ATOM     15  O   UNL A   1      38.758  30.489  36.382  1.00  0.00    -0.504 OA
ATOM     16  H   UNL A   1      38.959  29.692  35.931  1.00  0.00     0.293 HD
ENDBRANCH  12  15
ENDBRANCH   6   7
ENDBRANCH   3   5
ENDBRANCH   2   3
ENDBRANCH   1   2
BRANCH   1  17
ATOM     17  C   UNL A   1      33.047  36.327  29.779  1.00  0.00     0.275 C 
BRANCH  17  18
ATOM     18  O   UNL A   1      32.548  34.984  29.705  1.00  0.00    -0.458 OA
BRANCH  18  19
ATOM     19  C   UNL A   1      33.027  34.249  28.671  1.00  0.00     0.338 C 
ATOM     20  O   UNL A   1      32.560  34.179  27.545  1.00  0.00    -0.246 OA
BRANCH  19  21
ATOM     21  C   UNL A   1      34.322  33.640  29.046  1.00  0.00     0.060 A 
ATOM     22  C   UNL A   1      35.393  33.789  28.156  1.00  0.00     0.016 A 
ATOM     23  C   UNL A   1      34.504  32.966  30.257  1.00  0.00     0.016 A 
ATOM     24  C   UNL A   1      36.647  33.266  28.473  1.00  0.00     0.010 A 
ATOM     25  C   UNL A   1      35.761  32.432  30.569  1.00  0.00     0.010 A 
ATOM     26  C   UNL A   1      36.837  32.576  29.677  1.00  0.00    -0.014 A 
BRANCH  26  27
ATOM     27  C   UNL A   1      38.155  31.976  29.998  1.00  0.00     0.031 A 
ATOM     28  C   UNL A   1      39.160  32.757  30.795  1.00  0.00     0.074 A 
ATOM     29  C   UNL A   1      38.461  30.743  29.556  1.00  0.00     0.049 A 
ATOM     30  N   UNL A   1      40.380  32.425  31.133  1.00  0.00    -0.248 NA
ATOM     31  C   UNL A   1      38.736  34.080  31.277  1.00  0.00     0.031 C 
ATOM     32  C   UNL A   1      37.565  29.870  28.799  1.00  0.00     0.029 A 
ATOM     33  N   UNL A   1      39.622  30.019  29.664  1.00  0.00    -0.354 N 
ATOM     34  C   UNL A   1      40.869  33.494  31.872  1.00  0.00     0.074 A 
ATOM     35  C   UNL A   1      39.824  34.495  31.912  1.00  0.00     0.031 C 
ATOM     36  C   UNL A   1      38.222  28.742  28.479  1.00  0.00     0.029 A 
ATOM     37  C   UNL A   1      39.588  28.822  28.993  1.00  0.00     0.049 A 
ATOM     38  H   UNL A   1      40.405  30.328  30.175  1.00  0.00     0.167 HD
ATOM     39  C   UNL A   1      42.078  33.622  32.470  1.00  0.00     0.037 A 
ATOM     40  C   UNL A   1      40.555  27.907  28.793  1.00  0.00     0.037 A 
ATOM     41  C   UNL A   1      43.117  32.629  32.437  1.00  0.00     0.049 A 
ATOM     42  C   UNL A   1      41.920  28.119  29.393  1.00  0.00     0.074 A 
ATOM     43  C   UNL A   1      44.345  32.646  33.078  1.00  0.00     0.029 A 
ATOM     44  N   UNL A   1      43.062  31.450  31.712  1.00  0.00    -0.354 N 
ATOM     45  N   UNL A   1      42.345  29.100  30.151  1.00  0.00    -0.248 NA
ATOM     46  C   UNL A   1      42.939  27.096  29.109  1.00  0.00     0.031 C 
ATOM     47  C   UNL A   1      45.055  31.503  32.698  1.00  0.00     0.029 A 
ATOM     48  C   UNL A   1      44.252  30.755  31.851  1.00  0.00     0.049 A 
ATOM     49  H   UNL A   1      42.291  31.150  31.179  1.00  0.00     0.167 HD
ATOM     50  C   UNL A   1      43.669  28.802  30.452  1.00  0.00     0.074 A 
ATOM     51  C   UNL A   1      43.976  27.544  29.804  1.00  0.00     0.031 C 
ATOM     52  C   UNL A   1      44.551  29.507  31.199  1.00  0.00     0.037 A 
BRANCH  39  53
ATOM     53  C   UNL A   1      42.357  34.892  33.210  1.00  0.00     0.057 A 
ATOM     54  C   UNL A   1      43.078  35.939  32.625  1.00  0.00     0.134 A 
ATOM     55  C   UNL A   1      41.826  35.102  34.488  1.00  0.00     0.134 A 
ATOM     56  F   UNL A   1      43.616  35.796  31.404  1.00  0.00    -0.206 F 
ATOM     57  C   UNL A   1      43.266  37.153  33.289  1.00  0.00     0.040 A 
ATOM     58  C   UNL A   1      41.993  36.315  35.155  1.00  0.00     0.040 A 
ATOM     59  F   UNL A   1      41.121  34.138  35.099  1.00  0.00    -0.206 F 
ATOM     60  C   UNL A   1      42.715  37.346  34.554  1.00  0.00     0.006 A 
ENDBRANCH  39  53
BRANCH  40  61
ATOM     61  C   UNL A   1      40.292  26.714  27.950  1.00  0.00     0.057 A 
ATOM     62  C   UNL A   1      39.503  25.657  28.414  1.00  0.00     0.134 A 
ATOM     63  C   UNL A   1      40.870  26.585  26.682  1.00  0.00     0.134 A 
ATOM     64  F   UNL A   1      38.944  25.715  29.632  1.00  0.00    -0.206 F 
ATOM     65  C   UNL A   1      39.318  24.499  27.656  1.00  0.00     0.040 A 
ATOM     66  C   UNL A   1      40.677  25.442  25.905  1.00  0.00     0.040 A 
ATOM     67  F   UNL A   1      41.632  27.568  26.179  1.00  0.00    -0.206 F 
ATOM     68  C   UNL A   1      39.907  24.390  26.398  1.00  0.00     0.006 A 
ENDBRANCH  40  61
BRANCH  52  69
ATOM     69  C   UNL A   1      45.928  28.938  31.366  1.00  0.00     0.057 A 
ATOM     70  C   UNL A   1      46.970  29.274  30.493  1.00  0.00     0.134 A 
ATOM     71  C   UNL A   1      46.228  28.085  32.435  1.00  0.00     0.134 A 
ATOM     72  F   UNL A   1      46.744  30.075  29.442  1.00  0.00    -0.206 F 
ATOM     73  C   UNL A   1      48.260  28.770  30.671  1.00  0.00     0.040 A 
ATOM     74  C   UNL A   1      47.518  27.592  32.635  1.00  0.00     0.040 A 
ATOM     75  F   UNL A   1      45.276  27.729  33.311  1.00  0.00    -0.206 F 
ATOM     76  C   UNL A   1      48.538  27.933  31.750  1.00  0.00     0.006 A 
ENDBRANCH  52  69
ENDBRANCH  26  27
ENDBRANCH  19  21
ENDBRANCH  18  19
ENDBRANCH  17  18
ENDBRANCH   1  17
TORSDOF 14
ENDMDL
MODEL 2
REMARK VINA RESULT:      -9.6      1.153      6.624
REMARK SMILES O=C(/C=C/c1ccc(O)c(O)c1)OCCOC(=O)c1ccc(-c2c3nc(c(-c4c(F)cccc4F)c4ccc([nH]4)c(-c4c(F)cccc4F)c4nc(c(-c5c(F)cccc5F)c5ccc2[nH]5)C=C4)C=C3)cc1
REMARK SMILES IDX 14 1 13 2 2 3 1 4 3 5 4 6 5 7 6 8 12 9 7 10 10 11 8 12 11 13
REMARK SMILES IDX 9 15 15 17 16 18 17 19 18 20 19 21 20 22 72 23 21 24 71 25
REMARK SMILES IDX 22 26 23 27 24 28 65 29 25 30 70 31 64 32 66 33 26 34 69 35
REMARK SMILES IDX 63 36 62 37 27 39 53 40 36 41 52 42 37 43 40 44 51 45 67 46
REMARK SMILES IDX 38 47 39 48 50 50 68 51 41 52 28 53 29 54 34 55 30 56 31 57
REMARK SMILES IDX 33 58 35 59 32 60 54 61 55 62 60 63 56 64 57 65 59 66 61 67
REMARK SMILES IDX 58 68 42 69 43 70 48 71 44 72 45 73 47 74 49 75 46 76
REMARK H PARENT 11 14 9 16 66 38 40 49
REMARK Flexibility Score: inf
ROOT
ATOM      1  C   UNL A   1      33.387  36.965  30.179  1.00  0.00     0.275 C 
ENDROOT
BRANCH   1   2
ATOM      2  O   UNL A   1      33.200  36.888  31.609  1.00  0.00    -0.459 OA
BRANCH   2   3
ATOM      3  C   UNL A   1      32.897  35.793  32.345  1.00  0.00     0.330 C 
ATOM      4  O   UNL A   1      31.731  35.488  32.579  1.00  0.00    -0.247 OA
BRANCH   3   5
ATOM      5  C   UNL A   1      33.965  35.059  33.037  1.00  0.00     0.094 C 
ATOM      6  C   UNL A   1      34.247  33.755  32.922  1.00  0.00     0.016 C 
BRANCH   6   7
ATOM      7  C   UNL A   1      35.444  33.176  33.540  1.00  0.00    -0.021 A 
ATOM      8  C   UNL A   1      36.149  33.829  34.562  1.00  0.00     0.012 A 
ATOM      9  C   UNL A   1      35.898  31.935  33.077  1.00  0.00     0.058 A 
ATOM     10  C   UNL A   1      37.300  33.256  35.115  1.00  0.00     0.051 A 
ATOM     11  C   UNL A   1      37.037  31.372  33.632  1.00  0.00     0.157 A 
ATOM     12  C   UNL A   1      37.735  32.023  34.645  1.00  0.00     0.157 A 
BRANCH  11  13
ATOM     13  O   UNL A   1      37.474  30.163  33.170  1.00  0.00    -0.504 OA
ATOM     14  H   UNL A   1      38.338  29.866  33.377  1.00  0.00     0.293 HD
ENDBRANCH  11  13
BRANCH  12  15
ATOM     15  O   UNL A   1      38.846  31.407  35.149  1.00  0.00    -0.504 OA
ATOM     16  H   UNL A   1      39.074  31.518  36.051  1.00  0.00     0.293 HD
ENDBRANCH  12  15
ENDBRANCH   6   7
ENDBRANCH   3   5
ENDBRANCH   2   3
ENDBRANCH   1   2
BRANCH   1  17
ATOM     17  C   UNL A   1      32.508  36.015  29.363  1.00  0.00     0.275 C 
BRANCH  17  18
ATOM     18  O   UNL A   1      33.190  35.496  28.212  1.00  0.00    -0.458 OA
BRANCH  18  19
ATOM     19  C   UNL A   1      33.172  34.145  28.094  1.00  0.00     0.338 C 
ATOM     20  O   UNL A   1      32.323  33.471  27.534  1.00  0.00    -0.246 OA
BRANCH  19  21
ATOM     21  C   UNL A   1      34.437  33.580  28.615  1.00  0.00     0.060 A 
ATOM     22  C   UNL A   1      35.631  34.212  28.246  1.00  0.00     0.016 A 
ATOM     23  C   UNL A   1      34.461  32.477  29.474  1.00  0.00     0.016 A 
ATOM     24  C   UNL A   1      36.852  33.745  28.735  1.00  0.00     0.010 A 
ATOM     25  C   UNL A   1      35.688  32.003  29.954  1.00  0.00     0.010 A 
ATOM     26  C   UNL A   1      36.889  32.631  29.584  1.00  0.00    -0.014 A 
BRANCH  26  27
ATOM     27  C   UNL A   1      38.186  32.100  30.069  1.00  0.00     0.031 A 
ATOM     28  C   UNL A   1      38.683  30.771  29.580  1.00  0.00     0.074 A 
ATOM     29  C   UNL A   1      38.907  32.797  30.966  1.00  0.00     0.049 A 
ATOM     30  N   UNL A   1      39.765  30.118  29.923  1.00  0.00    -0.248 NA
ATOM     31  C   UNL A   1      37.859  30.089  28.570  1.00  0.00     0.031 C 
ATOM     32  C   UNL A   1      38.551  34.111  31.498  1.00  0.00     0.029 A 
ATOM     33  N   UNL A   1      40.082  32.484  31.604  1.00  0.00    -0.354 N 
ATOM     34  C   UNL A   1      39.755  28.952  29.170  1.00  0.00     0.074 A 
ATOM     35  C   UNL A   1      38.550  28.974  28.368  1.00  0.00     0.031 C 
ATOM     36  C   UNL A   1      39.470  34.477  32.409  1.00  0.00     0.029 A 
ATOM     37  C   UNL A   1      40.466  33.415  32.537  1.00  0.00     0.049 A 
ATOM     38  H   UNL A   1      40.600  31.670  31.410  1.00  0.00     0.167 HD
ATOM     39  C   UNL A   1      40.676  27.959  29.143  1.00  0.00     0.037 A 
ATOM     40  C   UNL A   1      41.489  33.401  33.412  1.00  0.00     0.037 A 
ATOM     41  C   UNL A   1      41.878  27.934  29.933  1.00  0.00     0.049 A 
ATOM     42  C   UNL A   1      42.447  32.239  33.423  1.00  0.00     0.074 A 
ATOM     43  C   UNL A   1      42.902  27.002  29.913  1.00  0.00     0.029 A 
ATOM     44  N   UNL A   1      42.210  28.872  30.895  1.00  0.00    -0.354 N 
ATOM     45  N   UNL A   1      42.467  31.178  32.654  1.00  0.00    -0.248 NA
ATOM     46  C   UNL A   1      43.523  32.272  34.426  1.00  0.00     0.031 C 
ATOM     47  C   UNL A   1      43.828  27.346  30.902  1.00  0.00     0.029 A 
ATOM     48  C   UNL A   1      43.399  28.515  31.510  1.00  0.00     0.049 A 
ATOM     49  H   UNL A   1      41.681  29.673  31.110  1.00  0.00     0.167 HD
ATOM     50  C   UNL A   1      43.566  30.432  33.063  1.00  0.00     0.074 A 
ATOM     51  C   UNL A   1      44.195  31.164  34.142  1.00  0.00     0.031 C 
ATOM     52  C   UNL A   1      44.015  29.247  32.586  1.00  0.00     0.037 A 
BRANCH  39  53
ATOM     53  C   UNL A   1      40.421  26.798  28.233  1.00  0.00     0.057 A 
ATOM     54  C   UNL A   1      39.502  25.796  28.564  1.00  0.00     0.134 A 
ATOM     55  C   UNL A   1      41.039  26.728  26.979  1.00  0.00     0.134 A 
ATOM     56  F   UNL A   1      38.883  25.806  29.754  1.00  0.00    -0.206 F 
ATOM     57  C   UNL A   1      39.208  24.758  27.676  1.00  0.00     0.040 A 
ATOM     58  C   UNL A   1      40.741  25.706  26.078  1.00  0.00     0.040 A 
ATOM     59  F   UNL A   1      41.925  27.663  26.603  1.00  0.00    -0.206 F 
ATOM     60  C   UNL A   1      39.822  24.718  26.426  1.00  0.00     0.006 A 
ENDBRANCH  39  53
BRANCH  40  61
ATOM     61  C   UNL A   1      41.650  34.505  34.390  1.00  0.00     0.057 A 
ATOM     62  C   UNL A   1      41.172  34.392  35.699  1.00  0.00     0.134 A 
ATOM     63  C   UNL A   1      42.239  35.720  34.017  1.00  0.00     0.134 A 
ATOM     64  F   UNL A   1      40.576  33.260  36.104  1.00  0.00    -0.206 F 
ATOM     65  C   UNL A   1      41.249  35.457  36.598  1.00  0.00     0.040 A 
ATOM     66  C   UNL A   1      42.341  36.785  34.911  1.00  0.00     0.040 A 
ATOM     67  F   UNL A   1      42.722  35.888  32.777  1.00  0.00    -0.206 F 
ATOM     68  C   UNL A   1      41.836  36.658  36.204  1.00  0.00     0.006 A 
ENDBRANCH  40  61
BRANCH  52  69
ATOM     69  C   UNL A   1      45.245  28.667  33.217  1.00  0.00     0.057 A 
ATOM     70  C   UNL A   1      46.528  29.005  32.768  1.00  0.00     0.134 A 
ATOM     71  C   UNL A   1      45.149  27.801  34.313  1.00  0.00     0.134 A 
ATOM     72  F   UNL A   1      46.686  29.818  31.714  1.00  0.00    -0.206 F 
ATOM     73  C   UNL A   1      47.673  28.491  33.380  1.00  0.00     0.040 A 
ATOM     74  C   UNL A   1      46.287  27.298  34.947  1.00  0.00     0.040 A 
ATOM     75  F   UNL A   1      43.950  27.442  34.796  1.00  0.00    -0.206 F 
ATOM     76  C   UNL A   1      47.553  27.641  34.478  1.00  0.00     0.006 A 
ENDBRANCH  52  69
ENDBRANCH  26  27
ENDBRANCH  19  21
ENDBRANCH  18  19
ENDBRANCH  17  18
ENDBRANCH   1  17
TORSDOF 14
ENDMDL
MODEL 3
REMARK VINA RESULT:      -9.6      6.282     11.565
REMARK SMILES O=C(/C=C/c1ccc(O)c(O)c1)OCCOC(=O)c1ccc(-c2c3nc(c(-c4c(F)cccc4F)c4ccc([nH]4)c(-c4c(F)cccc4F)c4nc(c(-c5c(F)cccc5F)c5ccc2[nH]5)C=C4)C=C3)cc1
REMARK SMILES IDX 14 1 13 2 2 3 1 4 3 5 4 6 5 7 6 8 12 9 7 10 10 11 8 12 11 13
REMARK SMILES IDX 9 15 15 17 16 18 17 19 18 20 19 21 20 22 72 23 21 24 71 25
REMARK SMILES IDX 22 26 23 27 24 28 65 29 25 30 70 31 64 32 66 33 26 34 69 35
REMARK SMILES IDX 63 36 62 37 27 39 53 40 36 41 52 42 37 43 40 44 51 45 67 46
REMARK SMILES IDX 38 47 39 48 50 50 68 51 41 52 28 53 29 54 34 55 30 56 31 57
REMARK SMILES IDX 33 58 35 59 32 60 54 61 55 62 60 63 56 64 57 65 59 66 61 67
REMARK SMILES IDX 58 68 42 69 43 70 48 71 44 72 45 73 47 74 49 75 46 76
REMARK H PARENT 11 14 9 16 66 38 40 49
REMARK Flexibility Score: inf
ROOT
ATOM      1  C   UNL A   1      38.298  21.232  25.521  1.00  0.00     0.275 C 
ENDROOT
BRANCH   1   2
ATOM      2  O   UNL A   1      37.278  21.566  24.554  1.00  0.00    -0.459 OA
BRANCH   2   3
ATOM      3  C   UNL A   1      35.940  21.402  24.675  1.00  0.00     0.330 C 
ATOM      4  O   UNL A   1      35.181  22.367  24.678  1.00  0.00    -0.247 OA
BRANCH   3   5
ATOM      5  C   UNL A   1      35.391  20.078  24.997  1.00  0.00     0.094 C 
ATOM      6  C   UNL A   1      34.232  19.564  24.565  1.00  0.00     0.016 C 
BRANCH   6   7
ATOM      7  C   UNL A   1      33.875  18.166  24.825  1.00  0.00    -0.021 A 
ATOM      8  C   UNL A   1      32.560  17.770  25.112  1.00  0.00     0.012 A 
ATOM      9  C   UNL A   1      34.892  17.203  24.798  1.00  0.00     0.058 A 
ATOM     10  C   UNL A   1      32.260  16.428  25.376  1.00  0.00     0.051 A 
ATOM     11  C   UNL A   1      34.586  15.876  25.057  1.00  0.00     0.157 A 
ATOM     12  C   UNL A   1      33.280  15.486  25.343  1.00  0.00     0.157 A 
BRANCH  11  13
ATOM     13  O   UNL A   1      35.586  14.946  25.032  1.00  0.00    -0.504 OA
ATOM     14  H   UNL A   1      35.854  14.569  24.218  1.00  0.00     0.293 HD
ENDBRANCH  11  13
BRANCH  12  15
ATOM     15  O   UNL A   1      33.051  14.161  25.582  1.00  0.00    -0.504 OA
ATOM     16  H   UNL A   1      32.582  13.898  26.350  1.00  0.00     0.293 HD
ENDBRANCH  12  15
ENDBRANCH   6   7
ENDBRANCH   3   5
ENDBRANCH   2   3
ENDBRANCH   1   2
BRANCH   1  17
ATOM     17  C   UNL A   1      39.014  19.904  25.270  1.00  0.00     0.275 C 
BRANCH  17  18
ATOM     18  O   UNL A   1      39.793  19.483  26.399  1.00  0.00    -0.458 OA
BRANCH  18  19
ATOM     19  C   UNL A   1      41.135  19.599  26.246  1.00  0.00     0.338 C 
ATOM     20  O   UNL A   1      41.889  18.775  25.753  1.00  0.00    -0.246 OA
BRANCH  19  21
ATOM     21  C   UNL A   1      41.567  20.962  26.626  1.00  0.00     0.060 A 
ATOM     22  C   UNL A   1      41.894  21.851  25.594  1.00  0.00     0.016 A 
ATOM     23  C   UNL A   1      41.623  21.382  27.958  1.00  0.00     0.016 A 
ATOM     24  C   UNL A   1      42.274  23.161  25.890  1.00  0.00     0.010 A 
ATOM     25  C   UNL A   1      42.016  22.693  28.254  1.00  0.00     0.010 A 
ATOM     26  C   UNL A   1      42.347  23.588  27.222  1.00  0.00    -0.014 A 
BRANCH  26  27
ATOM     27  C   UNL A   1      42.796  24.963  27.546  1.00  0.00     0.031 A 
ATOM     28  C   UNL A   1      41.827  25.951  28.129  1.00  0.00     0.074 A 
ATOM     29  C   UNL A   1      44.064  25.335  27.295  1.00  0.00     0.049 A 
ATOM     30  N   UNL A   1      42.017  27.211  28.432  1.00  0.00    -0.248 NA
ATOM     31  C   UNL A   1      40.471  25.458  28.412  1.00  0.00     0.031 C 
ATOM     32  C   UNL A   1      45.110  24.465  26.759  1.00  0.00     0.029 A 
ATOM     33  N   UNL A   1      44.683  26.553  27.441  1.00  0.00    -0.354 N 
ATOM     34  C   UNL A   1      40.808  27.660  28.946  1.00  0.00     0.074 A 
ATOM     35  C   UNL A   1      39.885  26.547  28.892  1.00  0.00     0.031 C 
ATOM     36  C   UNL A   1      46.231  25.185  26.587  1.00  0.00     0.029 A 
ATOM     37  C   UNL A   1      45.977  26.569  26.983  1.00  0.00     0.049 A 
ATOM     38  H   UNL A   1      44.241  27.338  27.837  1.00  0.00     0.167 HD
ATOM     39  C   UNL A   1      40.502  28.888  29.428  1.00  0.00     0.037 A 
ATOM     40  C   UNL A   1      46.849  27.590  26.871  1.00  0.00     0.037 A 
ATOM     41  C   UNL A   1      41.417  29.996  29.488  1.00  0.00     0.049 A 
ATOM     42  C   UNL A   1      46.450  28.967  27.331  1.00  0.00     0.074 A 
ATOM     43  C   UNL A   1      41.211  31.254  30.030  1.00  0.00     0.029 A 
ATOM     44  N   UNL A   1      42.703  29.988  28.976  1.00  0.00    -0.354 N 
ATOM     45  N   UNL A   1      45.328  29.360  27.882  1.00  0.00    -0.248 NA
ATOM     46  C   UNL A   1      47.438  30.042  27.150  1.00  0.00     0.031 C 
ATOM     47  C   UNL A   1      42.354  32.024  29.797  1.00  0.00     0.029 A 
ATOM     48  C   UNL A   1      43.286  31.233  29.145  1.00  0.00     0.049 A 
ATOM     49  H   UNL A   1      43.139  29.212  28.556  1.00  0.00     0.167 HD
ATOM     50  C   UNL A   1      45.484  30.718  28.135  1.00  0.00     0.074 A 
ATOM     51  C   UNL A   1      46.811  31.081  27.687  1.00  0.00     0.031 C 
ATOM     52  C   UNL A   1      44.606  31.586  28.691  1.00  0.00     0.037 A 
BRANCH  39  53
ATOM     53  C   UNL A   1      39.108  29.113  29.924  1.00  0.00     0.057 A 
ATOM     54  C   UNL A   1      38.771  28.932  31.271  1.00  0.00     0.134 A 
ATOM     55  C   UNL A   1      38.116  29.596  29.063  1.00  0.00     0.134 A 
ATOM     56  F   UNL A   1      39.678  28.466  32.143  1.00  0.00    -0.206 F 
ATOM     57  C   UNL A   1      37.490  29.222  31.744  1.00  0.00     0.040 A 
ATOM     58  C   UNL A   1      36.838  29.904  29.527  1.00  0.00     0.040 A 
ATOM     59  F   UNL A   1      38.381  29.796  27.764  1.00  0.00    -0.206 F 
ATOM     60  C   UNL A   1      36.522  29.717  30.873  1.00  0.00     0.006 A 
ENDBRANCH  39  53
BRANCH  40  61
ATOM     61  C   UNL A   1      48.182  27.368  26.260  1.00  0.00     0.057 A 
ATOM     62  C   UNL A   1      49.300  27.065  27.043  1.00  0.00     0.134 A 
ATOM     63  C   UNL A   1      48.376  27.509  24.880  1.00  0.00     0.134 A 
ATOM     64  F   UNL A   1      49.178  26.942  28.373  1.00  0.00    -0.206 F 
ATOM     65  C   UNL A   1      50.571  26.935  26.481  1.00  0.00     0.040 A 
ATOM     66  C   UNL A   1      49.637  27.362  24.302  1.00  0.00     0.040 A 
ATOM     67  F   UNL A   1      47.342  27.794  24.075  1.00  0.00    -0.206 F 
ATOM     68  C   UNL A   1      50.741  27.084  25.106  1.00  0.00     0.006 A 
ENDBRANCH  40  61
BRANCH  52  69
ATOM     69  C   UNL A   1      45.048  33.010  28.854  1.00  0.00     0.057 A 
ATOM     70  C   UNL A   1      44.739  33.986  27.899  1.00  0.00     0.134 A 
ATOM     71  C   UNL A   1      45.747  33.419  29.996  1.00  0.00     0.134 A 
ATOM     72  F   UNL A   1      44.084  33.655  26.776  1.00  0.00    -0.206 F 
ATOM     73  C   UNL A   1      45.122  35.318  28.069  1.00  0.00     0.040 A 
ATOM     74  C   UNL A   1      46.116  34.751  30.187  1.00  0.00     0.040 A 
ATOM     75  F   UNL A   1      46.068  32.533  30.952  1.00  0.00    -0.206 F 
ATOM     76  C   UNL A   1      45.806  35.704  29.221  1.00  0.00     0.006 A 
ENDBRANCH  52  69
ENDBRANCH  26  27
ENDBRANCH  19  21
ENDBRANCH  18  19
ENDBRANCH  17  18
ENDBRANCH   1  17
TORSDOF 14
ENDMDL
