MODEL 1
REMARK VINA RESULT:     -10.4      0.000      0.000
REMARK SMILES CCS(=O)(=O)N1CCC[C@@H](C(=O)OCCOC(=O)c2ccc(-c3c4nc(c(-c5c(F)cccc5F)c5ccc([nH]5)c(-c5c(F)cccc5F)c5nc(c(-c6c(F)cccc6F)c6ccc3[nH]6)C=C5)C=C4)cc2)C1
REMARK SMILES IDX 14 1 13 2 11 3 12 4 10 5 6 6 7 7 73 8 8 9 9 10 3 11 4 12
REMARK SMILES IDX 5 13 2 14 1 15 15 16 16 17 17 18 18 19 19 20 20 21 72 22
REMARK SMILES IDX 21 23 71 24 22 25 23 26 24 27 65 28 25 29 70 30 64 31 66 32
REMARK SMILES IDX 26 33 69 34 63 35 62 36 27 38 53 39 36 40 52 41 37 42 40 43
REMARK SMILES IDX 51 44 67 45 38 46 39 47 50 49 68 50 41 51 28 52 29 53 34 54
REMARK SMILES IDX 30 55 31 56 33 57 35 58 32 59 54 60 55 61 60 62 56 63 57 64
REMARK SMILES IDX 59 65 61 66 58 67 42 68 43 69 48 70 44 71 45 72 47 73 49 74
REMARK SMILES IDX 46 75
REMARK H PARENT 66 37 40 48
REMARK Flexibility Score: inf
ROOT
ATOM      1  C   UNL A   1      42.414  20.279  26.443  1.00  0.00     0.274 C 
ENDROOT
BRANCH   1   2
ATOM      2  O   UNL A   1      41.176  20.888  26.863  1.00  0.00    -0.462 OA
BRANCH   2   3
ATOM      3  C   UNL A   1      40.075  20.591  26.125  1.00  0.00     0.310 C 
ATOM      4  O   UNL A   1      39.770  19.465  25.750  1.00  0.00    -0.252 OA
BRANCH   3   5
ATOM      5  C   UNL A   1      39.266  21.817  25.752  1.00  0.00     0.114 C 
ATOM      6  N   UNL A   1      37.076  22.721  25.016  1.00  0.00    -0.201 NA
ATOM      7  C   UNL A   1      37.076  23.733  26.096  1.00  0.00     0.102 C 
ATOM      8  C   UNL A   1      37.837  21.482  25.325  1.00  0.00     0.117 C 
ATOM      9  C   UNL A   1      38.510  24.077  26.489  1.00  0.00     0.018 C 
ATOM     10  C   UNL A   1      39.281  22.826  26.897  1.00  0.00     0.018 C 
BRANCH   6  11
ATOM     11  S   UNL A   1      35.654  22.570  24.105  1.00  0.00     0.213 S 
ATOM     12  O   UNL A   1      35.065  21.279  24.384  1.00  0.00    -0.212 OA
ATOM     13  O   UNL A   1      35.987  22.943  22.744  1.00  0.00    -0.212 OA
BRANCH  11  14
ATOM     14  C   UNL A   1      34.563  23.851  24.731  1.00  0.00     0.151 C 
ATOM     15  C   UNL A   1      34.060  24.840  23.703  1.00  0.00     0.022 C 
ENDBRANCH  11  14
ENDBRANCH   6  11
ENDBRANCH   3   5
ENDBRANCH   2   3
ENDBRANCH   1   2
BRANCH   1  16
ATOM     16  C   UNL A   1      43.283  21.245  25.632  1.00  0.00     0.275 C 
BRANCH  16  17
ATOM     17  O   UNL A   1      42.627  22.510  25.426  1.00  0.00    -0.458 OA
BRANCH  17  18
ATOM     18  C   UNL A   1      43.445  23.587  25.470  1.00  0.00     0.338 C 
ATOM     19  O   UNL A   1      44.414  23.796  24.761  1.00  0.00    -0.246 OA
BRANCH  18  20
ATOM     20  C   UNL A   1      42.914  24.574  26.424  1.00  0.00     0.060 A 
ATOM     21  C   UNL A   1      43.309  25.909  26.293  1.00  0.00     0.016 A 
ATOM     22  C   UNL A   1      42.093  24.178  27.480  1.00  0.00     0.016 A 
ATOM     23  C   UNL A   1      42.879  26.862  27.212  1.00  0.00     0.010 A 
ATOM     24  C   UNL A   1      41.671  25.132  28.410  1.00  0.00     0.010 A 
ATOM     25  C   UNL A   1      42.071  26.476  28.286  1.00  0.00    -0.014 A 
BRANCH  25  26
ATOM     26  C   UNL A   1      41.712  27.451  29.339  1.00  0.00     0.031 A 
ATOM     27  C   UNL A   1      42.482  27.451  30.626  1.00  0.00     0.074 A 
ATOM     28  C   UNL A   1      40.706  28.322  29.147  1.00  0.00     0.049 A 
ATOM     29  N   UNL A   1      42.234  28.086  31.742  1.00  0.00    -0.248 NA
ATOM     30  C   UNL A   1      43.695  26.618  30.660  1.00  0.00     0.031 C 
ATOM     31  C   UNL A   1      39.937  28.468  27.911  1.00  0.00     0.029 A 
ATOM     32  N   UNL A   1      40.151  29.241  30.000  1.00  0.00    -0.354 N 
ATOM     33  C   UNL A   1      43.245  27.714  32.618  1.00  0.00     0.074 A 
ATOM     34  C   UNL A   1      44.103  26.787  31.909  1.00  0.00     0.031 C 
ATOM     35  C   UNL A   1      38.996  29.410  28.093  1.00  0.00     0.029 A 
ATOM     36  C   UNL A   1      39.064  29.894  29.469  1.00  0.00     0.049 A 
ATOM     37  H   UNL A   1      40.496  29.416  30.906  1.00  0.00     0.167 HD
ATOM     38  C   UNL A   1      43.438  28.113  33.897  1.00  0.00     0.037 A 
ATOM     39  C   UNL A   1      38.203  30.752  30.046  1.00  0.00     0.037 A 
ATOM     40  C   UNL A   1      42.584  29.043  34.588  1.00  0.00     0.049 A 
ATOM     41  C   UNL A   1      38.387  31.114  31.496  1.00  0.00     0.074 A 
ATOM     42  C   UNL A   1      42.674  29.493  35.894  1.00  0.00     0.029 A 
ATOM     43  N   UNL A   1      41.484  29.669  34.022  1.00  0.00    -0.354 N 
ATOM     44  N   UNL A   1      39.320  30.728  32.333  1.00  0.00    -0.248 NA
ATOM     45  C   UNL A   1      37.393  32.023  32.085  1.00  0.00     0.031 C 
ATOM     46  C   UNL A   1      41.609  30.368  36.127  1.00  0.00     0.029 A 
ATOM     47  C   UNL A   1      40.883  30.497  34.954  1.00  0.00     0.049 A 
ATOM     48  H   UNL A   1      41.176  29.544  33.096  1.00  0.00     0.167 HD
ATOM     49  C   UNL A   1      39.050  31.376  33.531  1.00  0.00     0.074 A 
ATOM     50  C   UNL A   1      37.865  32.180  33.314  1.00  0.00     0.031 C 
ATOM     51  C   UNL A   1      39.723  31.314  34.706  1.00  0.00     0.037 A 
BRANCH  38  52
ATOM     52  C   UNL A   1      44.600  27.523  34.638  1.00  0.00     0.057 A 
ATOM     53  C   UNL A   1      44.485  26.329  35.363  1.00  0.00     0.134 A 
ATOM     54  C   UNL A   1      45.856  28.141  34.604  1.00  0.00     0.134 A 
ATOM     55  F   UNL A   1      43.306  25.695  35.447  1.00  0.00    -0.206 F 
ATOM     56  C   UNL A   1      45.576  25.782  36.043  1.00  0.00     0.040 A 
ATOM     57  C   UNL A   1      46.959  27.591  35.259  1.00  0.00     0.040 A 
ATOM     58  F   UNL A   1      46.034  29.284  33.925  1.00  0.00    -0.206 F 
ATOM     59  C   UNL A   1      46.818  26.411  35.986  1.00  0.00     0.006 A 
ENDBRANCH  38  52
BRANCH  39  60
ATOM     60  C   UNL A   1      37.067  31.310  29.268  1.00  0.00     0.057 A 
ATOM     61  C   UNL A   1      35.931  30.539  28.996  1.00  0.00     0.134 A 
ATOM     62  C   UNL A   1      37.103  32.611  28.752  1.00  0.00     0.134 A 
ATOM     63  F   UNL A   1      35.848  29.277  29.441  1.00  0.00    -0.206 F 
ATOM     64  C   UNL A   1      34.879  31.036  28.223  1.00  0.00     0.040 A 
ATOM     65  C   UNL A   1      36.047  33.129  27.999  1.00  0.00     0.040 A 
ATOM     66  F   UNL A   1      38.164  33.400  28.976  1.00  0.00    -0.206 F 
ATOM     67  C   UNL A   1      34.935  32.336  27.725  1.00  0.00     0.006 A 
ENDBRANCH  39  60
BRANCH  51  68
ATOM     68  C   UNL A   1      39.239  32.187  35.824  1.00  0.00     0.057 A 
ATOM     69  C   UNL A   1      39.691  33.500  35.992  1.00  0.00     0.134 A 
ATOM     70  C   UNL A   1      38.260  31.719  36.711  1.00  0.00     0.134 A 
ATOM     71  F   UNL A   1      40.637  34.002  35.182  1.00  0.00    -0.206 F 
ATOM     72  C   UNL A   1      39.198  34.315  37.012  1.00  0.00     0.040 A 
ATOM     73  C   UNL A   1      37.742  32.531  37.720  1.00  0.00     0.040 A 
ATOM     74  F   UNL A   1      37.779  30.471  36.600  1.00  0.00    -0.206 F 
ATOM     75  C   UNL A   1      38.214  33.833  37.874  1.00  0.00     0.006 A 
ENDBRANCH  51  68
ENDBRANCH  25  26
ENDBRANCH  18  20
ENDBRANCH  17  18
ENDBRANCH  16  17
ENDBRANCH   1  16
TORSDOF 13
ENDMDL
MODEL 2
REMARK VINA RESULT:     -10.2      5.699     10.985
REMARK SMILES CCS(=O)(=O)N1CCC[C@@H](C(=O)OCCOC(=O)c2ccc(-c3c4nc(c(-c5c(F)cccc5F)c5ccc([nH]5)c(-c5c(F)cccc5F)c5nc(c(-c6c(F)cccc6F)c6ccc3[nH]6)C=C5)C=C4)cc2)C1
REMARK SMILES IDX 14 1 13 2 11 3 12 4 10 5 6 6 7 7 73 8 8 9 9 10 3 11 4 12
REMARK SMILES IDX 5 13 2 14 1 15 15 16 16 17 17 18 18 19 19 20 20 21 72 22
REMARK SMILES IDX 21 23 71 24 22 25 23 26 24 27 65 28 25 29 70 30 64 31 66 32
REMARK SMILES IDX 26 33 69 34 63 35 62 36 27 38 53 39 36 40 52 41 37 42 40 43
REMARK SMILES IDX 51 44 67 45 38 46 39 47 50 49 68 50 41 51 28 52 29 53 34 54
REMARK SMILES IDX 30 55 31 56 33 57 35 58 32 59 54 60 55 61 60 62 56 63 57 64
REMARK SMILES IDX 59 65 61 66 58 67 42 68 43 69 48 70 44 71 45 72 47 73 49 74
REMARK SMILES IDX 46 75
REMARK H PARENT 66 37 40 48
REMARK Flexibility Score: inf
ROOT
ATOM      1  C   UNL A   1      33.795  33.945  27.984  1.00  0.00     0.274 C 
ENDROOT
BRANCH   1   2
ATOM      2  O   UNL A   1      34.083  35.211  28.613  1.00  0.00    -0.462 OA
BRANCH   2   3
ATOM      3  C   UNL A   1      33.065  35.788  29.304  1.00  0.00     0.310 C 
ATOM      4  O   UNL A   1      32.151  36.428  28.796  1.00  0.00    -0.252 OA
BRANCH   3   5
ATOM      5  C   UNL A   1      33.195  35.611  30.804  1.00  0.00     0.114 C 
ATOM      6  N   UNL A   1      34.525  34.684  32.681  1.00  0.00    -0.201 NA
ATOM      7  C   UNL A   1      34.512  35.980  33.395  1.00  0.00     0.102 C 
ATOM      8  C   UNL A   1      34.419  34.786  31.202  1.00  0.00     0.117 C 
ATOM      9  C   UNL A   1      33.270  36.777  33.007  1.00  0.00     0.018 C 
ATOM     10  C   UNL A   1      33.193  36.971  31.497  1.00  0.00     0.018 C 
BRANCH   6  11
ATOM     11  S   UNL A   1      35.515  33.465  33.322  1.00  0.00     0.213 S 
ATOM     12  O   UNL A   1      35.394  32.290  32.488  1.00  0.00    -0.212 OA
ATOM     13  O   UNL A   1      35.221  33.388  34.739  1.00  0.00    -0.212 OA
BRANCH  11  14
ATOM     14  C   UNL A   1      37.187  34.102  33.183  1.00  0.00     0.151 C 
ATOM     15  C   UNL A   1      37.866  33.868  31.851  1.00  0.00     0.022 C 
ENDBRANCH  11  14
ENDBRANCH   6  11
ENDBRANCH   3   5
ENDBRANCH   2   3
ENDBRANCH   1   2
BRANCH   1  16
ATOM     16  C   UNL A   1      35.005  33.006  28.009  1.00  0.00     0.275 C 
BRANCH  16  17
ATOM     17  O   UNL A   1      34.783  31.869  28.864  1.00  0.00    -0.458 OA
BRANCH  17  18
ATOM     18  C   UNL A   1      34.820  30.672  28.235  1.00  0.00     0.338 C 
ATOM     19  O   UNL A   1      33.945  30.185  27.540  1.00  0.00    -0.246 OA
BRANCH  18  20
ATOM     20  C   UNL A   1      36.156  30.073  28.388  1.00  0.00     0.060 A 
ATOM     21  C   UNL A   1      36.512  29.543  29.632  1.00  0.00     0.016 A 
ATOM     22  C   UNL A   1      37.074  30.097  27.338  1.00  0.00     0.016 A 
ATOM     23  C   UNL A   1      37.789  29.026  29.835  1.00  0.00     0.010 A 
ATOM     24  C   UNL A   1      38.359  29.588  27.545  1.00  0.00     0.010 A 
ATOM     25  C   UNL A   1      38.725  29.060  28.797  1.00  0.00    -0.014 A 
BRANCH  25  26
ATOM     26  C   UNL A   1      40.120  28.631  29.037  1.00  0.00     0.031 A 
ATOM     27  C   UNL A   1      41.085  29.599  29.654  1.00  0.00     0.074 A 
ATOM     28  C   UNL A   1      40.520  27.392  28.699  1.00  0.00     0.049 A 
ATOM     29  N   UNL A   1      42.382  29.504  29.792  1.00  0.00    -0.248 NA
ATOM     30  C   UNL A   1      40.509  30.844  30.186  1.00  0.00     0.031 C 
ATOM     31  C   UNL A   1      39.656  26.340  28.163  1.00  0.00     0.029 A 
ATOM     32  N   UNL A   1      41.763  26.815  28.747  1.00  0.00    -0.354 N 
ATOM     33  C   UNL A   1      42.781  30.685  30.406  1.00  0.00     0.074 A 
ATOM     34  C   UNL A   1      41.591  31.486  30.601  1.00  0.00     0.031 C 
ATOM     35  C   UNL A   1      40.400  25.249  27.915  1.00  0.00     0.029 A 
ATOM     36  C   UNL A   1      41.797  25.544  28.225  1.00  0.00     0.049 A 
ATOM     37  H   UNL A   1      42.555  27.267  29.118  1.00  0.00     0.167 HD
ATOM     38  C   UNL A   1      44.029  31.061  30.772  1.00  0.00     0.037 A 
ATOM     39  C   UNL A   1      42.843  24.732  27.990  1.00  0.00     0.037 A 
ATOM     40  C   UNL A   1      45.203  30.252  30.582  1.00  0.00     0.049 A 
ATOM     41  C   UNL A   1      44.232  25.207  28.326  1.00  0.00     0.074 A 
ATOM     42  C   UNL A   1      46.519  30.549  30.892  1.00  0.00     0.029 A 
ATOM     43  N   UNL A   1      45.199  28.978  30.034  1.00  0.00    -0.354 N 
ATOM     44  N   UNL A   1      44.610  26.341  28.867  1.00  0.00    -0.248 NA
ATOM     45  C   UNL A   1      45.341  24.296  28.009  1.00  0.00     0.031 C 
ATOM     46  C   UNL A   1      47.314  29.468  30.502  1.00  0.00     0.029 A 
ATOM     47  C   UNL A   1      46.490  28.479  29.992  1.00  0.00     0.049 A 
ATOM     48  H   UNL A   1      44.397  28.498  29.722  1.00  0.00     0.167 HD
ATOM     49  C   UNL A   1      45.991  26.263  28.993  1.00  0.00     0.074 A 
ATOM     50  C   UNL A   1      46.385  24.971  28.470  1.00  0.00     0.031 C 
ATOM     51  C   UNL A   1      46.855  27.177  29.497  1.00  0.00     0.037 A 
BRANCH  38  52
ATOM     52  C   UNL A   1      44.188  32.418  31.389  1.00  0.00     0.057 A 
ATOM     53  C   UNL A   1      44.394  33.564  30.610  1.00  0.00     0.134 A 
ATOM     54  C   UNL A   1      44.108  32.585  32.777  1.00  0.00     0.134 A 
ATOM     55  F   UNL A   1      44.494  33.471  29.276  1.00  0.00    -0.206 F 
ATOM     56  C   UNL A   1      44.533  34.826  31.193  1.00  0.00     0.040 A 
ATOM     57  C   UNL A   1      44.221  33.844  33.369  1.00  0.00     0.040 A 
ATOM     58  F   UNL A   1      43.910  31.528  33.579  1.00  0.00    -0.206 F 
ATOM     59  C   UNL A   1      44.440  34.968  32.576  1.00  0.00     0.006 A 
ENDBRANCH  38  52
BRANCH  39  60
ATOM     60  C   UNL A   1      42.632  23.396  27.377  1.00  0.00     0.057 A 
ATOM     61  C   UNL A   1      42.336  22.278  28.166  1.00  0.00     0.134 A 
ATOM     62  C   UNL A   1      42.752  23.197  25.996  1.00  0.00     0.134 A 
ATOM     63  F   UNL A   1      42.233  22.399  29.497  1.00  0.00    -0.206 F 
ATOM     64  C   UNL A   1      42.185  21.008  27.606  1.00  0.00     0.040 A 
ATOM     65  C   UNL A   1      42.579  21.937  25.420  1.00  0.00     0.040 A 
ATOM     66  F   UNL A   1      43.036  24.227  25.185  1.00  0.00    -0.206 F 
ATOM     67  C   UNL A   1      42.303  20.836  26.228  1.00  0.00     0.006 A 
ENDBRANCH  39  60
BRANCH  51  68
ATOM     68  C   UNL A   1      48.301  26.788  29.575  1.00  0.00     0.057 A 
ATOM     69  C   UNL A   1      48.812  26.028  30.633  1.00  0.00     0.134 A 
ATOM     70  C   UNL A   1      49.180  27.133  28.540  1.00  0.00     0.134 A 
ATOM     71  F   UNL A   1      48.022  25.677  31.660  1.00  0.00    -0.206 F 
ATOM     72  C   UNL A   1      50.151  25.637  30.668  1.00  0.00     0.040 A 
ATOM     73  C   UNL A   1      50.515  26.729  28.551  1.00  0.00     0.040 A 
ATOM     74  F   UNL A   1      48.751  27.855  27.493  1.00  0.00    -0.206 F 
ATOM     75  C   UNL A   1      51.004  25.980  29.620  1.00  0.00     0.006 A 
ENDBRANCH  51  68
ENDBRANCH  25  26
ENDBRANCH  18  20
ENDBRANCH  17  18
ENDBRANCH  16  17
ENDBRANCH   1  16
TORSDOF 13
ENDMDL
MODEL 3
REMARK VINA RESULT:     -10.1      5.572     10.430
REMARK SMILES CCS(=O)(=O)N1CCC[C@@H](C(=O)OCCOC(=O)c2ccc(-c3c4nc(c(-c5c(F)cccc5F)c5ccc([nH]5)c(-c5c(F)cccc5F)c5nc(c(-c6c(F)cccc6F)c6ccc3[nH]6)C=C5)C=C4)cc2)C1
REMARK SMILES IDX 14 1 13 2 11 3 12 4 10 5 6 6 7 7 73 8 8 9 9 10 3 11 4 12
REMARK SMILES IDX 5 13 2 14 1 15 15 16 16 17 17 18 18 19 19 20 20 21 72 22
REMARK SMILES IDX 21 23 71 24 22 25 23 26 24 27 65 28 25 29 70 30 64 31 66 32
REMARK SMILES IDX 26 33 69 34 63 35 62 36 27 38 53 39 36 40 52 41 37 42 40 43
REMARK SMILES IDX 51 44 67 45 38 46 39 47 50 49 68 50 41 51 28 52 29 53 34 54
REMARK SMILES IDX 30 55 31 56 33 57 35 58 32 59 54 60 55 61 60 62 56 63 57 64
REMARK SMILES IDX 59 65 61 66 58 67 42 68 43 69 48 70 44 71 45 72 47 73 49 74
REMARK SMILES IDX 46 75
REMARK H PARENT 66 37 40 48
REMARK Flexibility Score: inf
ROOT
ATOM      1  C   UNL A   1      33.841  34.485  29.992  1.00  0.00     0.274 C 
ENDROOT
BRANCH   1   2
ATOM      2  O   UNL A   1      34.475  33.614  29.032  1.00  0.00    -0.462 OA
BRANCH   2   3
ATOM      3  C   UNL A   1      33.649  32.925  28.202  1.00  0.00     0.310 C 
ATOM      4  O   UNL A   1      32.712  33.418  27.584  1.00  0.00    -0.252 OA
BRANCH   3   5
ATOM      5  C   UNL A   1      33.964  31.444  28.152  1.00  0.00     0.114 C 
ATOM      6  N   UNL A   1      33.342  29.213  27.263  1.00  0.00    -0.201 NA
ATOM      7  C   UNL A   1      34.725  28.957  26.802  1.00  0.00     0.102 C 
ATOM      8  C   UNL A   1      32.960  30.649  27.317  1.00  0.00     0.117 C 
ATOM      9  C   UNL A   1      35.715  29.736  27.665  1.00  0.00     0.018 C 
ATOM     10  C   UNL A   1      35.392  31.226  27.659  1.00  0.00     0.018 C 
BRANCH   6  11
ATOM     11  S   UNL A   1      32.157  28.096  26.791  1.00  0.00     0.213 S 
ATOM     12  O   UNL A   1      31.144  28.040  27.821  1.00  0.00    -0.212 OA
ATOM     13  O   UNL A   1      32.855  26.891  26.387  1.00  0.00    -0.212 OA
BRANCH  11  14
ATOM     14  C   UNL A   1      31.431  28.788  25.303  1.00  0.00     0.151 C 
ATOM     15  C   UNL A   1      30.945  27.780  24.285  1.00  0.00     0.022 C 
ENDBRANCH  11  14
ENDBRANCH   6  11
ENDBRANCH   3   5
ENDBRANCH   2   3
ENDBRANCH   1   2
BRANCH   1  16
ATOM     16  C   UNL A   1      34.431  34.315  31.396  1.00  0.00     0.275 C 
BRANCH  16  17
ATOM     17  O   UNL A   1      35.812  33.914  31.351  1.00  0.00    -0.458 OA
BRANCH  17  18
ATOM     18  C   UNL A   1      36.109  32.822  32.093  1.00  0.00     0.338 C 
ATOM     19  O   UNL A   1      35.492  32.406  33.059  1.00  0.00    -0.246 OA
BRANCH  18  20
ATOM     20  C   UNL A   1      37.230  32.094  31.478  1.00  0.00     0.060 A 
ATOM     21  C   UNL A   1      38.092  31.369  32.308  1.00  0.00     0.016 A 
ATOM     22  C   UNL A   1      37.473  32.182  30.108  1.00  0.00     0.016 A 
ATOM     23  C   UNL A   1      39.201  30.720  31.772  1.00  0.00     0.010 A 
ATOM     24  C   UNL A   1      38.593  31.540  29.571  1.00  0.00     0.010 A 
ATOM     25  C   UNL A   1      39.467  30.815  30.403  1.00  0.00    -0.014 A 
BRANCH  25  26
ATOM     26  C   UNL A   1      40.708  30.237  29.842  1.00  0.00     0.031 A 
ATOM     27  C   UNL A   1      41.908  31.120  29.663  1.00  0.00     0.074 A 
ATOM     28  C   UNL A   1      40.759  28.941  29.491  1.00  0.00     0.049 A 
ATOM     29  N   UNL A   1      43.029  30.880  29.037  1.00  0.00    -0.248 NA
ATOM     30  C   UNL A   1      41.829  32.458  30.273  1.00  0.00     0.031 C 
ATOM     31  C   UNL A   1      39.683  27.968  29.687  1.00  0.00     0.029 A 
ATOM     32  N   UNL A   1      41.755  28.222  28.881  1.00  0.00    -0.354 N 
ATOM     33  C   UNL A   1      43.782  32.040  29.156  1.00  0.00     0.074 A 
ATOM     34  C   UNL A   1      42.985  32.990  29.903  1.00  0.00     0.031 C 
ATOM     35  C   UNL A   1      40.073  26.782  29.190  1.00  0.00     0.029 A 
ATOM     36  C   UNL A   1      41.400  26.926  28.597  1.00  0.00     0.049 A 
ATOM     37  H   UNL A   1      42.639  28.599  28.667  1.00  0.00     0.167 HD
ATOM     38  C   UNL A   1      45.027  32.286  28.684  1.00  0.00     0.037 A 
ATOM     39  C   UNL A   1      42.058  25.980  27.901  1.00  0.00     0.037 A 
ATOM     40  C   UNL A   1      45.814  31.331  27.950  1.00  0.00     0.049 A 
ATOM     41  C   UNL A   1      43.404  26.306  27.311  1.00  0.00     0.074 A 
ATOM     42  C   UNL A   1      47.076  31.488  27.404  1.00  0.00     0.029 A 
ATOM     43  N   UNL A   1      45.413  30.035  27.667  1.00  0.00    -0.354 N 
ATOM     44  N   UNL A   1      44.095  27.418  27.390  1.00  0.00    -0.248 NA
ATOM     45  C   UNL A   1      44.059  25.249  26.527  1.00  0.00     0.031 C 
ATOM     46  C   UNL A   1      47.424  30.296  26.762  1.00  0.00     0.029 A 
ATOM     47  C   UNL A   1      46.400  29.382  26.948  1.00  0.00     0.049 A 
ATOM     48  H   UNL A   1      44.554  29.636  27.938  1.00  0.00     0.167 HD
ATOM     49  C   UNL A   1      45.278  27.183  26.703  1.00  0.00     0.074 A 
ATOM     50  C   UNL A   1      45.213  25.822  26.212  1.00  0.00     0.031 C 
ATOM     51  C   UNL A   1      46.327  28.016  26.498  1.00  0.00     0.037 A 
BRANCH  38  52
ATOM     52  C   UNL A   1      45.599  33.652  28.923  1.00  0.00     0.057 A 
ATOM     53  C   UNL A   1      45.383  34.710  28.031  1.00  0.00     0.134 A 
ATOM     54  C   UNL A   1      46.353  33.918  30.073  1.00  0.00     0.134 A 
ATOM     55  F   UNL A   1      44.681  34.517  26.904  1.00  0.00    -0.206 F 
ATOM     56  C   UNL A   1      45.912  35.981  28.266  1.00  0.00     0.040 A 
ATOM     57  C   UNL A   1      46.867  35.190  30.330  1.00  0.00     0.040 A 
ATOM     58  F   UNL A   1      46.594  32.949  30.968  1.00  0.00    -0.206 F 
ATOM     59  C   UNL A   1      46.652  36.224  29.422  1.00  0.00     0.006 A 
ENDBRANCH  38  52
BRANCH  39  60
ATOM     60  C   UNL A   1      41.447  24.642  27.693  1.00  0.00     0.057 A 
ATOM     61  C   UNL A   1      40.428  24.451  26.753  1.00  0.00     0.134 A 
ATOM     62  C   UNL A   1      41.844  23.532  28.449  1.00  0.00     0.134 A 
ATOM     63  F   UNL A   1      39.987  25.482  26.016  1.00  0.00    -0.206 F 
ATOM     64  C   UNL A   1      39.812  23.210  26.584  1.00  0.00     0.040 A 
ATOM     65  C   UNL A   1      41.254  22.279  28.272  1.00  0.00     0.040 A 
ATOM     66  F   UNL A   1      42.814  23.648  29.367  1.00  0.00    -0.206 F 
ATOM     67  C   UNL A   1      40.228  22.118  27.343  1.00  0.00     0.006 A 
ENDBRANCH  39  60
BRANCH  51  68
ATOM     68  C   UNL A   1      47.516  27.463  25.772  1.00  0.00     0.057 A 
ATOM     69  C   UNL A   1      48.564  26.822  26.442  1.00  0.00     0.134 A 
ATOM     70  C   UNL A   1      47.579  27.522  24.374  1.00  0.00     0.134 A 
ATOM     71  F   UNL A   1      48.568  26.744  27.782  1.00  0.00    -0.206 F 
ATOM     72  C   UNL A   1      49.643  26.273  25.748  1.00  0.00     0.040 A 
ATOM     73  C   UNL A   1      48.640  26.956  23.666  1.00  0.00     0.040 A 
ATOM     74  F   UNL A   1      46.602  28.116  23.672  1.00  0.00    -0.206 F 
ATOM     75  C   UNL A   1      49.678  26.332  24.355  1.00  0.00     0.006 A 
ENDBRANCH  51  68
ENDBRANCH  25  26
ENDBRANCH  18  20
ENDBRANCH  17  18
ENDBRANCH  16  17
ENDBRANCH   1  16
TORSDOF 13
ENDMDL
