MODEL 1
REMARK VINA RESULT:     -10.5      0.000      0.000
REMARK SMILES Cc1cccc(Nc2ccccc2C(=O)OCCOC(=O)c2ccc(-c3c4nc(c(-c5c(F)cccc5F)c5ccc([nH]5)c(-c5c(F)cccc5F)c5nc(c(-c6c(F)cccc6F)c6ccc3[nH]6)C=C5)C=C4)cc2)c1C
REMARK SMILES IDX 17 1 16 2 14 3 15 4 13 5 8 6 9 7 10 8 12 9 11 10 7 11 6 13
REMARK SMILES IDX 1 14 2 15 3 16 76 17 4 18 77 19 5 20 18 21 19 22 20 23 21 24
REMARK SMILES IDX 22 25 23 26 75 27 24 28 74 29 25 30 26 31 27 32 68 33 28 34
REMARK SMILES IDX 73 35 67 36 69 37 29 38 72 39 66 40 65 41 30 43 56 44 39 45
REMARK SMILES IDX 55 46 40 47 43 48 54 49 70 50 41 51 42 52 53 54 71 55 44 56
REMARK SMILES IDX 31 57 32 58 37 59 33 60 34 61 36 62 38 63 35 64 57 65 58 66
REMARK SMILES IDX 63 67 59 68 60 69 62 70 64 71 61 72 45 73 46 74 51 75 47 76
REMARK SMILES IDX 48 77 50 78 52 79 49 80
REMARK H PARENT 7 12 69 42 43 53
REMARK Flexibility Score: inf
ROOT
ATOM      1  C   UNL A   1      33.663  33.295  27.928  1.00  0.00     0.275 C 
ENDROOT
BRANCH   1   2
ATOM      2  O   UNL A   1      33.213  33.743  29.222  1.00  0.00    -0.458 OA
BRANCH   2   3
ATOM      3  C   UNL A   1      33.369  35.072  29.446  1.00  0.00     0.340 C 
ATOM      4  O   UNL A   1      33.243  35.966  28.621  1.00  0.00    -0.246 OA
BRANCH   3   5
ATOM      5  C   UNL A   1      33.650  35.358  30.869  1.00  0.00     0.083 A 
ATOM      6  C   UNL A   1      34.393  34.496  31.695  1.00  0.00     0.053 A 
ATOM      7  C   UNL A   1      34.635  34.912  33.021  1.00  0.00     0.027 A 
ATOM      8  C   UNL A   1      34.182  36.143  33.503  1.00  0.00     0.002 A 
ATOM      9  C   UNL A   1      33.194  36.593  31.365  1.00  0.00     0.018 A 
ATOM     10  C   UNL A   1      33.461  36.988  32.672  1.00  0.00     0.001 A 
BRANCH   6  11
ATOM     11  N   UNL A   1      35.025  33.305  31.283  1.00  0.00    -0.355 N 
ATOM     12  H   UNL A   1      34.424  32.525  31.237  1.00  0.00     0.167 HD
BRANCH  11  13
ATOM     13  C   UNL A   1      36.359  33.029  30.924  1.00  0.00     0.042 A 
ATOM     14  C   UNL A   1      39.659  31.633  32.292  1.00  0.00     0.044 C 
ATOM     15  C   UNL A   1      38.634  32.264  31.386  1.00  0.00    -0.046 A 
ATOM     16  C   UNL A   1      39.066  32.859  30.193  1.00  0.00     0.004 A 
ATOM     17  C   UNL A   1      37.259  32.294  31.732  1.00  0.00    -0.025 A 
ATOM     18  C   UNL A   1      38.164  33.506  29.357  1.00  0.00     0.002 A 
ATOM     19  C   UNL A   1      36.784  31.527  32.944  1.00  0.00     0.047 C 
ATOM     20  C   UNL A   1      36.827  33.605  29.731  1.00  0.00     0.026 A 
ENDBRANCH  11  13
ENDBRANCH   6  11
ENDBRANCH   3   5
ENDBRANCH   2   3
ENDBRANCH   1   2
BRANCH   1  21
ATOM     21  C   UNL A   1      33.748  31.774  27.842  1.00  0.00     0.275 C 
BRANCH  21  22
ATOM     22  O   UNL A   1      34.887  31.293  28.574  1.00  0.00    -0.458 OA
BRANCH  22  23
ATOM     23  C   UNL A   1      35.246  30.018  28.312  1.00  0.00     0.338 C 
ATOM     24  O   UNL A   1      34.526  29.091  27.984  1.00  0.00    -0.246 OA
BRANCH  23  25
ATOM     25  C   UNL A   1      36.702  29.864  28.457  1.00  0.00     0.060 A 
ATOM     26  C   UNL A   1      37.529  30.106  27.364  1.00  0.00     0.016 A 
ATOM     27  C   UNL A   1      37.228  29.309  29.620  1.00  0.00     0.016 A 
ATOM     28  C   UNL A   1      38.849  29.668  27.373  1.00  0.00     0.010 A 
ATOM     29  C   UNL A   1      38.586  28.986  29.673  1.00  0.00     0.010 A 
ATOM     30  C   UNL A   1      39.400  29.112  28.532  1.00  0.00    -0.014 A 
BRANCH  30  31
ATOM     31  C   UNL A   1      40.804  28.619  28.539  1.00  0.00     0.031 A 
ATOM     32  C   UNL A   1      41.933  29.574  28.824  1.00  0.00     0.074 A 
ATOM     33  C   UNL A   1      41.076  27.322  28.296  1.00  0.00     0.049 A 
ATOM     34  N   UNL A   1      43.220  29.412  28.651  1.00  0.00    -0.248 NA
ATOM     35  C   UNL A   1      41.562  30.895  29.354  1.00  0.00     0.031 C 
ATOM     36  C   UNL A   1      40.081  26.274  28.057  1.00  0.00     0.029 A 
ATOM     37  N   UNL A   1      42.277  26.663  28.208  1.00  0.00    -0.354 N 
ATOM     38  C   UNL A   1      43.802  30.632  28.972  1.00  0.00     0.074 A 
ATOM     39  C   UNL A   1      42.730  31.522  29.365  1.00  0.00     0.031 C 
ATOM     40  C   UNL A   1      40.708  25.102  27.880  1.00  0.00     0.029 A 
ATOM     41  C   UNL A   1      42.148  25.332  27.892  1.00  0.00     0.049 A 
ATOM     42  H   UNL A   1      43.147  27.100  28.357  1.00  0.00     0.167 HD
ATOM     43  C   UNL A   1      45.111  30.978  28.932  1.00  0.00     0.037 A 
ATOM     44  C   UNL A   1      43.076  24.408  27.584  1.00  0.00     0.037 A 
ATOM     45  C   UNL A   1      46.176  30.064  28.612  1.00  0.00     0.049 A 
ATOM     46  C   UNL A   1      44.520  24.811  27.545  1.00  0.00     0.074 A 
ATOM     47  C   UNL A   1      47.539  30.302  28.577  1.00  0.00     0.029 A 
ATOM     48  N   UNL A   1      45.995  28.726  28.289  1.00  0.00    -0.354 N 
ATOM     49  N   UNL A   1      45.056  25.982  27.785  1.00  0.00    -0.248 NA
ATOM     50  C   UNL A   1      45.487  23.770  27.171  1.00  0.00     0.031 C 
ATOM     51  C   UNL A   1      48.181  29.116  28.202  1.00  0.00     0.029 A 
ATOM     52  C   UNL A   1      47.221  28.130  28.041  1.00  0.00     0.049 A 
ATOM     53  H   UNL A   1      45.125  28.269  28.243  1.00  0.00     0.167 HD
ATOM     54  C   UNL A   1      46.420  25.823  27.591  1.00  0.00     0.074 A 
ATOM     55  C   UNL A   1      46.632  24.435  27.237  1.00  0.00     0.031 C 
ATOM     56  C   UNL A   1      47.407  26.747  27.686  1.00  0.00     0.037 A 
BRANCH  43  57
ATOM     57  C   UNL A   1      45.457  32.414  29.193  1.00  0.00     0.057 A 
ATOM     58  C   UNL A   1      45.796  32.888  30.467  1.00  0.00     0.134 A 
ATOM     59  C   UNL A   1      45.469  33.337  28.138  1.00  0.00     0.134 A 
ATOM     60  F   UNL A   1      45.789  32.062  31.523  1.00  0.00    -0.206 F 
ATOM     61  C   UNL A   1      46.108  34.232  30.686  1.00  0.00     0.040 A 
ATOM     62  C   UNL A   1      45.802  34.678  28.340  1.00  0.00     0.040 A 
ATOM     63  F   UNL A   1      45.159  32.950  26.891  1.00  0.00    -0.206 F 
ATOM     64  C   UNL A   1      46.116  35.130  29.619  1.00  0.00     0.006 A 
ENDBRANCH  43  57
BRANCH  44  65
ATOM     65  C   UNL A   1      42.649  23.032  27.229  1.00  0.00     0.057 A 
ATOM     66  C   UNL A   1      42.218  22.131  28.207  1.00  0.00     0.134 A 
ATOM     67  C   UNL A   1      42.627  22.598  25.896  1.00  0.00     0.134 A 
ATOM     68  F   UNL A   1      42.237  22.481  29.502  1.00  0.00    -0.206 F 
ATOM     69  C   UNL A   1      41.776  20.849  27.875  1.00  0.00     0.040 A 
ATOM     70  C   UNL A   1      42.164  21.330  25.547  1.00  0.00     0.040 A 
ATOM     71  F   UNL A   1      43.025  23.417  24.911  1.00  0.00    -0.206 F 
ATOM     72  C   UNL A   1      41.739  20.449  26.540  1.00  0.00     0.006 A 
ENDBRANCH  44  65
BRANCH  56  73
ATOM     73  C   UNL A   1      48.804  26.273  27.419  1.00  0.00     0.057 A 
ATOM     74  C   UNL A   1      49.367  26.334  26.139  1.00  0.00     0.134 A 
ATOM     75  C   UNL A   1      49.599  25.775  28.457  1.00  0.00     0.134 A 
ATOM     76  F   UNL A   1      48.649  26.788  25.100  1.00  0.00    -0.206 F 
ATOM     77  C   UNL A   1      50.669  25.896  25.896  1.00  0.00     0.040 A 
ATOM     78  C   UNL A   1      50.909  25.354  28.232  1.00  0.00     0.040 A 
ATOM     79  F   UNL A   1      49.118  25.697  29.707  1.00  0.00    -0.206 F 
ATOM     80  C   UNL A   1      51.446  25.409  26.946  1.00  0.00     0.006 A 
ENDBRANCH  56  73
ENDBRANCH  30  31
ENDBRANCH  23  25
ENDBRANCH  22  23
ENDBRANCH  21  22
ENDBRANCH   1  21
TORSDOF 13
ENDMDL
MODEL 2
REMARK VINA RESULT:     -10.5      5.223     10.357
REMARK SMILES Cc1cccc(Nc2ccccc2C(=O)OCCOC(=O)c2ccc(-c3c4nc(c(-c5c(F)cccc5F)c5ccc([nH]5)c(-c5c(F)cccc5F)c5nc(c(-c6c(F)cccc6F)c6ccc3[nH]6)C=C5)C=C4)cc2)c1C
REMARK SMILES IDX 17 1 16 2 14 3 15 4 13 5 8 6 9 7 10 8 12 9 11 10 7 11 6 13
REMARK SMILES IDX 1 14 2 15 3 16 76 17 4 18 77 19 5 20 18 21 19 22 20 23 21 24
REMARK SMILES IDX 22 25 23 26 75 27 24 28 74 29 25 30 26 31 27 32 68 33 28 34
REMARK SMILES IDX 73 35 67 36 69 37 29 38 72 39 66 40 65 41 30 43 56 44 39 45
REMARK SMILES IDX 55 46 40 47 43 48 54 49 70 50 41 51 42 52 53 54 71 55 44 56
REMARK SMILES IDX 31 57 32 58 37 59 33 60 34 61 36 62 38 63 35 64 57 65 58 66
REMARK SMILES IDX 63 67 59 68 60 69 62 70 64 71 61 72 45 73 46 74 51 75 47 76
REMARK SMILES IDX 48 77 50 78 52 79 49 80
REMARK H PARENT 7 12 69 42 43 53
REMARK Flexibility Score: inf
ROOT
ATOM      1  C   UNL A   1      42.278  19.355  26.846  1.00  0.00     0.275 C 
ENDROOT
BRANCH   1   2
ATOM      2  O   UNL A   1      41.693  20.506  26.203  1.00  0.00    -0.458 OA
BRANCH   2   3
ATOM      3  C   UNL A   1      40.342  20.463  26.087  1.00  0.00     0.340 C 
ATOM      4  O   UNL A   1      39.666  19.473  25.843  1.00  0.00    -0.246 OA
BRANCH   3   5
ATOM      5  C   UNL A   1      39.727  21.778  26.367  1.00  0.00     0.083 A 
ATOM      6  C   UNL A   1      38.507  22.192  25.806  1.00  0.00     0.053 A 
ATOM      7  C   UNL A   1      38.003  23.450  26.198  1.00  0.00     0.027 A 
ATOM      8  C   UNL A   1      38.667  24.255  27.127  1.00  0.00     0.002 A 
ATOM      9  C   UNL A   1      40.391  22.597  27.299  1.00  0.00     0.018 A 
ATOM     10  C   UNL A   1      39.864  23.827  27.681  1.00  0.00     0.001 A 
BRANCH   6  11
ATOM     11  N   UNL A   1      37.676  21.410  24.978  1.00  0.00    -0.355 N 
ATOM     12  H   UNL A   1      38.143  20.675  24.517  1.00  0.00     0.167 HD
BRANCH  11  13
ATOM     13  C   UNL A   1      36.299  21.490  24.690  1.00  0.00     0.042 A 
ATOM     14  C   UNL A   1      33.686  23.604  22.842  1.00  0.00     0.044 C 
ATOM     15  C   UNL A   1      34.330  22.548  23.703  1.00  0.00    -0.046 A 
ATOM     16  C   UNL A   1      33.508  21.729  24.490  1.00  0.00     0.004 A 
ATOM     17  C   UNL A   1      35.738  22.392  23.755  1.00  0.00    -0.025 A 
ATOM     18  C   UNL A   1      34.060  20.784  25.346  1.00  0.00     0.002 A 
ATOM     19  C   UNL A   1      36.605  23.177  22.799  1.00  0.00     0.047 C 
ATOM     20  C   UNL A   1      35.443  20.680  25.456  1.00  0.00     0.026 A 
ENDBRANCH  11  13
ENDBRANCH   6  11
ENDBRANCH   3   5
ENDBRANCH   2   3
ENDBRANCH   1   2
BRANCH   1  21
ATOM     21  C   UNL A   1      43.123  18.525  25.885  1.00  0.00     0.275 C 
BRANCH  21  22
ATOM     22  O   UNL A   1      43.337  19.242  24.657  1.00  0.00    -0.458 OA
BRANCH  22  23
ATOM     23  C   UNL A   1      44.628  19.395  24.295  1.00  0.00     0.338 C 
ATOM     24  O   UNL A   1      45.377  18.557  23.823  1.00  0.00    -0.246 OA
BRANCH  23  25
ATOM     25  C   UNL A   1      45.056  20.783  24.529  1.00  0.00     0.060 A 
ATOM     26  C   UNL A   1      45.669  21.118  25.733  1.00  0.00     0.016 A 
ATOM     27  C   UNL A   1      44.687  21.783  23.633  1.00  0.00     0.016 A 
ATOM     28  C   UNL A   1      45.789  22.450  26.113  1.00  0.00     0.010 A 
ATOM     29  C   UNL A   1      44.925  23.120  23.960  1.00  0.00     0.010 A 
ATOM     30  C   UNL A   1      45.430  23.471  25.226  1.00  0.00    -0.014 A 
BRANCH  30  31
ATOM     31  C   UNL A   1      45.533  24.898  25.636  1.00  0.00     0.031 A 
ATOM     32  C   UNL A   1      46.853  25.615  25.529  1.00  0.00     0.074 A 
ATOM     33  C   UNL A   1      44.454  25.558  26.100  1.00  0.00     0.049 A 
ATOM     34  N   UNL A   1      47.217  26.763  26.042  1.00  0.00    -0.248 NA
ATOM     35  C   UNL A   1      47.911  24.940  24.761  1.00  0.00     0.031 C 
ATOM     36  C   UNL A   1      43.102  25.007  26.208  1.00  0.00     0.029 A 
ATOM     37  N   UNL A   1      44.326  26.841  26.571  1.00  0.00    -0.354 N 
ATOM     38  C   UNL A   1      48.563  26.908  25.728  1.00  0.00     0.074 A 
ATOM     39  C   UNL A   1      48.949  25.738  24.969  1.00  0.00     0.031 C 
ATOM     40  C   UNL A   1      42.277  25.951  26.683  1.00  0.00     0.029 A 
ATOM     41  C   UNL A   1      43.058  27.138  27.008  1.00  0.00     0.049 A 
ATOM     42  H   UNL A   1      45.070  27.486  26.593  1.00  0.00     0.167 HD
ATOM     43  C   UNL A   1      49.400  27.922  26.055  1.00  0.00     0.037 A 
ATOM     44  C   UNL A   1      42.582  28.219  27.654  1.00  0.00     0.037 A 
ATOM     45  C   UNL A   1      48.987  29.116  26.745  1.00  0.00     0.049 A 
ATOM     46  C   UNL A   1      43.525  29.331  28.006  1.00  0.00     0.074 A 
ATOM     47  C   UNL A   1      49.747  30.219  27.094  1.00  0.00     0.029 A 
ATOM     48  N   UNL A   1      47.693  29.369  27.177  1.00  0.00    -0.354 N 
ATOM     49  N   UNL A   1      44.809  29.430  27.765  1.00  0.00    -0.248 NA
ATOM     50  C   UNL A   1      42.958  30.470  28.740  1.00  0.00     0.031 C 
ATOM     51  C   UNL A   1      48.918  31.127  27.765  1.00  0.00     0.029 A 
ATOM     52  C   UNL A   1      47.635  30.605  27.799  1.00  0.00     0.049 A 
ATOM     53  H   UNL A   1      46.928  28.760  27.058  1.00  0.00     0.167 HD
ATOM     54  C   UNL A   1      45.207  30.639  28.317  1.00  0.00     0.074 A 
ATOM     55  C   UNL A   1      44.021  31.250  28.883  1.00  0.00     0.031 C 
ATOM     56  C   UNL A   1      46.444  31.190  28.360  1.00  0.00     0.037 A 
BRANCH  43  57
ATOM     57  C   UNL A   1      50.852  27.761  25.712  1.00  0.00     0.057 A 
ATOM     58  C   UNL A   1      51.803  27.332  26.646  1.00  0.00     0.134 A 
ATOM     59  C   UNL A   1      51.299  28.024  24.410  1.00  0.00     0.134 A 
ATOM     60  F   UNL A   1      51.446  27.078  27.913  1.00  0.00    -0.206 F 
ATOM     61  C   UNL A   1      53.151  27.197  26.304  1.00  0.00     0.040 A 
ATOM     62  C   UNL A   1      52.639  27.869  24.050  1.00  0.00     0.040 A 
ATOM     63  F   UNL A   1      50.439  28.434  23.465  1.00  0.00    -0.206 F 
ATOM     64  C   UNL A   1      53.571  27.461  25.001  1.00  0.00     0.006 A 
ENDBRANCH  43  57
BRANCH  44  65
ATOM     65  C   UNL A   1      41.155  28.260  28.058  1.00  0.00     0.057 A 
ATOM     66  C   UNL A   1      40.732  27.737  29.283  1.00  0.00     0.134 A 
ATOM     67  C   UNL A   1      40.185  28.857  27.240  1.00  0.00     0.134 A 
ATOM     68  F   UNL A   1      41.610  27.134  30.099  1.00  0.00    -0.206 F 
ATOM     69  C   UNL A   1      39.397  27.809  29.685  1.00  0.00     0.040 A 
ATOM     70  C   UNL A   1      38.854  28.959  27.640  1.00  0.00     0.040 A 
ATOM     71  F   UNL A   1      40.529  29.380  26.053  1.00  0.00    -0.206 F 
ATOM     72  C   UNL A   1      38.455  28.431  28.867  1.00  0.00     0.006 A 
ENDBRANCH  44  65
BRANCH  56  73
ATOM     73  C   UNL A   1      46.566  32.526  29.028  1.00  0.00     0.057 A 
ATOM     74  C   UNL A   1      46.885  32.639  30.387  1.00  0.00     0.134 A 
ATOM     75  C   UNL A   1      46.388  33.707  28.300  1.00  0.00     0.134 A 
ATOM     76  F   UNL A   1      47.052  31.542  31.141  1.00  0.00    -0.206 F 
ATOM     77  C   UNL A   1      47.002  33.885  31.004  1.00  0.00     0.040 A 
ATOM     78  C   UNL A   1      46.524  34.959  28.901  1.00  0.00     0.040 A 
ATOM     79  F   UNL A   1      46.087  33.664  26.994  1.00  0.00    -0.206 F 
ATOM     80  C   UNL A   1      46.826  35.050  30.258  1.00  0.00     0.006 A 
ENDBRANCH  56  73
ENDBRANCH  30  31
ENDBRANCH  23  25
ENDBRANCH  22  23
ENDBRANCH  21  22
ENDBRANCH   1  21
TORSDOF 13
ENDMDL
MODEL 3
REMARK VINA RESULT:     -10.2      4.931      9.580
REMARK SMILES Cc1cccc(Nc2ccccc2C(=O)OCCOC(=O)c2ccc(-c3c4nc(c(-c5c(F)cccc5F)c5ccc([nH]5)c(-c5c(F)cccc5F)c5nc(c(-c6c(F)cccc6F)c6ccc3[nH]6)C=C5)C=C4)cc2)c1C
REMARK SMILES IDX 17 1 16 2 14 3 15 4 13 5 8 6 9 7 10 8 12 9 11 10 7 11 6 13
REMARK SMILES IDX 1 14 2 15 3 16 76 17 4 18 77 19 5 20 18 21 19 22 20 23 21 24
REMARK SMILES IDX 22 25 23 26 75 27 24 28 74 29 25 30 26 31 27 32 68 33 28 34
REMARK SMILES IDX 73 35 67 36 69 37 29 38 72 39 66 40 65 41 30 43 56 44 39 45
REMARK SMILES IDX 55 46 40 47 43 48 54 49 70 50 41 51 42 52 53 54 71 55 44 56
REMARK SMILES IDX 31 57 32 58 37 59 33 60 34 61 36 62 38 63 35 64 57 65 58 66
REMARK SMILES IDX 63 67 59 68 60 69 62 70 64 71 61 72 45 73 46 74 51 75 47 76
REMARK SMILES IDX 48 77 50 78 52 79 49 80
REMARK H PARENT 7 12 69 42 43 53
REMARK Flexibility Score: inf
ROOT
ATOM      1  C   UNL A   1      31.773  28.350  27.143  1.00  0.00     0.275 C 
ENDROOT
BRANCH   1   2
ATOM      2  O   UNL A   1      32.673  27.311  26.707  1.00  0.00    -0.458 OA
BRANCH   2   3
ATOM      3  C   UNL A   1      32.065  26.166  26.310  1.00  0.00     0.340 C 
ATOM      4  O   UNL A   1      30.964  25.769  26.663  1.00  0.00    -0.246 OA
BRANCH   3   5
ATOM      5  C   UNL A   1      32.870  25.440  25.304  1.00  0.00     0.083 A 
ATOM      6  C   UNL A   1      32.424  25.195  23.993  1.00  0.00     0.053 A 
ATOM      7  C   UNL A   1      33.311  24.538  23.115  1.00  0.00     0.027 A 
ATOM      8  C   UNL A   1      34.598  24.162  23.510  1.00  0.00     0.002 A 
ATOM      9  C   UNL A   1      34.166  25.054  25.694  1.00  0.00     0.018 A 
ATOM     10  C   UNL A   1      35.028  24.421  24.803  1.00  0.00     0.001 A 
BRANCH   6  11
ATOM     11  N   UNL A   1      31.213  25.655  23.438  1.00  0.00    -0.355 N 
ATOM     12  H   UNL A   1      30.603  24.937  23.149  1.00  0.00     0.167 HD
BRANCH  11  13
ATOM     13  C   UNL A   1      30.716  26.956  23.221  1.00  0.00     0.042 A 
ATOM     14  C   UNL A   1      27.465  28.974  22.952  1.00  0.00     0.044 C 
ATOM     15  C   UNL A   1      28.923  28.592  22.938  1.00  0.00    -0.046 A 
ATOM     16  C   UNL A   1      29.854  29.509  22.430  1.00  0.00     0.004 A 
ATOM     17  C   UNL A   1      29.360  27.323  23.395  1.00  0.00    -0.025 A 
ATOM     18  C   UNL A   1      31.200  29.176  22.341  1.00  0.00     0.002 A 
ATOM     19  C   UNL A   1      28.374  26.401  24.072  1.00  0.00     0.047 C 
ATOM     20  C   UNL A   1      31.622  27.904  22.717  1.00  0.00     0.026 A 
ENDBRANCH  11  13
ENDBRANCH   6  11
ENDBRANCH   3   5
ENDBRANCH   2   3
ENDBRANCH   1   2
BRANCH   1  21
ATOM     21  C   UNL A   1      31.708  29.509  26.154  1.00  0.00     0.275 C 
BRANCH  21  22
ATOM     22  O   UNL A   1      32.995  30.139  26.033  1.00  0.00    -0.458 OA
BRANCH  22  23
ATOM     23  C   UNL A   1      33.292  31.037  26.997  1.00  0.00     0.338 C 
ATOM     24  O   UNL A   1      32.569  31.901  27.462  1.00  0.00    -0.246 OA
BRANCH  23  25
ATOM     25  C   UNL A   1      34.670  30.831  27.469  1.00  0.00     0.060 A 
ATOM     26  C   UNL A   1      35.129  29.539  27.703  1.00  0.00     0.016 A 
ATOM     27  C   UNL A   1      35.442  31.926  27.850  1.00  0.00     0.016 A 
ATOM     28  C   UNL A   1      36.289  29.329  28.441  1.00  0.00     0.010 A 
ATOM     29  C   UNL A   1      36.671  31.713  28.479  1.00  0.00     0.010 A 
ATOM     30  C   UNL A   1      37.084  30.413  28.829  1.00  0.00    -0.014 A 
BRANCH  30  31
ATOM     31  C   UNL A   1      38.312  30.197  29.640  1.00  0.00     0.031 A 
ATOM     32  C   UNL A   1      39.431  29.349  29.094  1.00  0.00     0.074 A 
ATOM     33  C   UNL A   1      38.436  30.756  30.860  1.00  0.00     0.049 A 
ATOM     34  N   UNL A   1      40.468  28.845  29.714  1.00  0.00    -0.248 NA
ATOM     35  C   UNL A   1      39.362  29.005  27.666  1.00  0.00     0.031 C 
ATOM     36  C   UNL A   1      37.458  31.642  31.493  1.00  0.00     0.029 A 
ATOM     37  N   UNL A   1      39.442  30.658  31.789  1.00  0.00    -0.354 N 
ATOM     38  C   UNL A   1      41.126  28.061  28.774  1.00  0.00     0.074 A 
ATOM     39  C   UNL A   1      40.381  28.167  27.538  1.00  0.00     0.031 C 
ATOM     40  C   UNL A   1      37.922  32.030  32.689  1.00  0.00     0.029 A 
ATOM     41  C   UNL A   1      39.181  31.343  32.951  1.00  0.00     0.049 A 
ATOM     42  H   UNL A   1      40.271  30.148  31.638  1.00  0.00     0.167 HD
ATOM     43  C   UNL A   1      42.245  27.314  28.935  1.00  0.00     0.037 A 
ATOM     44  C   UNL A   1      39.843  31.370  34.122  1.00  0.00     0.037 A 
ATOM     45  C   UNL A   1      43.020  27.276  30.148  1.00  0.00     0.049 A 
ATOM     46  C   UNL A   1      41.079  30.537  34.280  1.00  0.00     0.074 A 
ATOM     47  C   UNL A   1      44.189  26.581  30.405  1.00  0.00     0.029 A 
ATOM     48  N   UNL A   1      42.710  27.980  31.303  1.00  0.00    -0.354 N 
ATOM     49  N   UNL A   1      41.658  29.748  33.408  1.00  0.00    -0.248 NA
ATOM     50  C   UNL A   1      41.743  30.580  35.590  1.00  0.00     0.031 C 
ATOM     51  C   UNL A   1      44.570  26.839  31.727  1.00  0.00     0.029 A 
ATOM     52  C   UNL A   1      43.659  27.726  32.280  1.00  0.00     0.049 A 
ATOM     53  H   UNL A   1      41.932  28.572  31.412  1.00  0.00     0.167 HD
ATOM     54  C   UNL A   1      42.752  29.198  34.062  1.00  0.00     0.074 A 
ATOM     55  C   UNL A   1      42.770  29.764  35.395  1.00  0.00     0.031 C 
ATOM     56  C   UNL A   1      43.654  28.297  33.602  1.00  0.00     0.037 A 
BRANCH  43  57
ATOM     57  C   UNL A   1      42.668  26.443  27.789  1.00  0.00     0.057 A 
ATOM     58  C   UNL A   1      42.225  25.123  27.643  1.00  0.00     0.134 A 
ATOM     59  C   UNL A   1      43.524  26.949  26.801  1.00  0.00     0.134 A 
ATOM     60  F   UNL A   1      41.418  24.571  28.561  1.00  0.00    -0.206 F 
ATOM     61  C   UNL A   1      42.640  24.329  26.571  1.00  0.00     0.040 A 
ATOM     62  C   UNL A   1      43.925  26.174  25.712  1.00  0.00     0.040 A 
ATOM     63  F   UNL A   1      43.981  28.209  26.877  1.00  0.00    -0.206 F 
ATOM     64  C   UNL A   1      43.488  24.857  25.598  1.00  0.00     0.006 A 
ENDBRANCH  43  57
BRANCH  44  65
ATOM     65  C   UNL A   1      39.303  32.172  35.248  1.00  0.00     0.057 A 
ATOM     66  C   UNL A   1      39.617  33.526  35.391  1.00  0.00     0.134 A 
ATOM     67  C   UNL A   1      38.429  31.608  36.188  1.00  0.00     0.134 A 
ATOM     68  F   UNL A   1      40.466  34.116  34.536  1.00  0.00    -0.206 F 
ATOM     69  C   UNL A   1      39.080  34.295  36.426  1.00  0.00     0.040 A 
ATOM     70  C   UNL A   1      37.864  32.370  37.210  1.00  0.00     0.040 A 
ATOM     71  F   UNL A   1      38.086  30.314  36.103  1.00  0.00    -0.206 F 
ATOM     72  C   UNL A   1      38.193  33.719  37.333  1.00  0.00     0.006 A 
ENDBRANCH  44  65
BRANCH  56  73
ATOM     73  C   UNL A   1      44.742  27.887  34.548  1.00  0.00     0.057 A 
ATOM     74  C   UNL A   1      45.938  28.608  34.646  1.00  0.00     0.134 A 
ATOM     75  C   UNL A   1      44.580  26.777  35.384  1.00  0.00     0.134 A 
ATOM     76  F   UNL A   1      46.158  29.673  33.860  1.00  0.00    -0.206 F 
ATOM     77  C   UNL A   1      46.946  28.225  35.531  1.00  0.00     0.040 A 
ATOM     78  C   UNL A   1      45.571  26.396  36.287  1.00  0.00     0.040 A 
ATOM     79  F   UNL A   1      43.454  26.049  35.339  1.00  0.00    -0.206 F 
ATOM     80  C   UNL A   1      46.761  27.119  36.359  1.00  0.00     0.006 A 
ENDBRANCH  56  73
ENDBRANCH  30  31
ENDBRANCH  23  25
ENDBRANCH  22  23
ENDBRANCH  21  22
ENDBRANCH   1  21
TORSDOF 13
ENDMDL
