MODEL 1
REMARK VINA RESULT:     -11.1      0.000      0.000
REMARK SMILES Cc1cc(C[N@@H+]2C[C@@H](C(=O)OCCOC(=O)c3ccc(-c4c5nc(c(-c6c(F)cccc6F)c6ccc([nH]6)c(-c6c(F)cccc6F)c6nc(c(-c7c(F)cccc7F)c7ccc4[nH]7)C=C6)C=C5)cc3)[C@H](C3CC3)C2)on1
REMARK SMILES IDX 12 1 11 2 9 3 10 4 8 5 6 6 7 7 75 8 71 10 5 11 4 12 1 13
REMARK SMILES IDX 2 14 3 15 77 16 76 17 72 18 73 19 74 20 13 21 14 22 15 23
REMARK SMILES IDX 16 24 17 25 18 26 70 27 19 28 69 29 20 30 21 31 22 32 63 33
REMARK SMILES IDX 23 34 68 35 62 36 64 37 24 38 67 39 61 40 60 41 25 43 51 44
REMARK SMILES IDX 34 45 50 46 35 47 38 48 49 49 65 50 36 51 37 52 48 54 66 55
REMARK SMILES IDX 39 56 26 57 27 58 32 59 28 60 29 61 31 62 33 63 30 64 52 65
REMARK SMILES IDX 53 66 58 67 54 68 55 69 57 70 59 71 56 72 40 73 41 74 46 75
REMARK SMILES IDX 42 76 43 77 45 78 47 79 44 80
REMARK H PARENT 6 9 64 42 38 53
REMARK Flexibility Score: inf
ROOT
ATOM      1  C   UNL A   1      37.918  21.018  25.440  1.00  0.00     0.274 C 
ENDROOT
BRANCH   1   2
ATOM      2  O   UNL A   1      36.620  20.779  24.851  1.00  0.00    -0.462 OA
BRANCH   2   3
ATOM      3  C   UNL A   1      35.967  21.891  24.423  1.00  0.00     0.315 C 
ATOM      4  O   UNL A   1      36.376  22.592  23.504  1.00  0.00    -0.252 OA
BRANCH   3   5
ATOM      5  C   UNL A   1      34.688  22.211  25.182  1.00  0.00     0.163 C 
ATOM      6  N   UNL A   1      33.043  21.516  26.772  1.00  0.00    -0.328 N 
ATOM      7  C   UNL A   1      34.486  21.467  26.497  1.00  0.00     0.278 C 
ATOM      8  C   UNL A   1      32.382  21.462  25.467  1.00  0.00     0.267 C 
ATOM      9  H   UNL A   1      32.781  20.717  27.349  1.00  0.00     0.348 HD
ATOM     10  C   UNL A   1      33.427  21.851  24.397  1.00  0.00     0.067 C 
BRANCH   6  11
ATOM     11  C   UNL A   1      32.591  22.617  27.641  1.00  0.00     0.341 C 
BRANCH  11  12
ATOM     12  C   UNL A   1      31.836  23.732  27.007  1.00  0.00     0.191 A 
ATOM     13  C   UNL A   1      30.760  26.845  25.418  1.00  0.00     0.070 C 
ATOM     14  C   UNL A   1      30.971  25.512  26.031  1.00  0.00     0.081 A 
ATOM     15  C   UNL A   1      32.190  24.829  26.256  1.00  0.00     0.078 A 
ATOM     16  N   UNL A   1      29.938  24.836  26.549  1.00  0.00    -0.085 NA
ATOM     17  O   UNL A   1      30.483  23.714  27.150  1.00  0.00    -0.355 OA
ENDBRANCH  11  12
ENDBRANCH   6  11
BRANCH  10  18
ATOM     18  C   UNL A   1      32.848  22.855  23.426  1.00  0.00    -0.001 C 
ATOM     19  C   UNL A   1      33.577  24.090  22.961  1.00  0.00     0.004 C 
ATOM     20  C   UNL A   1      33.287  23.005  21.986  1.00  0.00     0.004 C 
ENDBRANCH  10  18
ENDBRANCH   3   5
ENDBRANCH   2   3
ENDBRANCH   1   2
BRANCH   1  21
ATOM     21  C   UNL A   1      38.956  19.959  25.054  1.00  0.00     0.275 C 
BRANCH  21  22
ATOM     22  O   UNL A   1      39.682  19.451  26.196  1.00  0.00    -0.458 OA
BRANCH  22  23
ATOM     23  C   UNL A   1      41.026  19.605  26.140  1.00  0.00     0.338 C 
ATOM     24  O   UNL A   1      41.819  18.851  25.587  1.00  0.00    -0.246 OA
BRANCH  23  25
ATOM     25  C   UNL A   1      41.444  20.924  26.665  1.00  0.00     0.060 A 
ATOM     26  C   UNL A   1      41.575  21.934  25.715  1.00  0.00     0.016 A 
ATOM     27  C   UNL A   1      41.737  21.206  28.002  1.00  0.00     0.016 A 
ATOM     28  C   UNL A   1      41.853  23.240  26.091  1.00  0.00     0.010 A 
ATOM     29  C   UNL A   1      42.090  22.520  28.379  1.00  0.00     0.010 A 
ATOM     30  C   UNL A   1      42.106  23.554  27.428  1.00  0.00    -0.014 A 
BRANCH  30  31
ATOM     31  C   UNL A   1      42.455  24.968  27.723  1.00  0.00     0.031 A 
ATOM     32  C   UNL A   1      43.760  25.516  27.216  1.00  0.00     0.074 A 
ATOM     33  C   UNL A   1      41.542  25.814  28.240  1.00  0.00     0.049 A 
ATOM     34  N   UNL A   1      44.237  26.733  27.289  1.00  0.00    -0.248 NA
ATOM     35  C   UNL A   1      44.627  24.571  26.496  1.00  0.00     0.031 C 
ATOM     36  C   UNL A   1      40.177  25.459  28.617  1.00  0.00     0.029 A 
ATOM     37  N   UNL A   1      41.619  27.164  28.495  1.00  0.00    -0.354 N 
ATOM     38  C   UNL A   1      45.458  26.699  26.629  1.00  0.00     0.074 A 
ATOM     39  C   UNL A   1      45.640  25.348  26.146  1.00  0.00     0.031 C 
ATOM     40  C   UNL A   1      39.538  26.564  29.041  1.00  0.00     0.029 A 
ATOM     41  C   UNL A   1      40.467  27.693  29.027  1.00  0.00     0.049 A 
ATOM     42  H   UNL A   1      42.423  27.701  28.313  1.00  0.00     0.167 HD
ATOM     43  C   UNL A   1      46.359  27.695  26.464  1.00  0.00     0.037 A 
ATOM     44  C   UNL A   1      40.205  28.935  29.484  1.00  0.00     0.037 A 
ATOM     45  C   UNL A   1      46.204  29.029  26.979  1.00  0.00     0.049 A 
ATOM     46  C   UNL A   1      41.289  29.985  29.429  1.00  0.00     0.074 A 
ATOM     47  C   UNL A   1      47.104  30.081  26.936  1.00  0.00     0.029 A 
ATOM     48  N   UNL A   1      45.080  29.494  27.644  1.00  0.00    -0.354 N 
ATOM     49  N   UNL A   1      42.477  29.926  28.875  1.00  0.00    -0.248 NA
ATOM     50  C   UNL A   1      41.000  31.270  30.085  1.00  0.00     0.031 C 
ATOM     51  C   UNL A   1      46.546  31.163  27.627  1.00  0.00     0.029 A 
ATOM     52  C   UNL A   1      45.273  30.808  28.042  1.00  0.00     0.049 A 
ATOM     53  H   UNL A   1      44.265  28.968  27.809  1.00  0.00     0.167 HD
ATOM     54  C   UNL A   1      43.064  31.168  29.098  1.00  0.00     0.074 A 
ATOM     55  C   UNL A   1      42.092  31.968  29.810  1.00  0.00     0.031 C 
ATOM     56  C   UNL A   1      44.301  31.602  28.750  1.00  0.00     0.037 A 
BRANCH  43  57
ATOM     57  C   UNL A   1      47.643  27.335  25.778  1.00  0.00     0.057 A 
ATOM     58  C   UNL A   1      48.762  26.866  26.478  1.00  0.00     0.134 A 
ATOM     59  C   UNL A   1      47.760  27.482  24.391  1.00  0.00     0.134 A 
ATOM     60  F   UNL A   1      48.723  26.730  27.812  1.00  0.00    -0.206 F 
ATOM     61  C   UNL A   1      49.961  26.578  25.822  1.00  0.00     0.040 A 
ATOM     62  C   UNL A   1      48.944  27.172  23.721  1.00  0.00     0.040 A 
ATOM     63  F   UNL A   1      46.726  27.931  23.663  1.00  0.00    -0.206 F 
ATOM     64  C   UNL A   1      50.052  26.727  24.438  1.00  0.00     0.006 A 
ENDBRANCH  43  57
BRANCH  44  65
ATOM     65  C   UNL A   1      38.897  29.256  30.120  1.00  0.00     0.057 A 
ATOM     66  C   UNL A   1      37.867  29.886  29.410  1.00  0.00     0.134 A 
ATOM     67  C   UNL A   1      38.683  29.023  31.485  1.00  0.00     0.134 A 
ATOM     68  F   UNL A   1      38.020  30.173  28.109  1.00  0.00    -0.206 F 
ATOM     69  C   UNL A   1      36.687  30.296  30.037  1.00  0.00     0.040 A 
ATOM     70  C   UNL A   1      37.496  29.396  32.117  1.00  0.00     0.040 A 
ATOM     71  F   UNL A   1      39.633  28.441  32.231  1.00  0.00    -0.206 F 
ATOM     72  C   UNL A   1      36.498  30.048  31.396  1.00  0.00     0.006 A 
ENDBRANCH  44  65
BRANCH  56  73
ATOM     73  C   UNL A   1      44.660  33.020  29.101  1.00  0.00     0.057 A 
ATOM     74  C   UNL A   1      45.295  33.352  30.305  1.00  0.00     0.134 A 
ATOM     75  C   UNL A   1      44.380  34.067  28.212  1.00  0.00     0.134 A 
ATOM     76  F   UNL A   1      45.584  32.403  31.207  1.00  0.00    -0.206 F 
ATOM     77  C   UNL A   1      45.603  34.676  30.629  1.00  0.00     0.040 A 
ATOM     78  C   UNL A   1      44.714  35.390  28.510  1.00  0.00     0.040 A 
ATOM     79  F   UNL A   1      43.786  33.822  27.035  1.00  0.00    -0.206 F 
ATOM     80  C   UNL A   1      45.317  35.699  29.726  1.00  0.00     0.006 A 
ENDBRANCH  56  73
ENDBRANCH  30  31
ENDBRANCH  23  25
ENDBRANCH  22  23
ENDBRANCH  21  22
ENDBRANCH   1  21
TORSDOF 14
ENDMDL
MODEL 2
REMARK VINA RESULT:     -11.0      4.760     10.145
REMARK SMILES Cc1cc(C[N@@H+]2C[C@@H](C(=O)OCCOC(=O)c3ccc(-c4c5nc(c(-c6c(F)cccc6F)c6ccc([nH]6)c(-c6c(F)cccc6F)c6nc(c(-c7c(F)cccc7F)c7ccc4[nH]7)C=C6)C=C5)cc3)[C@H](C3CC3)C2)on1
REMARK SMILES IDX 12 1 11 2 9 3 10 4 8 5 6 6 7 7 75 8 71 10 5 11 4 12 1 13
REMARK SMILES IDX 2 14 3 15 77 16 76 17 72 18 73 19 74 20 13 21 14 22 15 23
REMARK SMILES IDX 16 24 17 25 18 26 70 27 19 28 69 29 20 30 21 31 22 32 63 33
REMARK SMILES IDX 23 34 68 35 62 36 64 37 24 38 67 39 61 40 60 41 25 43 51 44
REMARK SMILES IDX 34 45 50 46 35 47 38 48 49 49 65 50 36 51 37 52 48 54 66 55
REMARK SMILES IDX 39 56 26 57 27 58 32 59 28 60 29 61 31 62 33 63 30 64 52 65
REMARK SMILES IDX 53 66 58 67 54 68 55 69 57 70 59 71 56 72 40 73 41 74 46 75
REMARK SMILES IDX 42 76 43 77 45 78 47 79 44 80
REMARK H PARENT 6 9 64 42 38 53
REMARK Flexibility Score: inf
ROOT
ATOM      1  C   UNL A   1      31.764  31.661  26.761  1.00  0.00     0.274 C 
ENDROOT
BRANCH   1   2
ATOM      2  O   UNL A   1      32.411  30.597  26.028  1.00  0.00    -0.462 OA
BRANCH   2   3
ATOM      3  C   UNL A   1      32.002  29.342  26.353  1.00  0.00     0.315 C 
ATOM      4  O   UNL A   1      31.583  29.045  27.466  1.00  0.00    -0.252 OA
BRANCH   3   5
ATOM      5  C   UNL A   1      32.114  28.324  25.229  1.00  0.00     0.163 C 
ATOM      6  N   UNL A   1      33.500  27.205  23.635  1.00  0.00    -0.328 N 
ATOM      7  C   UNL A   1      33.494  27.715  25.013  1.00  0.00     0.278 C 
ATOM      8  C   UNL A   1      32.668  28.127  22.860  1.00  0.00     0.267 C 
ATOM      9  H   UNL A   1      34.456  27.190  23.283  1.00  0.00     0.348 HD
ATOM     10  C   UNL A   1      31.791  28.917  23.858  1.00  0.00     0.067 C 
BRANCH   6  11
ATOM     11  C   UNL A   1      33.147  25.783  23.474  1.00  0.00     0.341 C 
BRANCH  11  12
ATOM     12  C   UNL A   1      34.234  24.779  23.633  1.00  0.00     0.191 A 
ATOM     13  C   UNL A   1      37.084  22.770  24.735  1.00  0.00     0.070 C 
ATOM     14  C   UNL A   1      35.903  23.420  24.118  1.00  0.00     0.081 A 
ATOM     15  C   UNL A   1      35.038  24.388  24.679  1.00  0.00     0.078 A 
ATOM     16  N   UNL A   1      35.597  23.185  22.836  1.00  0.00    -0.085 NA
ATOM     17  O   UNL A   1      34.542  24.031  22.538  1.00  0.00    -0.355 OA
ENDBRANCH  11  12
ENDBRANCH   6  11
BRANCH  10  18
ATOM     18  C   UNL A   1      30.354  28.957  23.389  1.00  0.00    -0.001 C 
ATOM     19  C   UNL A   1      29.477  30.180  23.476  1.00  0.00     0.004 C 
ATOM     20  C   UNL A   1      29.882  29.667  22.140  1.00  0.00     0.004 C 
ENDBRANCH  10  18
ENDBRANCH   3   5
ENDBRANCH   2   3
ENDBRANCH   1   2
BRANCH   1  21
ATOM     21  C   UNL A   1      32.725  32.789  27.155  1.00  0.00     0.275 C 
BRANCH  21  22
ATOM     22  O   UNL A   1      32.122  33.741  28.060  1.00  0.00    -0.458 OA
BRANCH  22  23
ATOM     23  C   UNL A   1      32.958  34.694  28.536  1.00  0.00     0.338 C 
ATOM     24  O   UNL A   1      32.675  35.869  28.740  1.00  0.00    -0.246 OA
BRANCH  23  25
ATOM     25  C   UNL A   1      34.243  34.115  28.986  1.00  0.00     0.060 A 
ATOM     26  C   UNL A   1      34.144  33.094  29.929  1.00  0.00     0.016 A 
ATOM     27  C   UNL A   1      35.509  34.531  28.566  1.00  0.00     0.016 A 
ATOM     28  C   UNL A   1      35.266  32.394  30.349  1.00  0.00     0.010 A 
ATOM     29  C   UNL A   1      36.659  33.867  29.046  1.00  0.00     0.010 A 
ATOM     30  C   UNL A   1      36.538  32.764  29.908  1.00  0.00    -0.014 A 
BRANCH  30  31
ATOM     31  C   UNL A   1      37.682  31.994  30.462  1.00  0.00     0.031 A 
ATOM     32  C   UNL A   1      38.030  32.153  31.916  1.00  0.00     0.074 A 
ATOM     33  C   UNL A   1      38.266  31.011  29.749  1.00  0.00     0.049 A 
ATOM     34  N   UNL A   1      38.934  31.530  32.629  1.00  0.00    -0.248 NA
ATOM     35  C   UNL A   1      37.221  33.117  32.676  1.00  0.00     0.031 C 
ATOM     36  C   UNL A   1      37.911  30.630  28.384  1.00  0.00     0.029 A 
ATOM     37  N   UNL A   1      39.256  30.122  30.097  1.00  0.00    -0.354 N 
ATOM     38  C   UNL A   1      38.806  32.029  33.918  1.00  0.00     0.074 A 
ATOM     39  C   UNL A   1      37.724  32.990  33.894  1.00  0.00     0.031 C 
ATOM     40  C   UNL A   1      38.661  29.576  28.016  1.00  0.00     0.029 A 
ATOM     41  C   UNL A   1      39.593  29.247  29.092  1.00  0.00     0.049 A 
ATOM     42  H   UNL A   1      39.683  30.113  30.984  1.00  0.00     0.167 HD
ATOM     43  C   UNL A   1      39.539  31.734  35.017  1.00  0.00     0.037 A 
ATOM     44  C   UNL A   1      40.566  28.314  29.035  1.00  0.00     0.037 A 
ATOM     45  C   UNL A   1      40.643  30.812  35.037  1.00  0.00     0.049 A 
ATOM     46  C   UNL A   1      41.472  28.120  30.227  1.00  0.00     0.074 A 
ATOM     47  C   UNL A   1      41.500  30.515  36.083  1.00  0.00     0.029 A 
ATOM     48  N   UNL A   1      41.053  30.045  33.957  1.00  0.00    -0.354 N 
ATOM     49  N   UNL A   1      41.399  28.653  31.423  1.00  0.00    -0.248 NA
ATOM     50  C   UNL A   1      42.611  27.205  30.051  1.00  0.00     0.031 C 
ATOM     51  C   UNL A   1      42.464  29.613  35.618  1.00  0.00     0.029 A 
ATOM     52  C   UNL A   1      42.167  29.297  34.302  1.00  0.00     0.049 A 
ATOM     53  H   UNL A   1      40.616  30.035  33.075  1.00  0.00     0.167 HD
ATOM     54  C   UNL A   1      42.466  28.124  32.144  1.00  0.00     0.074 A 
ATOM     55  C   UNL A   1      43.152  27.207  31.261  1.00  0.00     0.031 C 
ATOM     56  C   UNL A   1      42.846  28.382  33.420  1.00  0.00     0.037 A 
BRANCH  43  57
ATOM     57  C   UNL A   1      39.225  32.506  36.263  1.00  0.00     0.057 A 
ATOM     58  C   UNL A   1      39.820  33.740  36.553  1.00  0.00     0.134 A 
ATOM     59  C   UNL A   1      38.320  31.987  37.198  1.00  0.00     0.134 A 
ATOM     60  F   UNL A   1      40.716  34.277  35.712  1.00  0.00    -0.206 F 
ATOM     61  C   UNL A   1      39.543  34.419  37.742  1.00  0.00     0.040 A 
ATOM     62  C   UNL A   1      38.016  32.669  38.376  1.00  0.00     0.040 A 
ATOM     63  F   UNL A   1      37.719  30.806  36.982  1.00  0.00    -0.206 F 
ATOM     64  C   UNL A   1      38.635  33.885  38.655  1.00  0.00     0.006 A 
ENDBRANCH  43  57
BRANCH  44  65
ATOM     65  C   UNL A   1      40.813  27.542  27.785  1.00  0.00     0.057 A 
ATOM     66  C   UNL A   1      40.297  26.253  27.601  1.00  0.00     0.134 A 
ATOM     67  C   UNL A   1      41.654  28.043  26.783  1.00  0.00     0.134 A 
ATOM     68  F   UNL A   1      39.516  25.697  28.540  1.00  0.00    -0.206 F 
ATOM     69  C   UNL A   1      40.629  25.482  26.484  1.00  0.00     0.040 A 
ATOM     70  C   UNL A   1      41.966  27.298  25.644  1.00  0.00     0.040 A 
ATOM     71  F   UNL A   1      42.198  29.263  26.901  1.00  0.00    -0.206 F 
ATOM     72  C   UNL A   1      41.463  26.007  25.499  1.00  0.00     0.006 A 
ENDBRANCH  44  65
BRANCH  56  73
ATOM     73  C   UNL A   1      44.038  27.634  33.951  1.00  0.00     0.057 A 
ATOM     74  C   UNL A   1      43.924  26.366  34.535  1.00  0.00     0.134 A 
ATOM     75  C   UNL A   1      45.324  28.187  33.861  1.00  0.00     0.134 A 
ATOM     76  F   UNL A   1      42.724  25.781  34.663  1.00  0.00    -0.206 F 
ATOM     77  C   UNL A   1      45.036  25.692  35.045  1.00  0.00     0.040 A 
ATOM     78  C   UNL A   1      46.448  27.507  34.336  1.00  0.00     0.040 A 
ATOM     79  F   UNL A   1      45.511  29.391  33.301  1.00  0.00    -0.206 F 
ATOM     80  C   UNL A   1      46.304  26.261  34.940  1.00  0.00     0.006 A 
ENDBRANCH  56  73
ENDBRANCH  30  31
ENDBRANCH  23  25
ENDBRANCH  22  23
ENDBRANCH  21  22
ENDBRANCH   1  21
TORSDOF 14
ENDMDL
MODEL 3
REMARK VINA RESULT:     -10.9      4.802     10.155
REMARK SMILES Cc1cc(C[N@@H+]2C[C@@H](C(=O)OCCOC(=O)c3ccc(-c4c5nc(c(-c6c(F)cccc6F)c6ccc([nH]6)c(-c6c(F)cccc6F)c6nc(c(-c7c(F)cccc7F)c7ccc4[nH]7)C=C6)C=C5)cc3)[C@H](C3CC3)C2)on1
REMARK SMILES IDX 12 1 11 2 9 3 10 4 8 5 6 6 7 7 75 8 71 10 5 11 4 12 1 13
REMARK SMILES IDX 2 14 3 15 77 16 76 17 72 18 73 19 74 20 13 21 14 22 15 23
REMARK SMILES IDX 16 24 17 25 18 26 70 27 19 28 69 29 20 30 21 31 22 32 63 33
REMARK SMILES IDX 23 34 68 35 62 36 64 37 24 38 67 39 61 40 60 41 25 43 51 44
REMARK SMILES IDX 34 45 50 46 35 47 38 48 49 49 65 50 36 51 37 52 48 54 66 55
REMARK SMILES IDX 39 56 26 57 27 58 32 59 28 60 29 61 31 62 33 63 30 64 52 65
REMARK SMILES IDX 53 66 58 67 54 68 55 69 57 70 59 71 56 72 40 73 41 74 46 75
REMARK SMILES IDX 42 76 43 77 45 78 47 79 44 80
REMARK H PARENT 6 9 64 42 38 53
REMARK Flexibility Score: inf
ROOT
ATOM      1  C   UNL A   1      31.120  31.901  26.789  1.00  0.00     0.274 C 
ENDROOT
BRANCH   1   2
ATOM      2  O   UNL A   1      31.722  30.597  26.624  1.00  0.00    -0.462 OA
BRANCH   2   3
ATOM      3  C   UNL A   1      31.547  30.033  25.400  1.00  0.00     0.315 C 
ATOM      4  O   UNL A   1      30.705  30.426  24.599  1.00  0.00    -0.252 OA
BRANCH   3   5
ATOM      5  C   UNL A   1      32.471  28.864  25.099  1.00  0.00     0.163 C 
ATOM      6  N   UNL A   1      32.742  26.501  24.858  1.00  0.00    -0.328 N 
ATOM      7  C   UNL A   1      31.799  27.595  24.587  1.00  0.00     0.278 C 
ATOM      8  C   UNL A   1      33.420  26.853  26.106  1.00  0.00     0.267 C 
ATOM      9  H   UNL A   1      32.227  25.626  24.955  1.00  0.00     0.348 HD
ATOM     10  C   UNL A   1      33.223  28.369  26.333  1.00  0.00     0.067 C 
BRANCH   6  11
ATOM     11  C   UNL A   1      33.647  26.141  23.751  1.00  0.00     0.341 C 
BRANCH  11  12
ATOM     12  C   UNL A   1      34.294  24.803  23.794  1.00  0.00     0.191 A 
ATOM     13  C   UNL A   1      35.986  21.701  24.737  1.00  0.00     0.070 C 
ATOM     14  C   UNL A   1      35.275  22.857  24.141  1.00  0.00     0.081 A 
ATOM     15  C   UNL A   1      34.619  23.922  24.801  1.00  0.00     0.078 A 
ATOM     16  N   UNL A   1      35.282  23.043  22.815  1.00  0.00    -0.085 NA
ATOM     17  O   UNL A   1      34.655  24.258  22.600  1.00  0.00    -0.355 OA
ENDBRANCH  11  12
ENDBRANCH   6  11
BRANCH  10  18
ATOM     18  C   UNL A   1      34.531  29.025  26.715  1.00  0.00    -0.001 C 
ATOM     19  C   UNL A   1      34.644  30.445  27.210  1.00  0.00     0.004 C 
ATOM     20  C   UNL A   1      34.955  29.324  28.137  1.00  0.00     0.004 C 
ENDBRANCH  10  18
ENDBRANCH   3   5
ENDBRANCH   2   3
ENDBRANCH   1   2
BRANCH   1  21
ATOM     21  C   UNL A   1      32.153  33.019  26.974  1.00  0.00     0.275 C 
BRANCH  21  22
ATOM     22  O   UNL A   1      32.128  33.583  28.305  1.00  0.00    -0.458 OA
BRANCH  22  23
ATOM     23  C   UNL A   1      33.033  34.564  28.532  1.00  0.00     0.338 C 
ATOM     24  O   UNL A   1      32.814  35.770  28.517  1.00  0.00    -0.246 OA
BRANCH  23  25
ATOM     25  C   UNL A   1      34.321  34.015  29.011  1.00  0.00     0.060 A 
ATOM     26  C   UNL A   1      34.225  32.973  29.930  1.00  0.00     0.016 A 
ATOM     27  C   UNL A   1      35.586  34.478  28.639  1.00  0.00     0.016 A 
ATOM     28  C   UNL A   1      35.355  32.299  30.371  1.00  0.00     0.010 A 
ATOM     29  C   UNL A   1      36.741  33.840  29.142  1.00  0.00     0.010 A 
ATOM     30  C   UNL A   1      36.627  32.716  29.978  1.00  0.00    -0.014 A 
BRANCH  30  31
ATOM     31  C   UNL A   1      37.778  31.970  30.551  1.00  0.00     0.031 A 
ATOM     32  C   UNL A   1      38.111  32.154  32.006  1.00  0.00     0.074 A 
ATOM     33  C   UNL A   1      38.381  30.986  29.857  1.00  0.00     0.049 A 
ATOM     34  N   UNL A   1      39.018  31.554  32.735  1.00  0.00    -0.248 NA
ATOM     35  C   UNL A   1      37.282  33.117  32.746  1.00  0.00     0.031 C 
ATOM     36  C   UNL A   1      38.043  30.580  28.495  1.00  0.00     0.029 A 
ATOM     37  N   UNL A   1      39.381  30.115  30.226  1.00  0.00    -0.354 N 
ATOM     38  C   UNL A   1      38.871  32.069  34.016  1.00  0.00     0.074 A 
ATOM     39  C   UNL A   1      37.777  33.014  33.970  1.00  0.00     0.031 C 
ATOM     40  C   UNL A   1      38.811  29.532  28.148  1.00  0.00     0.029 A 
ATOM     41  C   UNL A   1      39.739  29.231  29.237  1.00  0.00     0.049 A 
ATOM     42  H   UNL A   1      39.800  30.124  31.117  1.00  0.00     0.167 HD
ATOM     43  C   UNL A   1      39.599  31.800  35.125  1.00  0.00     0.037 A 
ATOM     44  C   UNL A   1      40.725  28.312  29.201  1.00  0.00     0.037 A 
ATOM     45  C   UNL A   1      40.716  30.894  35.168  1.00  0.00     0.049 A 
ATOM     46  C   UNL A   1      41.624  28.147  30.403  1.00  0.00     0.074 A 
ATOM     47  C   UNL A   1      41.568  30.624  36.225  1.00  0.00     0.029 A 
ATOM     48  N   UNL A   1      41.146  30.117  34.102  1.00  0.00    -0.354 N 
ATOM     49  N   UNL A   1      41.533  28.695  31.591  1.00  0.00    -0.248 NA
ATOM     50  C   UNL A   1      42.777  27.246  30.249  1.00  0.00     0.031 C 
ATOM     51  C   UNL A   1      42.548  29.729  35.780  1.00  0.00     0.029 A 
ATOM     52  C   UNL A   1      42.267  29.390  34.466  1.00  0.00     0.049 A 
ATOM     53  H   UNL A   1      40.716  30.089  33.216  1.00  0.00     0.167 HD
ATOM     54  C   UNL A   1      42.601  28.191  32.327  1.00  0.00     0.074 A 
ATOM     55  C   UNL A   1      43.307  27.272  31.463  1.00  0.00     0.031 C 
ATOM     56  C   UNL A   1      42.967  28.473  33.602  1.00  0.00     0.037 A 
BRANCH  43  57
ATOM     57  C   UNL A   1      39.264  32.584  36.358  1.00  0.00     0.057 A 
ATOM     58  C   UNL A   1      38.348  32.126  37.313  1.00  0.00     0.134 A 
ATOM     59  C   UNL A   1      39.862  33.832  36.577  1.00  0.00     0.134 A 
ATOM     60  F   UNL A   1      37.721  30.952  37.147  1.00  0.00    -0.206 F 
ATOM     61  C   UNL A   1      38.021  32.895  38.433  1.00  0.00     0.040 A 
ATOM     62  C   UNL A   1      39.562  34.596  37.705  1.00  0.00     0.040 A 
ATOM     63  F   UNL A   1      40.744  34.329  35.697  1.00  0.00    -0.206 F 
ATOM     64  C   UNL A   1      38.633  34.132  38.632  1.00  0.00     0.006 A 
ENDBRANCH  43  57
BRANCH  44  65
ATOM     65  C   UNL A   1      40.993  27.526  27.964  1.00  0.00     0.057 A 
ATOM     66  C   UNL A   1      41.760  28.044  26.913  1.00  0.00     0.134 A 
ATOM     67  C   UNL A   1      40.405  26.269  27.767  1.00  0.00     0.134 A 
ATOM     68  F   UNL A   1      42.321  29.258  27.020  1.00  0.00    -0.206 F 
ATOM     69  C   UNL A   1      41.910  27.357  25.705  1.00  0.00     0.040 A 
ATOM     70  C   UNL A   1      40.574  25.556  26.579  1.00  0.00     0.040 A 
ATOM     71  F   UNL A   1      39.642  25.720  28.723  1.00  0.00    -0.206 F 
ATOM     72  C   UNL A   1      41.318  26.107  25.537  1.00  0.00     0.006 A 
ENDBRANCH  44  65
BRANCH  56  73
ATOM     73  C   UNL A   1      44.165  27.749  34.154  1.00  0.00     0.057 A 
ATOM     74  C   UNL A   1      44.063  26.488  34.756  1.00  0.00     0.134 A 
ATOM     75  C   UNL A   1      45.443  28.318  34.066  1.00  0.00     0.134 A 
ATOM     76  F   UNL A   1      42.870  25.889  34.884  1.00  0.00    -0.206 F 
ATOM     77  C   UNL A   1      45.180  25.837  35.284  1.00  0.00     0.040 A 
ATOM     78  C   UNL A   1      46.573  27.661  34.559  1.00  0.00     0.040 A 
ATOM     79  F   UNL A   1      45.619  29.516  33.490  1.00  0.00    -0.206 F 
ATOM     80  C   UNL A   1      46.441  26.422  35.181  1.00  0.00     0.006 A 
ENDBRANCH  56  73
ENDBRANCH  30  31
ENDBRANCH  23  25
ENDBRANCH  22  23
ENDBRANCH  21  22
ENDBRANCH   1  21
TORSDOF 14
ENDMDL
