MODEL 1
REMARK VINA RESULT:     -10.8      0.000      0.000
REMARK SMILES COc1ncnc(N2CCSC[C@@H]2CC(=O)OCCOC(=O)c2ccc(-c3c4nc(c(-c5c(F)cccc5F)c5ccc([nH]5)c(-c5c(F)cccc5F)c5nc(c(-c6c(F)cccc6F)c6ccc3[nH]6)C=C5)C=C4)cc2)c1[N+](=O)[O-]
REMARK SMILES IDX 18 1 17 2 15 3 16 4 14 5 13 6 8 7 9 8 10 9 12 10 11 11 7 12
REMARK SMILES IDX 3 13 4 14 77 15 5 16 6 17 2 18 1 19 78 20 79 21 80 22 19 23
REMARK SMILES IDX 20 24 21 25 22 26 23 27 24 28 76 29 25 30 75 31 26 32 27 33
REMARK SMILES IDX 28 34 69 35 29 36 74 37 68 38 70 39 30 40 73 41 67 42 66 43
REMARK SMILES IDX 31 45 57 46 40 47 56 48 41 49 44 50 55 51 71 52 42 53 43 54
REMARK SMILES IDX 54 56 72 57 45 58 32 59 33 60 38 61 34 62 35 63 37 64 39 65
REMARK SMILES IDX 36 66 58 67 59 68 64 69 60 70 61 71 63 72 65 73 62 74 46 75
REMARK SMILES IDX 47 76 52 77 48 78 49 79 51 80 53 81 50 82
REMARK H PARENT 70 44 44 55
REMARK Flexibility Score: inf
ROOT
ATOM      1  C   UNL A   1      36.540  22.294  23.771  1.00  0.00     0.274 C 
ENDROOT
BRANCH   1   2
ATOM      2  O   UNL A   1      35.510  23.056  24.427  1.00  0.00    -0.462 OA
BRANCH   2   3
ATOM      3  C   UNL A   1      34.771  23.851  23.613  1.00  0.00     0.308 C 
ATOM      4  O   UNL A   1      34.647  23.682  22.404  1.00  0.00    -0.252 OA
BRANCH   3   5
ATOM      5  C   UNL A   1      33.990  24.923  24.330  1.00  0.00     0.148 C 
BRANCH   5   6
ATOM      6  C   UNL A   1      32.485  24.985  24.055  1.00  0.00     0.105 C 
ATOM      7  N   UNL A   1      31.753  25.844  25.038  1.00  0.00    -0.345 N 
ATOM      8  C   UNL A   1      31.685  25.388  26.438  1.00  0.00     0.129 C 
ATOM      9  C   UNL A   1      31.084  23.985  26.596  1.00  0.00     0.091 C 
ATOM     10  C   UNL A   1      31.881  23.561  24.017  1.00  0.00     0.095 C 
ATOM     11  S   UNL A   1      31.960  22.711  25.631  1.00  0.00    -0.158 SA
BRANCH   7  12
ATOM     12  C   UNL A   1      30.766  26.658  24.489  1.00  0.00     0.215 A 
ATOM     13  C   UNL A   1      29.903  28.226  22.944  1.00  0.00     0.299 A 
ATOM     14  N   UNL A   1      28.662  27.713  23.013  1.00  0.00    -0.196 NA
ATOM     15  C   UNL A   1      30.965  27.793  23.718  1.00  0.00     0.372 A 
ATOM     16  C   UNL A   1      28.519  26.713  23.876  1.00  0.00     0.228 A 
ATOM     17  N   UNL A   1      29.509  26.151  24.584  1.00  0.00    -0.212 NA
BRANCH  13  18
ATOM     18  O   UNL A   1      30.050  29.226  22.011  1.00  0.00    -0.476 OA
ATOM     19  C   UNL A   1      29.157  30.294  22.349  1.00  0.00     0.280 C 
ENDBRANCH  13  18
BRANCH  15  20
ATOM     20  N   UNL A   1      32.172  28.564  23.661  1.00  0.00     0.072 N 
ATOM     21  O   UNL A   1      32.266  29.515  24.452  1.00  0.00    -0.258 OA
ATOM     22  O   UNL A   1      32.963  28.335  22.731  1.00  0.00    -0.258 OA
ENDBRANCH  15  20
ENDBRANCH   7  12
ENDBRANCH   5   6
ENDBRANCH   3   5
ENDBRANCH   2   3
ENDBRANCH   1   2
BRANCH   1  23
ATOM     23  C   UNL A   1      37.002  21.109  24.625  1.00  0.00     0.275 C 
BRANCH  23  24
ATOM     24  O   UNL A   1      37.518  21.521  25.905  1.00  0.00    -0.458 OA
BRANCH  24  25
ATOM     25  C   UNL A   1      38.841  21.292  26.053  1.00  0.00     0.338 C 
ATOM     26  O   UNL A   1      39.444  20.255  25.855  1.00  0.00    -0.246 OA
BRANCH  25  27
ATOM     27  C   UNL A   1      39.569  22.474  26.496  1.00  0.00     0.060 A 
ATOM     28  C   UNL A   1      40.602  22.352  27.423  1.00  0.00     0.016 A 
ATOM     29  C   UNL A   1      39.067  23.723  26.126  1.00  0.00     0.016 A 
ATOM     30  C   UNL A   1      41.127  23.500  28.007  1.00  0.00     0.010 A 
ATOM     31  C   UNL A   1      39.650  24.872  26.649  1.00  0.00     0.010 A 
ATOM     32  C   UNL A   1      40.685  24.766  27.590  1.00  0.00    -0.014 A 
BRANCH  32  33
ATOM     33  C   UNL A   1      41.395  25.992  28.011  1.00  0.00     0.031 A 
ATOM     34  C   UNL A   1      40.691  27.086  28.752  1.00  0.00     0.074 A 
ATOM     35  C   UNL A   1      42.670  26.143  27.606  1.00  0.00     0.049 A 
ATOM     36  N   UNL A   1      41.097  28.305  28.994  1.00  0.00    -0.248 NA
ATOM     37  C   UNL A   1      39.354  26.778  29.281  1.00  0.00     0.031 C 
ATOM     38  C   UNL A   1      43.445  25.141  26.868  1.00  0.00     0.029 A 
ATOM     39  N   UNL A   1      43.525  27.205  27.725  1.00  0.00    -0.354 N 
ATOM     40  C   UNL A   1      40.060  28.921  29.679  1.00  0.00     0.074 A 
ATOM     41  C   UNL A   1      39.001  27.941  29.815  1.00  0.00     0.031 C 
ATOM     42  C   UNL A   1      44.659  25.637  26.597  1.00  0.00     0.029 A 
ATOM     43  C   UNL A   1      44.721  27.010  27.080  1.00  0.00     0.049 A 
ATOM     44  H   UNL A   1      43.305  28.025  28.223  1.00  0.00     0.167 HD
ATOM     45  C   UNL A   1      40.002  30.191  30.145  1.00  0.00     0.037 A 
ATOM     46  C   UNL A   1      45.739  27.857  26.854  1.00  0.00     0.037 A 
ATOM     47  C   UNL A   1      41.070  31.150  30.013  1.00  0.00     0.049 A 
ATOM     48  C   UNL A   1      45.637  29.263  27.350  1.00  0.00     0.074 A 
ATOM     49  C   UNL A   1      41.122  32.454  30.478  1.00  0.00     0.029 A 
ATOM     50  N   UNL A   1      42.273  30.908  29.367  1.00  0.00    -0.354 N 
ATOM     51  N   UNL A   1      44.648  29.837  27.991  1.00  0.00    -0.248 NA
ATOM     52  C   UNL A   1      46.782  30.141  27.085  1.00  0.00     0.031 C 
ATOM     53  C   UNL A   1      42.349  33.007  30.093  1.00  0.00     0.029 A 
ATOM     54  C   UNL A   1      43.070  32.039  29.411  1.00  0.00     0.049 A 
ATOM     55  H   UNL A   1      42.523  30.056  28.940  1.00  0.00     0.167 HD
ATOM     56  C   UNL A   1      45.054  31.143  28.217  1.00  0.00     0.074 A 
ATOM     57  C   UNL A   1      46.383  31.273  27.649  1.00  0.00     0.031 C 
ATOM     58  C   UNL A   1      44.386  32.144  28.839  1.00  0.00     0.037 A 
BRANCH  45  59
ATOM     59  C   UNL A   1      38.743  30.627  30.828  1.00  0.00     0.057 A 
ATOM     60  C   UNL A   1      37.658  31.144  30.111  1.00  0.00     0.134 A 
ATOM     61  C   UNL A   1      38.590  30.469  32.211  1.00  0.00     0.134 A 
ATOM     62  F   UNL A   1      37.746  31.327  28.785  1.00  0.00    -0.206 F 
ATOM     63  C   UNL A   1      36.467  31.497  30.747  1.00  0.00     0.040 A 
ATOM     64  C   UNL A   1      37.398  30.805  32.856  1.00  0.00     0.040 A 
ATOM     65  F   UNL A   1      39.592  29.975  32.954  1.00  0.00    -0.206 F 
ATOM     66  C   UNL A   1      36.332  31.320  32.123  1.00  0.00     0.006 A 
ENDBRANCH  45  59
BRANCH  46  67
ATOM     67  C   UNL A   1      46.915  27.382  26.093  1.00  0.00     0.057 A 
ATOM     68  C   UNL A   1      47.947  26.688  26.730  1.00  0.00     0.134 A 
ATOM     69  C   UNL A   1      46.997  27.547  24.704  1.00  0.00     0.134 A 
ATOM     70  F   UNL A   1      47.921  26.510  28.058  1.00  0.00    -0.206 F 
ATOM     71  C   UNL A   1      49.025  26.170  26.010  1.00  0.00     0.040 A 
ATOM     72  C   UNL A   1      48.059  27.018  23.972  1.00  0.00     0.040 A 
ATOM     73  F   UNL A   1      46.026  28.190  24.041  1.00  0.00    -0.206 F 
ATOM     74  C   UNL A   1      49.077  26.328  24.626  1.00  0.00     0.006 A 
ENDBRANCH  46  67
BRANCH  58  75
ATOM     75  C   UNL A   1      45.100  33.452  28.955  1.00  0.00     0.057 A 
ATOM     76  C   UNL A   1      44.948  34.456  27.992  1.00  0.00     0.134 A 
ATOM     77  C   UNL A   1      45.931  33.714  30.050  1.00  0.00     0.134 A 
ATOM     78  F   UNL A   1      44.179  34.252  26.913  1.00  0.00    -0.206 F 
ATOM     79  C   UNL A   1      45.612  35.677  28.109  1.00  0.00     0.040 A 
ATOM     80  C   UNL A   1      46.588  34.936  30.186  1.00  0.00     0.040 A 
ATOM     81  F   UNL A   1      46.114  32.788  31.004  1.00  0.00    -0.206 F 
ATOM     82  C   UNL A   1      46.432  35.921  29.211  1.00  0.00     0.006 A 
ENDBRANCH  58  75
ENDBRANCH  32  33
ENDBRANCH  25  27
ENDBRANCH  24  25
ENDBRANCH  23  24
ENDBRANCH   1  23
TORSDOF 15
ENDMDL
MODEL 2
REMARK VINA RESULT:     -10.7      1.890      2.612
REMARK SMILES COc1ncnc(N2CCSC[C@@H]2CC(=O)OCCOC(=O)c2ccc(-c3c4nc(c(-c5c(F)cccc5F)c5ccc([nH]5)c(-c5c(F)cccc5F)c5nc(c(-c6c(F)cccc6F)c6ccc3[nH]6)C=C5)C=C4)cc2)c1[N+](=O)[O-]
REMARK SMILES IDX 18 1 17 2 15 3 16 4 14 5 13 6 8 7 9 8 10 9 12 10 11 11 7 12
REMARK SMILES IDX 3 13 4 14 77 15 5 16 6 17 2 18 1 19 78 20 79 21 80 22 19 23
REMARK SMILES IDX 20 24 21 25 22 26 23 27 24 28 76 29 25 30 75 31 26 32 27 33
REMARK SMILES IDX 28 34 69 35 29 36 74 37 68 38 70 39 30 40 73 41 67 42 66 43
REMARK SMILES IDX 31 45 57 46 40 47 56 48 41 49 44 50 55 51 71 52 42 53 43 54
REMARK SMILES IDX 54 56 72 57 45 58 32 59 33 60 38 61 34 62 35 63 37 64 39 65
REMARK SMILES IDX 36 66 58 67 59 68 64 69 60 70 61 71 63 72 65 73 62 74 46 75
REMARK SMILES IDX 47 76 52 77 48 78 49 79 51 80 53 81 50 82
REMARK H PARENT 70 44 44 55
REMARK Flexibility Score: inf
ROOT
ATOM      1  C   UNL A   1      37.221  20.603  24.973  1.00  0.00     0.274 C 
ENDROOT
BRANCH   1   2
ATOM      2  O   UNL A   1      37.537  21.909  24.457  1.00  0.00    -0.462 OA
BRANCH   2   3
ATOM      3  C   UNL A   1      36.508  22.561  23.863  1.00  0.00     0.308 C 
ATOM      4  O   UNL A   1      36.522  22.976  22.707  1.00  0.00    -0.252 OA
BRANCH   3   5
ATOM      5  C   UNL A   1      35.258  22.648  24.700  1.00  0.00     0.148 C 
BRANCH   5   6
ATOM      6  C   UNL A   1      33.960  23.015  23.973  1.00  0.00     0.105 C 
ATOM      7  N   UNL A   1      33.056  23.873  24.803  1.00  0.00    -0.345 N 
ATOM      8  C   UNL A   1      32.451  23.276  26.007  1.00  0.00     0.129 C 
ATOM      9  C   UNL A   1      31.653  21.997  25.721  1.00  0.00     0.091 C 
ATOM     10  C   UNL A   1      33.224  21.740  23.501  1.00  0.00     0.095 C 
ATOM     11  S   UNL A   1      32.630  20.707  24.884  1.00  0.00    -0.158 SA
BRANCH   7  12
ATOM     12  C   UNL A   1      32.436  24.911  24.115  1.00  0.00     0.215 A 
ATOM     13  C   UNL A   1      31.988  27.179  23.616  1.00  0.00     0.299 A 
ATOM     14  N   UNL A   1      31.747  26.917  22.320  1.00  0.00    -0.196 NA
ATOM     15  C   UNL A   1      32.253  26.209  24.567  1.00  0.00     0.372 A 
ATOM     16  C   UNL A   1      31.807  25.631  21.990  1.00  0.00     0.228 A 
ATOM     17  N   UNL A   1      32.167  24.635  22.812  1.00  0.00    -0.212 NA
BRANCH  13  18
ATOM     18  O   UNL A   1      31.972  28.517  23.934  1.00  0.00    -0.476 OA
ATOM     19  C   UNL A   1      33.206  29.101  23.502  1.00  0.00     0.280 C 
ENDBRANCH  13  18
BRANCH  15  20
ATOM     20  N   UNL A   1      32.303  26.633  25.935  1.00  0.00     0.072 N 
ATOM     21  O   UNL A   1      33.423  26.900  26.398  1.00  0.00    -0.258 OA
ATOM     22  O   UNL A   1      31.260  26.552  26.606  1.00  0.00    -0.258 OA
ENDBRANCH  15  20
ENDBRANCH   7  12
ENDBRANCH   5   6
ENDBRANCH   3   5
ENDBRANCH   2   3
ENDBRANCH   1   2
BRANCH   1  23
ATOM     23  C   UNL A   1      38.416  19.649  24.880  1.00  0.00     0.275 C 
BRANCH  23  24
ATOM     24  O   UNL A   1      39.091  19.487  26.141  1.00  0.00    -0.458 OA
BRANCH  24  25
ATOM     25  C   UNL A   1      40.433  19.616  26.056  1.00  0.00     0.338 C 
ATOM     26  O   UNL A   1      41.234  18.808  25.628  1.00  0.00    -0.246 OA
BRANCH  25  27
ATOM     27  C   UNL A   1      40.905  20.907  26.542  1.00  0.00     0.060 A 
ATOM     28  C   UNL A   1      41.251  21.910  25.639  1.00  0.00     0.016 A 
ATOM     29  C   UNL A   1      41.189  21.025  27.904  1.00  0.00     0.016 A 
ATOM     30  C   UNL A   1      41.914  23.040  26.104  1.00  0.00     0.010 A 
ATOM     31  C   UNL A   1      41.776  22.192  28.377  1.00  0.00     0.010 A 
ATOM     32  C   UNL A   1      42.139  23.207  27.480  1.00  0.00    -0.014 A 
BRANCH  32  33
ATOM     33  C   UNL A   1      42.614  24.500  28.017  1.00  0.00     0.031 A 
ATOM     34  C   UNL A   1      41.656  25.594  28.376  1.00  0.00     0.074 A 
ATOM     35  C   UNL A   1      43.943  24.704  28.064  1.00  0.00     0.049 A 
ATOM     36  N   UNL A   1      41.909  26.849  28.641  1.00  0.00    -0.248 NA
ATOM     37  C   UNL A   1      40.231  25.237  28.436  1.00  0.00     0.031 C 
ATOM     38  C   UNL A   1      44.963  23.706  27.724  1.00  0.00     0.029 A 
ATOM     39  N   UNL A   1      44.665  25.823  28.382  1.00  0.00    -0.354 N 
ATOM     40  C   UNL A   1      40.676  27.442  28.874  1.00  0.00     0.074 A 
ATOM     41  C   UNL A   1      39.673  26.408  28.718  1.00  0.00     0.031 C 
ATOM     42  C   UNL A   1      46.176  24.260  27.847  1.00  0.00     0.029 A 
ATOM     43  C   UNL A   1      46.017  25.662  28.206  1.00  0.00     0.049 A 
ATOM     44  H   UNL A   1      44.256  26.659  28.703  1.00  0.00     0.167 HD
ATOM     45  C   UNL A   1      40.414  28.734  29.185  1.00  0.00     0.037 A 
ATOM     46  C   UNL A   1      47.018  26.555  28.275  1.00  0.00     0.037 A 
ATOM     47  C   UNL A   1      41.425  29.748  29.349  1.00  0.00     0.049 A 
ATOM     48  C   UNL A   1      46.699  27.981  28.587  1.00  0.00     0.074 A 
ATOM     49  C   UNL A   1      41.265  31.079  29.694  1.00  0.00     0.029 A 
ATOM     50  N   UNL A   1      42.786  29.540  29.179  1.00  0.00    -0.354 N 
ATOM     51  N   UNL A   1      45.529  28.533  28.798  1.00  0.00    -0.248 NA
ATOM     52  C   UNL A   1      47.832  28.910  28.660  1.00  0.00     0.031 C 
ATOM     53  C   UNL A   1      42.528  31.682  29.710  1.00  0.00     0.029 A 
ATOM     54  C   UNL A   1      43.476  30.719  29.400  1.00  0.00     0.049 A 
ATOM     55  H   UNL A   1      43.200  28.679  28.937  1.00  0.00     0.167 HD
ATOM     56  C   UNL A   1      45.783  29.873  29.041  1.00  0.00     0.074 A 
ATOM     57  C   UNL A   1      47.220  30.049  28.956  1.00  0.00     0.031 C 
ATOM     58  C   UNL A   1      44.905  30.868  29.309  1.00  0.00     0.037 A 
BRANCH  45  59
ATOM     59  C   UNL A   1      38.981  29.133  29.353  1.00  0.00     0.057 A 
ATOM     60  C   UNL A   1      38.211  29.584  28.275  1.00  0.00     0.134 A 
ATOM     61  C   UNL A   1      38.346  29.007  30.596  1.00  0.00     0.134 A 
ATOM     62  F   UNL A   1      38.763  29.735  27.062  1.00  0.00    -0.206 F 
ATOM     63  C   UNL A   1      36.860  29.902  28.428  1.00  0.00     0.040 A 
ATOM     64  C   UNL A   1      36.993  29.308  30.758  1.00  0.00     0.040 A 
ATOM     65  F   UNL A   1      39.030  28.577  31.668  1.00  0.00    -0.206 F 
ATOM     66  C   UNL A   1      36.246  29.757  29.671  1.00  0.00     0.006 A 
ENDBRANCH  45  59
BRANCH  46  67
ATOM     67  C   UNL A   1      48.402  26.106  28.007  1.00  0.00     0.057 A 
ATOM     68  C   UNL A   1      48.955  26.215  26.729  1.00  0.00     0.134 A 
ATOM     69  C   UNL A   1      49.222  25.628  29.037  1.00  0.00     0.134 A 
ATOM     70  F   UNL A   1      48.211  26.661  25.707  1.00  0.00    -0.206 F 
ATOM     71  C   UNL A   1      50.283  25.865  26.481  1.00  0.00     0.040 A 
ATOM     72  C   UNL A   1      50.556  25.292  28.806  1.00  0.00     0.040 A 
ATOM     73  F   UNL A   1      48.747  25.518  30.285  1.00  0.00    -0.206 F 
ATOM     74  C   UNL A   1      51.089  25.410  27.524  1.00  0.00     0.006 A 
ENDBRANCH  46  67
BRANCH  58  75
ATOM     75  C   UNL A   1      45.486  32.223  29.556  1.00  0.00     0.057 A 
ATOM     76  C   UNL A   1      45.580  33.175  28.534  1.00  0.00     0.134 A 
ATOM     77  C   UNL A   1      45.936  32.584  30.831  1.00  0.00     0.134 A 
ATOM     78  F   UNL A   1      45.180  32.877  27.289  1.00  0.00    -0.206 F 
ATOM     79  C   UNL A   1      46.117  34.440  28.770  1.00  0.00     0.040 A 
ATOM     80  C   UNL A   1      46.461  33.850  31.083  1.00  0.00     0.040 A 
ATOM     81  F   UNL A   1      45.870  31.712  31.848  1.00  0.00    -0.206 F 
ATOM     82  C   UNL A   1      46.556  34.782  30.050  1.00  0.00     0.006 A 
ENDBRANCH  58  75
ENDBRANCH  32  33
ENDBRANCH  25  27
ENDBRANCH  24  25
ENDBRANCH  23  24
ENDBRANCH   1  23
TORSDOF 15
ENDMDL
MODEL 3
REMARK VINA RESULT:     -10.6      2.649      7.178
REMARK SMILES COc1ncnc(N2CCSC[C@@H]2CC(=O)OCCOC(=O)c2ccc(-c3c4nc(c(-c5c(F)cccc5F)c5ccc([nH]5)c(-c5c(F)cccc5F)c5nc(c(-c6c(F)cccc6F)c6ccc3[nH]6)C=C5)C=C4)cc2)c1[N+](=O)[O-]
REMARK SMILES IDX 18 1 17 2 15 3 16 4 14 5 13 6 8 7 9 8 10 9 12 10 11 11 7 12
REMARK SMILES IDX 3 13 4 14 77 15 5 16 6 17 2 18 1 19 78 20 79 21 80 22 19 23
REMARK SMILES IDX 20 24 21 25 22 26 23 27 24 28 76 29 25 30 75 31 26 32 27 33
REMARK SMILES IDX 28 34 69 35 29 36 74 37 68 38 70 39 30 40 73 41 67 42 66 43
REMARK SMILES IDX 31 45 57 46 40 47 56 48 41 49 44 50 55 51 71 52 42 53 43 54
REMARK SMILES IDX 54 56 72 57 45 58 32 59 33 60 38 61 34 62 35 63 37 64 39 65
REMARK SMILES IDX 36 66 58 67 59 68 64 69 60 70 61 71 63 72 65 73 62 74 46 75
REMARK SMILES IDX 47 76 52 77 48 78 49 79 51 80 53 81 50 82
REMARK H PARENT 70 44 44 55
REMARK Flexibility Score: inf
ROOT
ATOM      1  C   UNL A   1      33.182  30.211  26.672  1.00  0.00     0.274 C 
ENDROOT
BRANCH   1   2
ATOM      2  O   UNL A   1      32.029  29.569  27.249  1.00  0.00    -0.462 OA
BRANCH   2   3
ATOM      3  C   UNL A   1      32.003  28.218  27.138  1.00  0.00     0.308 C 
ATOM      4  O   UNL A   1      31.147  27.496  27.642  1.00  0.00    -0.252 OA
BRANCH   3   5
ATOM      5  C   UNL A   1      33.061  27.646  26.230  1.00  0.00     0.148 C 
BRANCH   5   6
ATOM      6  C   UNL A   1      32.577  26.789  25.056  1.00  0.00     0.105 C 
ATOM      7  N   UNL A   1      33.606  26.653  23.978  1.00  0.00    -0.345 N 
ATOM      8  C   UNL A   1      33.967  27.859  23.212  1.00  0.00     0.129 C 
ATOM      9  C   UNL A   1      32.766  28.544  22.546  1.00  0.00     0.091 C 
ATOM     10  C   UNL A   1      31.254  27.350  24.483  1.00  0.00     0.095 C 
ATOM     11  S   UNL A   1      31.450  28.998  23.722  1.00  0.00    -0.158 SA
BRANCH   7  12
ATOM     12  C   UNL A   1      33.715  25.380  23.425  1.00  0.00     0.215 A 
ATOM     13  C   UNL A   1      33.844  23.020  23.500  1.00  0.00     0.299 A 
ATOM     14  N   UNL A   1      33.238  22.882  22.308  1.00  0.00    -0.196 NA
ATOM     15  C   UNL A   1      34.179  24.240  24.062  1.00  0.00     0.372 A 
ATOM     16  C   UNL A   1      32.946  24.023  21.695  1.00  0.00     0.228 A 
ATOM     17  N   UNL A   1      33.127  25.248  22.207  1.00  0.00    -0.212 NA
BRANCH  13  18
ATOM     18  O   UNL A   1      34.096  21.833  24.147  1.00  0.00    -0.476 OA
ATOM     19  C   UNL A   1      32.863  21.115  24.273  1.00  0.00     0.280 C 
ENDBRANCH  13  18
BRANCH  15  20
ATOM     20  N   UNL A   1      34.986  24.213  25.246  1.00  0.00     0.072 N 
ATOM     21  O   UNL A   1      36.209  24.077  25.088  1.00  0.00    -0.258 OA
ATOM     22  O   UNL A   1      34.405  24.165  26.343  1.00  0.00    -0.258 OA
ENDBRANCH  15  20
ENDBRANCH   7  12
ENDBRANCH   5   6
ENDBRANCH   3   5
ENDBRANCH   2   3
ENDBRANCH   1   2
BRANCH   1  23
ATOM     23  C   UNL A   1      34.058  30.875  27.739  1.00  0.00     0.275 C 
BRANCH  23  24
ATOM     24  O   UNL A   1      35.091  29.998  28.226  1.00  0.00    -0.458 OA
BRANCH  24  25
ATOM     25  C   UNL A   1      35.876  30.561  29.170  1.00  0.00     0.338 C 
ATOM     26  O   UNL A   1      35.544  31.321  30.059  1.00  0.00    -0.246 OA
BRANCH  25  27
ATOM     27  C   UNL A   1      37.272  30.156  29.054  1.00  0.00     0.060 A 
ATOM     28  C   UNL A   1      37.843  29.972  27.796  1.00  0.00     0.016 A 
ATOM     29  C   UNL A   1      37.935  29.766  30.219  1.00  0.00     0.016 A 
ATOM     30  C   UNL A   1      39.091  29.366  27.702  1.00  0.00     0.010 A 
ATOM     31  C   UNL A   1      39.217  29.237  30.126  1.00  0.00     0.010 A 
ATOM     32  C   UNL A   1      39.802  29.036  28.867  1.00  0.00    -0.014 A 
BRANCH  32  33
ATOM     33  C   UNL A   1      41.220  28.624  28.796  1.00  0.00     0.031 A 
ATOM     34  C   UNL A   1      42.329  29.626  28.884  1.00  0.00     0.074 A 
ATOM     35  C   UNL A   1      41.479  27.329  28.534  1.00  0.00     0.049 A 
ATOM     36  N   UNL A   1      43.600  29.468  28.617  1.00  0.00    -0.248 NA
ATOM     37  C   UNL A   1      41.966  30.983  29.317  1.00  0.00     0.031 C 
ATOM     38  C   UNL A   1      40.469  26.273  28.417  1.00  0.00     0.029 A 
ATOM     39  N   UNL A   1      42.663  26.688  28.284  1.00  0.00    -0.354 N 
ATOM     40  C   UNL A   1      44.187  30.708  28.823  1.00  0.00     0.074 A 
ATOM     41  C   UNL A   1      43.133  31.612  29.237  1.00  0.00     0.031 C 
ATOM     42  C   UNL A   1      41.075  25.118  28.115  1.00  0.00     0.029 A 
ATOM     43  C   UNL A   1      42.500  25.366  27.950  1.00  0.00     0.049 A 
ATOM     44  H   UNL A   1      43.541  27.129  28.338  1.00  0.00     0.167 HD
ATOM     45  C   UNL A   1      45.488  31.053  28.673  1.00  0.00     0.037 A 
ATOM     46  C   UNL A   1      43.391  24.463  27.508  1.00  0.00     0.037 A 
ATOM     47  C   UNL A   1      46.526  30.138  28.272  1.00  0.00     0.049 A 
ATOM     48  C   UNL A   1      44.814  24.878  27.320  1.00  0.00     0.074 A 
ATOM     49  C   UNL A   1      47.881  30.381  28.121  1.00  0.00     0.029 A 
ATOM     50  N   UNL A   1      46.324  28.802  27.959  1.00  0.00    -0.354 N 
ATOM     51  N   UNL A   1      45.357  26.054  27.511  1.00  0.00    -0.248 NA
ATOM     52  C   UNL A   1      45.745  23.847  26.847  1.00  0.00     0.031 C 
ATOM     53  C   UNL A   1      48.494  29.198  27.694  1.00  0.00     0.029 A 
ATOM     54  C   UNL A   1      47.524  28.211  27.605  1.00  0.00     0.049 A 
ATOM     55  H   UNL A   1      45.453  28.342  27.985  1.00  0.00     0.167 HD
ATOM     56  C   UNL A   1      46.698  25.906  27.191  1.00  0.00     0.074 A 
ATOM     57  C   UNL A   1      46.885  24.522  26.800  1.00  0.00     0.031 C 
ATOM     58  C   UNL A   1      47.684  26.834  27.219  1.00  0.00     0.037 A 
BRANCH  45  59
ATOM     59  C   UNL A   1      45.864  32.480  28.926  1.00  0.00     0.057 A 
ATOM     60  C   UNL A   1      45.847  33.438  27.906  1.00  0.00     0.134 A 
ATOM     61  C   UNL A   1      46.187  32.914  30.219  1.00  0.00     0.134 A 
ATOM     62  F   UNL A   1      45.554  33.083  26.646  1.00  0.00    -0.206 F 
ATOM     63  C   UNL A   1      46.145  34.778  28.161  1.00  0.00     0.040 A 
ATOM     64  C   UNL A   1      46.473  34.253  30.488  1.00  0.00     0.040 A 
ATOM     65  F   UNL A   1      46.217  32.044  31.240  1.00  0.00    -0.206 F 
ATOM     66  C   UNL A   1      46.453  35.189  29.457  1.00  0.00     0.006 A 
ENDBRANCH  45  59
BRANCH  46  67
ATOM     67  C   UNL A   1      42.929  23.093  27.191  1.00  0.00     0.057 A 
ATOM     68  C   UNL A   1      42.634  22.183  28.210  1.00  0.00     0.134 A 
ATOM     69  C   UNL A   1      42.702  22.691  25.869  1.00  0.00     0.134 A 
ATOM     70  F   UNL A   1      42.840  22.516  29.492  1.00  0.00    -0.206 F 
ATOM     71  C   UNL A   1      42.127  20.915  27.926  1.00  0.00     0.040 A 
ATOM     72  C   UNL A   1      42.179  21.433  25.572  1.00  0.00     0.040 A 
ATOM     73  F   UNL A   1      42.952  23.529  24.854  1.00  0.00    -0.206 F 
ATOM     74  C   UNL A   1      41.890  20.541  26.603  1.00  0.00     0.006 A 
ENDBRANCH  46  67
BRANCH  58  75
ATOM     75  C   UNL A   1      49.052  26.365  26.841  1.00  0.00     0.057 A 
ATOM     76  C   UNL A   1      49.882  25.714  27.762  1.00  0.00     0.134 A 
ATOM     77  C   UNL A   1      49.534  26.550  25.541  1.00  0.00     0.134 A 
ATOM     78  F   UNL A   1      49.478  25.526  29.027  1.00  0.00    -0.206 F 
ATOM     79  C   UNL A   1      51.155  25.273  27.403  1.00  0.00     0.040 A 
ATOM     80  C   UNL A   1      50.799  26.100  25.166  1.00  0.00     0.040 A 
ATOM     81  F   UNL A   1      48.782  27.167  24.617  1.00  0.00    -0.206 F 
ATOM     82  C   UNL A   1      51.615  25.462  26.099  1.00  0.00     0.006 A 
ENDBRANCH  58  75
ENDBRANCH  32  33
ENDBRANCH  25  27
ENDBRANCH  24  25
ENDBRANCH  23  24
ENDBRANCH   1  23
TORSDOF 15
ENDMDL
