MODEL 1
REMARK VINA RESULT:     -12.8      0.000      0.000
REMARK SMILES Cc1ccc(NC(=O)N2CCCC[C@@H]2C(=O)OCCOC(=O)c2ccc(-c3c4nc(c(-c5c(F)cccc5F)c5ccc([nH]5)c(-c5c(F)cccc5F)c5nc(c(-c6c(F)cccc6F)c6ccc3[nH]6)C=C5)C=C4)cc2)cc1
REMARK SMILES IDX 18 1 17 2 15 3 16 4 14 5 9 6 10 7 11 8 13 9 12 10 7 11 6 12
REMARK SMILES IDX 8 14 5 15 1 16 2 17 3 18 78 19 4 20 77 21 19 22 20 23 21 24
REMARK SMILES IDX 22 25 23 26 24 27 76 28 25 29 75 30 26 31 27 32 28 33 69 34
REMARK SMILES IDX 29 35 74 36 68 37 70 38 30 39 73 40 67 41 66 42 31 44 57 45
REMARK SMILES IDX 40 46 56 47 41 48 44 49 55 50 71 51 42 52 43 53 54 55 72 56
REMARK SMILES IDX 45 57 32 58 33 59 38 60 34 61 35 62 37 63 39 64 36 65 58 66
REMARK SMILES IDX 59 67 64 68 60 69 61 70 63 71 65 72 62 73 46 74 47 75 52 76
REMARK SMILES IDX 48 77 49 78 51 79 53 80 50 81
REMARK H PARENT 6 13 70 43 44 54
REMARK Flexibility Score: inf
ROOT
ATOM      1  C   UNL A   1      33.319  29.005  26.009  1.00  0.00     0.274 C 
ENDROOT
BRANCH   1   2
ATOM      2  O   UNL A   1      32.730  27.716  25.803  1.00  0.00    -0.461 OA
BRANCH   2   3
ATOM      3  C   UNL A   1      31.542  27.477  26.456  1.00  0.00     0.329 C 
ATOM      4  O   UNL A   1      31.364  27.686  27.646  1.00  0.00    -0.250 OA
BRANCH   3   5
ATOM      5  C   UNL A   1      30.613  26.685  25.502  1.00  0.00     0.196 C 
ATOM      6  N   UNL A   1      30.920  25.252  25.222  1.00  0.00    -0.311 N 
ATOM      7  C   UNL A   1      31.157  24.756  23.877  1.00  0.00     0.122 C 
ATOM      8  C   UNL A   1      31.504  25.813  22.857  1.00  0.00     0.022 C 
ATOM      9  C   UNL A   1      30.604  27.612  24.264  1.00  0.00     0.037 C 
ATOM     10  C   UNL A   1      30.471  26.919  22.929  1.00  0.00     0.005 C 
BRANCH   6  11
ATOM     11  C   UNL A   1      30.910  24.255  26.154  1.00  0.00     0.322 C 
ATOM     12  N   UNL A   1      32.019  23.539  26.466  1.00  0.00    -0.308 N 
ATOM     13  H   UNL A   1      31.887  23.019  27.291  1.00  0.00     0.171 HD
ATOM     14  O   UNL A   1      29.932  24.111  26.892  1.00  0.00    -0.248 OA
BRANCH  12  15
ATOM     15  C   UNL A   1      33.306  23.337  25.938  1.00  0.00     0.042 A 
ATOM     16  C   UNL A   1      36.594  22.945  23.191  1.00  0.00     0.044 C 
ATOM     17  C   UNL A   1      35.549  22.995  24.268  1.00  0.00    -0.051 A 
ATOM     18  C   UNL A   1      35.447  24.103  25.114  1.00  0.00     0.005 A 
ATOM     19  C   UNL A   1      34.624  21.960  24.412  1.00  0.00     0.005 A 
ATOM     20  C   UNL A   1      34.345  24.256  25.966  1.00  0.00     0.026 A 
ATOM     21  C   UNL A   1      33.502  22.141  25.228  1.00  0.00     0.026 A 
ENDBRANCH  12  15
ENDBRANCH   6  11
ENDBRANCH   3   5
ENDBRANCH   2   3
ENDBRANCH   1   2
BRANCH   1  22
ATOM     22  C   UNL A   1      34.377  28.991  27.132  1.00  0.00     0.275 C 
BRANCH  22  23
ATOM     23  O   UNL A   1      35.199  30.179  27.315  1.00  0.00    -0.458 OA
BRANCH  23  24
ATOM     24  C   UNL A   1      35.915  30.549  28.416  1.00  0.00     0.338 C 
ATOM     25  O   UNL A   1      35.497  31.316  29.252  1.00  0.00    -0.246 OA
BRANCH  24  26
ATOM     26  C   UNL A   1      37.200  29.858  28.608  1.00  0.00     0.060 A 
ATOM     27  C   UNL A   1      37.377  29.089  29.762  1.00  0.00     0.016 A 
ATOM     28  C   UNL A   1      38.137  29.848  27.584  1.00  0.00     0.016 A 
ATOM     29  C   UNL A   1      38.434  28.181  29.822  1.00  0.00     0.010 A 
ATOM     30  C   UNL A   1      39.121  28.882  27.606  1.00  0.00     0.010 A 
ATOM     31  C   UNL A   1      39.274  28.038  28.721  1.00  0.00    -0.014 A 
BRANCH  31  32
ATOM     32  C   UNL A   1      40.510  27.258  28.748  1.00  0.00     0.031 A 
ATOM     33  C   UNL A   1      40.642  25.809  28.474  1.00  0.00     0.074 A 
ATOM     34  C   UNL A   1      41.597  28.011  29.019  1.00  0.00     0.049 A 
ATOM     35  N   UNL A   1      41.691  25.119  28.781  1.00  0.00    -0.248 NA
ATOM     36  C   UNL A   1      39.615  24.998  27.847  1.00  0.00     0.031 C 
ATOM     37  C   UNL A   1      43.004  27.686  28.897  1.00  0.00     0.029 A 
ATOM     38  N   UNL A   1      41.578  29.242  29.679  1.00  0.00    -0.354 N 
ATOM     39  C   UNL A   1      41.591  23.879  28.181  1.00  0.00     0.074 A 
ATOM     40  C   UNL A   1      40.243  23.827  27.675  1.00  0.00     0.031 C 
ATOM     41  C   UNL A   1      43.700  28.530  29.680  1.00  0.00     0.029 A 
ATOM     42  C   UNL A   1      42.742  29.313  30.449  1.00  0.00     0.049 A 
ATOM     43  H   UNL A   1      40.876  29.930  29.613  1.00  0.00     0.167 HD
ATOM     44  C   UNL A   1      42.711  23.102  28.085  1.00  0.00     0.037 A 
ATOM     45  C   UNL A   1      42.604  29.289  31.809  1.00  0.00     0.037 A 
ATOM     46  C   UNL A   1      43.800  23.674  28.875  1.00  0.00     0.049 A 
ATOM     47  C   UNL A   1      43.127  28.020  32.450  1.00  0.00     0.074 A 
ATOM     48  C   UNL A   1      44.872  24.500  28.583  1.00  0.00     0.029 A 
ATOM     49  N   UNL A   1      43.666  23.689  30.251  1.00  0.00    -0.354 N 
ATOM     50  N   UNL A   1      43.553  26.979  31.789  1.00  0.00    -0.248 NA
ATOM     51  C   UNL A   1      43.146  27.801  33.897  1.00  0.00     0.031 C 
ATOM     52  C   UNL A   1      45.332  25.071  29.805  1.00  0.00     0.029 A 
ATOM     53  C   UNL A   1      44.552  24.573  30.833  1.00  0.00     0.049 A 
ATOM     54  H   UNL A   1      43.020  23.140  30.752  1.00  0.00     0.167 HD
ATOM     55  C   UNL A   1      43.926  26.001  32.665  1.00  0.00     0.074 A 
ATOM     56  C   UNL A   1      43.630  26.550  33.976  1.00  0.00     0.031 C 
ATOM     57  C   UNL A   1      44.463  24.816  32.262  1.00  0.00     0.037 A 
BRANCH  44  58
ATOM     58  C   UNL A   1      42.907  21.974  27.093  1.00  0.00     0.057 A 
ATOM     59  C   UNL A   1      42.148  20.789  27.207  1.00  0.00     0.134 A 
ATOM     60  C   UNL A   1      43.851  21.951  26.052  1.00  0.00     0.134 A 
ATOM     61  F   UNL A   1      41.148  20.674  28.090  1.00  0.00    -0.206 F 
ATOM     62  C   UNL A   1      42.383  19.644  26.431  1.00  0.00     0.040 A 
ATOM     63  C   UNL A   1      44.121  20.800  25.290  1.00  0.00     0.040 A 
ATOM     64  F   UNL A   1      44.525  23.048  25.689  1.00  0.00    -0.206 F 
ATOM     65  C   UNL A   1      43.396  19.634  25.488  1.00  0.00     0.006 A 
ENDBRANCH  44  58
BRANCH  45  66
ATOM     66  C   UNL A   1      41.395  30.033  32.274  1.00  0.00     0.057 A 
ATOM     67  C   UNL A   1      40.272  29.314  32.726  1.00  0.00     0.134 A 
ATOM     68  C   UNL A   1      41.473  31.374  32.647  1.00  0.00     0.134 A 
ATOM     69  F   UNL A   1      40.145  28.010  32.434  1.00  0.00    -0.206 F 
ATOM     70  C   UNL A   1      39.317  29.878  33.581  1.00  0.00     0.040 A 
ATOM     71  C   UNL A   1      40.531  31.936  33.514  1.00  0.00     0.040 A 
ATOM     72  F   UNL A   1      42.523  32.126  32.283  1.00  0.00    -0.206 F 
ATOM     73  C   UNL A   1      39.462  31.192  34.002  1.00  0.00     0.006 A 
ENDBRANCH  45  66
BRANCH  57  74
ATOM     74  C   UNL A   1      45.016  23.804  33.214  1.00  0.00     0.057 A 
ATOM     75  C   UNL A   1      44.223  22.772  33.734  1.00  0.00     0.134 A 
ATOM     76  C   UNL A   1      46.302  23.939  33.768  1.00  0.00     0.134 A 
ATOM     77  F   UNL A   1      42.962  22.592  33.315  1.00  0.00    -0.206 F 
ATOM     78  C   UNL A   1      44.689  21.909  34.729  1.00  0.00     0.040 A 
ATOM     79  C   UNL A   1      46.760  23.116  34.798  1.00  0.00     0.040 A 
ATOM     80  F   UNL A   1      47.162  24.868  33.326  1.00  0.00    -0.206 F 
ATOM     81  C   UNL A   1      45.955  22.091  35.278  1.00  0.00     0.006 A 
ENDBRANCH  57  74
ENDBRANCH  31  32
ENDBRANCH  24  26
ENDBRANCH  23  24
ENDBRANCH  22  23
ENDBRANCH   1  22
TORSDOF 13
ENDMDL
MODEL 2
REMARK VINA RESULT:     -12.8      1.352      3.297
REMARK SMILES Cc1ccc(NC(=O)N2CCCC[C@@H]2C(=O)OCCOC(=O)c2ccc(-c3c4nc(c(-c5c(F)cccc5F)c5ccc([nH]5)c(-c5c(F)cccc5F)c5nc(c(-c6c(F)cccc6F)c6ccc3[nH]6)C=C5)C=C4)cc2)cc1
REMARK SMILES IDX 18 1 17 2 15 3 16 4 14 5 9 6 10 7 11 8 13 9 12 10 7 11 6 12
REMARK SMILES IDX 8 14 5 15 1 16 2 17 3 18 78 19 4 20 77 21 19 22 20 23 21 24
REMARK SMILES IDX 22 25 23 26 24 27 76 28 25 29 75 30 26 31 27 32 28 33 69 34
REMARK SMILES IDX 29 35 74 36 68 37 70 38 30 39 73 40 67 41 66 42 31 44 57 45
REMARK SMILES IDX 40 46 56 47 41 48 44 49 55 50 71 51 42 52 43 53 54 55 72 56
REMARK SMILES IDX 45 57 32 58 33 59 38 60 34 61 35 62 37 63 39 64 36 65 58 66
REMARK SMILES IDX 59 67 64 68 60 69 61 70 63 71 65 72 62 73 46 74 47 75 52 76
REMARK SMILES IDX 48 77 49 78 51 79 53 80 50 81
REMARK H PARENT 6 13 70 43 44 54
REMARK Flexibility Score: inf
ROOT
ATOM      1  C   UNL A   1      33.019  29.145  26.614  1.00  0.00     0.274 C 
ENDROOT
BRANCH   1   2
ATOM      2  O   UNL A   1      32.955  27.923  25.871  1.00  0.00    -0.461 OA
BRANCH   2   3
ATOM      3  C   UNL A   1      33.659  27.891  24.688  1.00  0.00     0.329 C 
ATOM      4  O   UNL A   1      33.853  28.869  23.984  1.00  0.00    -0.250 OA
BRANCH   3   5
ATOM      5  C   UNL A   1      33.910  26.410  24.312  1.00  0.00     0.196 C 
ATOM      6  N   UNL A   1      32.938  25.719  23.415  1.00  0.00    -0.311 N 
ATOM      7  C   UNL A   1      32.231  24.514  23.816  1.00  0.00     0.122 C 
ATOM      8  C   UNL A   1      32.197  24.256  25.303  1.00  0.00     0.022 C 
ATOM      9  C   UNL A   1      34.083  25.775  25.712  1.00  0.00     0.037 C 
ATOM     10  C   UNL A   1      33.609  24.348  25.846  1.00  0.00     0.005 C 
BRANCH   6  11
ATOM     11  C   UNL A   1      32.688  26.067  22.120  1.00  0.00     0.322 C 
ATOM     12  N   UNL A   1      31.802  27.037  21.784  1.00  0.00    -0.308 N 
ATOM     13  H   UNL A   1      31.901  27.300  20.841  1.00  0.00     0.171 HD
ATOM     14  O   UNL A   1      33.416  25.646  21.217  1.00  0.00    -0.248 OA
BRANCH  12  15
ATOM     15  C   UNL A   1      30.782  27.772  22.413  1.00  0.00     0.042 A 
ATOM     16  C   UNL A   1      27.274  30.173  23.080  1.00  0.00     0.044 C 
ATOM     17  C   UNL A   1      28.549  29.383  23.011  1.00  0.00    -0.051 A 
ATOM     18  C   UNL A   1      28.567  28.026  23.352  1.00  0.00     0.005 A 
ATOM     19  C   UNL A   1      29.729  29.971  22.557  1.00  0.00     0.005 A 
ATOM     20  C   UNL A   1      29.691  27.234  23.080  1.00  0.00     0.026 A 
ATOM     21  C   UNL A   1      30.830  29.166  22.243  1.00  0.00     0.026 A 
ENDBRANCH  12  15
ENDBRANCH   6  11
ENDBRANCH   3   5
ENDBRANCH   2   3
ENDBRANCH   1   2
BRANCH   1  22
ATOM     22  C   UNL A   1      34.204  29.167  27.604  1.00  0.00     0.275 C 
BRANCH  22  23
ATOM     23  O   UNL A   1      34.999  30.383  27.695  1.00  0.00    -0.458 OA
BRANCH  23  24
ATOM     24  C   UNL A   1      36.069  30.633  28.504  1.00  0.00     0.338 C 
ATOM     25  O   UNL A   1      36.082  31.513  29.334  1.00  0.00    -0.246 OA
BRANCH  24  26
ATOM     26  C   UNL A   1      37.185  29.680  28.404  1.00  0.00     0.060 A 
ATOM     27  C   UNL A   1      38.055  29.785  27.315  1.00  0.00     0.016 A 
ATOM     28  C   UNL A   1      37.449  28.814  29.457  1.00  0.00     0.016 A 
ATOM     29  C   UNL A   1      39.282  29.123  27.354  1.00  0.00     0.010 A 
ATOM     30  C   UNL A   1      38.701  28.243  29.536  1.00  0.00     0.010 A 
ATOM     31  C   UNL A   1      39.629  28.395  28.490  1.00  0.00    -0.014 A 
BRANCH  31  32
ATOM     32  C   UNL A   1      40.798  27.521  28.559  1.00  0.00     0.031 A 
ATOM     33  C   UNL A   1      40.815  26.056  28.345  1.00  0.00     0.074 A 
ATOM     34  C   UNL A   1      41.940  28.195  28.809  1.00  0.00     0.049 A 
ATOM     35  N   UNL A   1      41.804  25.297  28.689  1.00  0.00    -0.248 NA
ATOM     36  C   UNL A   1      39.729  25.304  27.742  1.00  0.00     0.031 C 
ATOM     37  C   UNL A   1      43.317  27.754  28.713  1.00  0.00     0.029 A 
ATOM     38  N   UNL A   1      42.016  29.450  29.418  1.00  0.00    -0.354 N 
ATOM     39  C   UNL A   1      41.607  24.046  28.139  1.00  0.00     0.074 A 
ATOM     40  C   UNL A   1      40.263  24.081  27.624  1.00  0.00     0.031 C 
ATOM     41  C   UNL A   1      44.074  28.571  29.467  1.00  0.00     0.029 A 
ATOM     42  C   UNL A   1      43.178  29.460  30.195  1.00  0.00     0.049 A 
ATOM     43  H   UNL A   1      41.372  30.188  29.318  1.00  0.00     0.167 HD
ATOM     44  C   UNL A   1      42.662  23.179  28.084  1.00  0.00     0.037 A 
ATOM     45  C   UNL A   1      43.031  29.502  31.554  1.00  0.00     0.037 A 
ATOM     46  C   UNL A   1      43.789  23.693  28.861  1.00  0.00     0.049 A 
ATOM     47  C   UNL A   1      43.447  28.223  32.250  1.00  0.00     0.074 A 
ATOM     48  C   UNL A   1      44.926  24.419  28.545  1.00  0.00     0.029 A 
ATOM     49  N   UNL A   1      43.648  23.776  30.233  1.00  0.00    -0.354 N 
ATOM     50  N   UNL A   1      43.791  27.125  31.636  1.00  0.00    -0.248 NA
ATOM     51  C   UNL A   1      43.440  28.063  33.704  1.00  0.00     0.031 C 
ATOM     52  C   UNL A   1      45.422  25.001  29.747  1.00  0.00     0.029 A 
ATOM     53  C   UNL A   1      44.600  24.609  30.787  1.00  0.00     0.049 A 
ATOM     54  H   UNL A   1      42.958  23.301  30.751  1.00  0.00     0.167 HD
ATOM     55  C   UNL A   1      44.080  26.157  32.554  1.00  0.00     0.074 A 
ATOM     56  C   UNL A   1      43.822  26.781  33.839  1.00  0.00     0.031 C 
ATOM     57  C   UNL A   1      44.522  24.917  32.204  1.00  0.00     0.037 A 
BRANCH  44  58
ATOM     58  C   UNL A   1      42.773  21.999  27.141  1.00  0.00     0.057 A 
ATOM     59  C   UNL A   1      41.945  20.869  27.317  1.00  0.00     0.134 A 
ATOM     60  C   UNL A   1      43.697  21.872  26.090  1.00  0.00     0.134 A 
ATOM     61  F   UNL A   1      40.953  20.854  28.218  1.00  0.00    -0.206 F 
ATOM     62  C   UNL A   1      42.096  19.680  26.589  1.00  0.00     0.040 A 
ATOM     63  C   UNL A   1      43.883  20.675  25.375  1.00  0.00     0.040 A 
ATOM     64  F   UNL A   1      44.431  22.908  25.670  1.00  0.00    -0.206 F 
ATOM     65  C   UNL A   1      43.091  19.566  25.634  1.00  0.00     0.006 A 
ENDBRANCH  44  58
BRANCH  45  66
ATOM     66  C   UNL A   1      41.883  30.359  31.977  1.00  0.00     0.057 A 
ATOM     67  C   UNL A   1      41.970  31.757  31.828  1.00  0.00     0.134 A 
ATOM     68  C   UNL A   1      40.605  29.824  32.138  1.00  0.00     0.134 A 
ATOM     69  F   UNL A   1      43.165  32.339  31.636  1.00  0.00    -0.206 F 
ATOM     70  C   UNL A   1      40.836  32.573  31.754  1.00  0.00     0.040 A 
ATOM     71  C   UNL A   1      39.469  30.635  32.048  1.00  0.00     0.040 A 
ATOM     72  F   UNL A   1      40.427  28.501  32.259  1.00  0.00    -0.206 F 
ATOM     73  C   UNL A   1      39.573  32.006  31.836  1.00  0.00     0.006 A 
ENDBRANCH  45  66
BRANCH  57  74
ATOM     74  C   UNL A   1      44.988  23.905  33.201  1.00  0.00     0.057 A 
ATOM     75  C   UNL A   1      44.129  22.915  33.700  1.00  0.00     0.134 A 
ATOM     76  C   UNL A   1      46.248  24.000  33.816  1.00  0.00     0.134 A 
ATOM     77  F   UNL A   1      42.885  22.775  33.222  1.00  0.00    -0.206 F 
ATOM     78  C   UNL A   1      44.511  22.055  34.733  1.00  0.00     0.040 A 
ATOM     79  C   UNL A   1      46.622  23.181  34.883  1.00  0.00     0.040 A 
ATOM     80  F   UNL A   1      47.165  24.886  33.400  1.00  0.00    -0.206 F 
ATOM     81  C   UNL A   1      45.754  22.199  35.340  1.00  0.00     0.006 A 
ENDBRANCH  57  74
ENDBRANCH  31  32
ENDBRANCH  24  26
ENDBRANCH  23  24
ENDBRANCH  22  23
ENDBRANCH   1  22
TORSDOF 13
ENDMDL
MODEL 3
REMARK VINA RESULT:     -12.6      0.904      1.579
REMARK SMILES Cc1ccc(NC(=O)N2CCCC[C@@H]2C(=O)OCCOC(=O)c2ccc(-c3c4nc(c(-c5c(F)cccc5F)c5ccc([nH]5)c(-c5c(F)cccc5F)c5nc(c(-c6c(F)cccc6F)c6ccc3[nH]6)C=C5)C=C4)cc2)cc1
REMARK SMILES IDX 18 1 17 2 15 3 16 4 14 5 9 6 10 7 11 8 13 9 12 10 7 11 6 12
REMARK SMILES IDX 8 14 5 15 1 16 2 17 3 18 78 19 4 20 77 21 19 22 20 23 21 24
REMARK SMILES IDX 22 25 23 26 24 27 76 28 25 29 75 30 26 31 27 32 28 33 69 34
REMARK SMILES IDX 29 35 74 36 68 37 70 38 30 39 73 40 67 41 66 42 31 44 57 45
REMARK SMILES IDX 40 46 56 47 41 48 44 49 55 50 71 51 42 52 43 53 54 55 72 56
REMARK SMILES IDX 45 57 32 58 33 59 38 60 34 61 35 62 37 63 39 64 36 65 58 66
REMARK SMILES IDX 59 67 64 68 60 69 61 70 63 71 65 72 62 73 46 74 47 75 52 76
REMARK SMILES IDX 48 77 49 78 51 79 53 80 50 81
REMARK H PARENT 6 13 70 43 44 54
REMARK Flexibility Score: inf
ROOT
ATOM      1  C   UNL A   1      33.431  29.809  27.231  1.00  0.00     0.274 C 
ENDROOT
BRANCH   1   2
ATOM      2  O   UNL A   1      32.961  29.756  25.880  1.00  0.00    -0.461 OA
BRANCH   2   3
ATOM      3  C   UNL A   1      32.839  28.502  25.325  1.00  0.00     0.329 C 
ATOM      4  O   UNL A   1      33.780  27.847  24.906  1.00  0.00    -0.250 OA
BRANCH   3   5
ATOM      5  C   UNL A   1      31.333  28.213  25.102  1.00  0.00     0.196 C 
ATOM      6  N   UNL A   1      30.895  26.805  24.878  1.00  0.00    -0.311 N 
ATOM      7  C   UNL A   1      30.183  26.394  23.679  1.00  0.00     0.122 C 
ATOM      8  C   UNL A   1      30.297  27.342  22.510  1.00  0.00     0.022 C 
ATOM      9  C   UNL A   1      31.011  29.197  23.953  1.00  0.00     0.037 C 
ATOM     10  C   UNL A   1      29.950  28.740  22.980  1.00  0.00     0.005 C 
BRANCH   6  11
ATOM     11  C   UNL A   1      31.015  25.795  25.788  1.00  0.00     0.322 C 
ATOM     12  N   UNL A   1      32.111  24.999  25.852  1.00  0.00    -0.308 N 
ATOM     13  H   UNL A   1      32.122  24.475  26.685  1.00  0.00     0.171 HD
ATOM     14  O   UNL A   1      30.211  25.706  26.719  1.00  0.00    -0.248 OA
BRANCH  12  15
ATOM     15  C   UNL A   1      33.236  24.717  25.059  1.00  0.00     0.042 A 
ATOM     16  C   UNL A   1      36.614  22.716  23.299  1.00  0.00     0.044 C 
ATOM     17  C   UNL A   1      35.506  23.566  23.850  1.00  0.00    -0.051 A 
ATOM     18  C   UNL A   1      34.330  23.767  23.121  1.00  0.00     0.005 A 
ATOM     19  C   UNL A   1      35.605  24.129  25.122  1.00  0.00     0.005 A 
ATOM     20  C   UNL A   1      33.212  24.367  23.716  1.00  0.00     0.026 A 
ATOM     21  C   UNL A   1      34.472  24.684  25.726  1.00  0.00     0.026 A 
ENDBRANCH  12  15
ENDBRANCH   6  11
ENDBRANCH   3   5
ENDBRANCH   2   3
ENDBRANCH   1   2
BRANCH   1  22
ATOM     22  C   UNL A   1      34.109  31.155  27.562  1.00  0.00     0.275 C 
BRANCH  22  23
ATOM     23  O   UNL A   1      35.539  31.153  27.839  1.00  0.00    -0.458 OA
BRANCH  23  24
ATOM     24  C   UNL A   1      36.175  30.796  28.992  1.00  0.00     0.338 C 
ATOM     25  O   UNL A   1      35.813  31.157  30.088  1.00  0.00    -0.246 OA
BRANCH  24  26
ATOM     26  C   UNL A   1      37.273  29.826  28.846  1.00  0.00     0.060 A 
ATOM     27  C   UNL A   1      38.097  29.917  27.721  1.00  0.00     0.016 A 
ATOM     28  C   UNL A   1      37.568  28.958  29.888  1.00  0.00     0.016 A 
ATOM     29  C   UNL A   1      39.315  29.238  27.709  1.00  0.00     0.010 A 
ATOM     30  C   UNL A   1      38.814  28.368  29.916  1.00  0.00     0.010 A 
ATOM     31  C   UNL A   1      39.699  28.507  28.830  1.00  0.00    -0.014 A 
BRANCH  31  32
ATOM     32  C   UNL A   1      40.857  27.616  28.851  1.00  0.00     0.031 A 
ATOM     33  C   UNL A   1      40.851  26.159  28.588  1.00  0.00     0.074 A 
ATOM     34  C   UNL A   1      42.012  28.266  29.105  1.00  0.00     0.049 A 
ATOM     35  N   UNL A   1      41.835  25.376  28.891  1.00  0.00    -0.248 NA
ATOM     36  C   UNL A   1      39.746  25.442  27.978  1.00  0.00     0.031 C 
ATOM     37  C   UNL A   1      43.381  27.811  28.972  1.00  0.00     0.029 A 
ATOM     38  N   UNL A   1      42.114  29.499  29.754  1.00  0.00    -0.354 N 
ATOM     39  C   UNL A   1      41.613  24.147  28.303  1.00  0.00     0.074 A 
ATOM     40  C   UNL A   1      40.261  24.216  27.810  1.00  0.00     0.031 C 
ATOM     41  C   UNL A   1      44.161  28.592  29.740  1.00  0.00     0.029 A 
ATOM     42  C   UNL A   1      43.288  29.468  30.513  1.00  0.00     0.049 A 
ATOM     43  H   UNL A   1      41.478  30.248  29.690  1.00  0.00     0.167 HD
ATOM     44  C   UNL A   1      42.656  23.269  28.202  1.00  0.00     0.037 A 
ATOM     45  C   UNL A   1      43.163  29.466  31.874  1.00  0.00     0.037 A 
ATOM     46  C   UNL A   1      43.801  23.742  28.976  1.00  0.00     0.049 A 
ATOM     47  C   UNL A   1      43.573  28.159  32.520  1.00  0.00     0.074 A 
ATOM     48  C   UNL A   1      44.942  24.463  28.666  1.00  0.00     0.029 A 
ATOM     49  N   UNL A   1      43.684  23.780  30.353  1.00  0.00    -0.354 N 
ATOM     50  N   UNL A   1      43.893  27.079  31.864  1.00  0.00    -0.248 NA
ATOM     51  C   UNL A   1      43.587  27.950  33.968  1.00  0.00     0.031 C 
ATOM     52  C   UNL A   1      45.466  24.998  29.879  1.00  0.00     0.029 A 
ATOM     53  C   UNL A   1      44.655  24.582  30.918  1.00  0.00     0.049 A 
ATOM     54  H   UNL A   1      42.995  23.297  30.866  1.00  0.00     0.167 HD
ATOM     55  C   UNL A   1      44.184  26.076  32.744  1.00  0.00     0.074 A 
ATOM     56  C   UNL A   1      43.954  26.660  34.054  1.00  0.00     0.031 C 
ATOM     57  C   UNL A   1      44.604  24.843  32.346  1.00  0.00     0.037 A 
BRANCH  44  58
ATOM     58  C   UNL A   1      42.735  22.120  27.218  1.00  0.00     0.057 A 
ATOM     59  C   UNL A   1      41.879  21.005  27.356  1.00  0.00     0.134 A 
ATOM     60  C   UNL A   1      43.655  22.006  26.161  1.00  0.00     0.134 A 
ATOM     61  F   UNL A   1      40.889  20.985  28.257  1.00  0.00    -0.206 F 
ATOM     62  C   UNL A   1      42.000  19.839  26.587  1.00  0.00     0.040 A 
ATOM     63  C   UNL A   1      43.811  20.830  25.405  1.00  0.00     0.040 A 
ATOM     64  F   UNL A   1      44.415  23.037  25.776  1.00  0.00    -0.206 F 
ATOM     65  C   UNL A   1      42.991  19.733  25.627  1.00  0.00     0.006 A 
ENDBRANCH  44  58
BRANCH  45  66
ATOM     66  C   UNL A   1      42.033  30.323  32.345  1.00  0.00     0.057 A 
ATOM     67  C   UNL A   1      42.126  31.722  32.216  1.00  0.00     0.134 A 
ATOM     68  C   UNL A   1      40.757  29.794  32.533  1.00  0.00     0.134 A 
ATOM     69  F   UNL A   1      43.318  32.301  31.999  1.00  0.00    -0.206 F 
ATOM     70  C   UNL A   1      40.996  32.547  32.188  1.00  0.00     0.040 A 
ATOM     71  C   UNL A   1      39.625  30.613  32.489  1.00  0.00     0.040 A 
ATOM     72  F   UNL A   1      40.574  28.469  32.637  1.00  0.00    -0.206 F 
ATOM     73  C   UNL A   1      39.732  31.986  32.296  1.00  0.00     0.006 A 
ENDBRANCH  45  66
BRANCH  57  74
ATOM     74  C   UNL A   1      45.071  23.792  33.301  1.00  0.00     0.057 A 
ATOM     75  C   UNL A   1      44.211  22.789  33.769  1.00  0.00     0.134 A 
ATOM     76  C   UNL A   1      46.336  23.859  33.910  1.00  0.00     0.134 A 
ATOM     77  F   UNL A   1      42.963  22.672  33.295  1.00  0.00    -0.206 F 
ATOM     78  C   UNL A   1      44.596  21.889  34.767  1.00  0.00     0.040 A 
ATOM     79  C   UNL A   1      46.714  22.999  34.943  1.00  0.00     0.040 A 
ATOM     80  F   UNL A   1      47.255  24.756  33.521  1.00  0.00    -0.206 F 
ATOM     81  C   UNL A   1      45.845  22.004  35.370  1.00  0.00     0.006 A 
ENDBRANCH  57  74
ENDBRANCH  31  32
ENDBRANCH  24  26
ENDBRANCH  23  24
ENDBRANCH  22  23
ENDBRANCH   1  22
TORSDOF 13
ENDMDL
