MODEL 1
REMARK VINA RESULT:     -12.2      0.000      0.000
REMARK SMILES O=C(OCCOC(=O)C1(Cc2ccncc2)Cc2ccccc2C1)c1ccc(-c2c3nc(c(-c4c(F)cccc4F)c4ccc([nH]4)c(-c4c(F)cccc4F)c4nc(c(-c5c(F)cccc5F)c5ccc2[nH]5)C=C4)C=C3)cc1
REMARK SMILES IDX 4 1 3 2 2 3 1 4 25 5 26 6 78 7 27 8 77 9 28 10 29 11 30 12
REMARK SMILES IDX 71 13 31 14 76 15 70 16 72 17 32 18 75 19 69 20 68 21 33 23
REMARK SMILES IDX 59 24 42 25 58 26 43 27 46 28 57 29 73 30 44 31 45 32 56 34
REMARK SMILES IDX 74 35 47 36 34 37 35 38 40 39 36 40 37 41 39 42 41 43 38 44
REMARK SMILES IDX 60 45 61 46 66 47 62 48 63 49 65 50 67 51 64 52 48 53 49 54
REMARK SMILES IDX 54 55 50 56 51 57 53 58 55 59 52 60 5 61 6 62 7 63 8 64 9 65
REMARK SMILES IDX 17 66 24 67 18 68 23 69 19 70 22 71 20 72 21 73 10 74 11 75
REMARK SMILES IDX 12 76 16 77 13 78 15 79 14 80
REMARK H PARENT 72 22 46 33
REMARK Flexibility Score: inf
ROOT
ATOM      1  C   UNL A   1      31.949  32.962  26.556  1.00  0.00     0.275 C 
ENDROOT
BRANCH   1   2
ATOM      2  O   UNL A   1      32.153  33.668  27.790  1.00  0.00    -0.458 OA
BRANCH   2   3
ATOM      3  C   UNL A   1      33.291  34.185  28.306  1.00  0.00     0.338 C 
ATOM      4  O   UNL A   1      33.325  35.395  28.525  1.00  0.00    -0.246 OA
BRANCH   3   5
ATOM      5  C   UNL A   1      34.557  33.402  28.523  1.00  0.00     0.060 A 
ATOM      6  C   UNL A   1      35.866  33.811  28.237  1.00  0.00     0.016 A 
ATOM      7  C   UNL A   1      34.396  32.171  29.175  1.00  0.00     0.016 A 
ATOM      8  C   UNL A   1      36.978  33.129  28.754  1.00  0.00     0.010 A 
ATOM      9  C   UNL A   1      35.497  31.495  29.703  1.00  0.00     0.010 A 
ATOM     10  C   UNL A   1      36.802  31.997  29.544  1.00  0.00    -0.014 A 
BRANCH  10  11
ATOM     11  C   UNL A   1      37.958  31.248  30.097  1.00  0.00     0.031 A 
ATOM     12  C   UNL A   1      38.375  31.604  31.493  1.00  0.00     0.074 A 
ATOM     13  C   UNL A   1      38.646  30.326  29.386  1.00  0.00     0.049 A 
ATOM     14  N   UNL A   1      39.369  31.151  32.205  1.00  0.00    -0.248 NA
ATOM     15  C   UNL A   1      37.566  32.635  32.172  1.00  0.00     0.031 C 
ATOM     16  C   UNL A   1      38.353  29.889  28.018  1.00  0.00     0.029 A 
ATOM     17  N   UNL A   1      39.774  29.608  29.709  1.00  0.00    -0.354 N 
ATOM     18  C   UNL A   1      39.265  31.810  33.421  1.00  0.00     0.074 A 
ATOM     19  C   UNL A   1      38.251  32.825  33.283  1.00  0.00     0.031 C 
ATOM     20  C   UNL A   1      39.309  29.039  27.599  1.00  0.00     0.029 A 
ATOM     21  C   UNL A   1      40.264  28.832  28.679  1.00  0.00     0.049 A 
ATOM     22  H   UNL A   1      40.196  29.645  30.599  1.00  0.00     0.167 HD
ATOM     23  C   UNL A   1      39.870  31.517  34.591  1.00  0.00     0.037 A 
ATOM     24  C   UNL A   1      41.354  28.037  28.632  1.00  0.00     0.037 A 
ATOM     25  C   UNL A   1      40.867  30.499  34.722  1.00  0.00     0.049 A 
ATOM     26  C   UNL A   1      42.146  27.851  29.900  1.00  0.00     0.074 A 
ATOM     27  C   UNL A   1      41.538  30.082  35.852  1.00  0.00     0.029 A 
ATOM     28  N   UNL A   1      41.344  29.746  33.657  1.00  0.00    -0.354 N 
ATOM     29  N   UNL A   1      41.955  28.389  31.081  1.00  0.00    -0.248 NA
ATOM     30  C   UNL A   1      43.270  26.905  29.846  1.00  0.00     0.031 C 
ATOM     31  C   UNL A   1      42.463  29.107  35.460  1.00  0.00     0.029 A 
ATOM     32  C   UNL A   1      42.327  28.882  34.097  1.00  0.00     0.049 A 
ATOM     33  H   UNL A   1      41.028  29.817  32.727  1.00  0.00     0.167 HD
ATOM     34  C   UNL A   1      42.875  27.786  31.928  1.00  0.00     0.074 A 
ATOM     35  C   UNL A   1      43.645  26.865  31.115  1.00  0.00     0.031 C 
ATOM     36  C   UNL A   1      43.049  27.955  33.262  1.00  0.00     0.037 A 
BRANCH  23  37
ATOM     37  C   UNL A   1      39.397  32.297  35.781  1.00  0.00     0.057 A 
ATOM     38  C   UNL A   1      38.366  31.811  36.604  1.00  0.00     0.134 A 
ATOM     39  C   UNL A   1      39.869  33.588  36.028  1.00  0.00     0.134 A 
ATOM     40  F   UNL A   1      37.844  30.592  36.393  1.00  0.00    -0.206 F 
ATOM     41  C   UNL A   1      37.778  32.607  37.586  1.00  0.00     0.040 A 
ATOM     42  C   UNL A   1      39.309  34.382  37.031  1.00  0.00     0.040 A 
ATOM     43  F   UNL A   1      40.843  34.115  35.274  1.00  0.00    -0.206 F 
ATOM     44  C   UNL A   1      38.248  33.900  37.798  1.00  0.00     0.006 A 
ENDBRANCH  23  37
BRANCH  24  45
ATOM     45  C   UNL A   1      41.736  27.288  27.401  1.00  0.00     0.057 A 
ATOM     46  C   UNL A   1      41.339  25.958  27.206  1.00  0.00     0.134 A 
ATOM     47  C   UNL A   1      42.592  27.839  26.442  1.00  0.00     0.134 A 
ATOM     48  F   UNL A   1      40.560  25.349  28.111  1.00  0.00    -0.206 F 
ATOM     49  C   UNL A   1      41.789  25.205  26.116  1.00  0.00     0.040 A 
ATOM     50  C   UNL A   1      43.029  27.108  25.332  1.00  0.00     0.040 A 
ATOM     51  F   UNL A   1      43.063  29.083  26.593  1.00  0.00    -0.206 F 
ATOM     52  C   UNL A   1      42.636  25.781  25.171  1.00  0.00     0.006 A 
ENDBRANCH  24  45
BRANCH  36  53
ATOM     53  C   UNL A   1      44.046  27.068  33.941  1.00  0.00     0.057 A 
ATOM     54  C   UNL A   1      43.679  25.866  34.555  1.00  0.00     0.134 A 
ATOM     55  C   UNL A   1      45.408  27.397  33.909  1.00  0.00     0.134 A 
ATOM     56  F   UNL A   1      42.389  25.507  34.632  1.00  0.00    -0.206 F 
ATOM     57  C   UNL A   1      44.634  25.025  35.125  1.00  0.00     0.040 A 
ATOM     58  C   UNL A   1      46.374  26.548  34.445  1.00  0.00     0.040 A 
ATOM     59  F   UNL A   1      45.822  28.533  33.327  1.00  0.00    -0.206 F 
ATOM     60  C   UNL A   1      45.986  25.359  35.058  1.00  0.00     0.006 A 
ENDBRANCH  36  53
ENDBRANCH  10  11
ENDBRANCH   3   5
ENDBRANCH   2   3
ENDBRANCH   1   2
BRANCH   1  61
ATOM     61  C   UNL A   1      31.407  31.537  26.718  1.00  0.00     0.274 C 
BRANCH  61  62
ATOM     62  O   UNL A   1      32.158  30.575  25.952  1.00  0.00    -0.462 OA
BRANCH  62  63
ATOM     63  C   UNL A   1      31.799  29.274  26.105  1.00  0.00     0.313 C 
ATOM     64  O   UNL A   1      31.554  28.773  27.202  1.00  0.00    -0.252 OA
BRANCH  63  65
ATOM     65  C   UNL A   1      31.743  28.483  24.794  1.00  0.00     0.080 C 
ATOM     66  C   UNL A   1      33.091  27.874  24.372  1.00  0.00     0.055 C 
ATOM     67  C   UNL A   1      30.852  27.232  25.061  1.00  0.00     0.055 C 
ATOM     68  C   UNL A   1      32.718  26.570  23.746  1.00  0.00    -0.044 A 
ATOM     69  C   UNL A   1      31.460  26.176  24.190  1.00  0.00    -0.044 A 
ATOM     70  C   UNL A   1      33.491  25.755  22.934  1.00  0.00     0.004 A 
ATOM     71  C   UNL A   1      30.971  24.921  23.883  1.00  0.00     0.004 A 
ATOM     72  C   UNL A   1      33.000  24.497  22.604  1.00  0.00     0.000 A 
ATOM     73  C   UNL A   1      31.749  24.083  23.080  1.00  0.00     0.000 A 
BRANCH  65  74
ATOM     74  C   UNL A   1      31.319  29.382  23.606  1.00  0.00     0.055 C 
BRANCH  74  75
ATOM     75  C   UNL A   1      29.854  29.650  23.463  1.00  0.00    -0.044 A 
ATOM     76  C   UNL A   1      29.001  28.662  22.969  1.00  0.00     0.024 A 
ATOM     77  C   UNL A   1      29.323  30.895  23.798  1.00  0.00     0.024 A 
ATOM     78  C   UNL A   1      27.668  28.977  22.783  1.00  0.00     0.111 A 
ATOM     79  C   UNL A   1      27.974  31.109  23.584  1.00  0.00     0.111 A 
ATOM     80  N   UNL A   1      27.134  30.181  23.080  1.00  0.00    -0.265 NA
ENDBRANCH  74  75
ENDBRANCH  65  74
ENDBRANCH  63  65
ENDBRANCH  62  63
ENDBRANCH  61  62
ENDBRANCH   1  61
TORSDOF 13
ENDMDL
MODEL 2
REMARK VINA RESULT:     -12.1      0.227      1.341
REMARK SMILES O=C(OCCOC(=O)C1(Cc2ccncc2)Cc2ccccc2C1)c1ccc(-c2c3nc(c(-c4c(F)cccc4F)c4ccc([nH]4)c(-c4c(F)cccc4F)c4nc(c(-c5c(F)cccc5F)c5ccc2[nH]5)C=C4)C=C3)cc1
REMARK SMILES IDX 4 1 3 2 2 3 1 4 25 5 26 6 78 7 27 8 77 9 28 10 29 11 30 12
REMARK SMILES IDX 71 13 31 14 76 15 70 16 72 17 32 18 75 19 69 20 68 21 33 23
REMARK SMILES IDX 59 24 42 25 58 26 43 27 46 28 57 29 73 30 44 31 45 32 56 34
REMARK SMILES IDX 74 35 47 36 34 37 35 38 40 39 36 40 37 41 39 42 41 43 38 44
REMARK SMILES IDX 60 45 61 46 66 47 62 48 63 49 65 50 67 51 64 52 48 53 49 54
REMARK SMILES IDX 54 55 50 56 51 57 53 58 55 59 52 60 5 61 6 62 7 63 8 64 9 65
REMARK SMILES IDX 17 66 24 67 18 68 23 69 19 70 22 71 20 72 21 73 10 74 11 75
REMARK SMILES IDX 12 76 16 77 13 78 15 79 14 80
REMARK H PARENT 72 22 46 33
REMARK Flexibility Score: inf
ROOT
ATOM      1  C   UNL A   1      31.966  32.840  26.541  1.00  0.00     0.275 C 
ENDROOT
BRANCH   1   2
ATOM      2  O   UNL A   1      32.108  33.658  27.713  1.00  0.00    -0.458 OA
BRANCH   2   3
ATOM      3  C   UNL A   1      33.225  34.188  28.261  1.00  0.00     0.338 C 
ATOM      4  O   UNL A   1      33.236  35.398  28.486  1.00  0.00    -0.246 OA
BRANCH   3   5
ATOM      5  C   UNL A   1      34.495  33.420  28.508  1.00  0.00     0.060 A 
ATOM      6  C   UNL A   1      35.804  33.838  28.232  1.00  0.00     0.016 A 
ATOM      7  C   UNL A   1      34.337  32.200  29.179  1.00  0.00     0.016 A 
ATOM      8  C   UNL A   1      36.915  33.175  28.776  1.00  0.00     0.010 A 
ATOM      9  C   UNL A   1      35.437  31.544  29.733  1.00  0.00     0.010 A 
ATOM     10  C   UNL A   1      36.739  32.055  29.582  1.00  0.00    -0.014 A 
BRANCH  10  11
ATOM     11  C   UNL A   1      37.895  31.328  30.163  1.00  0.00     0.031 A 
ATOM     12  C   UNL A   1      38.288  31.709  31.559  1.00  0.00     0.074 A 
ATOM     13  C   UNL A   1      38.603  30.402  29.477  1.00  0.00     0.049 A 
ATOM     14  N   UNL A   1      39.277  31.277  32.293  1.00  0.00    -0.248 NA
ATOM     15  C   UNL A   1      37.459  32.742  32.211  1.00  0.00     0.031 C 
ATOM     16  C   UNL A   1      38.333  29.940  28.112  1.00  0.00     0.029 A 
ATOM     17  N   UNL A   1      39.733  29.700  29.828  1.00  0.00    -0.354 N 
ATOM     18  C   UNL A   1      39.148  31.954  33.496  1.00  0.00     0.074 A 
ATOM     19  C   UNL A   1      38.126  32.956  33.329  1.00  0.00     0.031 C 
ATOM     20  C   UNL A   1      39.305  29.094  27.720  1.00  0.00     0.029 A 
ATOM     21  C   UNL A   1      40.246  28.914  28.816  1.00  0.00     0.049 A 
ATOM     22  H   UNL A   1      40.142  29.755  30.722  1.00  0.00     0.167 HD
ATOM     23  C   UNL A   1      39.739  31.685  34.680  1.00  0.00     0.037 A 
ATOM     24  C   UNL A   1      41.344  28.130  28.797  1.00  0.00     0.037 A 
ATOM     25  C   UNL A   1      40.744  30.680  34.841  1.00  0.00     0.049 A 
ATOM     26  C   UNL A   1      42.120  27.971  30.079  1.00  0.00     0.074 A 
ATOM     27  C   UNL A   1      41.403  30.288  35.986  1.00  0.00     0.029 A 
ATOM     28  N   UNL A   1      41.245  29.916  33.794  1.00  0.00    -0.354 N 
ATOM     29  N   UNL A   1      41.906  28.525  31.249  1.00  0.00    -0.248 NA
ATOM     30  C   UNL A   1      43.254  27.037  30.056  1.00  0.00     0.031 C 
ATOM     31  C   UNL A   1      42.344  29.316  35.623  1.00  0.00     0.029 A 
ATOM     32  C   UNL A   1      42.230  29.069  34.261  1.00  0.00     0.049 A 
ATOM     33  H   UNL A   1      40.941  29.969  32.859  1.00  0.00     0.167 HD
ATOM     34  C   UNL A   1      42.820  27.945  32.118  1.00  0.00     0.074 A 
ATOM     35  C   UNL A   1      43.611  27.020  31.331  1.00  0.00     0.031 C 
ATOM     36  C   UNL A   1      42.973  28.136  33.452  1.00  0.00     0.037 A 
BRANCH  23  37
ATOM     37  C   UNL A   1      39.241  32.478  35.851  1.00  0.00     0.057 A 
ATOM     38  C   UNL A   1      39.800  33.728  36.170  1.00  0.00     0.134 A 
ATOM     39  C   UNL A   1      38.307  31.941  36.739  1.00  0.00     0.134 A 
ATOM     40  F   UNL A   1      40.732  34.280  35.376  1.00  0.00    -0.206 F 
ATOM     41  C   UNL A   1      39.496  34.382  37.364  1.00  0.00     0.040 A 
ATOM     42  C   UNL A   1      37.970  32.603  37.921  1.00  0.00     0.040 A 
ATOM     43  F   UNL A   1      37.744  30.749  36.499  1.00  0.00    -0.206 F 
ATOM     44  C   UNL A   1      38.580  33.815  38.245  1.00  0.00     0.006 A 
ENDBRANCH  23  37
BRANCH  24  45
ATOM     45  C   UNL A   1      41.751  27.366  27.584  1.00  0.00     0.057 A 
ATOM     46  C   UNL A   1      42.483  27.970  26.553  1.00  0.00     0.134 A 
ATOM     47  C   UNL A   1      41.333  26.048  27.372  1.00  0.00     0.134 A 
ATOM     48  F   UNL A   1      42.873  29.248  26.666  1.00  0.00    -0.206 F 
ATOM     49  C   UNL A   1      42.768  27.301  25.358  1.00  0.00     0.040 A 
ATOM     50  C   UNL A   1      41.633  25.355  26.194  1.00  0.00     0.040 A 
ATOM     51  F   UNL A   1      40.577  25.425  28.285  1.00  0.00    -0.206 F 
ATOM     52  C   UNL A   1      42.345  25.986  25.176  1.00  0.00     0.006 A 
ENDBRANCH  24  45
BRANCH  36  53
ATOM     53  C   UNL A   1      43.969  27.271  34.159  1.00  0.00     0.057 A 
ATOM     54  C   UNL A   1      43.625  26.030  34.703  1.00  0.00     0.134 A 
ATOM     55  C   UNL A   1      45.313  27.664  34.224  1.00  0.00     0.134 A 
ATOM     56  F   UNL A   1      42.352  25.607  34.686  1.00  0.00    -0.206 F 
ATOM     57  C   UNL A   1      44.584  25.212  35.301  1.00  0.00     0.040 A 
ATOM     58  C   UNL A   1      46.285  26.840  34.787  1.00  0.00     0.040 A 
ATOM     59  F   UNL A   1      45.705  28.841  33.711  1.00  0.00    -0.206 F 
ATOM     60  C   UNL A   1      45.920  25.610  35.331  1.00  0.00     0.006 A 
ENDBRANCH  36  53
ENDBRANCH  10  11
ENDBRANCH   3   5
ENDBRANCH   2   3
ENDBRANCH   1   2
BRANCH   1  61
ATOM     61  C   UNL A   1      31.570  31.386  26.821  1.00  0.00     0.274 C 
BRANCH  61  62
ATOM     62  O   UNL A   1      32.050  30.482  25.807  1.00  0.00    -0.462 OA
BRANCH  62  63
ATOM     63  C   UNL A   1      31.774  29.166  25.997  1.00  0.00     0.313 C 
ATOM     64  O   UNL A   1      31.604  28.673  27.111  1.00  0.00    -0.252 OA
BRANCH  63  65
ATOM     65  C   UNL A   1      31.710  28.348  24.703  1.00  0.00     0.080 C 
ATOM     66  C   UNL A   1      33.057  27.739  24.279  1.00  0.00     0.055 C 
ATOM     67  C   UNL A   1      30.830  27.096  25.005  1.00  0.00     0.055 C 
ATOM     68  C   UNL A   1      32.688  26.420  23.685  1.00  0.00    -0.044 A 
ATOM     69  C   UNL A   1      31.437  26.027  24.149  1.00  0.00    -0.044 A 
ATOM     70  C   UNL A   1      33.458  25.594  22.881  1.00  0.00     0.004 A 
ATOM     71  C   UNL A   1      30.953  24.763  23.873  1.00  0.00     0.004 A 
ATOM     72  C   UNL A   1      32.972  24.326  22.582  1.00  0.00     0.000 A 
ATOM     73  C   UNL A   1      31.729  23.913  23.079  1.00  0.00     0.000 A 
BRANCH  65  74
ATOM     74  C   UNL A   1      31.268  29.219  23.502  1.00  0.00     0.055 C 
BRANCH  74  75
ATOM     75  C   UNL A   1      29.809  29.536  23.409  1.00  0.00    -0.044 A 
ATOM     76  C   UNL A   1      28.901  28.561  22.993  1.00  0.00     0.024 A 
ATOM     77  C   UNL A   1      29.337  30.811  23.714  1.00  0.00     0.024 A 
ATOM     78  C   UNL A   1      27.573  28.917  22.850  1.00  0.00     0.111 A 
ATOM     79  C   UNL A   1      27.988  31.067  23.548  1.00  0.00     0.111 A 
ATOM     80  N   UNL A   1      27.095  30.151  23.119  1.00  0.00    -0.265 NA
ENDBRANCH  74  75
ENDBRANCH  65  74
ENDBRANCH  63  65
ENDBRANCH  62  63
ENDBRANCH  61  62
ENDBRANCH   1  61
TORSDOF 13
ENDMDL
MODEL 3
REMARK VINA RESULT:     -11.8      1.173      1.729
REMARK SMILES O=C(OCCOC(=O)C1(Cc2ccncc2)Cc2ccccc2C1)c1ccc(-c2c3nc(c(-c4c(F)cccc4F)c4ccc([nH]4)c(-c4c(F)cccc4F)c4nc(c(-c5c(F)cccc5F)c5ccc2[nH]5)C=C4)C=C3)cc1
REMARK SMILES IDX 4 1 3 2 2 3 1 4 25 5 26 6 78 7 27 8 77 9 28 10 29 11 30 12
REMARK SMILES IDX 71 13 31 14 76 15 70 16 72 17 32 18 75 19 69 20 68 21 33 23
REMARK SMILES IDX 59 24 42 25 58 26 43 27 46 28 57 29 73 30 44 31 45 32 56 34
REMARK SMILES IDX 74 35 47 36 34 37 35 38 40 39 36 40 37 41 39 42 41 43 38 44
REMARK SMILES IDX 60 45 61 46 66 47 62 48 63 49 65 50 67 51 64 52 48 53 49 54
REMARK SMILES IDX 54 55 50 56 51 57 53 58 55 59 52 60 5 61 6 62 7 63 8 64 9 65
REMARK SMILES IDX 17 66 24 67 18 68 23 69 19 70 22 71 20 72 21 73 10 74 11 75
REMARK SMILES IDX 12 76 16 77 13 78 15 79 14 80
REMARK H PARENT 72 22 46 33
REMARK Flexibility Score: inf
ROOT
ATOM      1  C   UNL A   1      32.055  32.856  27.254  1.00  0.00     0.275 C 
ENDROOT
BRANCH   1   2
ATOM      2  O   UNL A   1      32.575  34.163  27.545  1.00  0.00    -0.458 OA
BRANCH   2   3
ATOM      3  C   UNL A   1      33.089  34.645  28.700  1.00  0.00     0.338 C 
ATOM      4  O   UNL A   1      32.655  35.719  29.117  1.00  0.00    -0.246 OA
BRANCH   3   5
ATOM      5  C   UNL A   1      34.233  34.018  29.447  1.00  0.00     0.060 A 
ATOM      6  C   UNL A   1      34.155  33.188  30.573  1.00  0.00     0.016 A 
ATOM      7  C   UNL A   1      35.499  34.216  28.879  1.00  0.00     0.016 A 
ATOM      8  C   UNL A   1      35.253  32.424  30.999  1.00  0.00     0.010 A 
ATOM      9  C   UNL A   1      36.592  33.450  29.290  1.00  0.00     0.010 A 
ATOM     10  C   UNL A   1      36.467  32.503  30.324  1.00  0.00    -0.014 A 
BRANCH  10  11
ATOM     11  C   UNL A   1      37.648  31.715  30.756  1.00  0.00     0.031 A 
ATOM     12  C   UNL A   1      38.207  32.042  32.109  1.00  0.00     0.074 A 
ATOM     13  C   UNL A   1      38.238  30.783  29.974  1.00  0.00     0.049 A 
ATOM     14  N   UNL A   1      39.252  31.553  32.718  1.00  0.00    -0.248 NA
ATOM     15  C   UNL A   1      37.499  33.088  32.872  1.00  0.00     0.031 C 
ATOM     16  C   UNL A   1      37.802  30.370  28.637  1.00  0.00     0.029 A 
ATOM     17  N   UNL A   1      39.370  30.028  30.181  1.00  0.00    -0.354 N 
ATOM     18  C   UNL A   1      39.284  32.200  33.944  1.00  0.00     0.074 A 
ATOM     19  C   UNL A   1      38.292  33.245  33.914  1.00  0.00     0.031 C 
ATOM     20  C   UNL A   1      38.688  29.498  28.120  1.00  0.00     0.029 A 
ATOM     21  C   UNL A   1      39.736  29.251  29.102  1.00  0.00     0.049 A 
ATOM     22  H   UNL A   1      39.876  30.042  31.026  1.00  0.00     0.167 HD
ATOM     23  C   UNL A   1      39.989  31.876  35.048  1.00  0.00     0.037 A 
ATOM     24  C   UNL A   1      40.791  28.426  28.943  1.00  0.00     0.037 A 
ATOM     25  C   UNL A   1      40.964  30.828  35.073  1.00  0.00     0.049 A 
ATOM     26  C   UNL A   1      41.696  28.202  30.127  1.00  0.00     0.074 A 
ATOM     27  C   UNL A   1      41.727  30.379  36.130  1.00  0.00     0.029 A 
ATOM     28  N   UNL A   1      41.314  30.074  33.961  1.00  0.00    -0.354 N 
ATOM     29  N   UNL A   1      41.634  28.731  31.326  1.00  0.00    -0.248 NA
ATOM     30  C   UNL A   1      42.780  27.225  29.957  1.00  0.00     0.031 C 
ATOM     31  C   UNL A   1      42.581  29.383  35.642  1.00  0.00     0.029 A 
ATOM     32  C   UNL A   1      42.308  29.178  34.296  1.00  0.00     0.049 A 
ATOM     33  H   UNL A   1      40.912  30.166  33.066  1.00  0.00     0.167 HD
ATOM     34  C   UNL A   1      42.613  28.092  32.075  1.00  0.00     0.074 A 
ATOM     35  C   UNL A   1      43.274  27.159  31.184  1.00  0.00     0.031 C 
ATOM     36  C   UNL A   1      42.919  28.240  33.388  1.00  0.00     0.037 A 
BRANCH  23  37
ATOM     37  C   UNL A   1      39.656  32.655  36.285  1.00  0.00     0.057 A 
ATOM     38  C   UNL A   1      38.576  32.286  37.106  1.00  0.00     0.134 A 
ATOM     39  C   UNL A   1      40.319  33.846  36.585  1.00  0.00     0.134 A 
ATOM     40  F   UNL A   1      37.873  31.171  36.847  1.00  0.00    -0.206 F 
ATOM     41  C   UNL A   1      38.127  33.110  38.138  1.00  0.00     0.040 A 
ATOM     42  C   UNL A   1      39.900  34.663  37.638  1.00  0.00     0.040 A 
ATOM     43  F   UNL A   1      41.351  34.260  35.836  1.00  0.00    -0.206 F 
ATOM     44  C   UNL A   1      38.789  34.305  38.403  1.00  0.00     0.006 A 
ENDBRANCH  23  37
BRANCH  24  45
ATOM     45  C   UNL A   1      41.031  27.680  27.675  1.00  0.00     0.057 A 
ATOM     46  C   UNL A   1      40.552  26.376  27.494  1.00  0.00     0.134 A 
ATOM     47  C   UNL A   1      41.833  28.205  26.655  1.00  0.00     0.134 A 
ATOM     48  F   UNL A   1      39.819  25.790  28.453  1.00  0.00    -0.206 F 
ATOM     49  C   UNL A   1      40.871  25.621  26.360  1.00  0.00     0.040 A 
ATOM     50  C   UNL A   1      42.139  27.472  25.502  1.00  0.00     0.040 A 
ATOM     51  F   UNL A   1      42.378  29.420  26.784  1.00  0.00    -0.206 F 
ATOM     52  C   UNL A   1      41.665  26.171  25.357  1.00  0.00     0.006 A 
ENDBRANCH  24  45
BRANCH  36  53
ATOM     53  C   UNL A   1      43.949  27.317  33.960  1.00  0.00     0.057 A 
ATOM     54  C   UNL A   1      45.315  27.617  33.935  1.00  0.00     0.134 A 
ATOM     55  C   UNL A   1      43.550  26.143  34.614  1.00  0.00     0.134 A 
ATOM     56  F   UNL A   1      45.759  28.717  33.310  1.00  0.00    -0.206 F 
ATOM     57  C   UNL A   1      46.252  26.773  34.531  1.00  0.00     0.040 A 
ATOM     58  C   UNL A   1      44.473  25.311  35.243  1.00  0.00     0.040 A 
ATOM     59  F   UNL A   1      42.252  25.807  34.678  1.00  0.00    -0.206 F 
ATOM     60  C   UNL A   1      45.830  25.624  35.199  1.00  0.00     0.006 A 
ENDBRANCH  36  53
ENDBRANCH  10  11
ENDBRANCH   3   5
ENDBRANCH   2   3
ENDBRANCH   1   2
BRANCH   1  61
ATOM     61  C   UNL A   1      33.110  31.746  27.200  1.00  0.00     0.274 C 
BRANCH  61  62
ATOM     62  O   UNL A   1      32.524  30.430  27.240  1.00  0.00    -0.462 OA
BRANCH  62  63
ATOM     63  C   UNL A   1      33.390  29.386  27.177  1.00  0.00     0.313 C 
ATOM     64  O   UNL A   1      34.401  29.313  27.874  1.00  0.00    -0.252 OA
BRANCH  63  65
ATOM     65  C   UNL A   1      33.004  28.316  26.150  1.00  0.00     0.080 C 
ATOM     66  C   UNL A   1      33.945  27.100  26.127  1.00  0.00     0.055 C 
ATOM     67  C   UNL A   1      31.647  27.710  26.619  1.00  0.00     0.055 C 
ATOM     68  C   UNL A   1      33.040  25.947  25.845  1.00  0.00    -0.044 A 
ATOM     69  C   UNL A   1      31.732  26.280  26.185  1.00  0.00    -0.044 A 
ATOM     70  C   UNL A   1      33.380  24.671  25.424  1.00  0.00     0.004 A 
ATOM     71  C   UNL A   1      30.740  25.318  26.173  1.00  0.00     0.004 A 
ATOM     72  C   UNL A   1      32.385  23.700  25.391  1.00  0.00     0.000 A 
ATOM     73  C   UNL A   1      31.075  24.023  25.767  1.00  0.00     0.000 A 
BRANCH  65  74
ATOM     74  C   UNL A   1      33.039  28.877  24.706  1.00  0.00     0.055 C 
BRANCH  74  75
ATOM     75  C   UNL A   1      31.764  28.791  23.928  1.00  0.00    -0.044 A 
ATOM     76  C   UNL A   1      31.585  27.786  22.976  1.00  0.00     0.024 A 
ATOM     77  C   UNL A   1      30.748  29.725  24.123  1.00  0.00     0.024 A 
ATOM     78  C   UNL A   1      30.423  27.789  22.227  1.00  0.00     0.111 A 
ATOM     79  C   UNL A   1      29.618  29.638  23.330  1.00  0.00     0.111 A 
ATOM     80  N   UNL A   1      29.433  28.694  22.383  1.00  0.00    -0.265 NA
ENDBRANCH  74  75
ENDBRANCH  65  74
ENDBRANCH  63  65
ENDBRANCH  62  63
ENDBRANCH  61  62
ENDBRANCH   1  61
TORSDOF 13
ENDMDL
