MODEL 1
REMARK VINA RESULT:     -11.4      0.000      0.000
REMARK SMILES CC1(C)S[C@H](c2ccc(-c3ccccc3)o2)[NH2+][C@H]1C(=O)OCCOC(=O)c1ccc(-c2c3nc(c(-c4c(F)cccc4F)c4ccc([nH]4)c(-c4c(F)cccc4F)c4nc(c(-c5c(F)cccc5F)c5ccc2[nH]5)C=C4)C=C3)cc1
REMARK SMILES IDX 22 1 21 2 19 3 20 4 18 5 1 6 2 7 3 8 4 9 5 10 17 11 6 14
REMARK SMILES IDX 7 15 16 16 8 17 9 18 10 19 11 20 15 21 12 22 14 23 13 24
REMARK SMILES IDX 23 25 24 26 25 27 26 28 27 29 28 30 80 31 29 32 79 33 30 34
REMARK SMILES IDX 31 35 32 36 73 37 33 38 78 39 72 40 74 41 34 42 77 43 71 44
REMARK SMILES IDX 70 45 35 47 61 48 44 49 60 50 45 51 48 52 59 53 75 54 46 55
REMARK SMILES IDX 47 56 58 58 76 59 49 60 36 61 37 62 42 63 38 64 39 65 41 66
REMARK SMILES IDX 43 67 40 68 62 69 63 70 68 71 64 72 65 73 67 74 69 75 66 76
REMARK SMILES IDX 50 77 51 78 56 79 52 80 53 81 55 82 57 83 54 84
REMARK H PARENT 17 12 17 13 74 46 48 57
REMARK Flexibility Score: inf
ROOT
ATOM      1  C   UNL A   1      32.606  29.975  27.240  1.00  0.00     0.274 C 
ENDROOT
BRANCH   1   2
ATOM      2  O   UNL A   1      32.656  29.092  26.099  1.00  0.00    -0.458 OA
BRANCH   2   3
ATOM      3  C   UNL A   1      31.941  27.942  26.196  1.00  0.00     0.366 C 
ATOM      4  O   UNL A   1      31.341  27.603  27.211  1.00  0.00    -0.245 OA
BRANCH   3   5
ATOM      5  C   UNL A   1      32.004  27.054  24.936  1.00  0.00     0.310 C 
ATOM      6  C   UNL A   1      30.184  28.390  23.572  1.00  0.00     0.030 C 
ATOM      7  C   UNL A   1      30.816  27.045  23.941  1.00  0.00     0.079 C 
ATOM      8  C   UNL A   1      29.732  26.044  24.353  1.00  0.00     0.030 C 
ATOM      9  S   UNL A   1      31.588  26.413  22.392  1.00  0.00    -0.078 SA
ATOM     10  C   UNL A   1      33.285  26.454  23.041  1.00  0.00     0.311 C 
ATOM     11  N   UNL A   1      33.265  27.348  24.200  1.00  0.00    -0.316 N 
ATOM     12  H   UNL A   1      33.276  28.322  23.896  1.00  0.00     0.348 HD
ATOM     13  H   UNL A   1      34.082  27.203  24.793  1.00  0.00     0.348 HD
BRANCH  10  14
ATOM     14  C   UNL A   1      33.784  25.055  23.271  1.00  0.00     0.172 A 
ATOM     15  C   UNL A   1      33.322  23.846  22.779  1.00  0.00     0.054 A 
ATOM     16  O   UNL A   1      34.886  24.830  24.065  1.00  0.00    -0.454 OA
ATOM     17  C   UNL A   1      34.185  22.843  23.267  1.00  0.00     0.051 A 
ATOM     18  C   UNL A   1      35.130  23.484  24.038  1.00  0.00     0.134 A 
BRANCH  18  19
ATOM     19  C   UNL A   1      36.293  22.986  24.755  1.00  0.00     0.017 A 
ATOM     20  C   UNL A   1      36.754  21.677  24.575  1.00  0.00     0.012 A 
ATOM     21  C   UNL A   1      37.038  23.861  25.561  1.00  0.00     0.012 A 
ATOM     22  C   UNL A   1      37.949  21.259  25.171  1.00  0.00     0.001 A 
ATOM     23  C   UNL A   1      38.223  23.440  26.168  1.00  0.00     0.001 A 
ATOM     24  C   UNL A   1      38.683  22.141  25.965  1.00  0.00     0.000 A 
ENDBRANCH  18  19
ENDBRANCH  10  14
ENDBRANCH   3   5
ENDBRANCH   2   3
ENDBRANCH   1   2
BRANCH   1  25
ATOM     25  C   UNL A   1      33.944  30.676  27.485  1.00  0.00     0.275 C 
BRANCH  25  26
ATOM     26  O   UNL A   1      34.834  29.841  28.247  1.00  0.00    -0.458 OA
BRANCH  26  27
ATOM     27  C   UNL A   1      35.705  30.498  29.047  1.00  0.00     0.338 C 
ATOM     28  O   UNL A   1      35.457  31.374  29.855  1.00  0.00    -0.246 OA
BRANCH  27  29
ATOM     29  C   UNL A   1      37.046  29.921  28.879  1.00  0.00     0.060 A 
ATOM     30  C   UNL A   1      37.754  29.527  30.016  1.00  0.00     0.016 A 
ATOM     31  C   UNL A   1      37.638  29.859  27.618  1.00  0.00     0.016 A 
ATOM     32  C   UNL A   1      39.063  29.073  29.904  1.00  0.00     0.010 A 
ATOM     33  C   UNL A   1      38.948  29.383  27.503  1.00  0.00     0.010 A 
ATOM     34  C   UNL A   1      39.669  28.996  28.647  1.00  0.00    -0.014 A 
BRANCH  34  35
ATOM     35  C   UNL A   1      41.072  28.538  28.537  1.00  0.00     0.031 A 
ATOM     36  C   UNL A   1      42.192  29.517  28.724  1.00  0.00     0.074 A 
ATOM     37  C   UNL A   1      41.335  27.244  28.283  1.00  0.00     0.049 A 
ATOM     38  N   UNL A   1      43.477  29.348  28.540  1.00  0.00    -0.248 NA
ATOM     39  C   UNL A   1      41.818  30.865  29.178  1.00  0.00     0.031 C 
ATOM     40  C   UNL A   1      40.332  26.189  28.138  1.00  0.00     0.029 A 
ATOM     41  N   UNL A   1      42.531  26.599  28.094  1.00  0.00    -0.354 N 
ATOM     42  C   UNL A   1      44.062  30.574  28.825  1.00  0.00     0.074 A 
ATOM     43  C   UNL A   1      42.993  31.479  29.193  1.00  0.00     0.031 C 
ATOM     44  C   UNL A   1      40.953  25.029  27.873  1.00  0.00     0.029 A 
ATOM     45  C   UNL A   1      42.390  25.270  27.783  1.00  0.00     0.049 A 
ATOM     46  H   UNL A   1      43.404  27.046  28.173  1.00  0.00     0.167 HD
ATOM     47  C   UNL A   1      45.372  30.911  28.782  1.00  0.00     0.037 A 
ATOM     48  C   UNL A   1      43.315  24.359  27.426  1.00  0.00     0.037 A 
ATOM     49  C   UNL A   1      46.432  30.002  28.434  1.00  0.00     0.049 A 
ATOM     50  C   UNL A   1      44.756  24.772  27.328  1.00  0.00     0.074 A 
ATOM     51  C   UNL A   1      47.792  30.246  28.367  1.00  0.00     0.029 A 
ATOM     52  N   UNL A   1      46.248  28.668  28.100  1.00  0.00    -0.354 N 
ATOM     53  N   UNL A   1      45.298  25.941  27.569  1.00  0.00    -0.248 NA
ATOM     54  C   UNL A   1      45.712  23.744  26.892  1.00  0.00     0.031 C 
ATOM     55  C   UNL A   1      48.429  29.068  27.961  1.00  0.00     0.029 A 
ATOM     56  C   UNL A   1      47.468  28.081  27.809  1.00  0.00     0.049 A 
ATOM     57  H   UNL A   1      45.379  28.208  28.073  1.00  0.00     0.167 HD
ATOM     58  C   UNL A   1      46.657  25.787  27.329  1.00  0.00     0.074 A 
ATOM     59  C   UNL A   1      46.858  24.407  26.935  1.00  0.00     0.031 C 
ATOM     60  C   UNL A   1      47.648  26.706  27.423  1.00  0.00     0.037 A 
BRANCH  47  61
ATOM     61  C   UNL A   1      45.727  32.334  29.085  1.00  0.00     0.057 A 
ATOM     62  C   UNL A   1      46.059  32.756  30.377  1.00  0.00     0.134 A 
ATOM     63  C   UNL A   1      45.760  33.290  28.062  1.00  0.00     0.134 A 
ATOM     64  F   UNL A   1      46.030  31.891  31.402  1.00  0.00    -0.206 F 
ATOM     65  C   UNL A   1      46.400  34.084  30.645  1.00  0.00     0.040 A 
ATOM     66  C   UNL A   1      46.117  34.615  28.313  1.00  0.00     0.040 A 
ATOM     67  F   UNL A   1      45.454  32.950  26.801  1.00  0.00    -0.206 F 
ATOM     68  C   UNL A   1      46.434  35.016  29.609  1.00  0.00     0.006 A 
ENDBRANCH  47  61
BRANCH  48  69
ATOM     69  C   UNL A   1      42.898  22.975  27.099  1.00  0.00     0.057 A 
ATOM     70  C   UNL A   1      42.604  22.052  28.107  1.00  0.00     0.134 A 
ATOM     71  C   UNL A   1      42.783  22.544  25.771  1.00  0.00     0.134 A 
ATOM     72  F   UNL A   1      42.716  22.402  29.397  1.00  0.00    -0.206 F 
ATOM     73  C   UNL A   1      42.220  20.743  27.808  1.00  0.00     0.040 A 
ATOM     74  C   UNL A   1      42.378  21.247  25.458  1.00  0.00     0.040 A 
ATOM     75  F   UNL A   1      43.050  23.386  24.762  1.00  0.00    -0.206 F 
ATOM     76  C   UNL A   1      42.101  20.340  26.479  1.00  0.00     0.006 A 
ENDBRANCH  48  69
BRANCH  60  77
ATOM     77  C   UNL A   1      49.039  26.241  27.120  1.00  0.00     0.057 A 
ATOM     78  C   UNL A   1      49.594  26.372  25.842  1.00  0.00     0.134 A 
ATOM     79  C   UNL A   1      49.842  25.689  28.125  1.00  0.00     0.134 A 
ATOM     80  F   UNL A   1      48.869  26.880  24.833  1.00  0.00    -0.206 F 
ATOM     81  C   UNL A   1      50.899  25.956  25.569  1.00  0.00     0.040 A 
ATOM     82  C   UNL A   1      51.153  25.288  27.870  1.00  0.00     0.040 A 
ATOM     83  F   UNL A   1      49.368  25.542  29.371  1.00  0.00    -0.206 F 
ATOM     84  C   UNL A   1      51.684  25.417  26.588  1.00  0.00     0.006 A 
ENDBRANCH  60  77
ENDBRANCH  34  35
ENDBRANCH  27  29
ENDBRANCH  26  27
ENDBRANCH  25  26
ENDBRANCH   1  25
TORSDOF 13
ENDMDL
MODEL 2
REMARK VINA RESULT:     -11.2      5.063      9.927
REMARK SMILES CC1(C)S[C@H](c2ccc(-c3ccccc3)o2)[NH2+][C@H]1C(=O)OCCOC(=O)c1ccc(-c2c3nc(c(-c4c(F)cccc4F)c4ccc([nH]4)c(-c4c(F)cccc4F)c4nc(c(-c5c(F)cccc5F)c5ccc2[nH]5)C=C4)C=C3)cc1
REMARK SMILES IDX 22 1 21 2 19 3 20 4 18 5 1 6 2 7 3 8 4 9 5 10 17 11 6 14
REMARK SMILES IDX 7 15 16 16 8 17 9 18 10 19 11 20 15 21 12 22 14 23 13 24
REMARK SMILES IDX 23 25 24 26 25 27 26 28 27 29 28 30 80 31 29 32 79 33 30 34
REMARK SMILES IDX 31 35 32 36 73 37 33 38 78 39 72 40 74 41 34 42 77 43 71 44
REMARK SMILES IDX 70 45 35 47 61 48 44 49 60 50 45 51 48 52 59 53 75 54 46 55
REMARK SMILES IDX 47 56 58 58 76 59 49 60 36 61 37 62 42 63 38 64 39 65 41 66
REMARK SMILES IDX 43 67 40 68 62 69 63 70 68 71 64 72 65 73 67 74 69 75 66 76
REMARK SMILES IDX 50 77 51 78 56 79 52 80 53 81 55 82 57 83 54 84
REMARK H PARENT 17 12 17 13 74 46 48 57
REMARK Flexibility Score: inf
ROOT
ATOM      1  C   UNL A   1      37.724  21.721  25.427  1.00  0.00     0.274 C 
ENDROOT
BRANCH   1   2
ATOM      2  O   UNL A   1      36.730  22.763  25.527  1.00  0.00    -0.458 OA
BRANCH   2   3
ATOM      3  C   UNL A   1      35.933  22.941  24.443  1.00  0.00     0.366 C 
ATOM      4  O   UNL A   1      36.363  23.039  23.297  1.00  0.00    -0.245 OA
BRANCH   3   5
ATOM      5  C   UNL A   1      34.435  23.085  24.779  1.00  0.00     0.310 C 
ATOM      6  C   UNL A   1      33.863  20.518  24.569  1.00  0.00     0.030 C 
ATOM      7  C   UNL A   1      33.440  21.974  24.354  1.00  0.00     0.079 C 
ATOM      8  C   UNL A   1      32.936  22.175  22.922  1.00  0.00     0.030 C 
ATOM      9  S   UNL A   1      32.012  22.253  25.484  1.00  0.00    -0.078 SA
ATOM     10  C   UNL A   1      32.857  23.509  26.489  1.00  0.00     0.311 C 
ATOM     11  N   UNL A   1      34.290  23.348  26.238  1.00  0.00    -0.316 N 
ATOM     12  H   UNL A   1      34.656  22.562  26.776  1.00  0.00     0.348 HD
ATOM     13  H   UNL A   1      34.810  24.179  26.517  1.00  0.00     0.348 HD
BRANCH  10  14
ATOM     14  C   UNL A   1      32.269  24.867  26.219  1.00  0.00     0.172 A 
ATOM     15  C   UNL A   1      31.030  25.224  25.716  1.00  0.00     0.054 A 
ATOM     16  O   UNL A   1      32.988  26.007  26.504  1.00  0.00    -0.454 OA
ATOM     17  C   UNL A   1      30.973  26.632  25.714  1.00  0.00     0.051 A 
ATOM     18  C   UNL A   1      32.181  27.072  26.211  1.00  0.00     0.134 A 
BRANCH  18  19
ATOM     19  C   UNL A   1      32.687  28.408  26.485  1.00  0.00     0.017 A 
ATOM     20  C   UNL A   1      31.840  29.521  26.478  1.00  0.00     0.012 A 
ATOM     21  C   UNL A   1      34.024  28.576  26.873  1.00  0.00     0.012 A 
ATOM     22  C   UNL A   1      32.318  30.776  26.874  1.00  0.00     0.001 A 
ATOM     23  C   UNL A   1      34.506  29.830  27.254  1.00  0.00     0.001 A 
ATOM     24  C   UNL A   1      33.649  30.929  27.263  1.00  0.00     0.000 A 
ENDBRANCH  18  19
ENDBRANCH  10  14
ENDBRANCH   3   5
ENDBRANCH   2   3
ENDBRANCH   1   2
BRANCH   1  25
ATOM     25  C   UNL A   1      39.031  22.102  26.125  1.00  0.00     0.275 C 
BRANCH  25  26
ATOM     26  O   UNL A   1      39.190  23.531  26.181  1.00  0.00    -0.458 OA
BRANCH  26  27
ATOM     27  C   UNL A   1      40.428  23.965  26.511  1.00  0.00     0.338 C 
ATOM     28  O   UNL A   1      41.496  23.551  26.100  1.00  0.00    -0.246 OA
BRANCH  27  29
ATOM     29  C   UNL A   1      40.311  25.127  27.403  1.00  0.00     0.060 A 
ATOM     30  C   UNL A   1      41.271  26.137  27.318  1.00  0.00     0.016 A 
ATOM     31  C   UNL A   1      39.317  25.175  28.380  1.00  0.00     0.016 A 
ATOM     32  C   UNL A   1      41.252  27.201  28.213  1.00  0.00     0.010 A 
ATOM     33  C   UNL A   1      39.285  26.255  29.267  1.00  0.00     0.010 A 
ATOM     34  C   UNL A   1      40.258  27.269  29.193  1.00  0.00    -0.014 A 
BRANCH  34  35
ATOM     35  C   UNL A   1      40.258  28.388  30.161  1.00  0.00     0.031 A 
ATOM     36  C   UNL A   1      41.241  28.395  31.293  1.00  0.00     0.074 A 
ATOM     37  C   UNL A   1      39.386  29.401  30.012  1.00  0.00     0.049 A 
ATOM     38  N   UNL A   1      41.319  29.209  32.315  1.00  0.00    -0.248 NA
ATOM     39  C   UNL A   1      42.273  27.347  31.272  1.00  0.00     0.031 C 
ATOM     40  C   UNL A   1      38.420  29.533  28.920  1.00  0.00     0.029 A 
ATOM     41  N   UNL A   1      39.165  30.508  30.791  1.00  0.00    -0.354 N 
ATOM     42  C   UNL A   1      42.388  28.754  33.076  1.00  0.00     0.074 A 
ATOM     43  C   UNL A   1      42.927  27.593  32.400  1.00  0.00     0.031 C 
ATOM     44  C   UNL A   1      37.705  30.654  29.103  1.00  0.00     0.029 A 
ATOM     45  C   UNL A   1      38.128  31.289  30.348  1.00  0.00     0.049 A 
ATOM     46  H   UNL A   1      39.699  30.721  31.590  1.00  0.00     0.167 HD
ATOM     47  C   UNL A   1      42.871  29.262  34.234  1.00  0.00     0.037 A 
ATOM     48  C   UNL A   1      37.557  32.374  30.905  1.00  0.00     0.037 A 
ATOM     49  C   UNL A   1      42.342  30.428  34.891  1.00  0.00     0.049 A 
ATOM     50  C   UNL A   1      38.074  32.884  32.221  1.00  0.00     0.074 A 
ATOM     51  C   UNL A   1      42.766  31.023  36.066  1.00  0.00     0.029 A 
ATOM     52  N   UNL A   1      41.273  31.178  34.425  1.00  0.00    -0.354 N 
ATOM     53  N   UNL A   1      39.065  32.430  32.950  1.00  0.00    -0.248 NA
ATOM     54  C   UNL A   1      37.383  34.045  32.799  1.00  0.00     0.031 C 
ATOM     55  C   UNL A   1      41.934  32.118  36.327  1.00  0.00     0.029 A 
ATOM     56  C   UNL A   1      41.013  32.223  35.297  1.00  0.00     0.049 A 
ATOM     57  H   UNL A   1      40.774  30.996  33.597  1.00  0.00     0.167 HD
ATOM     58  C   UNL A   1      39.126  33.257  34.064  1.00  0.00     0.074 A 
ATOM     59  C   UNL A   1      38.080  34.247  33.907  1.00  0.00     0.031 C 
ATOM     60  C   UNL A   1      39.970  33.199  35.122  1.00  0.00     0.037 A 
BRANCH  47  61
ATOM     61  C   UNL A   1      44.009  28.534  34.882  1.00  0.00     0.057 A 
ATOM     62  C   UNL A   1      43.800  27.478  35.775  1.00  0.00     0.134 A 
ATOM     63  C   UNL A   1      45.333  28.880  34.585  1.00  0.00     0.134 A 
ATOM     64  F   UNL A   1      42.554  27.109  36.113  1.00  0.00    -0.206 F 
ATOM     65  C   UNL A   1      44.869  26.799  36.363  1.00  0.00     0.040 A 
ATOM     66  C   UNL A   1      46.410  28.198  35.151  1.00  0.00     0.040 A 
ATOM     67  F   UNL A   1      45.601  29.883  33.734  1.00  0.00    -0.206 F 
ATOM     68  C   UNL A   1      46.179  27.155  36.047  1.00  0.00     0.006 A 
ENDBRANCH  47  61
BRANCH  48  69
ATOM     69  C   UNL A   1      36.408  33.027  30.236  1.00  0.00     0.057 A 
ATOM     70  C   UNL A   1      35.096  32.794  30.661  1.00  0.00     0.134 A 
ATOM     71  C   UNL A   1      36.595  33.901  29.157  1.00  0.00     0.134 A 
ATOM     72  F   UNL A   1      34.855  31.953  31.677  1.00  0.00    -0.206 F 
ATOM     73  C   UNL A   1      34.007  33.398  30.030  1.00  0.00     0.040 A 
ATOM     74  C   UNL A   1      35.518  34.528  28.532  1.00  0.00     0.040 A 
ATOM     75  F   UNL A   1      37.830  34.163  28.706  1.00  0.00    -0.206 F 
ATOM     76  C   UNL A   1      34.218  34.273  28.965  1.00  0.00     0.006 A 
ENDBRANCH  48  69
BRANCH  60  77
ATOM     77  C   UNL A   1      39.812  34.250  36.177  1.00  0.00     0.057 A 
ATOM     78  C   UNL A   1      39.033  34.032  37.320  1.00  0.00     0.134 A 
ATOM     79  C   UNL A   1      40.474  35.479  36.066  1.00  0.00     0.134 A 
ATOM     80  F   UNL A   1      38.363  32.879  37.477  1.00  0.00    -0.206 F 
ATOM     81  C   UNL A   1      38.906  35.007  38.311  1.00  0.00     0.040 A 
ATOM     82  C   UNL A   1      40.370  36.453  37.058  1.00  0.00     0.040 A 
ATOM     83  F   UNL A   1      41.239  35.746  34.997  1.00  0.00    -0.206 F 
ATOM     84  C   UNL A   1      39.581  36.220  38.183  1.00  0.00     0.006 A 
ENDBRANCH  60  77
ENDBRANCH  34  35
ENDBRANCH  27  29
ENDBRANCH  26  27
ENDBRANCH  25  26
ENDBRANCH   1  25
TORSDOF 13
ENDMDL
MODEL 3
REMARK VINA RESULT:     -11.2      4.356      7.821
REMARK SMILES CC1(C)S[C@H](c2ccc(-c3ccccc3)o2)[NH2+][C@H]1C(=O)OCCOC(=O)c1ccc(-c2c3nc(c(-c4c(F)cccc4F)c4ccc([nH]4)c(-c4c(F)cccc4F)c4nc(c(-c5c(F)cccc5F)c5ccc2[nH]5)C=C4)C=C3)cc1
REMARK SMILES IDX 22 1 21 2 19 3 20 4 18 5 1 6 2 7 3 8 4 9 5 10 17 11 6 14
REMARK SMILES IDX 7 15 16 16 8 17 9 18 10 19 11 20 15 21 12 22 14 23 13 24
REMARK SMILES IDX 23 25 24 26 25 27 26 28 27 29 28 30 80 31 29 32 79 33 30 34
REMARK SMILES IDX 31 35 32 36 73 37 33 38 78 39 72 40 74 41 34 42 77 43 71 44
REMARK SMILES IDX 70 45 35 47 61 48 44 49 60 50 45 51 48 52 59 53 75 54 46 55
REMARK SMILES IDX 47 56 58 58 76 59 49 60 36 61 37 62 42 63 38 64 39 65 41 66
REMARK SMILES IDX 43 67 40 68 62 69 63 70 68 71 64 72 65 73 67 74 69 75 66 76
REMARK SMILES IDX 50 77 51 78 56 79 52 80 53 81 55 82 57 83 54 84
REMARK H PARENT 17 12 17 13 74 46 48 57
REMARK Flexibility Score: inf
ROOT
ATOM      1  C   UNL A   1      31.416  28.797  25.122  1.00  0.00     0.274 C 
ENDROOT
BRANCH   1   2
ATOM      2  O   UNL A   1      32.178  27.711  25.690  1.00  0.00    -0.458 OA
BRANCH   2   3
ATOM      3  C   UNL A   1      31.559  26.504  25.740  1.00  0.00     0.366 C 
ATOM      4  O   UNL A   1      30.580  26.274  26.444  1.00  0.00    -0.245 OA
BRANCH   3   5
ATOM      5  C   UNL A   1      32.238  25.413  24.886  1.00  0.00     0.310 C 
ATOM      6  C   UNL A   1      31.636  26.484  22.552  1.00  0.00     0.030 C 
ATOM      7  C   UNL A   1      31.822  25.226  23.404  1.00  0.00     0.079 C 
ATOM      8  C   UNL A   1      30.607  24.304  23.263  1.00  0.00     0.030 C 
ATOM      9  S   UNL A   1      33.270  24.343  22.684  1.00  0.00    -0.078 SA
ATOM     10  C   UNL A   1      34.301  24.505  24.171  1.00  0.00     0.311 C 
ATOM     11  N   UNL A   1      33.715  25.584  24.968  1.00  0.00    -0.316 N 
ATOM     12  H   UNL A   1      33.986  26.492  24.588  1.00  0.00     0.348 HD
ATOM     13  H   UNL A   1      34.039  25.548  25.934  1.00  0.00     0.348 HD
BRANCH  10  14
ATOM     14  C   UNL A   1      34.452  23.169  24.844  1.00  0.00     0.172 A 
ATOM     15  C   UNL A   1      34.854  22.853  26.131  1.00  0.00     0.054 A 
ATOM     16  O   UNL A   1      34.146  22.010  24.167  1.00  0.00    -0.454 OA
ATOM     17  C   UNL A   1      34.769  21.452  26.259  1.00  0.00     0.051 A 
ATOM     18  C   UNL A   1      34.325  20.976  25.045  1.00  0.00     0.134 A 
BRANCH  18  19
ATOM     19  C   UNL A   1      34.004  19.632  24.592  1.00  0.00     0.017 A 
ATOM     20  C   UNL A   1      32.764  19.335  24.016  1.00  0.00     0.012 A 
ATOM     21  C   UNL A   1      34.990  18.634  24.628  1.00  0.00     0.012 A 
ATOM     22  C   UNL A   1      32.523  18.070  23.466  1.00  0.00     0.001 A 
ATOM     23  C   UNL A   1      34.746  17.368  24.093  1.00  0.00     0.001 A 
ATOM     24  C   UNL A   1      33.514  17.089  23.504  1.00  0.00     0.000 A 
ENDBRANCH  18  19
ENDBRANCH  10  14
ENDBRANCH   3   5
ENDBRANCH   2   3
ENDBRANCH   1   2
BRANCH   1  25
ATOM     25  C   UNL A   1      31.584  30.095  25.915  1.00  0.00     0.275 C 
BRANCH  25  26
ATOM     26  O   UNL A   1      32.973  30.446  26.045  1.00  0.00    -0.458 OA
BRANCH  26  27
ATOM     27  C   UNL A   1      33.246  31.418  26.946  1.00  0.00     0.338 C 
ATOM     28  O   UNL A   1      32.547  32.366  27.251  1.00  0.00    -0.246 OA
BRANCH  27  29
ATOM     29  C   UNL A   1      34.518  31.114  27.616  1.00  0.00     0.060 A 
ATOM     30  C   UNL A   1      34.772  29.798  28.007  1.00  0.00     0.016 A 
ATOM     31  C   UNL A   1      35.410  32.134  27.941  1.00  0.00     0.016 A 
ATOM     32  C   UNL A   1      35.917  29.489  28.732  1.00  0.00     0.010 A 
ATOM     33  C   UNL A   1      36.573  31.821  28.653  1.00  0.00     0.010 A 
ATOM     34  C   UNL A   1      36.827  30.499  29.059  1.00  0.00    -0.014 A 
BRANCH  34  35
ATOM     35  C   UNL A   1      38.030  30.171  29.856  1.00  0.00     0.031 A 
ATOM     36  C   UNL A   1      39.084  29.274  29.281  1.00  0.00     0.074 A 
ATOM     37  C   UNL A   1      38.179  30.693  31.087  1.00  0.00     0.049 A 
ATOM     38  N   UNL A   1      40.141  28.764  29.860  1.00  0.00    -0.248 NA
ATOM     39  C   UNL A   1      38.929  28.900  27.867  1.00  0.00     0.031 C 
ATOM     40  C   UNL A   1      37.249  31.622  31.731  1.00  0.00     0.029 A 
ATOM     41  N   UNL A   1      39.166  30.505  32.020  1.00  0.00    -0.354 N 
ATOM     42  C   UNL A   1      40.760  27.985  28.892  1.00  0.00     0.074 A 
ATOM     43  C   UNL A   1      39.961  28.087  27.689  1.00  0.00     0.031 C 
ATOM     44  C   UNL A   1      37.707  31.917  32.958  1.00  0.00     0.029 A 
ATOM     45  C   UNL A   1      38.931  31.161  33.202  1.00  0.00     0.049 A 
ATOM     46  H   UNL A   1      39.965  29.953  31.858  1.00  0.00     0.167 HD
ATOM     47  C   UNL A   1      41.892  27.250  29.002  1.00  0.00     0.037 A 
ATOM     48  C   UNL A   1      39.608  31.124  34.366  1.00  0.00     0.037 A 
ATOM     49  C   UNL A   1      42.693  27.167  30.194  1.00  0.00     0.049 A 
ATOM     50  C   UNL A   1      40.828  30.255  34.480  1.00  0.00     0.074 A 
ATOM     51  C   UNL A   1      43.860  26.454  30.403  1.00  0.00     0.029 A 
ATOM     52  N   UNL A   1      42.408  27.826  31.381  1.00  0.00    -0.354 N 
ATOM     53  N   UNL A   1      41.390  29.497  33.570  1.00  0.00    -0.248 NA
ATOM     54  C   UNL A   1      41.499  30.224  35.788  1.00  0.00     0.031 C 
ATOM     55  C   UNL A   1      44.266  26.657  31.727  1.00  0.00     0.029 A 
ATOM     56  C   UNL A   1      43.370  27.524  32.332  1.00  0.00     0.049 A 
ATOM     57  H   UNL A   1      41.638  28.420  31.526  1.00  0.00     0.167 HD
ATOM     58  C   UNL A   1      42.486  28.911  34.189  1.00  0.00     0.074 A 
ATOM     59  C   UNL A   1      42.517  29.411  35.548  1.00  0.00     0.031 C 
ATOM     60  C   UNL A   1      43.384  28.034  33.678  1.00  0.00     0.037 A 
BRANCH  47  61
ATOM     61  C   UNL A   1      42.311  26.449  27.807  1.00  0.00     0.057 A 
ATOM     62  C   UNL A   1      41.884  25.130  27.612  1.00  0.00     0.134 A 
ATOM     63  C   UNL A   1      43.130  27.018  26.823  1.00  0.00     0.134 A 
ATOM     64  F   UNL A   1      41.111  24.525  28.527  1.00  0.00    -0.206 F 
ATOM     65  C   UNL A   1      42.271  24.398  26.488  1.00  0.00     0.040 A 
ATOM     66  C   UNL A   1      43.508  26.303  25.686  1.00  0.00     0.040 A 
ATOM     67  F   UNL A   1      43.571  28.278  26.950  1.00  0.00    -0.206 F 
ATOM     68  C   UNL A   1      43.081  24.987  25.518  1.00  0.00     0.006 A 
ENDBRANCH  47  61
BRANCH  48  69
ATOM     69  C   UNL A   1      39.122  31.908  35.526  1.00  0.00     0.057 A 
ATOM     70  C   UNL A   1      39.516  33.236  35.717  1.00  0.00     0.134 A 
ATOM     71  C   UNL A   1      38.252  31.347  36.469  1.00  0.00     0.134 A 
ATOM     72  F   UNL A   1      40.363  33.819  34.856  1.00  0.00    -0.206 F 
ATOM     73  C   UNL A   1      39.071  33.978  36.812  1.00  0.00     0.040 A 
ATOM     74  C   UNL A   1      37.781  32.084  37.556  1.00  0.00     0.040 A 
ATOM     75  F   UNL A   1      37.838  30.078  36.338  1.00  0.00    -0.206 F 
ATOM     76  C   UNL A   1      38.196  33.403  37.732  1.00  0.00     0.006 A 
ENDBRANCH  48  69
BRANCH  60  77
ATOM     77  C   UNL A   1      44.488  27.583  34.585  1.00  0.00     0.057 A 
ATOM     78  C   UNL A   1      44.372  26.425  35.361  1.00  0.00     0.134 A 
ATOM     79  C   UNL A   1      45.691  28.296  34.654  1.00  0.00     0.134 A 
ATOM     80  F   UNL A   1      43.238  25.707  35.347  1.00  0.00    -0.206 F 
ATOM     81  C   UNL A   1      45.412  25.996  36.189  1.00  0.00     0.040 A 
ATOM     82  C   UNL A   1      46.743  27.868  35.463  1.00  0.00     0.040 A 
ATOM     83  F   UNL A   1      45.864  29.412  33.930  1.00  0.00    -0.206 F 
ATOM     84  C   UNL A   1      46.604  26.718  36.237  1.00  0.00     0.006 A 
ENDBRANCH  60  77
ENDBRANCH  34  35
ENDBRANCH  27  29
ENDBRANCH  26  27
ENDBRANCH  25  26
ENDBRANCH   1  25
TORSDOF 13
ENDMDL
