MODEL 1
REMARK VINA RESULT:     -11.9      0.000      0.000
REMARK SMILES O=C(OCCOC(=O)[C@@H]1CN(c2nc(-c3ccccc3)no2)CC[NH2+]1)c1ccc(-c2c3nc(c(-c4c(F)cccc4F)c4ccc([nH]4)c(-c4c(F)cccc4F)c4nc(c(-c5c(F)cccc5F)c5ccc2[nH]5)C=C4)C=C3)cc1
REMARK SMILES IDX 4 1 3 2 2 3 1 4 26 5 27 6 79 7 28 8 78 9 29 10 30 11 31 12
REMARK SMILES IDX 72 13 32 14 77 15 71 16 73 17 33 18 76 19 70 20 69 21 34 23
REMARK SMILES IDX 60 24 43 25 59 26 44 27 47 28 58 29 74 30 45 31 46 32 57 34
REMARK SMILES IDX 75 35 48 36 35 37 36 38 41 39 37 40 38 41 40 42 42 43 39 44
REMARK SMILES IDX 61 45 62 46 67 47 63 48 64 49 66 50 68 51 65 52 49 53 50 54
REMARK SMILES IDX 55 55 51 56 52 57 54 58 56 59 53 60 5 61 6 62 7 63 8 64 9 65
REMARK SMILES IDX 10 66 25 67 11 68 24 69 23 72 12 73 13 74 22 75 14 76 21 77
REMARK SMILES IDX 15 78 16 79 20 80 17 81 19 82 18 83
REMARK H PARENT 73 22 47 33 25 70 25 71
REMARK Flexibility Score: inf
ROOT
ATOM      1  C   UNL A   1      45.789  22.969  24.127  1.00  0.00     0.275 C 
ENDROOT
BRANCH   1   2
ATOM      2  O   UNL A   1      45.156  23.600  25.255  1.00  0.00    -0.458 OA
BRANCH   2   3
ATOM      3  C   UNL A   1      43.870  23.991  25.428  1.00  0.00     0.338 C 
ATOM      4  O   UNL A   1      43.031  23.622  24.606  1.00  0.00    -0.246 OA
BRANCH   3   5
ATOM      5  C   UNL A   1      43.424  24.962  26.478  1.00  0.00     0.060 A 
ATOM      6  C   UNL A   1      44.040  26.176  26.792  1.00  0.00     0.016 A 
ATOM      7  C   UNL A   1      42.264  24.609  27.195  1.00  0.00     0.016 A 
ATOM      8  C   UNL A   1      43.470  27.062  27.712  1.00  0.00     0.010 A 
ATOM      9  C   UNL A   1      41.695  25.485  28.122  1.00  0.00     0.010 A 
ATOM     10  C   UNL A   1      42.293  26.726  28.376  1.00  0.00    -0.014 A 
BRANCH  10  11
ATOM     11  C   UNL A   1      41.792  27.590  29.465  1.00  0.00     0.031 A 
ATOM     12  C   UNL A   1      42.407  27.429  30.818  1.00  0.00     0.074 A 
ATOM     13  C   UNL A   1      40.840  28.518  29.251  1.00  0.00     0.049 A 
ATOM     14  N   UNL A   1      42.167  28.093  31.916  1.00  0.00    -0.248 NA
ATOM     15  C   UNL A   1      43.468  26.415  30.940  1.00  0.00     0.031 C 
ATOM     16  C   UNL A   1      40.258  28.852  27.956  1.00  0.00     0.029 A 
ATOM     17  N   UNL A   1      40.167  29.326  30.131  1.00  0.00    -0.354 N 
ATOM     18  C   UNL A   1      43.094  27.626  32.834  1.00  0.00     0.074 A 
ATOM     19  C   UNL A   1      43.827  26.552  32.204  1.00  0.00     0.031 C 
ATOM     20  C   UNL A   1      39.229  29.699  28.136  1.00  0.00     0.029 A 
ATOM     21  C   UNL A   1      39.118  30.003  29.556  1.00  0.00     0.049 A 
ATOM     22  H   UNL A   1      40.411  29.412  31.080  1.00  0.00     0.167 HD
ATOM     23  C   UNL A   1      43.348  28.096  34.076  1.00  0.00     0.037 A 
ATOM     24  C   UNL A   1      38.175  30.778  30.121  1.00  0.00     0.037 A 
ATOM     25  C   UNL A   1      42.572  29.128  34.705  1.00  0.00     0.049 A 
ATOM     26  C   UNL A   1      38.326  31.127  31.574  1.00  0.00     0.074 A 
ATOM     27  C   UNL A   1      42.721  29.681  35.961  1.00  0.00     0.029 A 
ATOM     28  N   UNL A   1      41.469  29.739  34.122  1.00  0.00    -0.354 N 
ATOM     29  N   UNL A   1      39.250  30.738  32.420  1.00  0.00    -0.248 NA
ATOM     30  C   UNL A   1      37.350  32.067  32.137  1.00  0.00     0.031 C 
ATOM     31  C   UNL A   1      41.671  30.585  36.161  1.00  0.00     0.029 A 
ATOM     32  C   UNL A   1      40.901  30.636  35.008  1.00  0.00     0.049 A 
ATOM     33  H   UNL A   1      41.140  29.561  33.211  1.00  0.00     0.167 HD
ATOM     34  C   UNL A   1      39.019  31.444  33.590  1.00  0.00     0.074 A 
ATOM     35  C   UNL A   1      37.844  32.262  33.353  1.00  0.00     0.031 C 
ATOM     36  C   UNL A   1      39.734  31.443  34.743  1.00  0.00     0.037 A 
BRANCH  23  37
ATOM     37  C   UNL A   1      44.496  27.462  34.802  1.00  0.00     0.057 A 
ATOM     38  C   UNL A   1      45.804  27.955  34.680  1.00  0.00     0.134 A 
ATOM     39  C   UNL A   1      44.310  26.302  35.560  1.00  0.00     0.134 A 
ATOM     40  F   UNL A   1      46.053  29.048  33.942  1.00  0.00    -0.206 F 
ATOM     41  C   UNL A   1      46.892  27.289  35.248  1.00  0.00     0.040 A 
ATOM     42  C   UNL A   1      45.387  25.643  36.155  1.00  0.00     0.040 A 
ATOM     43  F   UNL A   1      43.086  25.774  35.711  1.00  0.00    -0.206 F 
ATOM     44  C   UNL A   1      46.684  26.128  35.987  1.00  0.00     0.006 A 
ENDBRANCH  23  37
BRANCH  24  45
ATOM     45  C   UNL A   1      37.054  31.312  29.306  1.00  0.00     0.057 A 
ATOM     46  C   UNL A   1      35.920  30.543  29.028  1.00  0.00     0.134 A 
ATOM     47  C   UNL A   1      37.096  32.611  28.781  1.00  0.00     0.134 A 
ATOM     48  F   UNL A   1      35.826  29.289  29.493  1.00  0.00    -0.206 F 
ATOM     49  C   UNL A   1      34.875  31.037  28.244  1.00  0.00     0.040 A 
ATOM     50  C   UNL A   1      36.052  33.122  28.006  1.00  0.00     0.040 A 
ATOM     51  F   UNL A   1      38.151  33.404  29.019  1.00  0.00    -0.206 F 
ATOM     52  C   UNL A   1      34.938  32.331  27.731  1.00  0.00     0.006 A 
ENDBRANCH  24  45
BRANCH  36  53
ATOM     53  C   UNL A   1      39.300  32.398  35.813  1.00  0.00     0.057 A 
ATOM     54  C   UNL A   1      39.803  33.701  35.898  1.00  0.00     0.134 A 
ATOM     55  C   UNL A   1      38.323  32.017  36.743  1.00  0.00     0.134 A 
ATOM     56  F   UNL A   1      40.752  34.121  35.046  1.00  0.00    -0.206 F 
ATOM     57  C   UNL A   1      39.363  34.588  36.881  1.00  0.00     0.040 A 
ATOM     58  C   UNL A   1      37.854  32.903  37.712  1.00  0.00     0.040 A 
ATOM     59  F   UNL A   1      37.798  30.783  36.712  1.00  0.00    -0.206 F 
ATOM     60  C   UNL A   1      38.379  34.191  37.785  1.00  0.00     0.006 A 
ENDBRANCH  36  53
ENDBRANCH  10  11
ENDBRANCH   3   5
ENDBRANCH   2   3
ENDBRANCH   1   2
BRANCH   1  61
ATOM     61  C   UNL A   1      46.233  21.525  24.377  1.00  0.00     0.274 C 
BRANCH  61  62
ATOM     62  O   UNL A   1      45.225  20.574  24.009  1.00  0.00    -0.458 OA
BRANCH  62  63
ATOM     63  C   UNL A   1      45.298  19.344  24.601  1.00  0.00     0.366 C 
ATOM     64  O   UNL A   1      46.299  18.636  24.588  1.00  0.00    -0.245 OA
BRANCH  63  65
ATOM     65  C   UNL A   1      44.000  18.985  25.344  1.00  0.00     0.313 C 
ATOM     66  C   UNL A   1      43.272  20.285  25.760  1.00  0.00     0.199 C 
ATOM     67  N   UNL A   1      44.271  18.067  26.497  1.00  0.00    -0.332 N 
ATOM     68  N   UNL A   1      42.142  20.025  26.657  1.00  0.00    -0.312 N 
ATOM     69  C   UNL A   1      43.002  17.814  27.213  1.00  0.00     0.283 C 
ATOM     70  H   UNL A   1      44.942  18.503  27.131  1.00  0.00     0.347 HD
ATOM     71  H   UNL A   1      44.660  17.188  26.158  1.00  0.00     0.347 HD
ATOM     72  C   UNL A   1      42.373  19.102  27.763  1.00  0.00     0.183 C 
BRANCH  68  73
ATOM     73  C   UNL A   1      40.870  20.238  26.266  1.00  0.00     0.324 A 
ATOM     74  N   UNL A   1      40.146  21.331  26.269  1.00  0.00    -0.171 NA
ATOM     75  O   UNL A   1      40.203  19.159  25.750  1.00  0.00    -0.315 OA
ATOM     76  C   UNL A   1      38.978  20.906  25.676  1.00  0.00     0.204 A 
ATOM     77  N   UNL A   1      38.946  19.602  25.371  1.00  0.00    -0.055 NA
BRANCH  76  78
ATOM     78  C   UNL A   1      37.877  21.785  25.347  1.00  0.00     0.023 A 
ATOM     79  C   UNL A   1      37.855  23.093  25.841  1.00  0.00     0.012 A 
ATOM     80  C   UNL A   1      36.782  21.294  24.625  1.00  0.00     0.012 A 
ATOM     81  C   UNL A   1      36.736  23.900  25.630  1.00  0.00     0.001 A 
ATOM     82  C   UNL A   1      35.663  22.103  24.416  1.00  0.00     0.001 A 
ATOM     83  C   UNL A   1      35.639  23.402  24.924  1.00  0.00     0.000 A 
ENDBRANCH  76  78
ENDBRANCH  68  73
ENDBRANCH  63  65
ENDBRANCH  62  63
ENDBRANCH  61  62
ENDBRANCH   1  61
TORSDOF 13
ENDMDL
MODEL 2
REMARK VINA RESULT:     -11.9      6.087     12.267
REMARK SMILES O=C(OCCOC(=O)[C@@H]1CN(c2nc(-c3ccccc3)no2)CC[NH2+]1)c1ccc(-c2c3nc(c(-c4c(F)cccc4F)c4ccc([nH]4)c(-c4c(F)cccc4F)c4nc(c(-c5c(F)cccc5F)c5ccc2[nH]5)C=C4)C=C3)cc1
REMARK SMILES IDX 4 1 3 2 2 3 1 4 26 5 27 6 79 7 28 8 78 9 29 10 30 11 31 12
REMARK SMILES IDX 72 13 32 14 77 15 71 16 73 17 33 18 76 19 70 20 69 21 34 23
REMARK SMILES IDX 60 24 43 25 59 26 44 27 47 28 58 29 74 30 45 31 46 32 57 34
REMARK SMILES IDX 75 35 48 36 35 37 36 38 41 39 37 40 38 41 40 42 42 43 39 44
REMARK SMILES IDX 61 45 62 46 67 47 63 48 64 49 66 50 68 51 65 52 49 53 50 54
REMARK SMILES IDX 55 55 51 56 52 57 54 58 56 59 53 60 5 61 6 62 7 63 8 64 9 65
REMARK SMILES IDX 10 66 25 67 11 68 24 69 23 72 12 73 13 74 22 75 14 76 21 77
REMARK SMILES IDX 15 78 16 79 20 80 17 81 19 82 18 83
REMARK H PARENT 73 22 47 33 25 70 25 71
REMARK Flexibility Score: inf
ROOT
ATOM      1  C   UNL A   1      35.958  34.703  33.499  1.00  0.00     0.275 C 
ENDROOT
BRANCH   1   2
ATOM      2  O   UNL A   1      35.666  33.294  33.495  1.00  0.00    -0.458 OA
BRANCH   2   3
ATOM      3  C   UNL A   1      35.689  32.401  32.477  1.00  0.00     0.338 C 
ATOM      4  O   UNL A   1      34.618  31.953  32.066  1.00  0.00    -0.246 OA
BRANCH   3   5
ATOM      5  C   UNL A   1      36.943  31.811  31.909  1.00  0.00     0.060 A 
ATOM      6  C   UNL A   1      38.034  31.333  32.641  1.00  0.00     0.016 A 
ATOM      7  C   UNL A   1      37.006  31.724  30.505  1.00  0.00     0.016 A 
ATOM      8  C   UNL A   1      39.106  30.695  32.011  1.00  0.00     0.010 A 
ATOM      9  C   UNL A   1      38.079  31.095  29.868  1.00  0.00     0.010 A 
ATOM     10  C   UNL A   1      39.132  30.565  30.624  1.00  0.00    -0.014 A 
BRANCH  10  11
ATOM     11  C   UNL A   1      40.343  30.041  29.957  1.00  0.00     0.031 A 
ATOM     12  C   UNL A   1      41.446  31.007  29.663  1.00  0.00     0.074 A 
ATOM     13  C   UNL A   1      40.475  28.737  29.653  1.00  0.00     0.049 A 
ATOM     14  N   UNL A   1      42.614  30.784  29.125  1.00  0.00    -0.248 NA
ATOM     15  C   UNL A   1      41.221  32.404  30.072  1.00  0.00     0.031 C 
ATOM     16  C   UNL A   1      39.527  27.685  30.002  1.00  0.00     0.029 A 
ATOM     17  N   UNL A   1      41.447  28.080  28.944  1.00  0.00    -0.354 N 
ATOM     18  C   UNL A   1      43.286  31.994  29.198  1.00  0.00     0.074 A 
ATOM     19  C   UNL A   1      42.364  32.971  29.729  1.00  0.00     0.031 C 
ATOM     20  C   UNL A   1      39.893  26.539  29.401  1.00  0.00     0.029 A 
ATOM     21  C   UNL A   1      41.130  26.771  28.669  1.00  0.00     0.049 A 
ATOM     22  H   UNL A   1      42.290  28.503  28.661  1.00  0.00     0.167 HD
ATOM     23  C   UNL A   1      44.580  32.249  28.900  1.00  0.00     0.037 A 
ATOM     24  C   UNL A   1      41.772  25.868  27.906  1.00  0.00     0.037 A 
ATOM     25  C   UNL A   1      45.465  31.277  28.322  1.00  0.00     0.049 A 
ATOM     26  C   UNL A   1      43.130  26.229  27.375  1.00  0.00     0.074 A 
ATOM     27  C   UNL A   1      46.791  31.416  27.964  1.00  0.00     0.029 A 
ATOM     28  N   UNL A   1      45.088  29.982  27.986  1.00  0.00    -0.354 N 
ATOM     29  N   UNL A   1      43.791  27.354  27.510  1.00  0.00    -0.248 NA
ATOM     30  C   UNL A   1      43.858  25.185  26.644  1.00  0.00     0.031 C 
ATOM     31  C   UNL A   1      47.200  30.224  27.356  1.00  0.00     0.029 A 
ATOM     32  C   UNL A   1      46.146  29.322  27.386  1.00  0.00     0.049 A 
ATOM     33  H   UNL A   1      44.200  29.591  28.151  1.00  0.00     0.167 HD
ATOM     34  C   UNL A   1      45.042  27.131  26.955  1.00  0.00     0.074 A 
ATOM     35  C   UNL A   1      45.033  25.770  26.453  1.00  0.00     0.031 C 
ATOM     36  C   UNL A   1      46.111  27.964  26.900  1.00  0.00     0.037 A 
BRANCH  23  37
ATOM     37  C   UNL A   1      45.063  33.638  29.188  1.00  0.00     0.057 A 
ATOM     38  C   UNL A   1      45.012  34.650  28.216  1.00  0.00     0.134 A 
ATOM     39  C   UNL A   1      45.661  33.948  30.414  1.00  0.00     0.134 A 
ATOM     40  F   UNL A   1      44.477  34.408  27.010  1.00  0.00    -0.206 F 
ATOM     41  C   UNL A   1      45.581  35.905  28.438  1.00  0.00     0.040 A 
ATOM     42  C   UNL A   1      46.209  35.209  30.656  1.00  0.00     0.040 A 
ATOM     43  F   UNL A   1      45.749  33.025  31.382  1.00  0.00    -0.206 F 
ATOM     44  C   UNL A   1      46.183  36.186  29.662  1.00  0.00     0.006 A 
ENDBRANCH  23  37
BRANCH  24  45
ATOM     45  C   UNL A   1      41.168  24.535  27.652  1.00  0.00     0.057 A 
ATOM     46  C   UNL A   1      41.624  23.388  28.310  1.00  0.00     0.134 A 
ATOM     47  C   UNL A   1      40.119  24.377  26.737  1.00  0.00     0.134 A 
ATOM     48  F   UNL A   1      42.633  23.472  29.189  1.00  0.00    -0.206 F 
ATOM     49  C   UNL A   1      41.072  22.130  28.056  1.00  0.00     0.040 A 
ATOM     50  C   UNL A   1      39.548  23.127  26.483  1.00  0.00     0.040 A 
ATOM     51  F   UNL A   1      39.628  25.439  26.079  1.00  0.00    -0.206 F 
ATOM     52  C   UNL A   1      40.029  21.998  27.141  1.00  0.00     0.006 A 
ENDBRANCH  24  45
BRANCH  36  53
ATOM     53  C   UNL A   1      47.379  27.406  26.327  1.00  0.00     0.057 A 
ATOM     54  C   UNL A   1      48.337  26.766  27.121  1.00  0.00     0.134 A 
ATOM     55  C   UNL A   1      47.615  27.468  24.947  1.00  0.00     0.134 A 
ATOM     56  F   UNL A   1      48.176  26.688  28.452  1.00  0.00    -0.206 F 
ATOM     57  C   UNL A   1      49.496  26.223  26.566  1.00  0.00     0.040 A 
ATOM     58  C   UNL A   1      48.754  26.904  24.376  1.00  0.00     0.040 A 
ATOM     59  F   UNL A   1      46.731  28.064  24.131  1.00  0.00    -0.206 F 
ATOM     60  C   UNL A   1      49.701  26.284  25.188  1.00  0.00     0.006 A 
ENDBRANCH  36  53
ENDBRANCH  10  11
ENDBRANCH   3   5
ENDBRANCH   2   3
ENDBRANCH   1   2
BRANCH   1  61
ATOM     61  C   UNL A   1      34.735  35.602  33.695  1.00  0.00     0.274 C 
BRANCH  61  62
ATOM     62  O   UNL A   1      33.630  35.208  32.868  1.00  0.00    -0.458 OA
BRANCH  62  63
ATOM     63  C   UNL A   1      32.979  36.207  32.199  1.00  0.00     0.366 C 
ATOM     64  O   UNL A   1      32.511  37.202  32.742  1.00  0.00    -0.245 OA
BRANCH  63  65
ATOM     65  C   UNL A   1      32.963  35.967  30.680  1.00  0.00     0.313 C 
ATOM     66  C   UNL A   1      33.846  34.740  30.347  1.00  0.00     0.199 C 
ATOM     67  N   UNL A   1      33.363  37.201  29.932  1.00  0.00    -0.332 N 
ATOM     68  N   UNL A   1      34.053  34.582  28.904  1.00  0.00    -0.312 N 
ATOM     69  C   UNL A   1      33.398  36.892  28.487  1.00  0.00     0.283 C 
ATOM     70  H   UNL A   1      34.287  37.504  30.241  1.00  0.00     0.347 HD
ATOM     71  H   UNL A   1      32.693  37.949  30.111  1.00  0.00     0.347 HD
ATOM     72  C   UNL A   1      34.402  35.781  28.149  1.00  0.00     0.183 C 
BRANCH  68  73
ATOM     73  C   UNL A   1      33.528  33.540  28.230  1.00  0.00     0.324 A 
ATOM     74  N   UNL A   1      33.979  32.322  28.051  1.00  0.00    -0.171 NA
ATOM     75  O   UNL A   1      32.309  33.747  27.640  1.00  0.00    -0.315 OA
ATOM     76  C   UNL A   1      32.952  31.732  27.350  1.00  0.00     0.204 A 
ATOM     77  N   UNL A   1      31.936  32.551  27.048  1.00  0.00    -0.055 NA
BRANCH  76  78
ATOM     78  C   UNL A   1      32.920  30.329  26.998  1.00  0.00     0.023 A 
ATOM     79  C   UNL A   1      31.770  29.573  27.247  1.00  0.00     0.012 A 
ATOM     80  C   UNL A   1      34.073  29.704  26.508  1.00  0.00     0.012 A 
ATOM     81  C   UNL A   1      31.781  28.194  27.025  1.00  0.00     0.001 A 
ATOM     82  C   UNL A   1      34.081  28.325  26.288  1.00  0.00     0.001 A 
ATOM     83  C   UNL A   1      32.937  27.571  26.553  1.00  0.00     0.000 A 
ENDBRANCH  76  78
ENDBRANCH  68  73
ENDBRANCH  63  65
ENDBRANCH  62  63
ENDBRANCH  61  62
ENDBRANCH   1  61
TORSDOF 13
ENDMDL
MODEL 3
REMARK VINA RESULT:     -11.8      0.540      1.788
REMARK SMILES O=C(OCCOC(=O)[C@@H]1CN(c2nc(-c3ccccc3)no2)CC[NH2+]1)c1ccc(-c2c3nc(c(-c4c(F)cccc4F)c4ccc([nH]4)c(-c4c(F)cccc4F)c4nc(c(-c5c(F)cccc5F)c5ccc2[nH]5)C=C4)C=C3)cc1
REMARK SMILES IDX 4 1 3 2 2 3 1 4 26 5 27 6 79 7 28 8 78 9 29 10 30 11 31 12
REMARK SMILES IDX 72 13 32 14 77 15 71 16 73 17 33 18 76 19 70 20 69 21 34 23
REMARK SMILES IDX 60 24 43 25 59 26 44 27 47 28 58 29 74 30 45 31 46 32 57 34
REMARK SMILES IDX 75 35 48 36 35 37 36 38 41 39 37 40 38 41 40 42 42 43 39 44
REMARK SMILES IDX 61 45 62 46 67 47 63 48 64 49 66 50 68 51 65 52 49 53 50 54
REMARK SMILES IDX 55 55 51 56 52 57 54 58 56 59 53 60 5 61 6 62 7 63 8 64 9 65
REMARK SMILES IDX 10 66 25 67 11 68 24 69 23 72 12 73 13 74 22 75 14 76 21 77
REMARK SMILES IDX 15 78 16 79 20 80 17 81 19 82 18 83
REMARK H PARENT 73 22 47 33 25 70 25 71
REMARK Flexibility Score: inf
ROOT
ATOM      1  C   UNL A   1      45.998  22.223  25.754  1.00  0.00     0.275 C 
ENDROOT
BRANCH   1   2
ATOM      2  O   UNL A   1      44.834  23.066  25.672  1.00  0.00    -0.458 OA
BRANCH   2   3
ATOM      3  C   UNL A   1      44.738  24.410  25.530  1.00  0.00     0.338 C 
ATOM      4  O   UNL A   1      45.259  24.933  24.546  1.00  0.00    -0.246 OA
BRANCH   3   5
ATOM      5  C   UNL A   1      44.159  25.321  26.568  1.00  0.00     0.060 A 
ATOM      6  C   UNL A   1      44.528  26.650  26.797  1.00  0.00     0.016 A 
ATOM      7  C   UNL A   1      43.137  24.777  27.370  1.00  0.00     0.016 A 
ATOM      8  C   UNL A   1      43.838  27.446  27.716  1.00  0.00     0.010 A 
ATOM      9  C   UNL A   1      42.450  25.565  28.297  1.00  0.00     0.010 A 
ATOM     10  C   UNL A   1      42.793  26.912  28.465  1.00  0.00    -0.014 A 
BRANCH  10  11
ATOM     11  C   UNL A   1      42.183  27.710  29.549  1.00  0.00     0.031 A 
ATOM     12  C   UNL A   1      42.749  27.559  30.925  1.00  0.00     0.074 A 
ATOM     13  C   UNL A   1      41.177  28.573  29.314  1.00  0.00     0.049 A 
ATOM     14  N   UNL A   1      42.415  28.175  32.026  1.00  0.00    -0.248 NA
ATOM     15  C   UNL A   1      43.875  26.620  31.071  1.00  0.00     0.031 C 
ATOM     16  C   UNL A   1      40.629  28.898  28.002  1.00  0.00     0.029 A 
ATOM     17  N   UNL A   1      40.410  29.308  30.181  1.00  0.00    -0.354 N 
ATOM     18  C   UNL A   1      43.333  27.753  32.974  1.00  0.00     0.074 A 
ATOM     19  C   UNL A   1      44.168  26.751  32.353  1.00  0.00     0.031 C 
ATOM     20  C   UNL A   1      39.535  29.664  28.154  1.00  0.00     0.029 A 
ATOM     21  C   UNL A   1      39.341  29.923  29.574  1.00  0.00     0.049 A 
ATOM     22  H   UNL A   1      40.605  29.387  31.142  1.00  0.00     0.167 HD
ATOM     23  C   UNL A   1      43.499  28.207  34.236  1.00  0.00     0.037 A 
ATOM     24  C   UNL A   1      38.320  30.614  30.114  1.00  0.00     0.037 A 
ATOM     25  C   UNL A   1      42.624  29.165  34.853  1.00  0.00     0.049 A 
ATOM     26  C   UNL A   1      38.383  30.935  31.580  1.00  0.00     0.074 A 
ATOM     27  C   UNL A   1      42.678  29.695  36.127  1.00  0.00     0.029 A 
ATOM     28  N   UNL A   1      41.505  29.711  34.234  1.00  0.00    -0.354 N 
ATOM     29  N   UNL A   1      39.296  30.592  32.457  1.00  0.00    -0.248 NA
ATOM     30  C   UNL A   1      37.318  31.789  32.120  1.00  0.00     0.031 C 
ATOM     31  C   UNL A   1      41.557  30.516  36.299  1.00  0.00     0.029 A 
ATOM     32  C   UNL A   1      40.836  30.542  35.114  1.00  0.00     0.049 A 
ATOM     33  H   UNL A   1      41.230  29.533  33.306  1.00  0.00     0.167 HD
ATOM     34  C   UNL A   1      38.963  31.250  33.632  1.00  0.00     0.074 A 
ATOM     35  C   UNL A   1      37.744  31.988  33.360  1.00  0.00     0.031 C 
ATOM     36  C   UNL A   1      39.626  31.270  34.815  1.00  0.00     0.037 A 
BRANCH  23  37
ATOM     37  C   UNL A   1      44.657  27.639  34.998  1.00  0.00     0.057 A 
ATOM     38  C   UNL A   1      44.512  26.512  35.822  1.00  0.00     0.134 A 
ATOM     39  C   UNL A   1      45.906  28.267  34.975  1.00  0.00     0.134 A 
ATOM     40  F   UNL A   1      43.331  25.881  35.910  1.00  0.00    -0.206 F 
ATOM     41  C   UNL A   1      45.555  26.061  36.633  1.00  0.00     0.040 A 
ATOM     42  C   UNL A   1      46.964  27.808  35.762  1.00  0.00     0.040 A 
ATOM     43  F   UNL A   1      46.109  29.352  34.214  1.00  0.00    -0.206 F 
ATOM     44  C   UNL A   1      46.786  26.711  36.604  1.00  0.00     0.006 A 
ENDBRANCH  23  37
BRANCH  24  45
ATOM     45  C   UNL A   1      37.200  31.088  29.262  1.00  0.00     0.057 A 
ATOM     46  C   UNL A   1      37.146  32.402  28.789  1.00  0.00     0.134 A 
ATOM     47  C   UNL A   1      36.150  30.231  28.904  1.00  0.00     0.134 A 
ATOM     48  F   UNL A   1      38.115  33.273  29.106  1.00  0.00    -0.206 F 
ATOM     49  C   UNL A   1      36.082  32.855  28.005  1.00  0.00     0.040 A 
ATOM     50  C   UNL A   1      35.087  30.667  28.110  1.00  0.00     0.040 A 
ATOM     51  F   UNL A   1      36.147  28.954  29.317  1.00  0.00    -0.206 F 
ATOM     52  C   UNL A   1      35.049  31.985  27.662  1.00  0.00     0.006 A 
ENDBRANCH  24  45
BRANCH  36  53
ATOM     53  C   UNL A   1      39.078  32.164  35.886  1.00  0.00     0.057 A 
ATOM     54  C   UNL A   1      38.213  31.693  36.880  1.00  0.00     0.134 A 
ATOM     55  C   UNL A   1      39.468  33.509  35.948  1.00  0.00     0.134 A 
ATOM     56  F   UNL A   1      37.790  30.418  36.866  1.00  0.00    -0.206 F 
ATOM     57  C   UNL A   1      37.738  32.532  37.888  1.00  0.00     0.040 A 
ATOM     58  C   UNL A   1      39.025  34.350  36.967  1.00  0.00     0.040 A 
ATOM     59  F   UNL A   1      40.300  34.020  35.028  1.00  0.00    -0.206 F 
ATOM     60  C   UNL A   1      38.153  33.862  37.938  1.00  0.00     0.006 A 
ENDBRANCH  36  53
ENDBRANCH  10  11
ENDBRANCH   3   5
ENDBRANCH   2   3
ENDBRANCH   1   2
BRANCH   1  61
ATOM     61  C   UNL A   1      46.200  21.304  24.546  1.00  0.00     0.274 C 
BRANCH  61  62
ATOM     62  O   UNL A   1      44.985  20.650  24.151  1.00  0.00    -0.458 OA
BRANCH  62  63
ATOM     63  C   UNL A   1      44.874  19.324  24.461  1.00  0.00     0.366 C 
ATOM     64  O   UNL A   1      45.711  18.479  24.163  1.00  0.00    -0.245 OA
BRANCH  63  65
ATOM     65  C   UNL A   1      43.610  19.030  25.287  1.00  0.00     0.313 C 
ATOM     66  C   UNL A   1      42.877  20.359  25.591  1.00  0.00     0.199 C 
ATOM     67  N   UNL A   1      43.938  18.244  26.519  1.00  0.00    -0.332 N 
ATOM     68  N   UNL A   1      41.786  20.182  26.553  1.00  0.00    -0.312 N 
ATOM     69  C   UNL A   1      42.701  18.052  27.305  1.00  0.00     0.283 C 
ATOM     70  H   UNL A   1      44.624  18.752  27.077  1.00  0.00     0.347 HD
ATOM     71  H   UNL A   1      44.328  17.338  26.259  1.00  0.00     0.347 HD
ATOM     72  C   UNL A   1      42.072  19.384  27.741  1.00  0.00     0.183 C 
BRANCH  68  73
ATOM     73  C   UNL A   1      40.497  20.337  26.190  1.00  0.00     0.324 A 
ATOM     74  N   UNL A   1      39.701  21.375  26.283  1.00  0.00    -0.171 NA
ATOM     75  O   UNL A   1      39.896  19.257  25.601  1.00  0.00    -0.315 OA
ATOM     76  C   UNL A   1      38.556  20.918  25.670  1.00  0.00     0.204 A 
ATOM     77  N   UNL A   1      38.606  19.641  25.268  1.00  0.00    -0.055 NA
BRANCH  76  78
ATOM     78  C   UNL A   1      37.394  21.742  25.418  1.00  0.00     0.023 A 
ATOM     79  C   UNL A   1      36.312  21.222  24.699  1.00  0.00     0.012 A 
ATOM     80  C   UNL A   1      37.396  23.089  25.797  1.00  0.00     0.012 A 
ATOM     81  C   UNL A   1      35.246  22.053  24.347  1.00  0.00     0.001 A 
ATOM     82  C   UNL A   1      36.330  23.918  25.442  1.00  0.00     0.001 A 
ATOM     83  C   UNL A   1      35.260  23.400  24.712  1.00  0.00     0.000 A 
ENDBRANCH  76  78
ENDBRANCH  68  73
ENDBRANCH  63  65
ENDBRANCH  62  63
ENDBRANCH  61  62
ENDBRANCH   1  61
TORSDOF 13
ENDMDL
