MODEL 1
REMARK VINA RESULT:     -11.2      0.000      0.000
REMARK SMILES Cc1cscc1C(=O)N[C@H](C(=O)OCCOC(=O)c1ccc(-c2c3nc(c(-c4c(F)cccc4F)c4ccc([nH]4)c(-c4c(F)cccc4F)c4nc(c(-c5c(F)cccc5F)c5ccc2[nH]5)C=C4)C=C3)cc1)c1ccccc1
REMARK SMILES IDX 14 1 13 2 11 3 12 4 10 5 9 6 7 7 8 8 6 10 1 11 2 12 3 13
REMARK SMILES IDX 4 14 5 15 73 16 74 17 78 18 75 19 77 20 76 21 15 22 16 23
REMARK SMILES IDX 17 24 18 25 19 26 20 27 72 28 21 29 71 30 22 31 23 32 24 33
REMARK SMILES IDX 65 34 25 35 70 36 64 37 66 38 26 39 69 40 63 41 62 42 27 44
REMARK SMILES IDX 53 45 36 46 52 47 37 48 40 49 51 50 67 51 38 52 39 53 50 55
REMARK SMILES IDX 68 56 41 57 28 58 29 59 34 60 30 61 31 62 33 63 35 64 32 65
REMARK SMILES IDX 54 66 55 67 60 68 56 69 57 70 59 71 61 72 58 73 42 74 43 75
REMARK SMILES IDX 48 76 44 77 45 78 47 79 49 80 46 81
REMARK H PARENT 9 9 66 43 40 54
REMARK Flexibility Score: inf
ROOT
ATOM      1  C   UNL A   1      32.826  29.267  24.613  1.00  0.00     0.274 C 
ENDROOT
BRANCH   1   2
ATOM      2  O   UNL A   1      33.201  28.065  25.311  1.00  0.00    -0.460 OA
BRANCH   2   3
ATOM      3  C   UNL A   1      32.923  26.905  24.653  1.00  0.00     0.333 C 
ATOM      4  O   UNL A   1      32.354  26.864  23.565  1.00  0.00    -0.249 OA
BRANCH   3   5
ATOM      5  C   UNL A   1      33.367  25.648  25.421  1.00  0.00     0.223 C 
BRANCH   5   6
ATOM      6  N   UNL A   1      32.296  24.946  26.141  1.00  0.00    -0.335 N 
ATOM      7  C   UNL A   1      31.830  23.719  26.492  1.00  0.00     0.253 C 
ATOM      8  O   UNL A   1      30.853  23.810  27.251  1.00  0.00    -0.269 OA
ATOM      9  H   UNL A   1      31.684  25.623  26.511  1.00  0.00     0.165 HD
BRANCH   7  10
ATOM     10  C   UNL A   1      32.325  22.373  26.137  1.00  0.00     0.053 A 
ATOM     11  C   UNL A   1      34.403  21.740  27.626  1.00  0.00     0.046 C 
ATOM     12  C   UNL A   1      33.394  21.497  26.580  1.00  0.00    -0.028 A 
ATOM     13  C   UNL A   1      33.448  20.316  25.853  1.00  0.00     0.069 A 
ATOM     14  S   UNL A   1      32.279  20.222  24.634  1.00  0.00    -0.151 S 
ATOM     15  C   UNL A   1      31.686  21.756  25.058  1.00  0.00     0.079 A 
ENDBRANCH   7  10
ENDBRANCH   5   6
BRANCH   5  16
ATOM     16  C   UNL A   1      34.464  24.767  24.832  1.00  0.00    -0.014 A 
ATOM     17  C   UNL A   1      35.625  24.522  25.596  1.00  0.00     0.006 A 
ATOM     18  C   UNL A   1      34.364  24.140  23.583  1.00  0.00     0.006 A 
ATOM     19  C   UNL A   1      36.652  23.703  25.121  1.00  0.00     0.000 A 
ATOM     20  C   UNL A   1      35.397  23.324  23.105  1.00  0.00     0.000 A 
ATOM     21  C   UNL A   1      36.541  23.110  23.868  1.00  0.00     0.000 A 
ENDBRANCH   5  16
ENDBRANCH   3   5
ENDBRANCH   2   3
ENDBRANCH   1   2
BRANCH   1  22
ATOM     22  C   UNL A   1      31.809  30.039  25.452  1.00  0.00     0.275 C 
BRANCH  22  23
ATOM     23  O   UNL A   1      32.263  30.116  26.820  1.00  0.00    -0.458 OA
BRANCH  23  24
ATOM     24  C   UNL A   1      32.929  31.249  27.143  1.00  0.00     0.338 C 
ATOM     25  O   UNL A   1      32.525  32.400  27.016  1.00  0.00    -0.246 OA
BRANCH  24  26
ATOM     26  C   UNL A   1      34.282  30.933  27.641  1.00  0.00     0.060 A 
ATOM     27  C   UNL A   1      34.672  29.613  27.867  1.00  0.00     0.016 A 
ATOM     28  C   UNL A   1      35.133  31.979  28.001  1.00  0.00     0.016 A 
ATOM     29  C   UNL A   1      35.892  29.328  28.484  1.00  0.00     0.010 A 
ATOM     30  C   UNL A   1      36.368  31.696  28.597  1.00  0.00     0.010 A 
ATOM     31  C   UNL A   1      36.741  30.371  28.877  1.00  0.00    -0.014 A 
BRANCH  31  32
ATOM     32  C   UNL A   1      37.947  30.095  29.702  1.00  0.00     0.031 A 
ATOM     33  C   UNL A   1      39.042  29.233  29.134  1.00  0.00     0.074 A 
ATOM     34  C   UNL A   1      38.090  30.628  30.930  1.00  0.00     0.049 A 
ATOM     35  N   UNL A   1      40.100  28.736  29.721  1.00  0.00    -0.248 NA
ATOM     36  C   UNL A   1      38.929  28.891  27.707  1.00  0.00     0.031 C 
ATOM     37  C   UNL A   1      37.156  31.557  31.563  1.00  0.00     0.029 A 
ATOM     38  N   UNL A   1      39.085  30.462  31.862  1.00  0.00    -0.354 N 
ATOM     39  C   UNL A   1      40.760  27.995  28.748  1.00  0.00     0.074 A 
ATOM     40  C   UNL A   1      39.985  28.110  27.531  1.00  0.00     0.031 C 
ATOM     41  C   UNL A   1      37.627  31.886  32.779  1.00  0.00     0.029 A 
ATOM     42  C   UNL A   1      38.858  31.142  33.034  1.00  0.00     0.049 A 
ATOM     43  H   UNL A   1      39.884  29.908  31.706  1.00  0.00     0.167 HD
ATOM     44  C   UNL A   1      41.904  27.278  28.860  1.00  0.00     0.037 A 
ATOM     45  C   UNL A   1      39.546  31.136  34.193  1.00  0.00     0.037 A 
ATOM     46  C   UNL A   1      42.683  27.177  30.065  1.00  0.00     0.049 A 
ATOM     47  C   UNL A   1      40.771  30.270  34.321  1.00  0.00     0.074 A 
ATOM     48  C   UNL A   1      43.834  26.443  30.294  1.00  0.00     0.029 A 
ATOM     49  N   UNL A   1      42.392  27.841  31.247  1.00  0.00    -0.354 N 
ATOM     50  N   UNL A   1      41.346  29.511  33.419  1.00  0.00    -0.248 NA
ATOM     51  C   UNL A   1      41.430  30.241  35.636  1.00  0.00     0.031 C 
ATOM     52  C   UNL A   1      44.221  26.638  31.624  1.00  0.00     0.029 A 
ATOM     53  C   UNL A   1      43.332  27.524  32.212  1.00  0.00     0.049 A 
ATOM     54  H   UNL A   1      41.629  28.449  31.380  1.00  0.00     0.167 HD
ATOM     55  C   UNL A   1      42.436  28.925  34.051  1.00  0.00     0.074 A 
ATOM     56  C   UNL A   1      42.455  29.431  35.408  1.00  0.00     0.031 C 
ATOM     57  C   UNL A   1      43.336  28.041  33.557  1.00  0.00     0.037 A 
BRANCH  44  58
ATOM     58  C   UNL A   1      42.346  26.501  27.655  1.00  0.00     0.057 A 
ATOM     59  C   UNL A   1      41.941  25.180  27.431  1.00  0.00     0.134 A 
ATOM     60  C   UNL A   1      43.187  27.091  26.704  1.00  0.00     0.134 A 
ATOM     61  F   UNL A   1      41.152  24.550  28.315  1.00  0.00    -0.206 F 
ATOM     62  C   UNL A   1      42.378  24.464  26.314  1.00  0.00     0.040 A 
ATOM     63  C   UNL A   1      43.613  26.394  25.572  1.00  0.00     0.040 A 
ATOM     64  F   UNL A   1      43.608  28.355  26.859  1.00  0.00    -0.206 F 
ATOM     65  C   UNL A   1      43.213  25.074  25.378  1.00  0.00     0.006 A 
ENDBRANCH  44  58
BRANCH  45  66
ATOM     66  C   UNL A   1      39.068  31.941  35.347  1.00  0.00     0.057 A 
ATOM     67  C   UNL A   1      38.252  31.380  36.336  1.00  0.00     0.134 A 
ATOM     68  C   UNL A   1      39.400  33.296  35.478  1.00  0.00     0.134 A 
ATOM     69  F   UNL A   1      37.873  30.097  36.250  1.00  0.00    -0.206 F 
ATOM     70  C   UNL A   1      37.778  32.138  37.410  1.00  0.00     0.040 A 
ATOM     71  C   UNL A   1      38.957  34.058  36.560  1.00  0.00     0.040 A 
ATOM     72  F   UNL A   1      40.173  33.895  34.560  1.00  0.00    -0.206 F 
ATOM     73  C   UNL A   1      38.137  33.479  37.527  1.00  0.00     0.006 A 
ENDBRANCH  45  66
BRANCH  57  74
ATOM     74  C   UNL A   1      44.426  27.583  34.479  1.00  0.00     0.057 A 
ATOM     75  C   UNL A   1      45.634  28.283  34.594  1.00  0.00     0.134 A 
ATOM     76  C   UNL A   1      44.251  26.453  35.288  1.00  0.00     0.134 A 
ATOM     77  F   UNL A   1      45.867  29.365  33.837  1.00  0.00    -0.206 F 
ATOM     78  C   UNL A   1      46.637  27.864  35.470  1.00  0.00     0.040 A 
ATOM     79  C   UNL A   1      45.238  26.038  36.183  1.00  0.00     0.040 A 
ATOM     80  F   UNL A   1      43.114  25.745  35.230  1.00  0.00    -0.206 F 
ATOM     81  C   UNL A   1      46.437  26.742  36.272  1.00  0.00     0.006 A 
ENDBRANCH  57  74
ENDBRANCH  31  32
ENDBRANCH  24  26
ENDBRANCH  23  24
ENDBRANCH  22  23
ENDBRANCH   1  22
TORSDOF 14
ENDMDL
MODEL 2
REMARK VINA RESULT:     -11.0      4.454      8.184
REMARK SMILES Cc1cscc1C(=O)N[C@H](C(=O)OCCOC(=O)c1ccc(-c2c3nc(c(-c4c(F)cccc4F)c4ccc([nH]4)c(-c4c(F)cccc4F)c4nc(c(-c5c(F)cccc5F)c5ccc2[nH]5)C=C4)C=C3)cc1)c1ccccc1
REMARK SMILES IDX 14 1 13 2 11 3 12 4 10 5 9 6 7 7 8 8 6 10 1 11 2 12 3 13
REMARK SMILES IDX 4 14 5 15 73 16 74 17 78 18 75 19 77 20 76 21 15 22 16 23
REMARK SMILES IDX 17 24 18 25 19 26 20 27 72 28 21 29 71 30 22 31 23 32 24 33
REMARK SMILES IDX 65 34 25 35 70 36 64 37 66 38 26 39 69 40 63 41 62 42 27 44
REMARK SMILES IDX 53 45 36 46 52 47 37 48 40 49 51 50 67 51 38 52 39 53 50 55
REMARK SMILES IDX 68 56 41 57 28 58 29 59 34 60 30 61 31 62 33 63 35 64 32 65
REMARK SMILES IDX 54 66 55 67 60 68 56 69 57 70 59 71 61 72 58 73 42 74 43 75
REMARK SMILES IDX 48 76 44 77 45 78 47 79 49 80 46 81
REMARK H PARENT 9 9 66 43 40 54
REMARK Flexibility Score: inf
ROOT
ATOM      1  C   UNL A   1      32.556  30.731  26.870  1.00  0.00     0.274 C 
ENDROOT
BRANCH   1   2
ATOM      2  O   UNL A   1      32.952  29.407  26.463  1.00  0.00    -0.460 OA
BRANCH   2   3
ATOM      3  C   UNL A   1      32.045  28.426  26.732  1.00  0.00     0.333 C 
ATOM      4  O   UNL A   1      31.398  28.370  27.774  1.00  0.00    -0.249 OA
BRANCH   3   5
ATOM      5  C   UNL A   1      31.932  27.380  25.610  1.00  0.00     0.223 C 
BRANCH   5   6
ATOM      6  N   UNL A   1      32.104  27.904  24.248  1.00  0.00    -0.335 N 
ATOM      7  C   UNL A   1      31.451  28.457  23.193  1.00  0.00     0.253 C 
ATOM      8  O   UNL A   1      32.244  28.793  22.300  1.00  0.00    -0.269 OA
ATOM      9  H   UNL A   1      33.056  27.823  24.010  1.00  0.00     0.165 HD
BRANCH   7  10
ATOM     10  C   UNL A   1      30.012  28.727  22.998  1.00  0.00     0.053 A 
ATOM     11  C   UNL A   1      28.573  26.704  23.876  1.00  0.00     0.046 C 
ATOM     12  C   UNL A   1      28.766  28.032  23.267  1.00  0.00    -0.028 A 
ATOM     13  C   UNL A   1      27.657  28.740  22.826  1.00  0.00     0.069 A 
ATOM     14  S   UNL A   1      28.048  30.204  22.074  1.00  0.00    -0.151 S 
ATOM     15  C   UNL A   1      29.703  29.912  22.324  1.00  0.00     0.079 A 
ENDBRANCH   7  10
ENDBRANCH   5   6
BRANCH   5  16
ATOM     16  C   UNL A   1      32.459  25.970  25.854  1.00  0.00    -0.014 A 
ATOM     17  C   UNL A   1      33.800  25.678  25.525  1.00  0.00     0.006 A 
ATOM     18  C   UNL A   1      31.696  24.950  26.436  1.00  0.00     0.006 A 
ATOM     19  C   UNL A   1      34.347  24.412  25.749  1.00  0.00     0.000 A 
ATOM     20  C   UNL A   1      32.244  23.679  26.654  1.00  0.00     0.000 A 
ATOM     21  C   UNL A   1      33.564  23.408  26.306  1.00  0.00     0.000 A 
ENDBRANCH   5  16
ENDBRANCH   3   5
ENDBRANCH   2   3
ENDBRANCH   1   2
BRANCH   1  22
ATOM     22  C   UNL A   1      33.690  31.370  27.670  1.00  0.00     0.275 C 
BRANCH  22  23
ATOM     23  O   UNL A   1      34.658  30.364  28.034  1.00  0.00    -0.458 OA
BRANCH  23  24
ATOM     24  C   UNL A   1      35.592  30.760  28.930  1.00  0.00     0.338 C 
ATOM     25  O   UNL A   1      35.485  31.667  29.749  1.00  0.00    -0.246 OA
BRANCH  24  26
ATOM     26  C   UNL A   1      36.832  29.977  28.771  1.00  0.00     0.060 A 
ATOM     27  C   UNL A   1      37.426  29.346  29.865  1.00  0.00     0.016 A 
ATOM     28  C   UNL A   1      37.477  29.972  27.534  1.00  0.00     0.016 A 
ATOM     29  C   UNL A   1      38.678  28.740  29.742  1.00  0.00     0.010 A 
ATOM     30  C   UNL A   1      38.721  29.344  27.400  1.00  0.00     0.010 A 
ATOM     31  C   UNL A   1      39.348  28.755  28.511  1.00  0.00    -0.014 A 
BRANCH  31  32
ATOM     32  C   UNL A   1      40.756  28.286  28.410  1.00  0.00     0.031 A 
ATOM     33  C   UNL A   1      41.873  29.268  28.641  1.00  0.00     0.074 A 
ATOM     34  C   UNL A   1      41.046  26.999  28.147  1.00  0.00     0.049 A 
ATOM     35  N   UNL A   1      43.160  29.124  28.455  1.00  0.00    -0.248 NA
ATOM     36  C   UNL A   1      41.483  30.589  29.161  1.00  0.00     0.031 C 
ATOM     37  C   UNL A   1      40.067  25.923  27.998  1.00  0.00     0.029 A 
ATOM     38  N   UNL A   1      42.257  26.379  27.963  1.00  0.00    -0.354 N 
ATOM     39  C   UNL A   1      43.731  30.343  28.799  1.00  0.00     0.074 A 
ATOM     40  C   UNL A   1      42.650  31.215  29.208  1.00  0.00     0.031 C 
ATOM     41  C   UNL A   1      40.717  24.773  27.754  1.00  0.00     0.029 A 
ATOM     42  C   UNL A   1      42.151  25.042  27.664  1.00  0.00     0.049 A 
ATOM     43  H   UNL A   1      43.120  26.847  28.038  1.00  0.00     0.167 HD
ATOM     44  C   UNL A   1      45.035  30.707  28.768  1.00  0.00     0.037 A 
ATOM     45  C   UNL A   1      43.098  24.147  27.321  1.00  0.00     0.037 A 
ATOM     46  C   UNL A   1      46.110  29.836  28.376  1.00  0.00     0.049 A 
ATOM     47  C   UNL A   1      44.533  24.592  27.216  1.00  0.00     0.074 A 
ATOM     48  C   UNL A   1      47.462  30.120  28.271  1.00  0.00     0.029 A 
ATOM     49  N   UNL A   1      45.956  28.502  28.030  1.00  0.00    -0.354 N 
ATOM     50  N   UNL A   1      45.055  25.768  27.469  1.00  0.00    -0.248 NA
ATOM     51  C   UNL A   1      45.508  23.591  26.757  1.00  0.00     0.031 C 
ATOM     52  C   UNL A   1      48.118  28.965  27.831  1.00  0.00     0.029 A 
ATOM     53  C   UNL A   1      47.182  27.953  27.699  1.00  0.00     0.049 A 
ATOM     54  H   UNL A   1      45.098  28.017  28.022  1.00  0.00     0.167 HD
ATOM     55  C   UNL A   1      46.415  25.646  27.210  1.00  0.00     0.074 A 
ATOM     56  C   UNL A   1      46.642  24.276  26.800  1.00  0.00     0.031 C 
ATOM     57  C   UNL A   1      47.388  26.585  27.296  1.00  0.00     0.037 A 
BRANCH  44  58
ATOM     58  C   UNL A   1      45.358  32.129  29.119  1.00  0.00     0.057 A 
ATOM     59  C   UNL A   1      45.342  33.154  28.164  1.00  0.00     0.134 A 
ATOM     60  C   UNL A   1      45.686  32.475  30.435  1.00  0.00     0.134 A 
ATOM     61  F   UNL A   1      45.056  32.885  26.881  1.00  0.00    -0.206 F 
ATOM     62  C   UNL A   1      45.665  34.470  28.504  1.00  0.00     0.040 A 
ATOM     63  C   UNL A   1      45.990  33.790  30.792  1.00  0.00     0.040 A 
ATOM     64  F   UNL A   1      45.717  31.541  31.397  1.00  0.00    -0.206 F 
ATOM     65  C   UNL A   1      45.985  34.791  29.823  1.00  0.00     0.006 A 
ENDBRANCH  44  58
BRANCH  45  66
ATOM     66  C   UNL A   1      42.718  22.746  27.002  1.00  0.00     0.057 A 
ATOM     67  C   UNL A   1      42.391  21.834  28.012  1.00  0.00     0.134 A 
ATOM     68  C   UNL A   1      42.693  22.280  25.681  1.00  0.00     0.134 A 
ATOM     69  F   UNL A   1      42.428  22.209  29.299  1.00  0.00    -0.206 F 
ATOM     70  C   UNL A   1      42.059  20.508  27.722  1.00  0.00     0.040 A 
ATOM     71  C   UNL A   1      42.337  20.966  25.374  1.00  0.00     0.040 A 
ATOM     72  F   UNL A   1      43.003  23.102  24.668  1.00  0.00    -0.206 F 
ATOM     73  C   UNL A   1      42.024  20.074  26.398  1.00  0.00     0.006 A 
ENDBRANCH  45  66
BRANCH  57  74
ATOM     74  C   UNL A   1      48.786  26.158  26.961  1.00  0.00     0.057 A 
ATOM     75  C   UNL A   1      49.320  26.332  25.679  1.00  0.00     0.134 A 
ATOM     76  C   UNL A   1      49.617  25.601  27.942  1.00  0.00     0.134 A 
ATOM     77  F   UNL A   1      48.570  26.847  24.694  1.00  0.00    -0.206 F 
ATOM     78  C   UNL A   1      50.630  25.952  25.378  1.00  0.00     0.040 A 
ATOM     79  C   UNL A   1      50.934  25.238  27.658  1.00  0.00     0.040 A 
ATOM     80  F   UNL A   1      49.167  25.417  29.191  1.00  0.00    -0.206 F 
ATOM     81  C   UNL A   1      51.442  25.408  26.372  1.00  0.00     0.006 A 
ENDBRANCH  57  74
ENDBRANCH  31  32
ENDBRANCH  24  26
ENDBRANCH  23  24
ENDBRANCH  22  23
ENDBRANCH   1  22
TORSDOF 14
ENDMDL
MODEL 3
REMARK VINA RESULT:     -10.9      1.730      3.092
REMARK SMILES Cc1cscc1C(=O)N[C@H](C(=O)OCCOC(=O)c1ccc(-c2c3nc(c(-c4c(F)cccc4F)c4ccc([nH]4)c(-c4c(F)cccc4F)c4nc(c(-c5c(F)cccc5F)c5ccc2[nH]5)C=C4)C=C3)cc1)c1ccccc1
REMARK SMILES IDX 14 1 13 2 11 3 12 4 10 5 9 6 7 7 8 8 6 10 1 11 2 12 3 13
REMARK SMILES IDX 4 14 5 15 73 16 74 17 78 18 75 19 77 20 76 21 15 22 16 23
REMARK SMILES IDX 17 24 18 25 19 26 20 27 72 28 21 29 71 30 22 31 23 32 24 33
REMARK SMILES IDX 65 34 25 35 70 36 64 37 66 38 26 39 69 40 63 41 62 42 27 44
REMARK SMILES IDX 53 45 36 46 52 47 37 48 40 49 51 50 67 51 38 52 39 53 50 55
REMARK SMILES IDX 68 56 41 57 28 58 29 59 34 60 30 61 31 62 33 63 35 64 32 65
REMARK SMILES IDX 54 66 55 67 60 68 56 69 57 70 59 71 61 72 58 73 42 74 43 75
REMARK SMILES IDX 48 76 44 77 45 78 47 79 49 80 46 81
REMARK H PARENT 9 9 66 43 40 54
REMARK Flexibility Score: inf
ROOT
ATOM      1  C   UNL A   1      31.655  28.846  27.031  1.00  0.00     0.274 C 
ENDROOT
BRANCH   1   2
ATOM      2  O   UNL A   1      32.430  27.721  26.576  1.00  0.00    -0.460 OA
BRANCH   2   3
ATOM      3  C   UNL A   1      31.709  26.596  26.307  1.00  0.00     0.333 C 
ATOM      4  O   UNL A   1      30.650  26.321  26.865  1.00  0.00    -0.249 OA
BRANCH   3   5
ATOM      5  C   UNL A   1      32.368  25.689  25.253  1.00  0.00     0.223 C 
BRANCH   5   6
ATOM      6  N   UNL A   1      32.620  26.326  23.953  1.00  0.00    -0.335 N 
ATOM      7  C   UNL A   1      32.113  27.193  23.038  1.00  0.00     0.253 C 
ATOM      8  O   UNL A   1      32.920  27.401  22.120  1.00  0.00    -0.269 OA
ATOM      9  H   UNL A   1      33.487  26.001  23.618  1.00  0.00     0.165 HD
BRANCH   7  10
ATOM     10  C   UNL A   1      30.817  27.903  23.013  1.00  0.00     0.053 A 
ATOM     11  C   UNL A   1      28.894  26.334  23.892  1.00  0.00     0.046 C 
ATOM     12  C   UNL A   1      29.442  27.594  23.360  1.00  0.00    -0.028 A 
ATOM     13  C   UNL A   1      28.577  28.644  23.089  1.00  0.00     0.069 A 
ATOM     14  S   UNL A   1      29.344  29.988  22.405  1.00  0.00    -0.151 S 
ATOM     15  C   UNL A   1      30.840  29.186  22.460  1.00  0.00     0.079 A 
ENDBRANCH   7  10
ENDBRANCH   5   6
BRANCH   5  16
ATOM     16  C   UNL A   1      33.397  24.656  25.700  1.00  0.00    -0.014 A 
ATOM     17  C   UNL A   1      32.972  23.574  26.501  1.00  0.00     0.006 A 
ATOM     18  C   UNL A   1      34.744  24.693  25.319  1.00  0.00     0.006 A 
ATOM     19  C   UNL A   1      33.863  22.583  26.921  1.00  0.00     0.000 A 
ATOM     20  C   UNL A   1      35.638  23.701  25.745  1.00  0.00     0.000 A 
ATOM     21  C   UNL A   1      35.200  22.652  26.549  1.00  0.00     0.000 A 
ENDBRANCH   5  16
ENDBRANCH   3   5
ENDBRANCH   2   3
ENDBRANCH   1   2
BRANCH   1  22
ATOM     22  C   UNL A   1      31.832  30.006  26.051  1.00  0.00     0.275 C 
BRANCH  22  23
ATOM     23  O   UNL A   1      33.201  30.461  26.075  1.00  0.00    -0.458 OA
BRANCH  23  24
ATOM     24  C   UNL A   1      33.512  31.297  27.093  1.00  0.00     0.338 C 
ATOM     25  O   UNL A   1      32.849  32.251  27.488  1.00  0.00    -0.246 OA
BRANCH  24  26
ATOM     26  C   UNL A   1      34.825  30.951  27.670  1.00  0.00     0.060 A 
ATOM     27  C   UNL A   1      35.137  29.631  27.997  1.00  0.00     0.016 A 
ATOM     28  C   UNL A   1      35.713  31.975  28.000  1.00  0.00     0.016 A 
ATOM     29  C   UNL A   1      36.315  29.329  28.685  1.00  0.00     0.010 A 
ATOM     30  C   UNL A   1      36.906  31.674  28.667  1.00  0.00     0.010 A 
ATOM     31  C   UNL A   1      37.199  30.353  29.047  1.00  0.00    -0.014 A 
BRANCH  31  32
ATOM     32  C   UNL A   1      38.354  30.075  29.941  1.00  0.00     0.031 A 
ATOM     33  C   UNL A   1      39.467  29.189  29.447  1.00  0.00     0.074 A 
ATOM     34  C   UNL A   1      38.438  30.624  31.166  1.00  0.00     0.049 A 
ATOM     35  N   UNL A   1      40.484  28.688  30.099  1.00  0.00    -0.248 NA
ATOM     36  C   UNL A   1      39.426  28.826  28.021  1.00  0.00     0.031 C 
ATOM     37  C   UNL A   1      37.484  31.576  31.734  1.00  0.00     0.029 A 
ATOM     38  N   UNL A   1      39.378  30.460  32.154  1.00  0.00    -0.354 N 
ATOM     39  C   UNL A   1      41.186  27.923  29.174  1.00  0.00     0.074 A 
ATOM     40  C   UNL A   1      40.479  28.028  27.915  1.00  0.00     0.031 C 
ATOM     41  C   UNL A   1      37.892  31.918  32.968  1.00  0.00     0.029 A 
ATOM     42  C   UNL A   1      39.097  31.162  33.302  1.00  0.00     0.049 A 
ATOM     43  H   UNL A   1      40.177  29.894  32.050  1.00  0.00     0.167 HD
ATOM     44  C   UNL A   1      42.311  27.192  29.359  1.00  0.00     0.037 A 
ATOM     45  C   UNL A   1      39.721  31.165  34.496  1.00  0.00     0.037 A 
ATOM     46  C   UNL A   1      43.022  27.101  30.606  1.00  0.00     0.049 A 
ATOM     47  C   UNL A   1      40.925  30.285  34.705  1.00  0.00     0.074 A 
ATOM     48  C   UNL A   1      44.149  26.355  30.909  1.00  0.00     0.029 A 
ATOM     49  N   UNL A   1      42.677  27.787  31.761  1.00  0.00    -0.354 N 
ATOM     50  N   UNL A   1      41.538  29.504  33.847  1.00  0.00    -0.248 NA
ATOM     51  C   UNL A   1      41.511  30.268  36.053  1.00  0.00     0.031 C 
ATOM     52  C   UNL A   1      44.465  26.566  32.255  1.00  0.00     0.029 A 
ATOM     53  C   UNL A   1      43.558  27.472  32.780  1.00  0.00     0.049 A 
ATOM     54  H   UNL A   1      41.916  28.407  31.842  1.00  0.00     0.167 HD
ATOM     55  C   UNL A   1      42.583  28.915  34.546  1.00  0.00     0.074 A 
ATOM     56  C   UNL A   1      42.535  29.442  35.895  1.00  0.00     0.031 C 
ATOM     57  C   UNL A   1      43.496  28.011  34.115  1.00  0.00     0.037 A 
BRANCH  44  58
ATOM     58  C   UNL A   1      42.807  26.391  28.192  1.00  0.00     0.057 A 
ATOM     59  C   UNL A   1      42.354  25.092  27.934  1.00  0.00     0.134 A 
ATOM     60  C   UNL A   1      43.752  26.934  27.312  1.00  0.00     0.134 A 
ATOM     61  F   UNL A   1      41.465  24.506  28.750  1.00  0.00    -0.206 F 
ATOM     62  C   UNL A   1      42.841  24.352  26.854  1.00  0.00     0.040 A 
ATOM     63  C   UNL A   1      44.230  26.213  26.217  1.00  0.00     0.040 A 
ATOM     64  F   UNL A   1      44.224  28.175  27.503  1.00  0.00    -0.206 F 
ATOM     65  C   UNL A   1      43.779  24.915  25.989  1.00  0.00     0.006 A 
ENDBRANCH  44  58
BRANCH  45  66
ATOM     66  C   UNL A   1      39.193  31.995  35.610  1.00  0.00     0.057 A 
ATOM     67  C   UNL A   1      39.614  33.317  35.795  1.00  0.00     0.134 A 
ATOM     68  C   UNL A   1      38.268  31.480  36.527  1.00  0.00     0.134 A 
ATOM     69  F   UNL A   1      40.522  33.857  34.970  1.00  0.00    -0.206 F 
ATOM     70  C   UNL A   1      39.142  34.093  36.856  1.00  0.00     0.040 A 
ATOM     71  C   UNL A   1      37.766  32.253  37.576  1.00  0.00     0.040 A 
ATOM     72  F   UNL A   1      37.829  30.217  36.410  1.00  0.00    -0.206 F 
ATOM     73  C   UNL A   1      38.209  33.563  37.745  1.00  0.00     0.006 A 
ENDBRANCH  45  66
BRANCH  57  74
ATOM     74  C   UNL A   1      44.528  27.553  35.102  1.00  0.00     0.057 A 
ATOM     75  C   UNL A   1      44.332  26.417  35.896  1.00  0.00     0.134 A 
ATOM     76  C   UNL A   1      45.745  28.235  35.232  1.00  0.00     0.134 A 
ATOM     77  F   UNL A   1      43.183  25.728  35.827  1.00  0.00    -0.206 F 
ATOM     78  C   UNL A   1      45.306  25.982  36.798  1.00  0.00     0.040 A 
ATOM     79  C   UNL A   1      46.733  27.798  36.115  1.00  0.00     0.040 A 
ATOM     80  F   UNL A   1      45.996  29.325  34.494  1.00  0.00    -0.206 F 
ATOM     81  C   UNL A   1      46.512  26.671  36.905  1.00  0.00     0.006 A 
ENDBRANCH  57  74
ENDBRANCH  31  32
ENDBRANCH  24  26
ENDBRANCH  23  24
ENDBRANCH  22  23
ENDBRANCH   1  22
TORSDOF 14
ENDMDL
