MODEL 1
REMARK VINA RESULT:      -9.1      0.000      0.000
REMARK SMILES COc1ccc2cc([C@@H](C)C(=O)OCCOC(=O)c3ccc(-c4c5nc(c(-c6c(F)cccc6F)c6ccc([nH]6)c(-c6c(F)cccc6F)c6nc(c(-c7c(F)cccc7F)c7ccc4[nH]7)C=C6)C=C5)cc3)ccc2c1
REMARK SMILES IDX 14 1 13 2 11 3 12 4 9 5 10 6 8 7 3 8 4 9 76 10 5 11 75 12
REMARK SMILES IDX 6 13 74 14 7 15 73 16 2 17 1 18 15 19 16 20 17 21 18 22
REMARK SMILES IDX 19 23 20 24 72 25 21 26 71 27 22 28 23 29 24 30 65 31 25 32
REMARK SMILES IDX 70 33 64 34 66 35 26 36 69 37 63 38 62 39 27 41 53 42 36 43
REMARK SMILES IDX 52 44 37 45 40 46 51 47 67 48 38 49 39 50 50 52 68 53 41 54
REMARK SMILES IDX 28 55 29 56 34 57 30 58 31 59 33 60 35 61 32 62 54 63 55 64
REMARK SMILES IDX 60 65 56 66 57 67 59 68 61 69 58 70 42 71 43 72 48 73 44 74
REMARK SMILES IDX 45 75 47 76 49 77 46 78
REMARK H PARENT 66 40 40 51
REMARK Flexibility Score: inf
ROOT
ATOM      1  C   UNL A   1      33.676  36.011  32.127  1.00  0.00     0.274 C 
ENDROOT
BRANCH   1   2
ATOM      2  O   UNL A   1      34.062  34.692  32.561  1.00  0.00    -0.462 OA
BRANCH   2   3
ATOM      3  C   UNL A   1      35.362  34.515  32.908  1.00  0.00     0.313 C 
ATOM      4  O   UNL A   1      36.312  34.997  32.296  1.00  0.00    -0.252 OA
BRANCH   3   5
ATOM      5  C   UNL A   1      35.559  33.605  34.115  1.00  0.00     0.126 C 
ATOM      6  C   UNL A   1      35.613  34.444  35.391  1.00  0.00     0.025 C 
BRANCH   5   7
ATOM      7  C   UNL A   1      36.707  32.611  34.024  1.00  0.00    -0.033 A 
ATOM      8  C   UNL A   1      39.854  28.775  32.930  1.00  0.00     0.119 A 
ATOM      9  C   UNL A   1      38.634  28.451  32.342  1.00  0.00     0.047 A 
ATOM     10  C   UNL A   1      39.973  29.935  33.696  1.00  0.00     0.055 A 
ATOM     11  C   UNL A   1      37.547  29.318  32.473  1.00  0.00     0.012 A 
ATOM     12  C   UNL A   1      38.892  30.820  33.826  1.00  0.00    -0.015 A 
ATOM     13  C   UNL A   1      37.666  30.514  33.196  1.00  0.00    -0.018 A 
ATOM     14  C   UNL A   1      39.004  32.008  34.560  1.00  0.00     0.009 A 
ATOM     15  C   UNL A   1      36.592  31.412  33.303  1.00  0.00     0.013 A 
ATOM     16  C   UNL A   1      37.927  32.893  34.654  1.00  0.00     0.005 A 
BRANCH   8  17
ATOM     17  O   UNL A   1      40.970  27.987  32.840  1.00  0.00    -0.497 OA
ATOM     18  C   UNL A   1      41.902  28.212  33.896  1.00  0.00     0.278 C 
ENDBRANCH   8  17
ENDBRANCH   5   7
ENDBRANCH   3   5
ENDBRANCH   2   3
ENDBRANCH   1   2
BRANCH   1  19
ATOM     19  C   UNL A   1      33.140  35.992  30.694  1.00  0.00     0.275 C 
BRANCH  19  20
ATOM     20  O   UNL A   1      32.778  34.659  30.292  1.00  0.00    -0.458 OA
BRANCH  20  21
ATOM     21  C   UNL A   1      33.234  34.283  29.075  1.00  0.00     0.338 C 
ATOM     22  O   UNL A   1      32.702  34.456  27.994  1.00  0.00    -0.246 OA
BRANCH  21  23
ATOM     23  C   UNL A   1      34.575  33.703  29.215  1.00  0.00     0.060 A 
ATOM     24  C   UNL A   1      34.723  32.577  30.028  1.00  0.00     0.016 A 
ATOM     25  C   UNL A   1      35.687  34.308  28.628  1.00  0.00     0.016 A 
ATOM     26  C   UNL A   1      35.988  32.052  30.271  1.00  0.00     0.010 A 
ATOM     27  C   UNL A   1      36.958  33.776  28.866  1.00  0.00     0.010 A 
ATOM     28  C   UNL A   1      37.117  32.654  29.699  1.00  0.00    -0.014 A 
BRANCH  28  29
ATOM     29  C   UNL A   1      38.465  32.128  30.011  1.00  0.00     0.031 A 
ATOM     30  C   UNL A   1      38.898  30.803  29.456  1.00  0.00     0.074 A 
ATOM     31  C   UNL A   1      39.303  32.850  30.776  1.00  0.00     0.049 A 
ATOM     32  N   UNL A   1      40.005  30.139  29.672  1.00  0.00    -0.248 NA
ATOM     33  C   UNL A   1      37.965  30.137  28.534  1.00  0.00     0.031 C 
ATOM     34  C   UNL A   1      39.008  34.167  31.343  1.00  0.00     0.029 A 
ATOM     35  N   UNL A   1      40.574  32.573  31.213  1.00  0.00    -0.354 N 
ATOM     36  C   UNL A   1      39.893  28.969  28.934  1.00  0.00     0.074 A 
ATOM     37  C   UNL A   1      38.608  29.008  28.269  1.00  0.00     0.031 C 
ATOM     38  C   UNL A   1      40.067  34.582  32.059  1.00  0.00     0.029 A 
ATOM     39  C   UNL A   1      41.095  33.546  32.032  1.00  0.00     0.049 A 
ATOM     40  H   UNL A   1      41.065  31.757  30.965  1.00  0.00     0.167 HD
ATOM     41  C   UNL A   1      40.784  27.955  28.821  1.00  0.00     0.037 A 
ATOM     42  C   UNL A   1      42.260  33.581  32.706  1.00  0.00     0.037 A 
ATOM     43  C   UNL A   1      42.069  27.927  29.465  1.00  0.00     0.049 A 
ATOM     44  C   UNL A   1      43.213  32.426  32.593  1.00  0.00     0.074 A 
ATOM     45  C   UNL A   1      43.049  26.952  29.394  1.00  0.00     0.029 A 
ATOM     46  N   UNL A   1      42.556  28.922  30.298  1.00  0.00    -0.354 N 
ATOM     47  N   UNL A   1      43.096  31.324  31.891  1.00  0.00    -0.248 NA
ATOM     48  C   UNL A   1      44.458  32.514  33.369  1.00  0.00     0.031 C 
ATOM     49  C   UNL A   1      44.117  27.344  30.209  1.00  0.00     0.029 A 
ATOM     50  C   UNL A   1      43.814  28.577  30.762  1.00  0.00     0.049 A 
ATOM     51  H   UNL A   1      42.077  29.752  30.527  1.00  0.00     0.167 HD
ATOM     52  C   UNL A   1      44.256  30.598  32.130  1.00  0.00     0.074 A 
ATOM     53  C   UNL A   1      45.070  31.390  33.028  1.00  0.00     0.031 C 
ATOM     54  C   UNL A   1      44.611  29.381  31.651  1.00  0.00     0.037 A 
BRANCH  41  55
ATOM     55  C   UNL A   1      40.388  26.776  27.987  1.00  0.00     0.057 A 
ATOM     56  C   UNL A   1      40.876  26.594  26.687  1.00  0.00     0.134 A 
ATOM     57  C   UNL A   1      39.547  25.785  28.509  1.00  0.00     0.134 A 
ATOM     58  F   UNL A   1      41.674  27.515  26.126  1.00  0.00    -0.206 F 
ATOM     59  C   UNL A   1      40.531  25.471  25.932  1.00  0.00     0.040 A 
ATOM     60  C   UNL A   1      39.211  24.650  27.771  1.00  0.00     0.040 A 
ATOM     61  F   UNL A   1      39.049  25.900  29.750  1.00  0.00    -0.206 F 
ATOM     62  C   UNL A   1      39.703  24.493  26.476  1.00  0.00     0.006 A 
ENDBRANCH  41  55
BRANCH  42  63
ATOM     63  C   UNL A   1      42.578  34.742  33.573  1.00  0.00     0.057 A 
ATOM     64  C   UNL A   1      42.345  34.704  34.951  1.00  0.00     0.134 A 
ATOM     65  C   UNL A   1      43.107  35.922  33.038  1.00  0.00     0.134 A 
ATOM     66  F   UNL A   1      41.817  33.607  35.517  1.00  0.00    -0.206 F 
ATOM     67  C   UNL A   1      42.612  35.804  35.767  1.00  0.00     0.040 A 
ATOM     68  C   UNL A   1      43.401  37.023  33.844  1.00  0.00     0.040 A 
ATOM     69  F   UNL A   1      43.352  36.020  31.723  1.00  0.00    -0.206 F 
ATOM     70  C   UNL A   1      43.147  36.966  35.214  1.00  0.00     0.006 A 
ENDBRANCH  42  63
BRANCH  54  71
ATOM     71  C   UNL A   1      45.946  28.847  32.071  1.00  0.00     0.057 A 
ATOM     72  C   UNL A   1      46.095  28.072  33.228  1.00  0.00     0.134 A 
ATOM     73  C   UNL A   1      47.088  29.084  31.295  1.00  0.00     0.134 A 
ATOM     74  F   UNL A   1      45.042  27.823  34.019  1.00  0.00    -0.206 F 
ATOM     75  C   UNL A   1      47.339  27.564  33.607  1.00  0.00     0.040 A 
ATOM     76  C   UNL A   1      48.332  28.565  31.654  1.00  0.00     0.040 A 
ATOM     77  F   UNL A   1      47.008  29.815  30.173  1.00  0.00    -0.206 F 
ATOM     78  C   UNL A   1      48.460  27.806  32.816  1.00  0.00     0.006 A 
ENDBRANCH  54  71
ENDBRANCH  28  29
ENDBRANCH  21  23
ENDBRANCH  20  21
ENDBRANCH  19  20
ENDBRANCH   1  19
TORSDOF 13
ENDMDL
MODEL 2
REMARK VINA RESULT:      -8.9      0.414      6.441
REMARK SMILES COc1ccc2cc([C@@H](C)C(=O)OCCOC(=O)c3ccc(-c4c5nc(c(-c6c(F)cccc6F)c6ccc([nH]6)c(-c6c(F)cccc6F)c6nc(c(-c7c(F)cccc7F)c7ccc4[nH]7)C=C6)C=C5)cc3)ccc2c1
REMARK SMILES IDX 14 1 13 2 11 3 12 4 9 5 10 6 8 7 3 8 4 9 76 10 5 11 75 12
REMARK SMILES IDX 6 13 74 14 7 15 73 16 2 17 1 18 15 19 16 20 17 21 18 22
REMARK SMILES IDX 19 23 20 24 72 25 21 26 71 27 22 28 23 29 24 30 65 31 25 32
REMARK SMILES IDX 70 33 64 34 66 35 26 36 69 37 63 38 62 39 27 41 53 42 36 43
REMARK SMILES IDX 52 44 37 45 40 46 51 47 67 48 38 49 39 50 50 52 68 53 41 54
REMARK SMILES IDX 28 55 29 56 34 57 30 58 31 59 33 60 35 61 32 62 54 63 55 64
REMARK SMILES IDX 60 65 56 66 57 67 59 68 61 69 58 70 42 71 43 72 48 73 44 74
REMARK SMILES IDX 45 75 47 76 49 77 46 78
REMARK H PARENT 66 40 40 51
REMARK Flexibility Score: inf
ROOT
ATOM      1  C   UNL A   1      33.612  36.149  32.234  1.00  0.00     0.274 C 
ENDROOT
BRANCH   1   2
ATOM      2  O   UNL A   1      34.057  34.830  32.604  1.00  0.00    -0.462 OA
BRANCH   2   3
ATOM      3  C   UNL A   1      35.321  34.719  33.085  1.00  0.00     0.313 C 
ATOM      4  O   UNL A   1      36.289  35.323  32.630  1.00  0.00    -0.252 OA
BRANCH   3   5
ATOM      5  C   UNL A   1      35.460  33.723  34.230  1.00  0.00     0.126 C 
ATOM      6  C   UNL A   1      35.455  34.466  35.566  1.00  0.00     0.025 C 
BRANCH   5   7
ATOM      7  C   UNL A   1      36.608  32.733  34.121  1.00  0.00    -0.033 A 
ATOM      8  C   UNL A   1      39.758  28.920  32.957  1.00  0.00     0.119 A 
ATOM      9  C   UNL A   1      38.538  28.604  32.364  1.00  0.00     0.047 A 
ATOM     10  C   UNL A   1      39.877  30.066  33.743  1.00  0.00     0.055 A 
ATOM     11  C   UNL A   1      37.451  29.468  32.511  1.00  0.00     0.012 A 
ATOM     12  C   UNL A   1      38.795  30.947  33.889  1.00  0.00    -0.015 A 
ATOM     13  C   UNL A   1      37.569  30.651  33.256  1.00  0.00    -0.018 A 
ATOM     14  C   UNL A   1      38.906  32.122  34.645  1.00  0.00     0.009 A 
ATOM     15  C   UNL A   1      36.493  31.546  33.379  1.00  0.00     0.013 A 
ATOM     16  C   UNL A   1      37.829  33.004  34.755  1.00  0.00     0.005 A 
BRANCH   8  17
ATOM     17  O   UNL A   1      40.875  28.135  32.852  1.00  0.00    -0.497 OA
ATOM     18  C   UNL A   1      41.955  28.583  33.669  1.00  0.00     0.278 C 
ENDBRANCH   8  17
ENDBRANCH   5   7
ENDBRANCH   3   5
ENDBRANCH   2   3
ENDBRANCH   1   2
BRANCH   1  19
ATOM     19  C   UNL A   1      33.162  36.197  30.772  1.00  0.00     0.275 C 
BRANCH  19  20
ATOM     20  O   UNL A   1      32.718  34.904  30.323  1.00  0.00    -0.458 OA
BRANCH  20  21
ATOM     21  C   UNL A   1      33.155  34.542  29.095  1.00  0.00     0.338 C 
ATOM     22  O   UNL A   1      32.634  34.774  28.020  1.00  0.00    -0.246 OA
BRANCH  21  23
ATOM     23  C   UNL A   1      34.466  33.893  29.217  1.00  0.00     0.060 A 
ATOM     24  C   UNL A   1      34.571  32.774  30.046  1.00  0.00     0.016 A 
ATOM     25  C   UNL A   1      35.596  34.427  28.595  1.00  0.00     0.016 A 
ATOM     26  C   UNL A   1      35.812  32.186  30.271  1.00  0.00     0.010 A 
ATOM     27  C   UNL A   1      36.841  33.831  28.816  1.00  0.00     0.010 A 
ATOM     28  C   UNL A   1      36.958  32.716  29.665  1.00  0.00    -0.014 A 
BRANCH  28  29
ATOM     29  C   UNL A   1      38.283  32.123  29.959  1.00  0.00     0.031 A 
ATOM     30  C   UNL A   1      39.268  32.874  30.805  1.00  0.00     0.074 A 
ATOM     31  C   UNL A   1      38.589  30.903  29.481  1.00  0.00     0.049 A 
ATOM     32  N   UNL A   1      40.500  32.559  31.114  1.00  0.00    -0.248 NA
ATOM     33  C   UNL A   1      38.807  34.146  31.383  1.00  0.00     0.031 C 
ATOM     34  C   UNL A   1      37.700  30.062  28.678  1.00  0.00     0.029 A 
ATOM     35  N   UNL A   1      39.737  30.162  29.598  1.00  0.00    -0.354 N 
ATOM     36  C   UNL A   1      40.970  33.602  31.901  1.00  0.00     0.074 A 
ATOM     37  C   UNL A   1      39.893  34.564  32.018  1.00  0.00     0.031 C 
ATOM     38  C   UNL A   1      38.339  28.922  28.369  1.00  0.00     0.029 A 
ATOM     39  C   UNL A   1      39.691  28.969  28.919  1.00  0.00     0.049 A 
ATOM     40  H   UNL A   1      40.519  30.457  30.119  1.00  0.00     0.167 HD
ATOM     41  C   UNL A   1      42.189  33.743  32.474  1.00  0.00     0.037 A 
ATOM     42  C   UNL A   1      40.642  28.035  28.738  1.00  0.00     0.037 A 
ATOM     43  C   UNL A   1      43.249  32.777  32.375  1.00  0.00     0.049 A 
ATOM     44  C   UNL A   1      41.998  28.234  29.355  1.00  0.00     0.074 A 
ATOM     45  C   UNL A   1      44.513  32.822  32.939  1.00  0.00     0.029 A 
ATOM     46  N   UNL A   1      43.171  31.588  31.666  1.00  0.00    -0.354 N 
ATOM     47  N   UNL A   1      42.430  29.224  30.098  1.00  0.00    -0.248 NA
ATOM     48  C   UNL A   1      43.001  27.189  29.103  1.00  0.00     0.031 C 
ATOM     49  C   UNL A   1      45.209  31.674  32.545  1.00  0.00     0.029 A 
ATOM     50  C   UNL A   1      44.368  30.899  31.763  1.00  0.00     0.049 A 
ATOM     51  H   UNL A   1      42.380  31.280  31.166  1.00  0.00     0.167 HD
ATOM     52  C   UNL A   1      43.747  28.915  30.413  1.00  0.00     0.074 A 
ATOM     53  C   UNL A   1      44.038  27.637  29.795  1.00  0.00     0.031 C 
ATOM     54  C   UNL A   1      44.636  29.628  31.146  1.00  0.00     0.037 A 
BRANCH  41  55
ATOM     55  C   UNL A   1      42.450  35.001  33.243  1.00  0.00     0.057 A 
ATOM     56  C   UNL A   1      42.123  35.119  34.599  1.00  0.00     0.134 A 
ATOM     57  C   UNL A   1      43.084  36.089  32.630  1.00  0.00     0.134 A 
ATOM     58  F   UNL A   1      41.502  34.117  35.238  1.00  0.00    -0.206 F 
ATOM     59  C   UNL A   1      42.407  36.283  35.316  1.00  0.00     0.040 A 
ATOM     60  C   UNL A   1      43.390  37.250  33.341  1.00  0.00     0.040 A 
ATOM     61  F   UNL A   1      43.426  36.037  31.334  1.00  0.00    -0.206 F 
ATOM     62  C   UNL A   1      43.048  37.349  34.689  1.00  0.00     0.006 A 
ENDBRANCH  41  55
BRANCH  42  63
ATOM     63  C   UNL A   1      40.356  26.836  27.913  1.00  0.00     0.057 A 
ATOM     64  C   UNL A   1      39.590  25.777  28.410  1.00  0.00     0.134 A 
ATOM     65  C   UNL A   1      40.860  26.715  26.612  1.00  0.00     0.134 A 
ATOM     66  F   UNL A   1      39.101  25.827  29.659  1.00  0.00    -0.206 F 
ATOM     67  C   UNL A   1      39.345  24.633  27.650  1.00  0.00     0.040 A 
ATOM     68  C   UNL A   1      40.605  25.587  25.832  1.00  0.00     0.040 A 
ATOM     69  F   UNL A   1      41.603  27.697  26.080  1.00  0.00    -0.206 F 
ATOM     70  C   UNL A   1      39.850  24.538  26.354  1.00  0.00     0.006 A 
ENDBRANCH  42  63
BRANCH  54  71
ATOM     71  C   UNL A   1      45.997  29.029  31.336  1.00  0.00     0.057 A 
ATOM     72  C   UNL A   1      47.057  29.327  30.472  1.00  0.00     0.134 A 
ATOM     73  C   UNL A   1      46.256  28.172  32.413  1.00  0.00     0.134 A 
ATOM     74  F   UNL A   1      46.867  30.130  29.415  1.00  0.00    -0.206 F 
ATOM     75  C   UNL A   1      48.326  28.779  30.662  1.00  0.00     0.040 A 
ATOM     76  C   UNL A   1      47.525  27.634  32.625  1.00  0.00     0.040 A 
ATOM     77  F   UNL A   1      45.282  27.853  33.280  1.00  0.00    -0.206 F 
ATOM     78  C   UNL A   1      48.564  27.934  31.745  1.00  0.00     0.006 A 
ENDBRANCH  54  71
ENDBRANCH  28  29
ENDBRANCH  21  23
ENDBRANCH  20  21
ENDBRANCH  19  20
ENDBRANCH   1  19
TORSDOF 13
ENDMDL
MODEL 3
REMARK VINA RESULT:      -8.3      4.218     10.174
REMARK SMILES COc1ccc2cc([C@@H](C)C(=O)OCCOC(=O)c3ccc(-c4c5nc(c(-c6c(F)cccc6F)c6ccc([nH]6)c(-c6c(F)cccc6F)c6nc(c(-c7c(F)cccc7F)c7ccc4[nH]7)C=C6)C=C5)cc3)ccc2c1
REMARK SMILES IDX 14 1 13 2 11 3 12 4 9 5 10 6 8 7 3 8 4 9 76 10 5 11 75 12
REMARK SMILES IDX 6 13 74 14 7 15 73 16 2 17 1 18 15 19 16 20 17 21 18 22
REMARK SMILES IDX 19 23 20 24 72 25 21 26 71 27 22 28 23 29 24 30 65 31 25 32
REMARK SMILES IDX 70 33 64 34 66 35 26 36 69 37 63 38 62 39 27 41 53 42 36 43
REMARK SMILES IDX 52 44 37 45 40 46 51 47 67 48 38 49 39 50 50 52 68 53 41 54
REMARK SMILES IDX 28 55 29 56 34 57 30 58 31 59 33 60 35 61 32 62 54 63 55 64
REMARK SMILES IDX 60 65 56 66 57 67 59 68 61 69 58 70 42 71 43 72 48 73 44 74
REMARK SMILES IDX 45 75 47 76 49 77 46 78
REMARK H PARENT 66 40 40 51
REMARK Flexibility Score: inf
ROOT
ATOM      1  C   UNL A   1      44.466  21.766  25.003  1.00  0.00     0.274 C 
ENDROOT
BRANCH   1   2
ATOM      2  O   UNL A   1      43.466  21.863  26.036  1.00  0.00    -0.462 OA
BRANCH   2   3
ATOM      3  C   UNL A   1      42.563  20.852  26.114  1.00  0.00     0.313 C 
ATOM      4  O   UNL A   1      42.560  19.870  25.376  1.00  0.00    -0.252 OA
BRANCH   3   5
ATOM      5  C   UNL A   1      41.496  21.061  27.181  1.00  0.00     0.126 C 
ATOM      6  C   UNL A   1      41.153  19.725  27.839  1.00  0.00     0.025 C 
BRANCH   5   7
ATOM      7  C   UNL A   1      40.257  21.830  26.747  1.00  0.00    -0.033 A 
ATOM      8  C   UNL A   1      35.808  23.373  24.839  1.00  0.00     0.119 A 
ATOM      9  C   UNL A   1      36.043  22.112  24.294  1.00  0.00     0.047 A 
ATOM     10  C   UNL A   1      36.762  23.964  25.668  1.00  0.00     0.055 A 
ATOM     11  C   UNL A   1      37.209  21.419  24.626  1.00  0.00     0.012 A 
ATOM     12  C   UNL A   1      37.932  23.273  26.018  1.00  0.00    -0.015 A 
ATOM     13  C   UNL A   1      38.154  21.979  25.500  1.00  0.00    -0.018 A 
ATOM     14  C   UNL A   1      38.883  23.836  26.878  1.00  0.00     0.009 A 
ATOM     15  C   UNL A   1      39.312  21.275  25.871  1.00  0.00     0.013 A 
ATOM     16  C   UNL A   1      40.028  23.122  27.241  1.00  0.00     0.005 A 
BRANCH   8  17
ATOM     17  O   UNL A   1      34.688  24.113  24.574  1.00  0.00    -0.497 OA
ATOM     18  C   UNL A   1      34.070  24.635  25.749  1.00  0.00     0.278 C 
ENDBRANCH   8  17
ENDBRANCH   5   7
ENDBRANCH   3   5
ENDBRANCH   2   3
ENDBRANCH   1   2
BRANCH   1  19
ATOM     19  C   UNL A   1      44.487  23.021  24.128  1.00  0.00     0.275 C 
BRANCH  19  20
ATOM     20  O   UNL A   1      43.722  24.084  24.725  1.00  0.00    -0.458 OA
BRANCH  20  21
ATOM     21  C   UNL A   1      44.444  25.158  25.120  1.00  0.00     0.338 C 
ATOM     22  O   UNL A   1      45.469  25.590  24.626  1.00  0.00    -0.246 OA
BRANCH  21  23
ATOM     23  C   UNL A   1      43.740  25.842  26.212  1.00  0.00     0.060 A 
ATOM     24  C   UNL A   1      44.031  27.189  26.438  1.00  0.00     0.016 A 
ATOM     25  C   UNL A   1      42.874  25.149  27.057  1.00  0.00     0.016 A 
ATOM     26  C   UNL A   1      43.466  27.853  27.522  1.00  0.00     0.010 A 
ATOM     27  C   UNL A   1      42.300  25.818  28.143  1.00  0.00     0.010 A 
ATOM     28  C   UNL A   1      42.602  27.169  28.389  1.00  0.00    -0.014 A 
BRANCH  28  29
ATOM     29  C   UNL A   1      42.053  27.865  29.575  1.00  0.00     0.031 A 
ATOM     30  C   UNL A   1      40.799  28.679  29.451  1.00  0.00     0.074 A 
ATOM     31  C   UNL A   1      42.671  27.746  30.764  1.00  0.00     0.049 A 
ATOM     32  N   UNL A   1      40.202  29.419  30.350  1.00  0.00    -0.248 NA
ATOM     33  C   UNL A   1      40.125  28.657  28.143  1.00  0.00     0.031 C 
ATOM     34  C   UNL A   1      43.875  26.954  31.016  1.00  0.00     0.029 A 
ATOM     35  N   UNL A   1      42.372  28.300  31.983  1.00  0.00    -0.354 N 
ATOM     36  C   UNL A   1      39.098  29.969  29.713  1.00  0.00     0.074 A 
ATOM     37  C   UNL A   1      39.109  29.484  28.349  1.00  0.00     0.031 C 
ATOM     38  C   UNL A   1      44.216  27.076  32.310  1.00  0.00     0.029 A 
ATOM     39  C   UNL A   1      43.280  27.984  32.965  1.00  0.00     0.049 A 
ATOM     40  H   UNL A   1      41.584  28.868  32.139  1.00  0.00     0.167 HD
ATOM     41  C   UNL A   1      38.160  30.802  30.223  1.00  0.00     0.037 A 
ATOM     42  C   UNL A   1      43.359  28.405  34.241  1.00  0.00     0.037 A 
ATOM     43  C   UNL A   1      38.138  31.266  31.584  1.00  0.00     0.049 A 
ATOM     44  C   UNL A   1      42.326  29.359  34.770  1.00  0.00     0.074 A 
ATOM     45  C   UNL A   1      37.215  32.096  32.199  1.00  0.00     0.029 A 
ATOM     46  N   UNL A   1      39.082  30.938  32.545  1.00  0.00    -0.354 N 
ATOM     47  N   UNL A   1      41.286  29.872  34.158  1.00  0.00    -0.248 NA
ATOM     48  C   UNL A   1      42.481  29.797  36.164  1.00  0.00     0.031 C 
ATOM     49  C   UNL A   1      37.619  32.294  33.524  1.00  0.00     0.029 A 
ATOM     50  C   UNL A   1      38.774  31.561  33.742  1.00  0.00     0.049 A 
ATOM     51  H   UNL A   1      39.857  30.348  32.397  1.00  0.00     0.167 HD
ATOM     52  C   UNL A   1      40.655  30.680  35.096  1.00  0.00     0.074 A 
ATOM     53  C   UNL A   1      41.420  30.577  36.322  1.00  0.00     0.031 C 
ATOM     54  C   UNL A   1      39.545  31.443  34.952  1.00  0.00     0.037 A 
BRANCH  41  55
ATOM     55  C   UNL A   1      37.089  31.287  29.296  1.00  0.00     0.057 A 
ATOM     56  C   UNL A   1      35.993  30.487  28.951  1.00  0.00     0.134 A 
ATOM     57  C   UNL A   1      37.129  32.589  28.782  1.00  0.00     0.134 A 
ATOM     58  F   UNL A   1      35.904  29.226  29.400  1.00  0.00    -0.206 F 
ATOM     59  C   UNL A   1      34.979  30.964  28.117  1.00  0.00     0.040 A 
ATOM     60  C   UNL A   1      36.114  33.082  27.963  1.00  0.00     0.040 A 
ATOM     61  F   UNL A   1      38.152  33.407  29.078  1.00  0.00    -0.206 F 
ATOM     62  C   UNL A   1      35.035  32.266  27.626  1.00  0.00     0.006 A 
ENDBRANCH  41  55
BRANCH  42  63
ATOM     63  C   UNL A   1      44.478  27.948  35.102  1.00  0.00     0.057 A 
ATOM     64  C   UNL A   1      44.383  26.771  35.852  1.00  0.00     0.134 A 
ATOM     65  C   UNL A   1      45.660  28.691  35.209  1.00  0.00     0.134 A 
ATOM     66  F   UNL A   1      43.265  26.031  35.808  1.00  0.00    -0.206 F 
ATOM     67  C   UNL A   1      45.419  26.354  36.689  1.00  0.00     0.040 A 
ATOM     68  C   UNL A   1      46.713  28.275  36.025  1.00  0.00     0.040 A 
ATOM     69  F   UNL A   1      45.809  29.829  34.516  1.00  0.00    -0.206 F 
ATOM     70  C   UNL A   1      46.590  27.105  36.773  1.00  0.00     0.006 A 
ENDBRANCH  42  63
BRANCH  54  71
ATOM     71  C   UNL A   1      39.081  32.204  36.156  1.00  0.00     0.057 A 
ATOM     72  C   UNL A   1      39.486  33.523  36.391  1.00  0.00     0.134 A 
ATOM     73  C   UNL A   1      38.195  31.622  37.072  1.00  0.00     0.134 A 
ATOM     74  F   UNL A   1      40.344  34.129  35.558  1.00  0.00    -0.206 F 
ATOM     75  C   UNL A   1      39.039  34.233  37.507  1.00  0.00     0.040 A 
ATOM     76  C   UNL A   1      37.726  32.328  38.180  1.00  0.00     0.040 A 
ATOM     77  F   UNL A   1      37.766  30.362  36.898  1.00  0.00    -0.206 F 
ATOM     78  C   UNL A   1      38.152  33.637  38.402  1.00  0.00     0.006 A 
ENDBRANCH  54  71
ENDBRANCH  28  29
ENDBRANCH  21  23
ENDBRANCH  20  21
ENDBRANCH  19  20
ENDBRANCH   1  19
TORSDOF 13
ENDMDL
