MODEL 1
REMARK VINA RESULT:     -11.7      0.000      0.000
REMARK SMILES COc1cccc([C@@H]2CC(c3cccc(C)c3)=NN2C(=O)CCC(=O)OCCOC(=O)c2ccc(-c3c4nc(c(-c5c(F)cccc5F)c5ccc([nH]5)c(-c5c(F)cccc5F)c5nc(c(-c6c(F)cccc6F)c6ccc3[nH]6)C=C5)C=C4)cc2)c1
REMARK SMILES IDX 26 1 24 2 25 3 23 4 22 5 20 6 21 7 19 8 8 9 9 10 10 11 18 12
REMARK SMILES IDX 7 13 3 14 4 15 86 16 5 17 6 18 2 19 1 20 11 21 12 22 17 23
REMARK SMILES IDX 13 24 15 25 14 26 16 27 27 28 28 29 29 30 30 31 31 32 32 33
REMARK SMILES IDX 33 34 85 35 34 36 84 37 35 38 36 39 37 40 78 41 38 42 83 43
REMARK SMILES IDX 77 44 79 45 39 46 82 47 76 48 75 49 40 51 66 52 49 53 65 54
REMARK SMILES IDX 50 55 53 56 64 57 80 58 51 59 52 60 63 62 81 63 54 64 41 65
REMARK SMILES IDX 42 66 47 67 43 68 44 69 46 70 48 71 45 72 67 73 68 74 73 75
REMARK SMILES IDX 69 76 70 77 72 78 74 79 71 80 55 81 56 82 61 83 57 84 58 85
REMARK SMILES IDX 60 86 62 87 59 88
REMARK H PARENT 79 50 53 61
REMARK Flexibility Score: inf
ROOT
ATOM      1  O   UNL A   1      35.093  21.356  26.266  1.00  0.00    -0.462 OA
ENDROOT
BRANCH   1   2
ATOM      2  C   UNL A   1      33.838  21.857  26.122  1.00  0.00     0.306 C 
ATOM      3  O   UNL A   1      32.955  21.327  25.456  1.00  0.00    -0.252 OA
BRANCH   2   4
ATOM      4  C   UNL A   1      33.642  23.179  26.823  1.00  0.00     0.132 C 
BRANCH   4   5
ATOM      5  C   UNL A   1      32.744  24.197  26.116  1.00  0.00     0.114 C 
BRANCH   5   6
ATOM      6  C   UNL A   1      33.567  25.330  25.545  1.00  0.00     0.243 C 
ATOM      7  O   UNL A   1      34.623  25.042  24.968  1.00  0.00    -0.273 OA
BRANCH   6   8
ATOM      8  N   UNL A   1      33.150  26.638  25.755  1.00  0.00    -0.225 N 
ATOM      9  C   UNL A   1      31.832  27.162  26.164  1.00  0.00     0.147 C 
ATOM     10  C   UNL A   1      32.139  28.511  26.803  1.00  0.00     0.091 C 
ATOM     11  C   UNL A   1      33.619  28.549  26.612  1.00  0.00     0.071 C 
ATOM     12  N   UNL A   1      34.151  27.562  25.969  1.00  0.00    -0.174 NA
BRANCH   9  13
ATOM     13  C   UNL A   1      30.764  27.299  25.088  1.00  0.00    -0.019 A 
ATOM     14  C   UNL A   1      29.768  28.690  23.323  1.00  0.00     0.119 A 
ATOM     15  C   UNL A   1      28.797  27.709  23.131  1.00  0.00     0.046 A 
ATOM     16  C   UNL A   1      30.771  28.451  24.260  1.00  0.00     0.052 A 
ATOM     17  C   UNL A   1      28.817  26.527  23.876  1.00  0.00     0.004 A 
ATOM     18  C   UNL A   1      29.786  26.327  24.861  1.00  0.00     0.006 A 
BRANCH  14  19
ATOM     19  O   UNL A   1      29.597  29.811  22.565  1.00  0.00    -0.497 OA
ATOM     20  C   UNL A   1      28.380  30.019  21.861  1.00  0.00     0.278 C 
ENDBRANCH  14  19
ENDBRANCH   9  13
BRANCH  11  21
ATOM     21  C   UNL A   1      34.414  29.625  27.197  1.00  0.00    -0.002 A 
ATOM     22  C   UNL A   1      35.712  29.370  27.626  1.00  0.00     0.010 A 
ATOM     23  C   UNL A   1      33.812  30.872  27.397  1.00  0.00     0.013 A 
ATOM     24  C   UNL A   1      36.435  30.394  28.233  1.00  0.00     0.001 A 
ATOM     25  C   UNL A   1      34.526  31.891  28.031  1.00  0.00    -0.050 A 
ATOM     26  C   UNL A   1      35.846  31.646  28.433  1.00  0.00     0.003 A 
ATOM     27  C   UNL A   1      33.886  33.221  28.304  1.00  0.00     0.044 C 
ENDBRANCH  11  21
ENDBRANCH   6   8
ENDBRANCH   5   6
ENDBRANCH   4   5
ENDBRANCH   2   4
ENDBRANCH   1   2
BRANCH   1  28
ATOM     28  C   UNL A   1      35.643  20.699  25.104  1.00  0.00     0.274 C 
BRANCH  28  29
ATOM     29  C   UNL A   1      37.170  20.806  25.023  1.00  0.00     0.275 C 
BRANCH  29  30
ATOM     30  O   UNL A   1      37.682  21.958  25.721  1.00  0.00    -0.458 OA
BRANCH  30  31
ATOM     31  C   UNL A   1      38.956  21.807  26.126  1.00  0.00     0.338 C 
ATOM     32  O   UNL A   1      39.578  20.757  26.168  1.00  0.00    -0.246 OA
BRANCH  31  33
ATOM     33  C   UNL A   1      39.563  23.000  26.674  1.00  0.00     0.060 A 
ATOM     34  C   UNL A   1      40.659  22.950  27.529  1.00  0.00     0.016 A 
ATOM     35  C   UNL A   1      38.918  24.203  26.376  1.00  0.00     0.016 A 
ATOM     36  C   UNL A   1      41.168  24.149  28.016  1.00  0.00     0.010 A 
ATOM     37  C   UNL A   1      39.472  25.395  26.789  1.00  0.00     0.010 A 
ATOM     38  C   UNL A   1      40.629  25.375  27.571  1.00  0.00    -0.014 A 
BRANCH  38  39
ATOM     39  C   UNL A   1      41.410  26.624  27.678  1.00  0.00     0.031 A 
ATOM     40  C   UNL A   1      42.768  26.761  27.063  1.00  0.00     0.074 A 
ATOM     41  C   UNL A   1      40.928  27.552  28.528  1.00  0.00     0.049 A 
ATOM     42  N   UNL A   1      43.611  27.756  27.163  1.00  0.00    -0.248 NA
ATOM     43  C   UNL A   1      43.276  25.617  26.290  1.00  0.00     0.031 C 
ATOM     44  C   UNL A   1      39.698  27.411  29.321  1.00  0.00     0.029 A 
ATOM     45  N   UNL A   1      41.404  28.782  28.883  1.00  0.00    -0.354 N 
ATOM     46  C   UNL A   1      44.765  27.340  26.514  1.00  0.00     0.074 A 
ATOM     47  C   UNL A   1      44.524  25.994  26.040  1.00  0.00     0.031 C 
ATOM     48  C   UNL A   1      39.482  28.537  30.012  1.00  0.00     0.029 A 
ATOM     49  C   UNL A   1      40.577  29.457  29.748  1.00  0.00     0.049 A 
ATOM     50  H   UNL A   1      42.255  29.150  28.552  1.00  0.00     0.167 HD
ATOM     51  C   UNL A   1      45.913  28.034  26.333  1.00  0.00     0.037 A 
ATOM     52  C   UNL A   1      40.685  30.692  30.264  1.00  0.00     0.037 A 
ATOM     53  C   UNL A   1      46.092  29.397  26.768  1.00  0.00     0.049 A 
ATOM     54  C   UNL A   1      41.875  31.509  29.876  1.00  0.00     0.074 A 
ATOM     55  C   UNL A   1      47.153  30.251  26.526  1.00  0.00     0.029 A 
ATOM     56  N   UNL A   1      45.172  30.106  27.529  1.00  0.00    -0.354 N 
ATOM     57  N   UNL A   1      42.911  31.153  29.157  1.00  0.00    -0.248 NA
ATOM     58  C   UNL A   1      41.911  32.894  30.354  1.00  0.00     0.031 C 
ATOM     59  C   UNL A   1      46.883  31.470  27.157  1.00  0.00     0.029 A 
ATOM     60  C   UNL A   1      45.642  31.386  27.766  1.00  0.00     0.049 A 
ATOM     61  H   UNL A   1      44.314  29.751  27.852  1.00  0.00     0.167 HD
ATOM     62  C   UNL A   1      43.727  32.269  29.093  1.00  0.00     0.074 A 
ATOM     63  C   UNL A   1      43.045  33.324  29.820  1.00  0.00     0.031 C 
ATOM     64  C   UNL A   1      44.937  32.407  28.500  1.00  0.00     0.037 A 
BRANCH  51  65
ATOM     65  C   UNL A   1      47.050  27.352  25.627  1.00  0.00     0.057 A 
ATOM     66  C   UNL A   1      47.259  27.493  24.249  1.00  0.00     0.134 A 
ATOM     67  C   UNL A   1      47.982  26.588  26.344  1.00  0.00     0.134 A 
ATOM     68  F   UNL A   1      46.402  28.204  23.501  1.00  0.00    -0.206 F 
ATOM     69  C   UNL A   1      48.339  26.883  23.606  1.00  0.00     0.040 A 
ATOM     70  C   UNL A   1      49.079  25.994  25.716  1.00  0.00     0.040 A 
ATOM     71  F   UNL A   1      47.849  26.416  27.667  1.00  0.00    -0.206 F 
ATOM     72  C   UNL A   1      49.257  26.137  24.342  1.00  0.00     0.006 A 
ENDBRANCH  51  65
BRANCH  52  73
ATOM     73  C   UNL A   1      39.599  31.225  31.119  1.00  0.00     0.057 A 
ATOM     74  C   UNL A   1      39.513  30.864  32.469  1.00  0.00     0.134 A 
ATOM     75  C   UNL A   1      38.675  32.160  30.639  1.00  0.00     0.134 A 
ATOM     76  F   UNL A   1      40.376  29.976  32.986  1.00  0.00    -0.206 F 
ATOM     77  C   UNL A   1      38.537  31.402  33.308  1.00  0.00     0.040 A 
ATOM     78  C   UNL A   1      37.708  32.723  31.473  1.00  0.00     0.040 A 
ATOM     79  F   UNL A   1      38.727  32.572  29.364  1.00  0.00    -0.206 F 
ATOM     80  C   UNL A   1      37.634  32.340  32.811  1.00  0.00     0.006 A 
ENDBRANCH  52  73
BRANCH  64  81
ATOM     81  C   UNL A   1      45.584  33.749  28.625  1.00  0.00     0.057 A 
ATOM     82  C   UNL A   1      45.374  34.750  27.669  1.00  0.00     0.134 A 
ATOM     83  C   UNL A   1      46.407  34.046  29.716  1.00  0.00     0.134 A 
ATOM     84  F   UNL A   1      44.608  34.514  26.593  1.00  0.00    -0.206 F 
ATOM     85  C   UNL A   1      45.981  36.000  27.784  1.00  0.00     0.040 A 
ATOM     86  C   UNL A   1      47.002  35.299  29.854  1.00  0.00     0.040 A 
ATOM     87  F   UNL A   1      46.642  33.126  30.664  1.00  0.00    -0.206 F 
ATOM     88  C   UNL A   1      46.794  36.278  28.882  1.00  0.00     0.006 A 
ENDBRANCH  64  81
ENDBRANCH  38  39
ENDBRANCH  31  33
ENDBRANCH  30  31
ENDBRANCH  29  30
ENDBRANCH  28  29
ENDBRANCH   1  28
TORSDOF 17
ENDMDL
MODEL 2
REMARK VINA RESULT:     -11.7      1.266      3.452
REMARK SMILES COc1cccc([C@@H]2CC(c3cccc(C)c3)=NN2C(=O)CCC(=O)OCCOC(=O)c2ccc(-c3c4nc(c(-c5c(F)cccc5F)c5ccc([nH]5)c(-c5c(F)cccc5F)c5nc(c(-c6c(F)cccc6F)c6ccc3[nH]6)C=C5)C=C4)cc2)c1
REMARK SMILES IDX 26 1 24 2 25 3 23 4 22 5 20 6 21 7 19 8 8 9 9 10 10 11 18 12
REMARK SMILES IDX 7 13 3 14 4 15 86 16 5 17 6 18 2 19 1 20 11 21 12 22 17 23
REMARK SMILES IDX 13 24 15 25 14 26 16 27 27 28 28 29 29 30 30 31 31 32 32 33
REMARK SMILES IDX 33 34 85 35 34 36 84 37 35 38 36 39 37 40 78 41 38 42 83 43
REMARK SMILES IDX 77 44 79 45 39 46 82 47 76 48 75 49 40 51 66 52 49 53 65 54
REMARK SMILES IDX 50 55 53 56 64 57 80 58 51 59 52 60 63 62 81 63 54 64 41 65
REMARK SMILES IDX 42 66 47 67 43 68 44 69 46 70 48 71 45 72 67 73 68 74 73 75
REMARK SMILES IDX 69 76 70 77 72 78 74 79 71 80 55 81 56 82 61 83 57 84 58 85
REMARK SMILES IDX 60 86 62 87 59 88
REMARK H PARENT 79 50 53 61
REMARK Flexibility Score: inf
ROOT
ATOM      1  O   UNL A   1      35.288  22.489  23.701  1.00  0.00    -0.462 OA
ENDROOT
BRANCH   1   2
ATOM      2  C   UNL A   1      34.670  23.699  23.696  1.00  0.00     0.306 C 
ATOM      3  O   UNL A   1      34.387  24.326  22.680  1.00  0.00    -0.252 OA
BRANCH   2   4
ATOM      4  C   UNL A   1      34.409  24.239  25.081  1.00  0.00     0.132 C 
BRANCH   4   5
ATOM      5  C   UNL A   1      34.386  25.763  25.223  1.00  0.00     0.114 C 
BRANCH   5   6
ATOM      6  C   UNL A   1      33.079  26.223  25.830  1.00  0.00     0.243 C 
ATOM      7  O   UNL A   1      32.398  25.385  26.434  1.00  0.00    -0.273 OA
BRANCH   6   8
ATOM      8  N   UNL A   1      32.664  27.532  25.622  1.00  0.00    -0.225 N 
ATOM      9  C   UNL A   1      33.452  28.745  25.329  1.00  0.00     0.147 C 
ATOM     10  C   UNL A   1      32.474  29.674  24.622  1.00  0.00     0.091 C 
ATOM     11  C   UNL A   1      31.245  28.827  24.665  1.00  0.00     0.071 C 
ATOM     12  N   UNL A   1      31.337  27.695  25.282  1.00  0.00    -0.174 NA
BRANCH   9  13
ATOM     13  C   UNL A   1      34.123  29.448  26.501  1.00  0.00    -0.019 A 
ATOM     14  C   UNL A   1      34.205  31.425  27.958  1.00  0.00     0.119 A 
ATOM     15  C   UNL A   1      35.322  30.884  28.590  1.00  0.00     0.046 A 
ATOM     16  C   UNL A   1      33.585  30.678  26.958  1.00  0.00     0.052 A 
ATOM     17  C   UNL A   1      35.822  29.635  28.213  1.00  0.00     0.004 A 
ATOM     18  C   UNL A   1      35.236  28.924  27.164  1.00  0.00     0.006 A 
BRANCH  14  19
ATOM     19  O   UNL A   1      33.858  32.672  28.392  1.00  0.00    -0.497 OA
ATOM     20  C   UNL A   1      32.851  33.410  27.713  1.00  0.00     0.278 C 
ENDBRANCH  14  19
ENDBRANCH   9  13
BRANCH  11  21
ATOM     21  C   UNL A   1      30.031  29.247  23.971  1.00  0.00    -0.002 A 
ATOM     22  C   UNL A   1      29.220  28.296  23.361  1.00  0.00     0.010 A 
ATOM     23  C   UNL A   1      29.761  30.615  23.858  1.00  0.00     0.013 A 
ATOM     24  C   UNL A   1      28.096  28.720  22.656  1.00  0.00     0.001 A 
ATOM     25  C   UNL A   1      28.650  31.044  23.129  1.00  0.00    -0.050 A 
ATOM     26  C   UNL A   1      27.813  30.085  22.542  1.00  0.00     0.003 A 
ATOM     27  C   UNL A   1      28.368  32.506  22.949  1.00  0.00     0.044 C 
ENDBRANCH  11  21
ENDBRANCH   6   8
ENDBRANCH   5   6
ENDBRANCH   4   5
ENDBRANCH   2   4
ENDBRANCH   1   2
BRANCH   1  28
ATOM     28  C   UNL A   1      36.720  22.517  23.880  1.00  0.00     0.274 C 
BRANCH  28  29
ATOM     29  C   UNL A   1      37.245  21.325  24.689  1.00  0.00     0.275 C 
BRANCH  29  30
ATOM     30  O   UNL A   1      37.675  21.700  26.012  1.00  0.00    -0.458 OA
BRANCH  30  31
ATOM     31  C   UNL A   1      39.013  21.699  26.152  1.00  0.00     0.338 C 
ATOM     32  O   UNL A   1      39.758  20.751  25.954  1.00  0.00    -0.246 OA
BRANCH  31  33
ATOM     33  C   UNL A   1      39.563  22.912  26.716  1.00  0.00     0.060 A 
ATOM     34  C   UNL A   1      40.577  22.894  27.669  1.00  0.00     0.016 A 
ATOM     35  C   UNL A   1      38.945  24.101  26.323  1.00  0.00     0.016 A 
ATOM     36  C   UNL A   1      41.035  24.111  28.163  1.00  0.00     0.010 A 
ATOM     37  C   UNL A   1      39.455  25.309  26.747  1.00  0.00     0.010 A 
ATOM     38  C   UNL A   1      40.536  25.320  27.633  1.00  0.00    -0.014 A 
BRANCH  38  39
ATOM     39  C   UNL A   1      41.300  26.576  27.770  1.00  0.00     0.031 A 
ATOM     40  C   UNL A   1      42.670  26.736  27.188  1.00  0.00     0.074 A 
ATOM     41  C   UNL A   1      40.789  27.488  28.620  1.00  0.00     0.049 A 
ATOM     42  N   UNL A   1      43.499  27.738  27.318  1.00  0.00    -0.248 NA
ATOM     43  C   UNL A   1      43.208  25.606  26.413  1.00  0.00     0.031 C 
ATOM     44  C   UNL A   1      39.543  27.325  29.384  1.00  0.00     0.029 A 
ATOM     45  N   UNL A   1      41.243  28.720  29.000  1.00  0.00    -0.354 N 
ATOM     46  C   UNL A   1      44.672  27.343  26.690  1.00  0.00     0.074 A 
ATOM     47  C   UNL A   1      44.456  26.000  26.196  1.00  0.00     0.031 C 
ATOM     48  C   UNL A   1      39.300  28.439  30.083  1.00  0.00     0.029 A 
ATOM     49  C   UNL A   1      40.390  29.375  29.855  1.00  0.00     0.049 A 
ATOM     50  H   UNL A   1      42.097  29.100  28.692  1.00  0.00     0.167 HD
ATOM     51  C   UNL A   1      45.816  28.052  26.543  1.00  0.00     0.037 A 
ATOM     52  C   UNL A   1      40.472  30.605  30.386  1.00  0.00     0.037 A 
ATOM     53  C   UNL A   1      45.969  29.411  26.997  1.00  0.00     0.049 A 
ATOM     54  C   UNL A   1      41.661  31.439  30.035  1.00  0.00     0.074 A 
ATOM     55  C   UNL A   1      47.025  30.279  26.789  1.00  0.00     0.029 A 
ATOM     56  N   UNL A   1      45.025  30.101  27.746  1.00  0.00    -0.354 N 
ATOM     57  N   UNL A   1      42.717  31.104  29.335  1.00  0.00    -0.248 NA
ATOM     58  C   UNL A   1      41.670  32.819  30.529  1.00  0.00     0.031 C 
ATOM     59  C   UNL A   1      46.728  31.488  27.428  1.00  0.00     0.029 A 
ATOM     60  C   UNL A   1      45.474  31.384  28.008  1.00  0.00     0.049 A 
ATOM     61  H   UNL A   1      44.163  29.732  28.046  1.00  0.00     0.167 HD
ATOM     62  C   UNL A   1      43.521  32.229  29.302  1.00  0.00     0.074 A 
ATOM     63  C   UNL A   1      42.811  33.268  30.026  1.00  0.00     0.031 C 
ATOM     64  C   UNL A   1      44.742  32.387  28.738  1.00  0.00     0.037 A 
BRANCH  51  65
ATOM     65  C   UNL A   1      46.975  27.391  25.855  1.00  0.00     0.057 A 
ATOM     66  C   UNL A   1      47.158  27.469  24.468  1.00  0.00     0.134 A 
ATOM     67  C   UNL A   1      47.955  26.713  26.595  1.00  0.00     0.134 A 
ATOM     68  F   UNL A   1      46.256  28.096  23.698  1.00  0.00    -0.206 F 
ATOM     69  C   UNL A   1      48.258  26.880  23.839  1.00  0.00     0.040 A 
ATOM     70  C   UNL A   1      49.072  26.142  25.981  1.00  0.00     0.040 A 
ATOM     71  F   UNL A   1      47.849  26.605  27.927  1.00  0.00    -0.206 F 
ATOM     72  C   UNL A   1      49.223  26.221  24.598  1.00  0.00     0.006 A 
ENDBRANCH  51  65
BRANCH  52  73
ATOM     73  C   UNL A   1      39.362  31.116  31.224  1.00  0.00     0.057 A 
ATOM     74  C   UNL A   1      38.306  31.832  30.648  1.00  0.00     0.134 A 
ATOM     75  C   UNL A   1      39.284  30.838  32.594  1.00  0.00     0.134 A 
ATOM     76  F   UNL A   1      38.323  32.122  29.339  1.00  0.00    -0.206 F 
ATOM     77  C   UNL A   1      37.220  32.270  31.407  1.00  0.00     0.040 A 
ATOM     78  C   UNL A   1      38.193  31.250  33.360  1.00  0.00     0.040 A 
ATOM     79  F   UNL A   1      40.248  30.127  33.197  1.00  0.00    -0.206 F 
ATOM     80  C   UNL A   1      37.159  31.973  32.767  1.00  0.00     0.006 A 
ENDBRANCH  52  73
BRANCH  64  81
ATOM     81  C   UNL A   1      45.371  33.735  28.892  1.00  0.00     0.057 A 
ATOM     82  C   UNL A   1      45.143  34.756  27.963  1.00  0.00     0.134 A 
ATOM     83  C   UNL A   1      46.195  34.017  29.987  1.00  0.00     0.134 A 
ATOM     84  F   UNL A   1      44.374  34.535  26.885  1.00  0.00    -0.206 F 
ATOM     85  C   UNL A   1      45.733  36.011  28.106  1.00  0.00     0.040 A 
ATOM     86  C   UNL A   1      46.773  35.274  30.153  1.00  0.00     0.040 A 
ATOM     87  F   UNL A   1      46.448  33.077  30.911  1.00  0.00    -0.206 F 
ATOM     88  C   UNL A   1      46.546  36.274  29.207  1.00  0.00     0.006 A 
ENDBRANCH  64  81
ENDBRANCH  38  39
ENDBRANCH  31  33
ENDBRANCH  30  31
ENDBRANCH  29  30
ENDBRANCH  28  29
ENDBRANCH   1  28
TORSDOF 17
ENDMDL
MODEL 3
REMARK VINA RESULT:     -11.6      4.396      8.778
REMARK SMILES COc1cccc([C@@H]2CC(c3cccc(C)c3)=NN2C(=O)CCC(=O)OCCOC(=O)c2ccc(-c3c4nc(c(-c5c(F)cccc5F)c5ccc([nH]5)c(-c5c(F)cccc5F)c5nc(c(-c6c(F)cccc6F)c6ccc3[nH]6)C=C5)C=C4)cc2)c1
REMARK SMILES IDX 26 1 24 2 25 3 23 4 22 5 20 6 21 7 19 8 8 9 9 10 10 11 18 12
REMARK SMILES IDX 7 13 3 14 4 15 86 16 5 17 6 18 2 19 1 20 11 21 12 22 17 23
REMARK SMILES IDX 13 24 15 25 14 26 16 27 27 28 28 29 29 30 30 31 31 32 32 33
REMARK SMILES IDX 33 34 85 35 34 36 84 37 35 38 36 39 37 40 78 41 38 42 83 43
REMARK SMILES IDX 77 44 79 45 39 46 82 47 76 48 75 49 40 51 66 52 49 53 65 54
REMARK SMILES IDX 50 55 53 56 64 57 80 58 51 59 52 60 63 62 81 63 54 64 41 65
REMARK SMILES IDX 42 66 47 67 43 68 44 69 46 70 48 71 45 72 67 73 68 74 73 75
REMARK SMILES IDX 69 76 70 77 72 78 74 79 71 80 55 81 56 82 61 83 57 84 58 85
REMARK SMILES IDX 60 86 62 87 59 88
REMARK H PARENT 79 50 53 61
REMARK Flexibility Score: inf
ROOT
ATOM      1  O   UNL A   1      42.919  20.004  25.162  1.00  0.00    -0.462 OA
ENDROOT
BRANCH   1   2
ATOM      2  C   UNL A   1      44.015  19.267  24.841  1.00  0.00     0.306 C 
ATOM      3  O   UNL A   1      44.104  18.055  25.004  1.00  0.00    -0.252 OA
BRANCH   2   4
ATOM      4  C   UNL A   1      45.157  20.100  24.310  1.00  0.00     0.132 C 
BRANCH   4   5
ATOM      5  C   UNL A   1      45.761  21.121  25.276  1.00  0.00     0.114 C 
BRANCH   5   6
ATOM      6  C   UNL A   1      45.473  22.531  24.812  1.00  0.00     0.243 C 
ATOM      7  O   UNL A   1      44.723  22.675  23.838  1.00  0.00    -0.273 OA
BRANCH   6   8
ATOM      8  N   UNL A   1      46.112  23.592  25.441  1.00  0.00    -0.225 N 
ATOM      9  C   UNL A   1      46.602  23.720  26.827  1.00  0.00     0.147 C 
ATOM     10  C   UNL A   1      47.700  24.774  26.749  1.00  0.00     0.091 C 
ATOM     11  C   UNL A   1      47.625  25.107  25.295  1.00  0.00     0.071 C 
ATOM     12  N   UNL A   1      46.704  24.517  24.607  1.00  0.00    -0.174 NA
BRANCH   9  13
ATOM     13  C   UNL A   1      45.584  24.072  27.903  1.00  0.00    -0.019 A 
ATOM     14  C   UNL A   1      45.135  25.199  30.040  1.00  0.00     0.119 A 
ATOM     15  C   UNL A   1      43.828  24.718  29.993  1.00  0.00     0.046 A 
ATOM     16  C   UNL A   1      45.982  24.917  28.971  1.00  0.00     0.052 A 
ATOM     17  C   UNL A   1      43.387  23.952  28.910  1.00  0.00     0.004 A 
ATOM     18  C   UNL A   1      44.263  23.617  27.876  1.00  0.00     0.006 A 
BRANCH  14  19
ATOM     19  O   UNL A   1      45.443  25.888  31.177  1.00  0.00    -0.497 OA
ATOM     20  C   UNL A   1      44.410  26.466  31.964  1.00  0.00     0.278 C 
ENDBRANCH  14  19
ENDBRANCH   9  13
BRANCH  11  21
ATOM     21  C   UNL A   1      48.604  26.006  24.690  1.00  0.00    -0.002 A 
ATOM     22  C   UNL A   1      48.263  26.735  23.556  1.00  0.00     0.010 A 
ATOM     23  C   UNL A   1      49.899  26.040  25.216  1.00  0.00     0.013 A 
ATOM     24  C   UNL A   1      49.227  27.544  22.960  1.00  0.00     0.001 A 
ATOM     25  C   UNL A   1      50.875  26.829  24.604  1.00  0.00    -0.050 A 
ATOM     26  C   UNL A   1      50.525  27.591  23.481  1.00  0.00     0.003 A 
ATOM     27  C   UNL A   1      52.285  26.843  25.118  1.00  0.00     0.044 C 
ENDBRANCH  11  21
ENDBRANCH   6   8
ENDBRANCH   5   6
ENDBRANCH   4   5
ENDBRANCH   2   4
ENDBRANCH   1   2
BRANCH   1  28
ATOM     28  C   UNL A   1      42.321  19.713  26.443  1.00  0.00     0.274 C 
BRANCH  28  29
ATOM     29  C   UNL A   1      40.993  20.447  26.663  1.00  0.00     0.275 C 
BRANCH  29  30
ATOM     30  O   UNL A   1      41.144  21.880  26.655  1.00  0.00    -0.458 OA
BRANCH  30  31
ATOM     31  C   UNL A   1      39.971  22.534  26.596  1.00  0.00     0.338 C 
ATOM     32  O   UNL A   1      38.933  22.109  26.110  1.00  0.00    -0.246 OA
BRANCH  31  33
ATOM     33  C   UNL A   1      40.021  23.910  27.040  1.00  0.00     0.060 A 
ATOM     34  C   UNL A   1      39.870  24.264  28.376  1.00  0.00     0.016 A 
ATOM     35  C   UNL A   1      40.128  24.871  26.033  1.00  0.00     0.016 A 
ATOM     36  C   UNL A   1      39.921  25.614  28.708  1.00  0.00     0.010 A 
ATOM     37  C   UNL A   1      40.264  26.201  26.369  1.00  0.00     0.010 A 
ATOM     38  C   UNL A   1      40.211  26.573  27.715  1.00  0.00    -0.014 A 
BRANCH  38  39
ATOM     39  C   UNL A   1      40.732  27.905  28.081  1.00  0.00     0.031 A 
ATOM     40  C   UNL A   1      42.187  28.241  27.976  1.00  0.00     0.074 A 
ATOM     41  C   UNL A   1      39.866  28.726  28.709  1.00  0.00     0.049 A 
ATOM     42  N   UNL A   1      42.801  29.329  28.359  1.00  0.00    -0.248 NA
ATOM     43  C   UNL A   1      43.079  27.206  27.430  1.00  0.00     0.031 C 
ATOM     44  C   UNL A   1      38.469  28.395  29.026  1.00  0.00     0.029 A 
ATOM     45  N   UNL A   1      40.021  29.990  29.204  1.00  0.00    -0.354 N 
ATOM     46  C   UNL A   1      44.154  29.093  28.152  1.00  0.00     0.074 A 
ATOM     47  C   UNL A   1      44.273  27.749  27.628  1.00  0.00     0.031 C 
ATOM     48  C   UNL A   1      37.880  29.452  29.596  1.00  0.00     0.029 A 
ATOM     49  C   UNL A   1      38.864  30.515  29.726  1.00  0.00     0.049 A 
ATOM     50  H   UNL A   1      40.877  30.477  29.187  1.00  0.00     0.167 HD
ATOM     51  C   UNL A   1      45.189  29.934  28.380  1.00  0.00     0.037 A 
ATOM     52  C   UNL A   1      38.620  31.730  30.243  1.00  0.00     0.037 A 
ATOM     53  C   UNL A   1      45.022  31.288  28.845  1.00  0.00     0.049 A 
ATOM     54  C   UNL A   1      39.750  32.708  30.290  1.00  0.00     0.074 A 
ATOM     55  C   UNL A   1      45.976  32.280  28.984  1.00  0.00     0.029 A 
ATOM     56  N   UNL A   1      43.810  31.841  29.238  1.00  0.00    -0.354 N 
ATOM     57  N   UNL A   1      41.008  32.519  29.977  1.00  0.00    -0.248 NA
ATOM     58  C   UNL A   1      39.432  34.064  30.747  1.00  0.00     0.031 C 
ATOM     59  C   UNL A   1      45.345  33.426  29.478  1.00  0.00     0.029 A 
ATOM     60  C   UNL A   1      43.992  33.158  29.619  1.00  0.00     0.049 A 
ATOM     61  H   UNL A   1      42.949  31.365  29.244  1.00  0.00     0.167 HD
ATOM     62  C   UNL A   1      41.638  33.731  30.196  1.00  0.00     0.074 A 
ATOM     63  C   UNL A   1      40.612  34.658  30.639  1.00  0.00     0.031 C 
ATOM     64  C   UNL A   1      42.948  34.048  30.060  1.00  0.00     0.037 A 
BRANCH  51  65
ATOM     65  C   UNL A   1      46.580  29.434  28.114  1.00  0.00     0.057 A 
ATOM     66  C   UNL A   1      47.203  29.599  26.870  1.00  0.00     0.134 A 
ATOM     67  C   UNL A   1      47.329  28.828  29.132  1.00  0.00     0.134 A 
ATOM     68  F   UNL A   1      46.542  30.165  25.849  1.00  0.00    -0.206 F 
ATOM     69  C   UNL A   1      48.510  29.162  26.641  1.00  0.00     0.040 A 
ATOM     70  C   UNL A   1      48.645  28.409  28.924  1.00  0.00     0.040 A 
ATOM     71  F   UNL A   1      46.800  28.644  30.351  1.00  0.00    -0.206 F 
ATOM     72  C   UNL A   1      49.238  28.571  27.673  1.00  0.00     0.006 A 
ENDBRANCH  51  65
BRANCH  52  73
ATOM     73  C   UNL A   1      37.246  32.083  30.667  1.00  0.00     0.057 A 
ATOM     74  C   UNL A   1      36.840  31.899  31.994  1.00  0.00     0.134 A 
ATOM     75  C   UNL A   1      36.334  32.679  29.789  1.00  0.00     0.134 A 
ATOM     76  F   UNL A   1      37.673  31.338  32.882  1.00  0.00    -0.206 F 
ATOM     77  C   UNL A   1      35.571  32.281  32.430  1.00  0.00     0.040 A 
ATOM     78  C   UNL A   1      35.069  33.087  30.216  1.00  0.00     0.040 A 
ATOM     79  F   UNL A   1      36.675  32.912  28.513  1.00  0.00    -0.206 F 
ATOM     80  C   UNL A   1      34.683  32.883  31.540  1.00  0.00     0.006 A 
ENDBRANCH  52  73
BRANCH  64  81
ATOM     81  C   UNL A   1      43.326  35.454  30.398  1.00  0.00     0.057 A 
ATOM     82  C   UNL A   1      43.718  35.812  31.693  1.00  0.00     0.134 A 
ATOM     83  C   UNL A   1      43.316  36.452  29.416  1.00  0.00     0.134 A 
ATOM     84  F   UNL A   1      43.730  34.900  32.676  1.00  0.00    -0.206 F 
ATOM     85  C   UNL A   1      44.067  37.125  32.007  1.00  0.00     0.040 A 
ATOM     86  C   UNL A   1      43.683  37.762  29.713  1.00  0.00     0.040 A 
ATOM     87  F   UNL A   1      42.951  36.165  28.157  1.00  0.00    -0.206 F 
ATOM     88  C   UNL A   1      44.055  38.103  31.014  1.00  0.00     0.006 A 
ENDBRANCH  64  81
ENDBRANCH  38  39
ENDBRANCH  31  33
ENDBRANCH  30  31
ENDBRANCH  29  30
ENDBRANCH  28  29
ENDBRANCH   1  28
TORSDOF 17
ENDMDL
