MODEL 1
REMARK VINA RESULT:     -11.8      0.000      0.000
REMARK SMILES C=C[C@@H]1[C@@H](O)C[C@H]2[C@]3(CC[C@]4(C)[C@@H]([C@H](C)CCC=C(C)C)CC[C@]24C)C[C@]13CCC(=O)OCCOC(=O)c1ccc(-c2c3nc(c(-c4c(F)cccc4F)c4ccc([nH]4)c(-c4c(F)cccc4F)c4nc(c(-c5c(F)cccc5F)c5ccc2[nH]5)C=C4)C=C3)cc1
REMARK SMILES IDX 30 1 31 2 29 3 28 4 27 5 3 6 4 7 6 8 8 9 26 10 7 11 9 12
REMARK SMILES IDX 24 13 10 14 11 15 23 16 25 17 13 18 12 19 22 20 2 21 1 22
REMARK SMILES IDX 5 23 14 25 15 26 16 27 17 28 18 29 19 30 20 31 21 32 32 33
REMARK SMILES IDX 33 34 34 35 35 36 36 37 37 38 38 39 39 40 91 41 40 42 90 43
REMARK SMILES IDX 41 44 42 45 43 46 84 47 44 48 89 49 83 50 85 51 45 52 88 53
REMARK SMILES IDX 82 54 81 55 46 57 72 58 55 59 71 60 56 61 59 62 70 63 86 64
REMARK SMILES IDX 57 65 58 66 69 68 87 69 60 70 47 71 48 72 53 73 49 74 50 75
REMARK SMILES IDX 52 76 54 77 51 78 73 79 74 80 79 81 75 82 76 83 78 84 80 85
REMARK SMILES IDX 77 86 61 87 62 88 67 89 63 90 64 91 66 92 68 93 65 94
REMARK H PARENT 5 24 85 56 59 67
REMARK Flexibility Score: inf
ROOT
ATOM      1  C   UNL A   1      32.881  29.511  26.816  1.00  0.00     0.305 C 
ATOM      2  O   UNL A   1      33.510  28.744  27.535  1.00  0.00    -0.252 OA
ENDROOT
BRANCH   1   3
ATOM      3  C   UNL A   1      33.181  29.672  25.341  1.00  0.00     0.123 C 
BRANCH   3   4
ATOM      4  C   UNL A   1      33.618  28.395  24.631  1.00  0.00     0.020 C 
BRANCH   4   5
ATOM      5  C   UNL A   1      32.528  27.423  24.142  1.00  0.00    -0.014 C 
ATOM      6  C   UNL A   1      31.896  27.709  22.745  1.00  0.00     0.047 C 
ATOM      7  C   UNL A   1      32.200  26.587  21.740  1.00  0.00     0.122 C 
ATOM      8  C   UNL A   1      31.985  25.213  22.351  1.00  0.00     0.037 C 
ATOM      9  C   UNL A   1      32.809  25.973  24.645  1.00  0.00    -0.019 C 
ATOM     10  C   UNL A   1      31.577  26.698  25.091  1.00  0.00     0.016 C 
ATOM     11  C   UNL A   1      32.970  24.953  23.507  1.00  0.00     0.005 C 
ATOM     12  C   UNL A   1      33.692  25.674  25.837  1.00  0.00     0.008 C 
ATOM     13  C   UNL A   1      33.001  23.439  23.970  1.00  0.00    -0.023 C 
ATOM     14  C   UNL A   1      33.437  24.247  26.284  1.00  0.00     0.008 C 
ATOM     15  C   UNL A   1      33.884  23.213  25.262  1.00  0.00    -0.024 C 
ATOM     16  C   UNL A   1      33.787  22.608  22.932  1.00  0.00     0.008 C 
ATOM     17  C   UNL A   1      31.556  22.912  24.111  1.00  0.00     0.012 C 
ATOM     18  C   UNL A   1      35.356  23.384  24.730  1.00  0.00    -0.002 C 
ATOM     19  C   UNL A   1      33.668  21.817  25.893  1.00  0.00     0.012 C 
ATOM     20  C   UNL A   1      35.265  22.660  23.351  1.00  0.00     0.005 C 
BRANCH   6  21
ATOM     21  C   UNL A   1      30.411  28.051  22.749  1.00  0.00    -0.028 C 
ATOM     22  C   UNL A   1      29.914  29.238  23.128  1.00  0.00     0.004 C 
ENDBRANCH   6  21
BRANCH   7  23
ATOM     23  O   UNL A   1      33.547  26.694  21.259  1.00  0.00    -0.392 OA
ATOM     24  H   UNL A   1      33.555  26.587  20.295  1.00  0.00     0.210 HD
ENDBRANCH   7  23
BRANCH  18  25
ATOM     25  C   UNL A   1      36.665  22.988  25.507  1.00  0.00    -0.010 C 
ATOM     26  C   UNL A   1      37.456  24.129  26.162  1.00  0.00     0.008 C 
BRANCH  25  27
ATOM     27  C   UNL A   1      37.659  21.867  25.027  1.00  0.00     0.008 C 
BRANCH  27  28
ATOM     28  C   UNL A   1      38.776  21.178  25.833  1.00  0.00     0.027 C 
BRANCH  28  29
ATOM     29  C   UNL A   1      39.961  21.993  26.266  1.00  0.00    -0.028 C 
ATOM     30  C   UNL A   1      41.068  21.470  26.845  1.00  0.00    -0.080 C 
ATOM     31  C   UNL A   1      42.382  22.212  26.824  1.00  0.00     0.039 C 
ATOM     32  C   UNL A   1      41.144  20.075  27.406  1.00  0.00     0.039 C 
ENDBRANCH  28  29
ENDBRANCH  27  28
ENDBRANCH  25  27
ENDBRANCH  18  25
ENDBRANCH   4   5
ENDBRANCH   3   4
ENDBRANCH   1   3
BRANCH   1  33
ATOM     33  O   UNL A   1      31.860  30.303  27.218  1.00  0.00    -0.462 OA
BRANCH  33  34
ATOM     34  C   UNL A   1      31.301  31.237  26.281  1.00  0.00     0.274 C 
BRANCH  34  35
ATOM     35  C   UNL A   1      31.449  32.655  26.829  1.00  0.00     0.275 C 
BRANCH  35  36
ATOM     36  O   UNL A   1      32.842  32.992  26.919  1.00  0.00    -0.458 OA
BRANCH  36  37
ATOM     37  C   UNL A   1      33.171  33.769  27.980  1.00  0.00     0.338 C 
ATOM     38  O   UNL A   1      32.498  34.623  28.524  1.00  0.00    -0.246 OA
BRANCH  37  39
ATOM     39  C   UNL A   1      34.427  33.253  28.535  1.00  0.00     0.060 A 
ATOM     40  C   UNL A   1      34.395  31.989  29.129  1.00  0.00     0.016 A 
ATOM     41  C   UNL A   1      35.605  33.991  28.485  1.00  0.00     0.016 A 
ATOM     42  C   UNL A   1      35.546  31.437  29.668  1.00  0.00     0.010 A 
ATOM     43  C   UNL A   1      36.761  33.448  29.041  1.00  0.00     0.010 A 
ATOM     44  C   UNL A   1      36.733  32.175  29.640  1.00  0.00    -0.014 A 
BRANCH  44  45
ATOM     45  C   UNL A   1      37.924  31.665  30.345  1.00  0.00     0.031 A 
ATOM     46  C   UNL A   1      38.785  30.655  29.651  1.00  0.00     0.074 A 
ATOM     47  C   UNL A   1      38.217  32.107  31.580  1.00  0.00     0.049 A 
ATOM     48  N   UNL A   1      39.759  29.928  30.128  1.00  0.00    -0.248 NA
ATOM     49  C   UNL A   1      38.497  30.423  28.226  1.00  0.00     0.031 C 
ATOM     50  C   UNL A   1      37.483  33.144  32.304  1.00  0.00     0.029 A 
ATOM     51  N   UNL A   1      39.206  31.725  32.447  1.00  0.00    -0.354 N 
ATOM     52  C   UNL A   1      40.173  29.124  29.074  1.00  0.00     0.074 A 
ATOM     53  C   UNL A   1      39.337  29.441  27.938  1.00  0.00     0.031 C 
ATOM     54  C   UNL A   1      38.038  33.307  33.516  1.00  0.00     0.029 A 
ATOM     55  C   UNL A   1      39.122  32.342  33.672  1.00  0.00     0.049 A 
ATOM     56  H   UNL A   1      39.906  31.072  32.217  1.00  0.00     0.167 HD
ATOM     57  C   UNL A   1      41.163  28.201  29.069  1.00  0.00     0.037 A 
ATOM     58  C   UNL A   1      39.815  32.111  34.802  1.00  0.00     0.037 A 
ATOM     59  C   UNL A   1      41.988  27.920  30.214  1.00  0.00     0.049 A 
ATOM     60  C   UNL A   1      40.863  31.033  34.791  1.00  0.00     0.074 A 
ATOM     61  C   UNL A   1      43.024  27.013  30.332  1.00  0.00     0.029 A 
ATOM     62  N   UNL A   1      41.864  28.552  31.445  1.00  0.00    -0.354 N 
ATOM     63  N   UNL A   1      41.237  30.252  33.804  1.00  0.00    -0.248 NA
ATOM     64  C   UNL A   1      41.578  30.794  36.051  1.00  0.00     0.031 C 
ATOM     65  C   UNL A   1      43.495  27.062  31.647  1.00  0.00     0.029 A 
ATOM     66  C   UNL A   1      42.791  28.039  32.334  1.00  0.00     0.049 A 
ATOM     67  H   UNL A   1      41.213  29.260  31.653  1.00  0.00     0.167 HD
ATOM     68  C   UNL A   1      42.247  29.449  34.314  1.00  0.00     0.074 A 
ATOM     69  C   UNL A   1      42.436  29.849  35.695  1.00  0.00     0.031 C 
ATOM     70  C   UNL A   1      42.956  28.467  33.702  1.00  0.00     0.037 A 
BRANCH  57  71
ATOM     71  C   UNL A   1      41.365  27.410  27.809  1.00  0.00     0.057 A 
ATOM     72  C   UNL A   1      40.679  26.217  27.557  1.00  0.00     0.134 A 
ATOM     73  C   UNL A   1      42.263  27.857  26.830  1.00  0.00     0.134 A 
ATOM     74  F   UNL A   1      39.821  25.720  28.462  1.00  0.00    -0.206 F 
ATOM     75  C   UNL A   1      40.897  25.480  26.390  1.00  0.00     0.040 A 
ATOM     76  C   UNL A   1      42.468  27.145  25.647  1.00  0.00     0.040 A 
ATOM     77  F   UNL A   1      42.956  28.991  27.006  1.00  0.00    -0.206 F 
ATOM     78  C   UNL A   1      41.789  25.948  25.427  1.00  0.00     0.006 A 
ENDBRANCH  57  71
BRANCH  58  79
ATOM     79  C   UNL A   1      39.516  32.886  36.033  1.00  0.00     0.057 A 
ATOM     80  C   UNL A   1      40.153  34.103  36.296  1.00  0.00     0.134 A 
ATOM     81  C   UNL A   1      38.586  32.431  36.977  1.00  0.00     0.134 A 
ATOM     82  F   UNL A   1      41.067  34.584  35.441  1.00  0.00    -0.206 F 
ATOM     83  C   UNL A   1      39.890  34.832  37.457  1.00  0.00     0.040 A 
ATOM     84  C   UNL A   1      38.292  33.162  38.128  1.00  0.00     0.040 A 
ATOM     85  F   UNL A   1      37.937  31.272  36.786  1.00  0.00    -0.206 F 
ATOM     86  C   UNL A   1      38.950  34.364  38.375  1.00  0.00     0.006 A 
ENDBRANCH  58  79
BRANCH  70  87
ATOM     87  C   UNL A   1      44.023  27.794  34.512  1.00  0.00     0.057 A 
ATOM     88  C   UNL A   1      45.320  28.311  34.606  1.00  0.00     0.134 A 
ATOM     89  C   UNL A   1      43.733  26.633  35.241  1.00  0.00     0.134 A 
ATOM     90  F   UNL A   1      45.665  29.413  33.922  1.00  0.00    -0.206 F 
ATOM     91  C   UNL A   1      46.299  27.682  35.376  1.00  0.00     0.040 A 
ATOM     92  C   UNL A   1      44.694  26.013  36.038  1.00  0.00     0.040 A 
ATOM     93  F   UNL A   1      42.505  26.092  35.201  1.00  0.00    -0.206 F 
ATOM     94  C   UNL A   1      45.984  26.534  36.101  1.00  0.00     0.006 A 
ENDBRANCH  70  87
ENDBRANCH  44  45
ENDBRANCH  37  39
ENDBRANCH  36  37
ENDBRANCH  35  36
ENDBRANCH  34  35
ENDBRANCH  33  34
ENDBRANCH   1  33
TORSDOF 19
ENDMDL
MODEL 2
REMARK VINA RESULT:     -11.6      2.671      8.593
REMARK SMILES C=C[C@@H]1[C@@H](O)C[C@H]2[C@]3(CC[C@]4(C)[C@@H]([C@H](C)CCC=C(C)C)CC[C@]24C)C[C@]13CCC(=O)OCCOC(=O)c1ccc(-c2c3nc(c(-c4c(F)cccc4F)c4ccc([nH]4)c(-c4c(F)cccc4F)c4nc(c(-c5c(F)cccc5F)c5ccc2[nH]5)C=C4)C=C3)cc1
REMARK SMILES IDX 30 1 31 2 29 3 28 4 27 5 3 6 4 7 6 8 8 9 26 10 7 11 9 12
REMARK SMILES IDX 24 13 10 14 11 15 23 16 25 17 13 18 12 19 22 20 2 21 1 22
REMARK SMILES IDX 5 23 14 25 15 26 16 27 17 28 18 29 19 30 20 31 21 32 32 33
REMARK SMILES IDX 33 34 34 35 35 36 36 37 37 38 38 39 39 40 91 41 40 42 90 43
REMARK SMILES IDX 41 44 42 45 43 46 84 47 44 48 89 49 83 50 85 51 45 52 88 53
REMARK SMILES IDX 82 54 81 55 46 57 72 58 55 59 71 60 56 61 59 62 70 63 86 64
REMARK SMILES IDX 57 65 58 66 69 68 87 69 60 70 47 71 48 72 53 73 49 74 50 75
REMARK SMILES IDX 52 76 54 77 51 78 73 79 74 80 79 81 75 82 76 83 78 84 80 85
REMARK SMILES IDX 77 86 61 87 62 88 67 89 63 90 64 91 66 92 68 93 65 94
REMARK H PARENT 5 24 85 56 59 67
REMARK Flexibility Score: inf
ROOT
ATOM      1  C   UNL A   1      38.312  21.542  25.570  1.00  0.00     0.305 C 
ATOM      2  O   UNL A   1      38.139  20.401  25.159  1.00  0.00    -0.252 OA
ENDROOT
BRANCH   1   3
ATOM      3  C   UNL A   1      37.481  22.713  25.092  1.00  0.00     0.123 C 
BRANCH   3   4
ATOM      4  C   UNL A   1      36.146  22.888  25.809  1.00  0.00     0.020 C 
BRANCH   4   5
ATOM      5  C   UNL A   1      34.878  22.336  25.133  1.00  0.00    -0.014 C 
ATOM      6  C   UNL A   1      34.238  21.058  25.759  1.00  0.00     0.047 C 
ATOM      7  C   UNL A   1      32.834  21.337  26.317  1.00  0.00     0.122 C 
ATOM      8  C   UNL A   1      31.995  22.151  25.347  1.00  0.00     0.037 C 
ATOM      9  C   UNL A   1      34.013  23.494  24.543  1.00  0.00    -0.019 C 
ATOM     10  C   UNL A   1      34.613  22.466  23.635  1.00  0.00     0.016 C 
ATOM     11  C   UNL A   1      32.593  23.554  25.129  1.00  0.00     0.005 C 
ATOM     12  C   UNL A   1      34.578  24.860  24.222  1.00  0.00     0.008 C 
ATOM     13  C   UNL A   1      31.606  24.542  24.383  1.00  0.00    -0.023 C 
ATOM     14  C   UNL A   1      33.600  25.591  23.323  1.00  0.00     0.008 C 
ATOM     15  C   UNL A   1      32.286  25.921  24.013  1.00  0.00    -0.024 C 
ATOM     16  C   UNL A   1      30.515  25.010  25.370  1.00  0.00     0.008 C 
ATOM     17  C   UNL A   1      30.974  23.823  23.170  1.00  0.00     0.012 C 
ATOM     18  C   UNL A   1      32.421  26.643  25.406  1.00  0.00    -0.002 C 
ATOM     19  C   UNL A   1      31.440  26.755  23.023  1.00  0.00     0.012 C 
ATOM     20  C   UNL A   1      31.066  26.259  26.079  1.00  0.00     0.005 C 
BRANCH   6  21
ATOM     21  C   UNL A   1      34.238  19.818  24.872  1.00  0.00    -0.028 C 
ATOM     22  C   UNL A   1      33.249  18.913  24.847  1.00  0.00     0.004 C 
ENDBRANCH   6  21
BRANCH   7  23
ATOM     23  O   UNL A   1      32.919  22.024  27.573  1.00  0.00    -0.392 OA
ATOM     24  H   UNL A   1      33.390  21.469  28.214  1.00  0.00     0.210 HD
ENDBRANCH   7  23
BRANCH  18  25
ATOM     25  C   UNL A   1      32.765  28.162  25.625  1.00  0.00    -0.010 C 
ATOM     26  C   UNL A   1      34.071  28.480  26.365  1.00  0.00     0.008 C 
BRANCH  25  27
ATOM     27  C   UNL A   1      31.690  29.261  25.959  1.00  0.00     0.008 C 
BRANCH  27  28
ATOM     28  C   UNL A   1      31.001  30.242  24.992  1.00  0.00     0.027 C 
BRANCH  28  29
ATOM     29  C   UNL A   1      30.218  29.687  23.837  1.00  0.00    -0.028 C 
ATOM     30  C   UNL A   1      29.203  30.343  23.226  1.00  0.00    -0.080 C 
ATOM     31  C   UNL A   1      28.778  29.985  21.822  1.00  0.00     0.039 C 
ATOM     32  C   UNL A   1      28.526  31.562  23.795  1.00  0.00     0.039 C 
ENDBRANCH  28  29
ENDBRANCH  27  28
ENDBRANCH  25  27
ENDBRANCH  18  25
ENDBRANCH   4   5
ENDBRANCH   3   4
ENDBRANCH   1   3
BRANCH   1  33
ATOM     33  O   UNL A   1      39.242  21.914  26.481  1.00  0.00    -0.462 OA
BRANCH  33  34
ATOM     34  C   UNL A   1      40.381  21.064  26.691  1.00  0.00     0.274 C 
BRANCH  34  35
ATOM     35  C   UNL A   1      41.496  21.464  25.727  1.00  0.00     0.275 C 
BRANCH  35  36
ATOM     36  O   UNL A   1      42.488  22.228  26.430  1.00  0.00    -0.458 OA
BRANCH  36  37
ATOM     37  C   UNL A   1      42.807  23.411  25.851  1.00  0.00     0.338 C 
ATOM     38  O   UNL A   1      43.018  23.642  24.677  1.00  0.00    -0.246 OA
BRANCH  37  39
ATOM     39  C   UNL A   1      42.639  24.459  26.864  1.00  0.00     0.060 A 
ATOM     40  C   UNL A   1      41.790  24.184  27.938  1.00  0.00     0.016 A 
ATOM     41  C   UNL A   1      43.287  25.686  26.760  1.00  0.00     0.016 A 
ATOM     42  C   UNL A   1      41.590  25.126  28.935  1.00  0.00     0.010 A 
ATOM     43  C   UNL A   1      43.076  26.643  27.750  1.00  0.00     0.010 A 
ATOM     44  C   UNL A   1      42.222  26.368  28.834  1.00  0.00    -0.014 A 
BRANCH  44  45
ATOM     45  C   UNL A   1      41.896  27.431  29.804  1.00  0.00     0.031 A 
ATOM     46  C   UNL A   1      42.690  27.506  31.072  1.00  0.00     0.074 A 
ATOM     47  C   UNL A   1      40.909  28.304  29.542  1.00  0.00     0.049 A 
ATOM     48  N   UNL A   1      42.472  28.216  32.145  1.00  0.00    -0.248 NA
ATOM     49  C   UNL A   1      43.885  26.649  31.144  1.00  0.00     0.031 C 
ATOM     50  C   UNL A   1      40.134  28.358  28.302  1.00  0.00     0.029 A 
ATOM     51  N   UNL A   1      40.382  29.306  30.312  1.00  0.00    -0.354 N 
ATOM     52  C   UNL A   1      43.479  27.864  33.035  1.00  0.00     0.074 A 
ATOM     53  C   UNL A   1      44.298  26.867  32.383  1.00  0.00     0.031 C 
ATOM     54  C   UNL A   1      39.218  29.334  28.402  1.00  0.00     0.029 A 
ATOM     55  C   UNL A   1      39.302  29.926  29.733  1.00  0.00     0.049 A 
ATOM     56  H   UNL A   1      40.740  29.555  31.195  1.00  0.00     0.167 HD
ATOM     57  C   UNL A   1      43.688  28.334  34.286  1.00  0.00     0.037 A 
ATOM     58  C   UNL A   1      38.453  30.834  30.247  1.00  0.00     0.037 A 
ATOM     59  C   UNL A   1      42.861  29.339  34.902  1.00  0.00     0.049 A 
ATOM     60  C   UNL A   1      38.664  31.290  31.664  1.00  0.00     0.074 A 
ATOM     61  C   UNL A   1      42.974  29.900  36.160  1.00  0.00     0.029 A 
ATOM     62  N   UNL A   1      41.764  29.934  34.292  1.00  0.00    -0.354 N 
ATOM     63  N   UNL A   1      39.598  30.938  32.517  1.00  0.00    -0.248 NA
ATOM     64  C   UNL A   1      37.700  32.262  32.197  1.00  0.00     0.031 C 
ATOM     65  C   UNL A   1      41.916  30.798  36.330  1.00  0.00     0.029 A 
ATOM     66  C   UNL A   1      41.177  30.840  35.157  1.00  0.00     0.049 A 
ATOM     67  H   UNL A   1      41.450  29.739  33.380  1.00  0.00     0.167 HD
ATOM     68  C   UNL A   1      39.351  31.660  33.675  1.00  0.00     0.074 A 
ATOM     69  C   UNL A   1      38.187  32.483  33.409  1.00  0.00     0.031 C 
ATOM     70  C   UNL A   1      40.022  31.648  34.855  1.00  0.00     0.037 A 
BRANCH  57  71
ATOM     71  C   UNL A   1      44.816  27.732  35.073  1.00  0.00     0.057 A 
ATOM     72  C   UNL A   1      46.106  28.275  35.065  1.00  0.00     0.134 A 
ATOM     73  C   UNL A   1      44.602  26.590  35.856  1.00  0.00     0.134 A 
ATOM     74  F   UNL A   1      46.386  29.356  34.320  1.00  0.00    -0.206 F 
ATOM     75  C   UNL A   1      47.151  27.689  35.784  1.00  0.00     0.040 A 
ATOM     76  C   UNL A   1      45.631  26.012  36.602  1.00  0.00     0.040 A 
ATOM     77  F   UNL A   1      43.391  26.016  35.909  1.00  0.00    -0.206 F 
ATOM     78  C   UNL A   1      46.912  26.557  36.561  1.00  0.00     0.006 A 
ENDBRANCH  57  71
BRANCH  58  79
ATOM     79  C   UNL A   1      37.316  31.338  29.434  1.00  0.00     0.057 A 
ATOM     80  C   UNL A   1      37.366  32.591  28.816  1.00  0.00     0.134 A 
ATOM     81  C   UNL A   1      36.151  30.579  29.255  1.00  0.00     0.134 A 
ATOM     82  F   UNL A   1      38.445  33.374  28.966  1.00  0.00    -0.206 F 
ATOM     83  C   UNL A   1      36.298  33.080  28.063  1.00  0.00     0.040 A 
ATOM     84  C   UNL A   1      35.087  31.042  28.481  1.00  0.00     0.040 A 
ATOM     85  F   UNL A   1      36.038  29.366  29.818  1.00  0.00    -0.206 F 
ATOM     86  C   UNL A   1      35.155  32.300  27.887  1.00  0.00     0.006 A 
ENDBRANCH  58  79
BRANCH  70  87
ATOM     87  C   UNL A   1      39.533  32.581  35.923  1.00  0.00     0.057 A 
ATOM     88  C   UNL A   1      40.042  33.877  36.065  1.00  0.00     0.134 A 
ATOM     89  C   UNL A   1      38.509  32.186  36.794  1.00  0.00     0.134 A 
ATOM     90  F   UNL A   1      41.033  34.310  35.271  1.00  0.00    -0.206 F 
ATOM     91  C   UNL A   1      39.568  34.739  37.054  1.00  0.00     0.040 A 
ATOM     92  C   UNL A   1      38.005  33.049  37.766  1.00  0.00     0.040 A 
ATOM     93  F   UNL A   1      37.971  30.959  36.703  1.00  0.00    -0.206 F 
ATOM     94  C   UNL A   1      38.540  34.328  37.902  1.00  0.00     0.006 A 
ENDBRANCH  70  87
ENDBRANCH  44  45
ENDBRANCH  37  39
ENDBRANCH  36  37
ENDBRANCH  35  36
ENDBRANCH  34  35
ENDBRANCH  33  34
ENDBRANCH   1  33
TORSDOF 19
ENDMDL
MODEL 3
REMARK VINA RESULT:     -11.6      4.291      8.910
REMARK SMILES C=C[C@@H]1[C@@H](O)C[C@H]2[C@]3(CC[C@]4(C)[C@@H]([C@H](C)CCC=C(C)C)CC[C@]24C)C[C@]13CCC(=O)OCCOC(=O)c1ccc(-c2c3nc(c(-c4c(F)cccc4F)c4ccc([nH]4)c(-c4c(F)cccc4F)c4nc(c(-c5c(F)cccc5F)c5ccc2[nH]5)C=C4)C=C3)cc1
REMARK SMILES IDX 30 1 31 2 29 3 28 4 27 5 3 6 4 7 6 8 8 9 26 10 7 11 9 12
REMARK SMILES IDX 24 13 10 14 11 15 23 16 25 17 13 18 12 19 22 20 2 21 1 22
REMARK SMILES IDX 5 23 14 25 15 26 16 27 17 28 18 29 19 30 20 31 21 32 32 33
REMARK SMILES IDX 33 34 34 35 35 36 36 37 37 38 38 39 39 40 91 41 40 42 90 43
REMARK SMILES IDX 41 44 42 45 43 46 84 47 44 48 89 49 83 50 85 51 45 52 88 53
REMARK SMILES IDX 82 54 81 55 46 57 72 58 55 59 71 60 56 61 59 62 70 63 86 64
REMARK SMILES IDX 57 65 58 66 69 68 87 69 60 70 47 71 48 72 53 73 49 74 50 75
REMARK SMILES IDX 52 76 54 77 51 78 73 79 74 80 79 81 75 82 76 83 78 84 80 85
REMARK SMILES IDX 77 86 61 87 62 88 67 89 63 90 64 91 66 92 68 93 65 94
REMARK H PARENT 5 24 85 56 59 67
REMARK Flexibility Score: inf
ROOT
ATOM      1  C   UNL A   1      37.738  22.546  25.708  1.00  0.00     0.305 C 
ATOM      2  O   UNL A   1      37.787  23.745  25.464  1.00  0.00    -0.252 OA
ENDROOT
BRANCH   1   3
ATOM      3  C   UNL A   1      36.429  21.795  25.826  1.00  0.00     0.123 C 
BRANCH   3   4
ATOM      4  C   UNL A   1      35.211  22.667  26.113  1.00  0.00     0.020 C 
BRANCH   4   5
ATOM      5  C   UNL A   1      34.068  22.685  25.082  1.00  0.00    -0.014 C 
ATOM      6  C   UNL A   1      33.058  21.498  25.120  1.00  0.00     0.047 C 
ATOM      7  C   UNL A   1      31.640  21.965  25.487  1.00  0.00     0.122 C 
ATOM      8  C   UNL A   1      31.243  23.213  24.716  1.00  0.00     0.037 C 
ATOM      9  C   UNL A   1      33.619  24.148  24.774  1.00  0.00    -0.019 C 
ATOM     10  C   UNL A   1      34.214  23.301  23.692  1.00  0.00     0.016 C 
ATOM     11  C   UNL A   1      32.138  24.410  25.090  1.00  0.00     0.005 C 
ATOM     12  C   UNL A   1      34.501  25.350  25.034  1.00  0.00     0.008 C 
ATOM     13  C   UNL A   1      31.579  25.794  24.560  1.00  0.00    -0.023 C 
ATOM     14  C   UNL A   1      33.938  26.537  24.278  1.00  0.00     0.008 C 
ATOM     15  C   UNL A   1      32.584  26.991  24.800  1.00  0.00    -0.024 C 
ATOM     16  C   UNL A   1      30.389  26.231  25.442  1.00  0.00     0.008 C 
ATOM     17  C   UNL A   1      31.141  25.643  23.086  1.00  0.00     0.012 C 
ATOM     18  C   UNL A   1      32.506  27.223  26.355  1.00  0.00    -0.002 C 
ATOM     19  C   UNL A   1      32.189  28.265  24.016  1.00  0.00     0.012 C 
ATOM     20  C   UNL A   1      30.979  27.035  26.613  1.00  0.00     0.005 C 
BRANCH   6  21
ATOM     21  C   UNL A   1      33.036  20.608  23.882  1.00  0.00    -0.028 C 
ATOM     22  C   UNL A   1      32.272  19.513  23.757  1.00  0.00     0.004 C 
ENDBRANCH   6  21
BRANCH   7  23
ATOM     23  O   UNL A   1      31.543  22.218  26.895  1.00  0.00    -0.392 OA
ATOM     24  H   UNL A   1      32.425  22.166  27.294  1.00  0.00     0.210 HD
ENDBRANCH   7  23
BRANCH  18  25
ATOM     25  C   UNL A   1      33.074  28.471  27.127  1.00  0.00    -0.010 C 
ATOM     26  C   UNL A   1      32.153  29.694  27.244  1.00  0.00     0.008 C 
BRANCH  25  27
ATOM     27  C   UNL A   1      34.571  28.946  27.038  1.00  0.00     0.008 C 
BRANCH  27  28
ATOM     28  C   UNL A   1      35.133  30.364  27.247  1.00  0.00     0.027 C 
BRANCH  28  29
ATOM     29  C   UNL A   1      34.674  31.154  28.440  1.00  0.00    -0.028 C 
ATOM     30  C   UNL A   1      35.326  32.237  28.926  1.00  0.00    -0.080 C 
ATOM     31  C   UNL A   1      34.613  33.253  29.785  1.00  0.00     0.039 C 
ATOM     32  C   UNL A   1      36.732  32.615  28.541  1.00  0.00     0.039 C 
ENDBRANCH  28  29
ENDBRANCH  27  28
ENDBRANCH  25  27
ENDBRANCH  18  25
ENDBRANCH   4   5
ENDBRANCH   3   4
ENDBRANCH   1   3
BRANCH   1  33
ATOM     33  O   UNL A   1      38.808  21.741  25.905  1.00  0.00    -0.462 OA
BRANCH  33  34
ATOM     34  C   UNL A   1      38.829  20.453  25.269  1.00  0.00     0.274 C 
BRANCH  34  35
ATOM     35  C   UNL A   1      39.582  19.463  26.156  1.00  0.00     0.275 C 
BRANCH  35  36
ATOM     36  O   UNL A   1      40.874  19.196  25.588  1.00  0.00    -0.458 OA
BRANCH  36  37
ATOM     37  C   UNL A   1      41.911  19.338  26.449  1.00  0.00     0.338 C 
ATOM     38  O   UNL A   1      42.598  18.469  26.949  1.00  0.00    -0.246 OA
BRANCH  37  39
ATOM     39  C   UNL A   1      42.235  20.767  26.521  1.00  0.00     0.060 A 
ATOM     40  C   UNL A   1      42.429  21.318  27.789  1.00  0.00     0.016 A 
ATOM     41  C   UNL A   1      42.336  21.551  25.377  1.00  0.00     0.016 A 
ATOM     42  C   UNL A   1      42.745  22.660  27.932  1.00  0.00     0.010 A 
ATOM     43  C   UNL A   1      42.636  22.905  25.515  1.00  0.00     0.010 A 
ATOM     44  C   UNL A   1      42.833  23.463  26.792  1.00  0.00    -0.014 A 
BRANCH  44  45
ATOM     45  C   UNL A   1      43.015  24.920  26.940  1.00  0.00     0.031 A 
ATOM     46  C   UNL A   1      44.249  25.545  26.366  1.00  0.00     0.074 A 
ATOM     47  C   UNL A   1      42.086  25.654  27.575  1.00  0.00     0.049 A 
ATOM     48  N   UNL A   1      44.720  26.752  26.530  1.00  0.00    -0.248 NA
ATOM     49  C   UNL A   1      45.072  24.686  25.499  1.00  0.00     0.031 C 
ATOM     50  C   UNL A   1      40.818  25.146  28.097  1.00  0.00     0.029 A 
ATOM     51  N   UNL A   1      42.077  26.985  27.900  1.00  0.00    -0.354 N 
ATOM     52  C   UNL A   1      45.914  26.785  25.822  1.00  0.00     0.074 A 
ATOM     53  C   UNL A   1      46.103  25.475  25.238  1.00  0.00     0.031 C 
ATOM     54  C   UNL A   1      40.157  26.152  28.693  1.00  0.00     0.029 A 
ATOM     55  C   UNL A   1      40.985  27.353  28.647  1.00  0.00     0.049 A 
ATOM     56  H   UNL A   1      42.783  27.614  27.626  1.00  0.00     0.167 HD
ATOM     57  C   UNL A   1      46.772  27.821  25.682  1.00  0.00     0.037 A 
ATOM     58  C   UNL A   1      40.718  28.519  29.264  1.00  0.00     0.037 A 
ATOM     59  C   UNL A   1      46.547  29.118  26.264  1.00  0.00     0.049 A 
ATOM     60  C   UNL A   1      41.719  29.635  29.152  1.00  0.00     0.074 A 
ATOM     61  C   UNL A   1      47.338  30.249  26.190  1.00  0.00     0.029 A 
ATOM     62  N   UNL A   1      45.438  29.453  27.031  1.00  0.00    -0.354 N 
ATOM     63  N   UNL A   1      42.862  29.659  28.506  1.00  0.00    -0.248 NA
ATOM     64  C   UNL A   1      41.403  30.881  29.860  1.00  0.00     0.031 C 
ATOM     65  C   UNL A   1      46.732  31.252  26.953  1.00  0.00     0.029 A 
ATOM     66  C   UNL A   1      45.535  30.765  27.455  1.00  0.00     0.049 A 
ATOM     67  H   UNL A   1      44.693  28.845  27.242  1.00  0.00     0.167 HD
ATOM     68  C   UNL A   1      43.388  30.927  28.708  1.00  0.00     0.074 A 
ATOM     69  C   UNL A   1      42.431  31.647  29.525  1.00  0.00     0.031 C 
ATOM     70  C   UNL A   1      44.558  31.453  28.262  1.00  0.00     0.037 A 
BRANCH  57  71
ATOM     71  C   UNL A   1      48.038  27.574  24.916  1.00  0.00     0.057 A 
ATOM     72  C   UNL A   1      48.111  27.714  23.525  1.00  0.00     0.134 A 
ATOM     73  C   UNL A   1      49.208  27.191  25.586  1.00  0.00     0.134 A 
ATOM     74  F   UNL A   1      47.023  28.057  22.817  1.00  0.00    -0.206 F 
ATOM     75  C   UNL A   1      49.292  27.457  22.824  1.00  0.00     0.040 A 
ATOM     76  C   UNL A   1      50.401  26.959  24.900  1.00  0.00     0.040 A 
ATOM     77  F   UNL A   1      49.211  27.035  26.918  1.00  0.00    -0.206 F 
ATOM     78  C   UNL A   1      50.444  27.084  23.514  1.00  0.00     0.006 A 
ENDBRANCH  57  71
BRANCH  58  79
ATOM     79  C   UNL A   1      39.475  28.673  30.063  1.00  0.00     0.057 A 
ATOM     80  C   UNL A   1      38.287  29.121  29.476  1.00  0.00     0.134 A 
ATOM     81  C   UNL A   1      39.444  28.378  31.433  1.00  0.00     0.134 A 
ATOM     82  F   UNL A   1      38.256  29.439  28.174  1.00  0.00    -0.206 F 
ATOM     83  C   UNL A   1      37.118  29.283  30.222  1.00  0.00     0.040 A 
ATOM     84  C   UNL A   1      38.275  28.508  32.184  1.00  0.00     0.040 A 
ATOM     85  F   UNL A   1      40.548  27.942  32.058  1.00  0.00    -0.206 F 
ATOM     86  C   UNL A   1      37.109  28.969  31.580  1.00  0.00     0.006 A 
ENDBRANCH  58  79
BRANCH  70  87
ATOM     87  C   UNL A   1      44.837  32.883  28.618  1.00  0.00     0.057 A 
ATOM     88  C   UNL A   1      45.552  33.235  29.769  1.00  0.00     0.134 A 
ATOM     89  C   UNL A   1      44.417  33.918  27.772  1.00  0.00     0.134 A 
ATOM     90  F   UNL A   1      45.969  32.292  30.626  1.00  0.00    -0.206 F 
ATOM     91  C   UNL A   1      45.817  34.569  30.080  1.00  0.00     0.040 A 
ATOM     92  C   UNL A   1      44.702  35.253  28.056  1.00  0.00     0.040 A 
ATOM     93  F   UNL A   1      43.736  33.646  26.647  1.00  0.00    -0.206 F 
ATOM     94  C   UNL A   1      45.399  35.581  29.217  1.00  0.00     0.006 A 
ENDBRANCH  70  87
ENDBRANCH  44  45
ENDBRANCH  37  39
ENDBRANCH  36  37
ENDBRANCH  35  36
ENDBRANCH  34  35
ENDBRANCH  33  34
ENDBRANCH   1  33
TORSDOF 19
ENDMDL
