MODEL 1
REMARK VINA RESULT:     -11.5      0.000      0.000
REMARK SMILES Cc1nccn1CCC[NH+]1CCC2(CC1)[C@@H](C(=O)OCCOC(=O)c1ccc(-c3c4nc(c(-c5c(F)cccc5F)c5ccc([nH]5)c(-c5c(F)cccc5F)c5nc(c(-c6c(F)cccc6F)c6ccc3[nH]6)C=C5)C=C4)cc1)CC(=O)N2C
REMARK SMILES IDX 20 1 19 2 17 3 18 4 16 5 10 6 11 7 15 8 12 10 14 11 13 12
REMARK SMILES IDX 82 13 79 14 80 15 83 16 81 17 9 18 8 19 7 20 6 21 1 22 2 23
REMARK SMILES IDX 3 24 4 25 5 26 21 27 22 28 23 29 24 30 25 31 26 32 78 33
REMARK SMILES IDX 27 34 77 35 28 36 29 37 30 38 71 39 31 40 76 41 70 42 72 43
REMARK SMILES IDX 32 44 75 45 69 46 68 47 33 49 59 50 42 51 58 52 43 53 46 54
REMARK SMILES IDX 57 55 73 56 44 57 45 58 56 60 74 61 47 62 34 63 35 64 40 65
REMARK SMILES IDX 36 66 37 67 39 68 41 69 38 70 60 71 61 72 66 73 62 74 63 75
REMARK SMILES IDX 65 76 67 77 64 78 48 79 49 80 54 81 50 82 51 83 53 84 55 85
REMARK SMILES IDX 52 86
REMARK H PARENT 10 9 72 48 46 59
REMARK Flexibility Score: inf
ROOT
ATOM      1  C   UNL A   1      32.083  29.778  27.071  1.00  0.00     0.274 C 
ENDROOT
BRANCH   1   2
ATOM      2  O   UNL A   1      31.882  28.871  25.966  1.00  0.00    -0.462 OA
BRANCH   2   3
ATOM      3  C   UNL A   1      31.288  27.673  26.176  1.00  0.00     0.311 C 
ATOM      4  O   UNL A   1      31.365  27.082  27.249  1.00  0.00    -0.252 OA
BRANCH   3   5
ATOM      5  C   UNL A   1      30.662  27.059  24.913  1.00  0.00     0.134 C 
ATOM      6  N   UNL A   1      32.270  23.204  24.269  1.00  0.00    -0.335 N 
ATOM      7  C   UNL A   1      31.055  23.436  23.524  1.00  0.00     0.264 C 
ATOM      8  C   UNL A   1      33.294  24.182  24.009  1.00  0.00     0.264 C 
ATOM      9  H   UNL A   1      32.660  22.359  23.851  1.00  0.00     0.348 HD
ATOM     10  C   UNL A   1      30.413  24.781  23.830  1.00  0.00     0.091 C 
ATOM     11  C   UNL A   1      32.842  25.607  24.304  1.00  0.00     0.091 C 
ATOM     12  C   UNL A   1      31.376  26.008  23.946  1.00  0.00     0.067 C 
ATOM     13  N   UNL A   1      31.373  26.728  22.649  1.00  0.00    -0.339 N 
ATOM     14  C   UNL A   1      30.141  28.187  24.010  1.00  0.00     0.118 C 
ATOM     15  C   UNL A   1      30.691  27.925  22.650  1.00  0.00     0.223 C 
ATOM     16  C   UNL A   1      31.902  26.206  21.405  1.00  0.00     0.147 C 
ATOM     17  O   UNL A   1      30.523  28.660  21.688  1.00  0.00    -0.275 OA
BRANCH   6  18
ATOM     18  C   UNL A   1      32.237  22.463  25.516  1.00  0.00     0.264 C 
BRANCH  18  19
ATOM     19  C   UNL A   1      33.011  22.911  26.768  1.00  0.00     0.083 C 
BRANCH  19  20
ATOM     20  C   UNL A   1      34.401  22.346  27.047  1.00  0.00     0.129 C 
BRANCH  20  21
ATOM     21  N   UNL A   1      35.504  22.419  26.122  1.00  0.00    -0.335 N 
ATOM     22  C   UNL A   1      35.086  20.153  25.001  1.00  0.00     0.087 C 
ATOM     23  C   UNL A   1      35.770  21.469  25.143  1.00  0.00     0.105 A 
ATOM     24  N   UNL A   1      36.688  21.913  24.308  1.00  0.00    -0.242 NA
ATOM     25  C   UNL A   1      37.030  23.157  24.752  1.00  0.00     0.131 A 
ATOM     26  C   UNL A   1      36.326  23.481  25.885  1.00  0.00     0.107 A 
ENDBRANCH  20  21
ENDBRANCH  19  20
ENDBRANCH  18  19
ENDBRANCH   6  18
ENDBRANCH   3   5
ENDBRANCH   2   3
ENDBRANCH   1   2
BRANCH   1  27
ATOM     27  C   UNL A   1      33.252  30.715  26.798  1.00  0.00     0.275 C 
BRANCH  27  28
ATOM     28  O   UNL A   1      34.380  30.319  27.574  1.00  0.00    -0.458 OA
BRANCH  28  29
ATOM     29  C   UNL A   1      35.170  31.342  27.959  1.00  0.00     0.338 C 
ATOM     30  O   UNL A   1      35.090  32.508  27.625  1.00  0.00    -0.246 OA
BRANCH  29  31
ATOM     31  C   UNL A   1      36.264  30.865  28.781  1.00  0.00     0.060 A 
ATOM     32  C   UNL A   1      37.343  31.735  28.978  1.00  0.00     0.016 A 
ATOM     33  C   UNL A   1      36.326  29.498  29.053  1.00  0.00     0.016 A 
ATOM     34  C   UNL A   1      38.563  31.198  29.304  1.00  0.00     0.010 A 
ATOM     35  C   UNL A   1      37.547  28.959  29.352  1.00  0.00     0.010 A 
ATOM     36  C   UNL A   1      38.655  29.811  29.399  1.00  0.00    -0.014 A 
BRANCH  36  37
ATOM     37  C   UNL A   1      39.967  29.235  29.549  1.00  0.00     0.031 A 
ATOM     38  C   UNL A   1      40.438  29.133  30.948  1.00  0.00     0.074 A 
ATOM     39  C   UNL A   1      40.576  28.686  28.483  1.00  0.00     0.049 A 
ATOM     40  N   UNL A   1      41.557  29.530  31.456  1.00  0.00    -0.248 NA
ATOM     41  C   UNL A   1      39.485  28.587  31.932  1.00  0.00     0.031 C 
ATOM     42  C   UNL A   1      40.016  28.460  27.146  1.00  0.00     0.029 A 
ATOM     43  N   UNL A   1      41.780  28.068  28.424  1.00  0.00    -0.354 N 
ATOM     44  C   UNL A   1      41.517  29.134  32.790  1.00  0.00     0.074 A 
ATOM     45  C   UNL A   1      40.176  28.693  33.062  1.00  0.00     0.031 C 
ATOM     46  C   UNL A   1      40.777  27.548  26.503  1.00  0.00     0.029 A 
ATOM     47  C   UNL A   1      41.920  27.222  27.338  1.00  0.00     0.049 A 
ATOM     48  H   UNL A   1      42.491  28.209  29.090  1.00  0.00     0.167 HD
ATOM     49  C   UNL A   1      42.647  28.978  33.527  1.00  0.00     0.037 A 
ATOM     50  C   UNL A   1      42.848  26.245  27.211  1.00  0.00     0.037 A 
ATOM     51  C   UNL A   1      43.754  29.712  32.979  1.00  0.00     0.049 A 
ATOM     52  C   UNL A   1      43.909  26.494  28.223  1.00  0.00     0.074 A 
ATOM     53  C   UNL A   1      43.987  31.048  32.720  1.00  0.00     0.029 A 
ATOM     54  N   UNL A   1      44.711  29.023  32.279  1.00  0.00    -0.354 N 
ATOM     55  N   UNL A   1      44.750  27.489  28.184  1.00  0.00    -0.248 NA
ATOM     56  C   UNL A   1      43.759  25.860  29.527  1.00  0.00     0.031 C 
ATOM     57  C   UNL A   1      44.757  31.066  31.523  1.00  0.00     0.029 A 
ATOM     58  C   UNL A   1      44.966  29.742  31.138  1.00  0.00     0.049 A 
ATOM     59  H   UNL A   1      45.135  28.174  32.544  1.00  0.00     0.167 HD
ATOM     60  C   UNL A   1      44.928  27.863  29.511  1.00  0.00     0.074 A 
ATOM     61  C   UNL A   1      44.376  26.763  30.293  1.00  0.00     0.031 C 
ATOM     62  C   UNL A   1      45.245  29.146  29.852  1.00  0.00     0.037 A 
BRANCH  49  63
ATOM     63  C   UNL A   1      42.800  27.895  34.556  1.00  0.00     0.057 A 
ATOM     64  C   UNL A   1      43.075  26.581  34.150  1.00  0.00     0.134 A 
ATOM     65  C   UNL A   1      42.429  28.045  35.911  1.00  0.00     0.134 A 
ATOM     66  F   UNL A   1      43.399  26.309  32.877  1.00  0.00    -0.206 F 
ATOM     67  C   UNL A   1      42.954  25.491  35.020  1.00  0.00     0.040 A 
ATOM     68  C   UNL A   1      42.361  26.973  36.801  1.00  0.00     0.040 A 
ATOM     69  F   UNL A   1      42.018  29.216  36.414  1.00  0.00    -0.206 F 
ATOM     70  C   UNL A   1      42.598  25.685  36.350  1.00  0.00     0.006 A 
ENDBRANCH  49  63
BRANCH  50  71
ATOM     71  C   UNL A   1      42.707  24.958  26.496  1.00  0.00     0.057 A 
ATOM     72  C   UNL A   1      43.549  24.632  25.426  1.00  0.00     0.134 A 
ATOM     73  C   UNL A   1      41.894  23.916  26.981  1.00  0.00     0.134 A 
ATOM     74  F   UNL A   1      44.395  25.544  24.926  1.00  0.00    -0.206 F 
ATOM     75  C   UNL A   1      43.583  23.346  24.872  1.00  0.00     0.040 A 
ATOM     76  C   UNL A   1      41.906  22.633  26.428  1.00  0.00     0.040 A 
ATOM     77  F   UNL A   1      41.119  24.083  28.064  1.00  0.00    -0.206 F 
ATOM     78  C   UNL A   1      42.762  22.340  25.376  1.00  0.00     0.006 A 
ENDBRANCH  50  71
BRANCH  62  79
ATOM     79  C   UNL A   1      45.638  30.087  28.747  1.00  0.00     0.057 A 
ATOM     80  C   UNL A   1      44.714  30.852  28.018  1.00  0.00     0.134 A 
ATOM     81  C   UNL A   1      46.992  30.352  28.524  1.00  0.00     0.134 A 
ATOM     82  F   UNL A   1      43.399  30.749  28.245  1.00  0.00    -0.206 F 
ATOM     83  C   UNL A   1      45.119  31.798  27.073  1.00  0.00     0.040 A 
ATOM     84  C   UNL A   1      47.412  31.318  27.606  1.00  0.00     0.040 A 
ATOM     85  F   UNL A   1      47.933  29.708  29.232  1.00  0.00    -0.206 F 
ATOM     86  C   UNL A   1      46.473  32.037  26.869  1.00  0.00     0.006 A 
ENDBRANCH  62  79
ENDBRANCH  36  37
ENDBRANCH  29  31
ENDBRANCH  28  29
ENDBRANCH  27  28
ENDBRANCH   1  27
TORSDOF 15
ENDMDL
MODEL 2
REMARK VINA RESULT:     -11.4      1.200      1.587
REMARK SMILES Cc1nccn1CCC[NH+]1CCC2(CC1)[C@@H](C(=O)OCCOC(=O)c1ccc(-c3c4nc(c(-c5c(F)cccc5F)c5ccc([nH]5)c(-c5c(F)cccc5F)c5nc(c(-c6c(F)cccc6F)c6ccc3[nH]6)C=C5)C=C4)cc1)CC(=O)N2C
REMARK SMILES IDX 20 1 19 2 17 3 18 4 16 5 10 6 11 7 15 8 12 10 14 11 13 12
REMARK SMILES IDX 82 13 79 14 80 15 83 16 81 17 9 18 8 19 7 20 6 21 1 22 2 23
REMARK SMILES IDX 3 24 4 25 5 26 21 27 22 28 23 29 24 30 25 31 26 32 78 33
REMARK SMILES IDX 27 34 77 35 28 36 29 37 30 38 71 39 31 40 76 41 70 42 72 43
REMARK SMILES IDX 32 44 75 45 69 46 68 47 33 49 59 50 42 51 58 52 43 53 46 54
REMARK SMILES IDX 57 55 73 56 44 57 45 58 56 60 74 61 47 62 34 63 35 64 40 65
REMARK SMILES IDX 36 66 37 67 39 68 41 69 38 70 60 71 61 72 66 73 62 74 63 75
REMARK SMILES IDX 65 76 67 77 64 78 48 79 49 80 54 81 50 82 51 83 53 84 55 85
REMARK SMILES IDX 52 86
REMARK H PARENT 10 9 72 48 46 59
REMARK Flexibility Score: inf
ROOT
ATOM      1  C   UNL A   1      33.749  29.038  26.295  1.00  0.00     0.274 C 
ENDROOT
BRANCH   1   2
ATOM      2  O   UNL A   1      32.541  28.621  25.623  1.00  0.00    -0.462 OA
BRANCH   2   3
ATOM      3  C   UNL A   1      31.879  27.518  26.046  1.00  0.00     0.311 C 
ATOM      4  O   UNL A   1      31.975  27.097  27.194  1.00  0.00    -0.252 OA
BRANCH   3   5
ATOM      5  C   UNL A   1      31.143  26.767  24.926  1.00  0.00     0.134 C 
ATOM      6  N   UNL A   1      33.153  23.144  24.095  1.00  0.00    -0.335 N 
ATOM      7  C   UNL A   1      31.809  23.172  23.568  1.00  0.00     0.264 C 
ATOM      8  C   UNL A   1      33.967  24.239  23.639  1.00  0.00     0.264 C 
ATOM      9  H   UNL A   1      33.583  22.342  23.634  1.00  0.00     0.348 HD
ATOM     10  C   UNL A   1      31.042  24.429  23.952  1.00  0.00     0.091 C 
ATOM     11  C   UNL A   1      33.372  25.601  23.978  1.00  0.00     0.091 C 
ATOM     12  C   UNL A   1      31.825  25.780  23.872  1.00  0.00     0.067 C 
ATOM     13  N   UNL A   1      31.499  26.432  22.580  1.00  0.00    -0.339 N 
ATOM     14  C   UNL A   1      30.320  27.770  24.103  1.00  0.00     0.118 C 
ATOM     15  C   UNL A   1      30.662  27.523  22.674  1.00  0.00     0.223 C 
ATOM     16  C   UNL A   1      31.878  25.931  21.274  1.00  0.00     0.147 C 
ATOM     17  O   UNL A   1      30.230  28.182  21.740  1.00  0.00    -0.275 OA
BRANCH   6  18
ATOM     18  C   UNL A   1      33.439  22.463  25.345  1.00  0.00     0.264 C 
BRANCH  18  19
ATOM     19  C   UNL A   1      34.162  21.108  25.404  1.00  0.00     0.083 C 
BRANCH  19  20
ATOM     20  C   UNL A   1      33.362  19.812  25.306  1.00  0.00     0.129 C 
BRANCH  20  21
ATOM     21  N   UNL A   1      33.173  19.070  24.084  1.00  0.00    -0.335 N 
ATOM     22  C   UNL A   1      34.856  17.212  24.616  1.00  0.00     0.087 C 
ATOM     23  C   UNL A   1      33.786  17.855  23.802  1.00  0.00     0.105 A 
ATOM     24  N   UNL A   1      33.251  17.307  22.730  1.00  0.00    -0.242 NA
ATOM     25  C   UNL A   1      32.290  18.177  22.303  1.00  0.00     0.131 A 
ATOM     26  C   UNL A   1      32.240  19.285  23.112  1.00  0.00     0.107 A 
ENDBRANCH  20  21
ENDBRANCH  19  20
ENDBRANCH  18  19
ENDBRANCH   6  18
ENDBRANCH   3   5
ENDBRANCH   2   3
ENDBRANCH   1   2
BRANCH   1  27
ATOM     27  C   UNL A   1      33.606  30.452  26.842  1.00  0.00     0.275 C 
BRANCH  27  28
ATOM     28  O   UNL A   1      34.264  30.551  28.103  1.00  0.00    -0.458 OA
BRANCH  28  29
ATOM     29  C   UNL A   1      35.273  31.445  28.129  1.00  0.00     0.338 C 
ATOM     30  O   UNL A   1      35.352  32.492  27.517  1.00  0.00    -0.246 OA
BRANCH  29  31
ATOM     31  C   UNL A   1      36.376  30.952  28.929  1.00  0.00     0.060 A 
ATOM     32  C   UNL A   1      37.467  31.809  29.112  1.00  0.00     0.016 A 
ATOM     33  C   UNL A   1      36.427  29.582  29.192  1.00  0.00     0.016 A 
ATOM     34  C   UNL A   1      38.686  31.257  29.413  1.00  0.00     0.010 A 
ATOM     35  C   UNL A   1      37.648  29.029  29.466  1.00  0.00     0.010 A 
ATOM     36  C   UNL A   1      38.765  29.868  29.499  1.00  0.00    -0.014 A 
BRANCH  36  37
ATOM     37  C   UNL A   1      40.074  29.278  29.622  1.00  0.00     0.031 A 
ATOM     38  C   UNL A   1      40.563  29.151  31.013  1.00  0.00     0.074 A 
ATOM     39  C   UNL A   1      40.663  28.737  28.541  1.00  0.00     0.049 A 
ATOM     40  N   UNL A   1      41.693  29.531  31.511  1.00  0.00    -0.248 NA
ATOM     41  C   UNL A   1      39.619  28.602  32.003  1.00  0.00     0.031 C 
ATOM     42  C   UNL A   1      40.081  28.534  27.208  1.00  0.00     0.029 A 
ATOM     43  N   UNL A   1      41.859  28.109  28.456  1.00  0.00    -0.354 N 
ATOM     44  C   UNL A   1      41.668  29.117  32.839  1.00  0.00     0.074 A 
ATOM     45  C   UNL A   1      40.327  28.686  33.125  1.00  0.00     0.031 C 
ATOM     46  C   UNL A   1      40.824  27.625  26.542  1.00  0.00     0.029 A 
ATOM     47  C   UNL A   1      41.976  27.276  27.357  1.00  0.00     0.049 A 
ATOM     48  H   UNL A   1      42.580  28.233  29.114  1.00  0.00     0.167 HD
ATOM     49  C   UNL A   1      42.806  28.940  33.558  1.00  0.00     0.037 A 
ATOM     50  C   UNL A   1      42.891  26.292  27.204  1.00  0.00     0.037 A 
ATOM     51  C   UNL A   1      43.912  29.670  33.005  1.00  0.00     0.049 A 
ATOM     52  C   UNL A   1      43.969  26.516  28.204  1.00  0.00     0.074 A 
ATOM     53  C   UNL A   1      44.155  31.008  32.760  1.00  0.00     0.029 A 
ATOM     54  N   UNL A   1      44.853  28.982  32.282  1.00  0.00    -0.354 N 
ATOM     55  N   UNL A   1      44.819  27.503  28.167  1.00  0.00    -0.248 NA
ATOM     56  C   UNL A   1      43.831  25.866  29.502  1.00  0.00     0.031 C 
ATOM     57  C   UNL A   1      44.909  31.035  31.553  1.00  0.00     0.029 A 
ATOM     58  C   UNL A   1      45.099  29.714  31.147  1.00  0.00     0.049 A 
ATOM     59  H   UNL A   1      45.272  28.126  32.529  1.00  0.00     0.167 HD
ATOM     60  C   UNL A   1      45.019  27.857  29.496  1.00  0.00     0.074 A 
ATOM     61  C   UNL A   1      44.467  26.753  30.271  1.00  0.00     0.031 C 
ATOM     62  C   UNL A   1      45.354  29.133  29.849  1.00  0.00     0.037 A 
BRANCH  49  63
ATOM     63  C   UNL A   1      42.963  27.842  34.570  1.00  0.00     0.057 A 
ATOM     64  C   UNL A   1      43.142  26.518  34.141  1.00  0.00     0.134 A 
ATOM     65  C   UNL A   1      42.683  28.000  35.946  1.00  0.00     0.134 A 
ATOM     66  F   UNL A   1      43.373  26.240  32.850  1.00  0.00    -0.206 F 
ATOM     67  C   UNL A   1      43.015  25.430  35.011  1.00  0.00     0.040 A 
ATOM     68  C   UNL A   1      42.611  26.925  36.833  1.00  0.00     0.040 A 
ATOM     69  F   UNL A   1      42.367  29.187  36.479  1.00  0.00    -0.206 F 
ATOM     70  C   UNL A   1      42.752  25.631  36.361  1.00  0.00     0.006 A 
ENDBRANCH  49  63
BRANCH  50  71
ATOM     71  C   UNL A   1      42.728  25.016  26.474  1.00  0.00     0.057 A 
ATOM     72  C   UNL A   1      43.530  24.711  25.367  1.00  0.00     0.134 A 
ATOM     73  C   UNL A   1      41.937  23.964  26.972  1.00  0.00     0.134 A 
ATOM     74  F   UNL A   1      44.354  25.633  24.852  1.00  0.00    -0.206 F 
ATOM     75  C   UNL A   1      43.548  23.434  24.792  1.00  0.00     0.040 A 
ATOM     76  C   UNL A   1      41.932  22.690  26.398  1.00  0.00     0.040 A 
ATOM     77  F   UNL A   1      41.202  24.110  28.085  1.00  0.00    -0.206 F 
ATOM     78  C   UNL A   1      42.749  22.417  25.309  1.00  0.00     0.006 A 
ENDBRANCH  50  71
BRANCH  62  79
ATOM     79  C   UNL A   1      45.741  30.085  28.752  1.00  0.00     0.057 A 
ATOM     80  C   UNL A   1      44.815  30.870  28.048  1.00  0.00     0.134 A 
ATOM     81  C   UNL A   1      47.094  30.338  28.512  1.00  0.00     0.134 A 
ATOM     82  F   UNL A   1      43.502  30.779  28.294  1.00  0.00    -0.206 F 
ATOM     83  C   UNL A   1      45.216  31.825  27.110  1.00  0.00     0.040 A 
ATOM     84  C   UNL A   1      47.512  31.313  27.602  1.00  0.00     0.040 A 
ATOM     85  F   UNL A   1      48.039  29.674  29.196  1.00  0.00    -0.206 F 
ATOM     86  C   UNL A   1      46.570  32.052  26.889  1.00  0.00     0.006 A 
ENDBRANCH  62  79
ENDBRANCH  36  37
ENDBRANCH  29  31
ENDBRANCH  28  29
ENDBRANCH  27  28
ENDBRANCH   1  27
TORSDOF 15
ENDMDL
MODEL 3
REMARK VINA RESULT:     -11.3      3.260      7.946
REMARK SMILES Cc1nccn1CCC[NH+]1CCC2(CC1)[C@@H](C(=O)OCCOC(=O)c1ccc(-c3c4nc(c(-c5c(F)cccc5F)c5ccc([nH]5)c(-c5c(F)cccc5F)c5nc(c(-c6c(F)cccc6F)c6ccc3[nH]6)C=C5)C=C4)cc1)CC(=O)N2C
REMARK SMILES IDX 20 1 19 2 17 3 18 4 16 5 10 6 11 7 15 8 12 10 14 11 13 12
REMARK SMILES IDX 82 13 79 14 80 15 83 16 81 17 9 18 8 19 7 20 6 21 1 22 2 23
REMARK SMILES IDX 3 24 4 25 5 26 21 27 22 28 23 29 24 30 25 31 26 32 78 33
REMARK SMILES IDX 27 34 77 35 28 36 29 37 30 38 71 39 31 40 76 41 70 42 72 43
REMARK SMILES IDX 32 44 75 45 69 46 68 47 33 49 59 50 42 51 58 52 43 53 46 54
REMARK SMILES IDX 57 55 73 56 44 57 45 58 56 60 74 61 47 62 34 63 35 64 40 65
REMARK SMILES IDX 36 66 37 67 39 68 41 69 38 70 60 71 61 72 66 73 62 74 63 75
REMARK SMILES IDX 65 76 67 77 64 78 48 79 49 80 54 81 50 82 51 83 53 84 55 85
REMARK SMILES IDX 52 86
REMARK H PARENT 10 9 72 48 46 59
REMARK Flexibility Score: inf
ROOT
ATOM      1  C   UNL A   1      40.302  21.661  27.033  1.00  0.00     0.274 C 
ENDROOT
BRANCH   1   2
ATOM      2  O   UNL A   1      39.167  21.341  26.200  1.00  0.00    -0.462 OA
BRANCH   2   3
ATOM      3  C   UNL A   1      38.291  22.311  25.850  1.00  0.00     0.311 C 
ATOM      4  O   UNL A   1      38.328  23.435  26.341  1.00  0.00    -0.252 OA
BRANCH   3   5
ATOM      5  C   UNL A   1      37.166  21.829  24.921  1.00  0.00     0.134 C 
ATOM      6  N   UNL A   1      33.746  24.251  25.466  1.00  0.00    -0.335 N 
ATOM      7  C   UNL A   1      33.699  23.481  24.245  1.00  0.00     0.264 C 
ATOM      8  C   UNL A   1      33.932  23.442  26.642  1.00  0.00     0.264 C 
ATOM      9  H   UNL A   1      32.791  24.591  25.582  1.00  0.00     0.348 HD
ATOM     10  C   UNL A   1      34.971  22.688  23.989  1.00  0.00     0.091 C 
ATOM     11  C   UNL A   1      35.199  22.596  26.586  1.00  0.00     0.091 C 
ATOM     12  C   UNL A   1      35.602  21.959  25.220  1.00  0.00     0.067 C 
ATOM     13  N   UNL A   1      35.164  20.541  25.197  1.00  0.00    -0.339 N 
ATOM     14  C   UNL A   1      37.412  20.358  24.554  1.00  0.00     0.118 C 
ATOM     15  C   UNL A   1      36.135  19.638  24.823  1.00  0.00     0.223 C 
ATOM     16  C   UNL A   1      33.804  20.086  25.402  1.00  0.00     0.147 C 
ATOM     17  O   UNL A   1      35.986  18.432  24.694  1.00  0.00    -0.275 OA
BRANCH   6  18
ATOM     18  C   UNL A   1      34.145  25.646  25.442  1.00  0.00     0.264 C 
BRANCH  18  19
ATOM     19  C   UNL A   1      33.150  26.797  25.668  1.00  0.00     0.083 C 
BRANCH  19  20
ATOM     20  C   UNL A   1      32.369  27.371  24.491  1.00  0.00     0.129 C 
BRANCH  20  21
ATOM     21  N   UNL A   1      32.463  26.875  23.140  1.00  0.00    -0.335 N 
ATOM     22  C   UNL A   1      34.388  28.402  22.410  1.00  0.00     0.087 C 
ATOM     23  C   UNL A   1      33.424  27.281  22.221  1.00  0.00     0.105 A 
ATOM     24  N   UNL A   1      33.408  26.497  21.162  1.00  0.00    -0.242 NA
ATOM     25  C   UNL A   1      32.422  25.581  21.387  1.00  0.00     0.131 A 
ATOM     26  C   UNL A   1      31.809  25.810  22.594  1.00  0.00     0.107 A 
ENDBRANCH  20  21
ENDBRANCH  19  20
ENDBRANCH  18  19
ENDBRANCH   6  18
ENDBRANCH   3   5
ENDBRANCH   2   3
ENDBRANCH   1   2
BRANCH   1  27
ATOM     27  C   UNL A   1      41.461  20.712  26.760  1.00  0.00     0.275 C 
BRANCH  27  28
ATOM     28  O   UNL A   1      42.038  21.006  25.490  1.00  0.00    -0.458 OA
BRANCH  28  29
ATOM     29  C   UNL A   1      43.376  21.171  25.518  1.00  0.00     0.338 C 
ATOM     30  O   UNL A   1      44.232  20.313  25.418  1.00  0.00    -0.246 OA
BRANCH  29  31
ATOM     31  C   UNL A   1      43.718  22.550  25.805  1.00  0.00     0.060 A 
ATOM     32  C   UNL A   1      44.519  22.790  26.928  1.00  0.00     0.016 A 
ATOM     33  C   UNL A   1      42.991  23.549  25.158  1.00  0.00     0.016 A 
ATOM     34  C   UNL A   1      44.465  24.029  27.514  1.00  0.00     0.010 A 
ATOM     35  C   UNL A   1      42.916  24.777  25.757  1.00  0.00     0.010 A 
ATOM     36  C   UNL A   1      43.597  24.969  26.963  1.00  0.00    -0.014 A 
BRANCH  36  37
ATOM     37  C   UNL A   1      43.393  26.199  27.686  1.00  0.00     0.031 A 
ATOM     38  C   UNL A   1      44.415  27.238  27.430  1.00  0.00     0.074 A 
ATOM     39  C   UNL A   1      42.251  26.386  28.370  1.00  0.00     0.049 A 
ATOM     40  N   UNL A   1      45.105  27.921  28.282  1.00  0.00    -0.248 NA
ATOM     41  C   UNL A   1      44.776  27.484  26.022  1.00  0.00     0.031 C 
ATOM     42  C   UNL A   1      41.061  25.526  28.382  1.00  0.00     0.029 A 
ATOM     43  N   UNL A   1      41.857  27.472  29.075  1.00  0.00    -0.354 N 
ATOM     44  C   UNL A   1      45.866  28.802  27.519  1.00  0.00     0.074 A 
ATOM     45  C   UNL A   1      45.736  28.395  26.146  1.00  0.00     0.031 C 
ATOM     46  C   UNL A   1      40.013  26.239  28.850  1.00  0.00     0.029 A 
ATOM     47  C   UNL A   1      40.487  27.549  29.264  1.00  0.00     0.049 A 
ATOM     48  H   UNL A   1      42.485  28.145  29.424  1.00  0.00     0.167 HD
ATOM     49  C   UNL A   1      46.375  29.949  28.038  1.00  0.00     0.037 A 
ATOM     50  C   UNL A   1      39.799  28.658  29.618  1.00  0.00     0.037 A 
ATOM     51  C   UNL A   1      46.475  29.894  29.470  1.00  0.00     0.049 A 
ATOM     52  C   UNL A   1      40.776  29.647  30.148  1.00  0.00     0.074 A 
ATOM     53  C   UNL A   1      47.147  29.076  30.356  1.00  0.00     0.029 A 
ATOM     54  N   UNL A   1      45.535  30.560  30.215  1.00  0.00    -0.354 N 
ATOM     55  N   UNL A   1      41.422  29.519  31.274  1.00  0.00    -0.248 NA
ATOM     56  C   UNL A   1      41.357  30.594  29.204  1.00  0.00     0.031 C 
ATOM     57  C   UNL A   1      46.277  28.942  31.475  1.00  0.00     0.029 A 
ATOM     58  C   UNL A   1      45.138  29.704  31.213  1.00  0.00     0.049 A 
ATOM     59  H   UNL A   1      45.208  31.476  30.065  1.00  0.00     0.167 HD
ATOM     60  C   UNL A   1      42.683  30.049  31.027  1.00  0.00     0.074 A 
ATOM     61  C   UNL A   1      42.549  30.784  29.775  1.00  0.00     0.031 C 
ATOM     62  C   UNL A   1      43.783  29.610  31.706  1.00  0.00     0.037 A 
BRANCH  49  63
ATOM     63  C   UNL A   1      46.468  31.223  27.250  1.00  0.00     0.057 A 
ATOM     64  C   UNL A   1      47.701  31.881  27.130  1.00  0.00     0.134 A 
ATOM     65  C   UNL A   1      45.343  31.964  26.824  1.00  0.00     0.134 A 
ATOM     66  F   UNL A   1      48.835  31.293  27.539  1.00  0.00    -0.206 F 
ATOM     67  C   UNL A   1      47.803  33.193  26.657  1.00  0.00     0.040 A 
ATOM     68  C   UNL A   1      45.440  33.252  26.296  1.00  0.00     0.040 A 
ATOM     69  F   UNL A   1      44.091  31.520  26.989  1.00  0.00    -0.206 F 
ATOM     70  C   UNL A   1      46.671  33.882  26.235  1.00  0.00     0.006 A 
ENDBRANCH  49  63
BRANCH  50  71
ATOM     71  C   UNL A   1      38.418  29.022  29.234  1.00  0.00     0.057 A 
ATOM     72  C   UNL A   1      37.402  29.107  30.193  1.00  0.00     0.134 A 
ATOM     73  C   UNL A   1      38.102  29.513  27.954  1.00  0.00     0.134 A 
ATOM     74  F   UNL A   1      37.623  28.710  31.454  1.00  0.00    -0.206 F 
ATOM     75  C   UNL A   1      36.145  29.653  29.898  1.00  0.00     0.040 A 
ATOM     76  C   UNL A   1      36.848  30.045  27.641  1.00  0.00     0.040 A 
ATOM     77  F   UNL A   1      39.024  29.572  26.981  1.00  0.00    -0.206 F 
ATOM     78  C   UNL A   1      35.866  30.127  28.619  1.00  0.00     0.006 A 
ENDBRANCH  50  71
BRANCH  62  79
ATOM     79  C   UNL A   1      43.562  28.718  32.896  1.00  0.00     0.057 A 
ATOM     80  C   UNL A   1      43.477  27.320  32.809  1.00  0.00     0.134 A 
ATOM     81  C   UNL A   1      43.601  29.269  34.180  1.00  0.00     0.134 A 
ATOM     82  F   UNL A   1      43.548  26.695  31.627  1.00  0.00    -0.206 F 
ATOM     83  C   UNL A   1      43.381  26.513  33.945  1.00  0.00     0.040 A 
ATOM     84  C   UNL A   1      43.540  28.472  35.326  1.00  0.00     0.040 A 
ATOM     85  F   UNL A   1      43.749  30.593  34.344  1.00  0.00    -0.206 F 
ATOM     86  C   UNL A   1      43.418  27.089  35.210  1.00  0.00     0.006 A 
ENDBRANCH  62  79
ENDBRANCH  36  37
ENDBRANCH  29  31
ENDBRANCH  28  29
ENDBRANCH  27  28
ENDBRANCH   1  27
TORSDOF 15
ENDMDL
