MODEL 1
REMARK VINA RESULT:     -13.3      0.000      0.000
REMARK SMILES C[C@H]1c2ccc(O)cc2OC(=O)[C@@H]1CC(=O)N[C@@H](CC1=c2ccccc2=NC1)C(=O)OCCOC(=O)c1ccc(-c2c3nc(c(-c4c(F)cccc4F)c4ccc([nH]4)c(-c4c(F)cccc4F)c4nc(c(-c5c(F)cccc5F)c5ccc2[nH]5)C=C4)C=C3)cc1
REMARK SMILES IDX 32 1 31 2 29 3 30 4 18 5 17 6 15 7 16 8 14 10 13 11 1 12
REMARK SMILES IDX 2 13 3 14 4 15 9 16 11 17 5 18 8 19 10 20 12 21 6 22 7 23
REMARK SMILES IDX 19 25 20 26 21 27 28 28 22 29 26 30 27 31 23 32 25 33 24 34
REMARK SMILES IDX 33 35 34 36 35 37 36 38 37 39 38 40 90 41 39 42 89 43 40 44
REMARK SMILES IDX 41 45 42 46 83 47 43 48 88 49 82 50 84 51 44 52 87 53 81 54
REMARK SMILES IDX 80 55 45 57 71 58 54 59 70 60 55 61 58 62 69 63 85 64 56 65
REMARK SMILES IDX 57 66 68 68 86 69 59 70 46 71 47 72 52 73 48 74 49 75 51 76
REMARK SMILES IDX 53 77 50 78 72 79 73 80 78 81 74 82 75 83 77 84 79 85 76 86
REMARK SMILES IDX 60 87 61 88 66 89 62 90 63 91 65 92 67 93 64 94
REMARK H PARENT 17 9 7 24 84 56 58 67
REMARK Flexibility Score: inf
ROOT
ATOM      1  C   UNL A   1      37.945  20.545  25.069  1.00  0.00     0.274 C 
ENDROOT
BRANCH   1   2
ATOM      2  O   UNL A   1      37.170  21.747  25.238  1.00  0.00    -0.461 OA
BRANCH   2   3
ATOM      3  C   UNL A   1      35.979  21.758  24.589  1.00  0.00     0.329 C 
ATOM      4  O   UNL A   1      35.691  22.518  23.666  1.00  0.00    -0.250 OA
BRANCH   3   5
ATOM      5  C   UNL A   1      34.935  20.841  25.219  1.00  0.00     0.196 C 
BRANCH   5   6
ATOM      6  N   UNL A   1      34.420  21.134  26.562  1.00  0.00    -0.342 N 
ATOM      7  C   UNL A   1      34.033  22.316  27.133  1.00  0.00     0.221 C 
ATOM      8  O   UNL A   1      33.892  22.363  28.356  1.00  0.00    -0.275 OA
ATOM      9  H   UNL A   1      34.340  20.349  27.152  1.00  0.00     0.164 HD
BRANCH   7  10
ATOM     10  C   UNL A   1      33.676  23.531  26.280  1.00  0.00     0.116 C 
BRANCH  10  11
ATOM     11  C   UNL A   1      32.265  23.580  25.655  1.00  0.00     0.116 C 
ATOM     12  C   UNL A   1      30.865  24.232  23.592  1.00  0.00     0.014 C 
ATOM     13  C   UNL A   1      32.225  24.322  24.291  1.00  0.00     0.034 C 
ATOM     14  C   UNL A   1      32.564  25.770  24.529  1.00  0.00    -0.001 A 
ATOM     15  C   UNL A   1      33.269  26.542  23.601  1.00  0.00     0.011 A 
ATOM     16  C   UNL A   1      32.222  26.335  25.757  1.00  0.00     0.138 A 
ATOM     17  C   UNL A   1      31.286  24.255  26.577  1.00  0.00     0.315 C 
ATOM     18  C   UNL A   1      33.717  27.813  23.966  1.00  0.00     0.047 A 
ATOM     19  C   UNL A   1      32.702  27.570  26.152  1.00  0.00     0.093 A 
ATOM     20  O   UNL A   1      31.416  25.635  26.669  1.00  0.00    -0.426 OA
ATOM     21  O   UNL A   1      30.466  23.641  27.246  1.00  0.00    -0.251 OA
ATOM     22  C   UNL A   1      33.490  28.271  25.260  1.00  0.00     0.119 A 
BRANCH  22  23
ATOM     23  O   UNL A   1      34.117  29.388  25.709  1.00  0.00    -0.508 OA
ATOM     24  H   UNL A   1      34.552  29.378  26.539  1.00  0.00     0.293 HD
ENDBRANCH  22  23
ENDBRANCH  10  11
ENDBRANCH   7  10
ENDBRANCH   5   6
BRANCH   5  25
ATOM     25  C   UNL A   1      33.812  20.659  24.160  1.00  0.00     0.070 C 
BRANCH  25  26
ATOM     26  C   UNL A   1      32.772  19.527  24.250  1.00  0.00    -0.037 C 
ATOM     27  C   UNL A   1      33.111  18.323  24.730  1.00  0.00     0.001 A 
ATOM     28  C   UNL A   1      32.148  19.299  22.880  1.00  0.00     0.174 C 
ATOM     29  C   UNL A   1      32.483  17.500  25.740  1.00  0.00     0.010 A 
ATOM     30  C   UNL A   1      33.311  17.582  23.453  1.00  0.00     0.065 A 
ATOM     31  N   UNL A   1      32.815  18.084  22.367  1.00  0.00    -0.280 NA
ATOM     32  C   UNL A   1      32.791  16.188  25.744  1.00  0.00     0.001 A 
ATOM     33  C   UNL A   1      34.011  16.296  23.625  1.00  0.00     0.028 A 
ATOM     34  C   UNL A   1      33.747  15.652  24.777  1.00  0.00     0.002 A 
ENDBRANCH  25  26
ENDBRANCH   5  25
ENDBRANCH   3   5
ENDBRANCH   2   3
ENDBRANCH   1   2
BRANCH   1  35
ATOM     35  C   UNL A   1      39.324  20.675  25.720  1.00  0.00     0.275 C 
BRANCH  35  36
ATOM     36  O   UNL A   1      40.056  19.432  25.692  1.00  0.00    -0.458 OA
BRANCH  36  37
ATOM     37  C   UNL A   1      41.382  19.533  25.945  1.00  0.00     0.338 C 
ATOM     38  O   UNL A   1      42.256  18.757  25.585  1.00  0.00    -0.246 OA
BRANCH  37  39
ATOM     39  C   UNL A   1      41.683  20.840  26.568  1.00  0.00     0.060 A 
ATOM     40  C   UNL A   1      41.618  21.064  27.945  1.00  0.00     0.016 A 
ATOM     41  C   UNL A   1      42.073  21.875  25.720  1.00  0.00     0.016 A 
ATOM     42  C   UNL A   1      41.902  22.341  28.463  1.00  0.00     0.010 A 
ATOM     43  C   UNL A   1      42.353  23.140  26.237  1.00  0.00     0.010 A 
ATOM     44  C   UNL A   1      42.240  23.401  27.610  1.00  0.00    -0.014 A 
BRANCH  44  45
ATOM     45  C   UNL A   1      42.583  24.757  28.126  1.00  0.00     0.031 A 
ATOM     46  C   UNL A   1      43.995  25.156  28.471  1.00  0.00     0.074 A 
ATOM     47  C   UNL A   1      41.583  25.610  28.402  1.00  0.00     0.049 A 
ATOM     48  N   UNL A   1      44.436  26.209  29.118  1.00  0.00    -0.248 NA
ATOM     49  C   UNL A   1      45.039  24.194  28.123  1.00  0.00     0.031 C 
ATOM     50  C   UNL A   1      40.163  25.344  28.183  1.00  0.00     0.029 A 
ATOM     51  N   UNL A   1      41.618  26.877  28.919  1.00  0.00    -0.354 N 
ATOM     52  C   UNL A   1      45.790  25.976  29.354  1.00  0.00     0.074 A 
ATOM     53  C   UNL A   1      46.068  24.661  28.818  1.00  0.00     0.031 C 
ATOM     54  C   UNL A   1      39.461  26.437  28.522  1.00  0.00     0.029 A 
ATOM     55  C   UNL A   1      40.384  27.471  28.981  1.00  0.00     0.049 A 
ATOM     56  H   UNL A   1      42.446  27.317  29.218  1.00  0.00     0.167 HD
ATOM     57  C   UNL A   1      46.716  26.787  29.933  1.00  0.00     0.037 A 
ATOM     58  C   UNL A   1      40.047  28.727  29.327  1.00  0.00     0.037 A 
ATOM     59  C   UNL A   1      46.457  28.166  30.280  1.00  0.00     0.049 A 
ATOM     60  C   UNL A   1      41.121  29.701  29.723  1.00  0.00     0.074 A 
ATOM     61  C   UNL A   1      47.352  29.144  30.683  1.00  0.00     0.029 A 
ATOM     62  N   UNL A   1      45.214  28.775  30.210  1.00  0.00    -0.354 N 
ATOM     63  N   UNL A   1      42.406  29.499  29.886  1.00  0.00    -0.248 NA
ATOM     64  C   UNL A   1      40.697  31.088  29.956  1.00  0.00     0.031 C 
ATOM     65  C   UNL A   1      46.649  30.342  30.859  1.00  0.00     0.029 A 
ATOM     66  C   UNL A   1      45.322  30.118  30.533  1.00  0.00     0.049 A 
ATOM     67  H   UNL A   1      44.376  28.319  29.966  1.00  0.00     0.167 HD
ATOM     68  C   UNL A   1      42.947  30.737  30.211  1.00  0.00     0.074 A 
ATOM     69  C   UNL A   1      41.854  31.687  30.195  1.00  0.00     0.031 C 
ATOM     70  C   UNL A   1      44.231  31.058  30.502  1.00  0.00     0.037 A 
BRANCH  57  71
ATOM     71  C   UNL A   1      48.109  26.246  30.177  1.00  0.00     0.057 A 
ATOM     72  C   UNL A   1      48.453  25.667  31.411  1.00  0.00     0.134 A 
ATOM     73  C   UNL A   1      49.135  26.338  29.225  1.00  0.00     0.134 A 
ATOM     74  F   UNL A   1      47.551  25.579  32.402  1.00  0.00    -0.206 F 
ATOM     75  C   UNL A   1      49.740  25.182  31.670  1.00  0.00     0.040 A 
ATOM     76  C   UNL A   1      50.408  25.810  29.452  1.00  0.00     0.040 A 
ATOM     77  F   UNL A   1      48.907  26.915  28.035  1.00  0.00    -0.206 F 
ATOM     78  C   UNL A   1      50.717  25.233  30.680  1.00  0.00     0.006 A 
ENDBRANCH  57  71
BRANCH  58  79
ATOM     79  C   UNL A   1      38.640  29.165  29.177  1.00  0.00     0.057 A 
ATOM     80  C   UNL A   1      37.740  29.144  30.246  1.00  0.00     0.134 A 
ATOM     81  C   UNL A   1      38.164  29.596  27.933  1.00  0.00     0.134 A 
ATOM     82  F   UNL A   1      38.130  28.713  31.455  1.00  0.00    -0.206 F 
ATOM     83  C   UNL A   1      36.413  29.544  30.084  1.00  0.00     0.040 A 
ATOM     84  C   UNL A   1      36.850  30.024  27.762  1.00  0.00     0.040 A 
ATOM     85  F   UNL A   1      38.987  29.636  26.874  1.00  0.00    -0.206 F 
ATOM     86  C   UNL A   1      35.969  29.996  28.841  1.00  0.00     0.006 A 
ENDBRANCH  58  79
BRANCH  70  87
ATOM     87  C   UNL A   1      44.530  32.501  30.793  1.00  0.00     0.057 A 
ATOM     88  C   UNL A   1      44.882  33.380  29.761  1.00  0.00     0.134 A 
ATOM     89  C   UNL A   1      44.486  33.018  32.095  1.00  0.00     0.134 A 
ATOM     90  F   UNL A   1      44.951  32.950  28.493  1.00  0.00    -0.206 F 
ATOM     91  C   UNL A   1      45.176  34.722  30.014  1.00  0.00     0.040 A 
ATOM     92  C   UNL A   1      44.750  34.363  32.355  1.00  0.00     0.040 A 
ATOM     93  F   UNL A   1      44.144  32.232  33.127  1.00  0.00    -0.206 F 
ATOM     94  C   UNL A   1      45.102  35.218  31.313  1.00  0.00     0.006 A 
ENDBRANCH  70  87
ENDBRANCH  44  45
ENDBRANCH  37  39
ENDBRANCH  36  37
ENDBRANCH  35  36
ENDBRANCH   1  35
TORSDOF 17
ENDMDL
MODEL 2
REMARK VINA RESULT:     -13.2      4.343      9.624
REMARK SMILES C[C@H]1c2ccc(O)cc2OC(=O)[C@@H]1CC(=O)N[C@@H](CC1=c2ccccc2=NC1)C(=O)OCCOC(=O)c1ccc(-c2c3nc(c(-c4c(F)cccc4F)c4ccc([nH]4)c(-c4c(F)cccc4F)c4nc(c(-c5c(F)cccc5F)c5ccc2[nH]5)C=C4)C=C3)cc1
REMARK SMILES IDX 32 1 31 2 29 3 30 4 18 5 17 6 15 7 16 8 14 10 13 11 1 12
REMARK SMILES IDX 2 13 3 14 4 15 9 16 11 17 5 18 8 19 10 20 12 21 6 22 7 23
REMARK SMILES IDX 19 25 20 26 21 27 28 28 22 29 26 30 27 31 23 32 25 33 24 34
REMARK SMILES IDX 33 35 34 36 35 37 36 38 37 39 38 40 90 41 39 42 89 43 40 44
REMARK SMILES IDX 41 45 42 46 83 47 43 48 88 49 82 50 84 51 44 52 87 53 81 54
REMARK SMILES IDX 80 55 45 57 71 58 54 59 70 60 55 61 58 62 69 63 85 64 56 65
REMARK SMILES IDX 57 66 68 68 86 69 59 70 46 71 47 72 52 73 48 74 49 75 51 76
REMARK SMILES IDX 53 77 50 78 72 79 73 80 78 81 74 82 75 83 77 84 79 85 76 86
REMARK SMILES IDX 60 87 61 88 66 89 62 90 63 91 65 92 67 93 64 94
REMARK H PARENT 17 9 7 24 84 56 58 67
REMARK Flexibility Score: inf
ROOT
ATOM      1  C   UNL A   1      30.690  31.201  25.029  1.00  0.00     0.274 C 
ENDROOT
BRANCH   1   2
ATOM      2  O   UNL A   1      30.823  29.773  24.892  1.00  0.00    -0.461 OA
BRANCH   2   3
ATOM      3  C   UNL A   1      31.802  29.366  24.047  1.00  0.00     0.329 C 
ATOM      4  O   UNL A   1      33.007  29.505  24.253  1.00  0.00    -0.250 OA
BRANCH   3   5
ATOM      5  C   UNL A   1      31.278  28.857  22.708  1.00  0.00     0.196 C 
BRANCH   5   6
ATOM      6  N   UNL A   1      32.088  27.926  21.912  1.00  0.00    -0.342 N 
ATOM      7  C   UNL A   1      32.809  26.825  22.287  1.00  0.00     0.221 C 
ATOM      8  O   UNL A   1      33.626  26.356  21.493  1.00  0.00    -0.275 OA
ATOM      9  H   UNL A   1      32.117  28.126  20.948  1.00  0.00     0.164 HD
BRANCH   7  10
ATOM     10  C   UNL A   1      32.545  26.115  23.613  1.00  0.00     0.116 C 
BRANCH  10  11
ATOM     11  C   UNL A   1      33.742  25.896  24.562  1.00  0.00     0.116 C 
ATOM     12  C   UNL A   1      35.458  24.207  25.479  1.00  0.00     0.014 C 
ATOM     13  C   UNL A   1      34.174  24.408  24.670  1.00  0.00     0.034 C 
ATOM     14  C   UNL A   1      33.055  23.635  25.318  1.00  0.00    -0.001 A 
ATOM     15  C   UNL A   1      32.762  22.310  24.984  1.00  0.00     0.011 A 
ATOM     16  C   UNL A   1      32.237  24.299  26.231  1.00  0.00     0.138 A 
ATOM     17  C   UNL A   1      33.433  26.388  25.949  1.00  0.00     0.315 C 
ATOM     18  C   UNL A   1      31.597  21.720  25.478  1.00  0.00     0.047 A 
ATOM     19  C   UNL A   1      31.054  23.748  26.688  1.00  0.00     0.093 A 
ATOM     20  O   UNL A   1      32.562  25.589  26.680  1.00  0.00    -0.426 OA
ATOM     21  O   UNL A   1      33.864  27.444  26.396  1.00  0.00    -0.251 OA
ATOM     22  C   UNL A   1      30.728  22.477  26.259  1.00  0.00     0.119 A 
BRANCH  22  23
ATOM     23  O   UNL A   1      29.486  22.009  26.547  1.00  0.00    -0.508 OA
ATOM     24  H   UNL A   1      29.300  21.669  27.400  1.00  0.00     0.293 HD
ENDBRANCH  22  23
ENDBRANCH  10  11
ENDBRANCH   7  10
ENDBRANCH   5   6
BRANCH   5  25
ATOM     25  C   UNL A   1      29.833  28.347  22.963  1.00  0.00     0.070 C 
BRANCH  25  26
ATOM     26  C   UNL A   1      28.609  28.953  22.253  1.00  0.00    -0.037 C 
ATOM     27  C   UNL A   1      28.614  30.231  21.850  1.00  0.00     0.001 A 
ATOM     28  C   UNL A   1      27.372  28.765  23.121  1.00  0.00     0.174 C 
ATOM     29  C   UNL A   1      28.278  30.818  20.572  1.00  0.00     0.010 A 
ATOM     30  C   UNL A   1      27.853  30.857  22.968  1.00  0.00     0.065 A 
ATOM     31  N   UNL A   1      27.150  30.090  23.738  1.00  0.00    -0.280 NA
ATOM     32  C   UNL A   1      27.986  32.134  20.557  1.00  0.00     0.001 A 
ATOM     33  C   UNL A   1      27.957  32.328  22.997  1.00  0.00     0.028 A 
ATOM     34  C   UNL A   1      28.045  32.917  21.790  1.00  0.00     0.002 A 
ENDBRANCH  25  26
ENDBRANCH   5  25
ENDBRANCH   3   5
ENDBRANCH   2   3
ENDBRANCH   1   2
BRANCH   1  35
ATOM     35  C   UNL A   1      31.059  31.662  26.441  1.00  0.00     0.275 C 
BRANCH  35  36
ATOM     36  O   UNL A   1      32.475  31.549  26.695  1.00  0.00    -0.458 OA
BRANCH  36  37
ATOM     37  C   UNL A   1      33.026  32.580  27.378  1.00  0.00     0.338 C 
ATOM     38  O   UNL A   1      32.536  33.686  27.552  1.00  0.00    -0.246 OA
BRANCH  37  39
ATOM     39  C   UNL A   1      34.251  32.130  28.075  1.00  0.00     0.060 A 
ATOM     40  C   UNL A   1      35.235  33.008  28.537  1.00  0.00     0.016 A 
ATOM     41  C   UNL A   1      34.394  30.760  28.292  1.00  0.00     0.016 A 
ATOM     42  C   UNL A   1      36.382  32.504  29.176  1.00  0.00     0.010 A 
ATOM     43  C   UNL A   1      35.533  30.265  28.924  1.00  0.00     0.010 A 
ATOM     44  C   UNL A   1      36.558  31.123  29.347  1.00  0.00    -0.014 A 
BRANCH  44  45
ATOM     45  C   UNL A   1      37.742  30.556  30.052  1.00  0.00     0.031 A 
ATOM     46  C   UNL A   1      37.992  30.781  31.521  1.00  0.00     0.074 A 
ATOM     47  C   UNL A   1      38.678  29.921  29.326  1.00  0.00     0.049 A 
ATOM     48  N   UNL A   1      39.064  30.539  32.238  1.00  0.00    -0.248 NA
ATOM     49  C   UNL A   1      36.926  31.455  32.259  1.00  0.00     0.031 C 
ATOM     50  C   UNL A   1      38.610  29.682  27.886  1.00  0.00     0.029 A 
ATOM     51  N   UNL A   1      39.865  29.357  29.711  1.00  0.00    -0.354 N 
ATOM     52  C   UNL A   1      38.840  31.136  33.478  1.00  0.00     0.074 A 
ATOM     53  C   UNL A   1      37.551  31.786  33.381  1.00  0.00     0.031 C 
ATOM     54  C   UNL A   1      39.689  28.977  27.513  1.00  0.00     0.029 A 
ATOM     55  C   UNL A   1      40.519  28.720  28.687  1.00  0.00     0.049 A 
ATOM     56  H   UNL A   1      40.214  29.403  30.630  1.00  0.00     0.167 HD
ATOM     57  C   UNL A   1      39.617  31.121  34.595  1.00  0.00     0.037 A 
ATOM     58  C   UNL A   1      41.638  27.976  28.710  1.00  0.00     0.037 A 
ATOM     59  C   UNL A   1      40.802  30.303  34.726  1.00  0.00     0.049 A 
ATOM     60  C   UNL A   1      42.354  27.751  30.012  1.00  0.00     0.074 A 
ATOM     61  C   UNL A   1      41.559  30.044  35.858  1.00  0.00     0.029 A 
ATOM     62  N   UNL A   1      41.368  29.567  33.697  1.00  0.00    -0.354 N 
ATOM     63  N   UNL A   1      42.109  28.263  31.193  1.00  0.00    -0.248 NA
ATOM     64  C   UNL A   1      43.490  26.819  29.986  1.00  0.00     0.031 C 
ATOM     65  C   UNL A   1      42.583  29.155  35.511  1.00  0.00     0.029 A 
ATOM     66  C   UNL A   1      42.443  28.833  34.172  1.00  0.00     0.049 A 
ATOM     67  H   UNL A   1      41.051  29.565  32.765  1.00  0.00     0.167 HD
ATOM     68  C   UNL A   1      43.038  27.694  32.055  1.00  0.00     0.074 A 
ATOM     69  C   UNL A   1      43.834  26.778  31.265  1.00  0.00     0.031 C 
ATOM     70  C   UNL A   1      43.221  27.914  33.380  1.00  0.00     0.037 A 
BRANCH  57  71
ATOM     71  C   UNL A   1      39.197  31.953  35.787  1.00  0.00     0.057 A 
ATOM     72  C   UNL A   1      39.728  33.238  35.994  1.00  0.00     0.134 A 
ATOM     73  C   UNL A   1      38.311  31.480  36.766  1.00  0.00     0.134 A 
ATOM     74  F   UNL A   1      40.621  33.756  35.136  1.00  0.00    -0.206 F 
ATOM     75  C   UNL A   1      39.375  34.018  37.102  1.00  0.00     0.040 A 
ATOM     76  C   UNL A   1      37.910  32.269  37.848  1.00  0.00     0.040 A 
ATOM     77  F   UNL A   1      37.789  30.248  36.671  1.00  0.00    -0.206 F 
ATOM     78  C   UNL A   1      38.445  33.541  38.021  1.00  0.00     0.006 A 
ENDBRANCH  57  71
BRANCH  58  79
ATOM     79  C   UNL A   1      42.067  27.277  27.476  1.00  0.00     0.057 A 
ATOM     80  C   UNL A   1      42.882  27.891  26.522  1.00  0.00     0.134 A 
ATOM     81  C   UNL A   1      41.637  25.969  27.222  1.00  0.00     0.134 A 
ATOM     82  F   UNL A   1      43.300  29.154  26.696  1.00  0.00    -0.206 F 
ATOM     83  C   UNL A   1      43.262  27.224  25.357  1.00  0.00     0.040 A 
ATOM     84  C   UNL A   1      42.032  25.280  26.076  1.00  0.00     0.040 A 
ATOM     85  F   UNL A   1      40.854  25.332  28.105  1.00  0.00    -0.206 F 
ATOM     86  C   UNL A   1      42.845  25.911  25.137  1.00  0.00     0.006 A 
ENDBRANCH  58  79
BRANCH  70  87
ATOM     87  C   UNL A   1      44.301  27.126  34.065  1.00  0.00     0.057 A 
ATOM     88  C   UNL A   1      44.018  25.884  34.648  1.00  0.00     0.134 A 
ATOM     89  C   UNL A   1      45.615  27.602  34.164  1.00  0.00     0.134 A 
ATOM     90  F   UNL A   1      42.780  25.373  34.597  1.00  0.00    -0.206 F 
ATOM     91  C   UNL A   1      45.006  25.142  35.300  1.00  0.00     0.040 A 
ATOM     92  C   UNL A   1      46.616  26.857  34.789  1.00  0.00     0.040 A 
ATOM     93  F   UNL A   1      45.955  28.779  33.616  1.00  0.00    -0.206 F 
ATOM     94  C   UNL A   1      46.311  25.625  35.364  1.00  0.00     0.006 A 
ENDBRANCH  70  87
ENDBRANCH  44  45
ENDBRANCH  37  39
ENDBRANCH  36  37
ENDBRANCH  35  36
ENDBRANCH   1  35
TORSDOF 17
ENDMDL
MODEL 3
REMARK VINA RESULT:     -13.2      3.760      9.052
REMARK SMILES C[C@H]1c2ccc(O)cc2OC(=O)[C@@H]1CC(=O)N[C@@H](CC1=c2ccccc2=NC1)C(=O)OCCOC(=O)c1ccc(-c2c3nc(c(-c4c(F)cccc4F)c4ccc([nH]4)c(-c4c(F)cccc4F)c4nc(c(-c5c(F)cccc5F)c5ccc2[nH]5)C=C4)C=C3)cc1
REMARK SMILES IDX 32 1 31 2 29 3 30 4 18 5 17 6 15 7 16 8 14 10 13 11 1 12
REMARK SMILES IDX 2 13 3 14 4 15 9 16 11 17 5 18 8 19 10 20 12 21 6 22 7 23
REMARK SMILES IDX 19 25 20 26 21 27 28 28 22 29 26 30 27 31 23 32 25 33 24 34
REMARK SMILES IDX 33 35 34 36 35 37 36 38 37 39 38 40 90 41 39 42 89 43 40 44
REMARK SMILES IDX 41 45 42 46 83 47 43 48 88 49 82 50 84 51 44 52 87 53 81 54
REMARK SMILES IDX 80 55 45 57 71 58 54 59 70 60 55 61 58 62 69 63 85 64 56 65
REMARK SMILES IDX 57 66 68 68 86 69 59 70 46 71 47 72 52 73 48 74 49 75 51 76
REMARK SMILES IDX 53 77 50 78 72 79 73 80 78 81 74 82 75 83 77 84 79 85 76 86
REMARK SMILES IDX 60 87 61 88 66 89 62 90 63 91 65 92 67 93 64 94
REMARK H PARENT 17 9 7 24 84 56 58 67
REMARK Flexibility Score: inf
ROOT
ATOM      1  C   UNL A   1      31.685  30.600  25.859  1.00  0.00     0.274 C 
ENDROOT
BRANCH   1   2
ATOM      2  O   UNL A   1      32.100  29.702  24.812  1.00  0.00    -0.461 OA
BRANCH   2   3
ATOM      3  C   UNL A   1      31.175  28.780  24.447  1.00  0.00     0.329 C 
ATOM      4  O   UNL A   1      30.670  27.956  25.207  1.00  0.00    -0.250 OA
BRANCH   3   5
ATOM      5  C   UNL A   1      30.925  28.731  22.943  1.00  0.00     0.196 C 
BRANCH   5   6
ATOM      6  N   UNL A   1      31.925  28.125  22.055  1.00  0.00    -0.342 N 
ATOM      7  C   UNL A   1      32.827  27.120  22.278  1.00  0.00     0.221 C 
ATOM      8  O   UNL A   1      33.746  26.963  21.474  1.00  0.00    -0.275 OA
ATOM      9  H   UNL A   1      31.951  28.505  21.146  1.00  0.00     0.164 HD
BRANCH   7  10
ATOM     10  C   UNL A   1      32.652  26.138  23.435  1.00  0.00     0.116 C 
BRANCH  10  11
ATOM     11  C   UNL A   1      33.872  25.873  24.342  1.00  0.00     0.116 C 
ATOM     12  C   UNL A   1      35.547  24.117  25.209  1.00  0.00     0.014 C 
ATOM     13  C   UNL A   1      34.244  24.369  24.445  1.00  0.00     0.034 C 
ATOM     14  C   UNL A   1      33.117  23.648  25.137  1.00  0.00    -0.001 A 
ATOM     15  C   UNL A   1      32.756  22.334  24.822  1.00  0.00     0.011 A 
ATOM     16  C   UNL A   1      32.361  24.351  26.074  1.00  0.00     0.138 A 
ATOM     17  C   UNL A   1      33.633  26.386  25.736  1.00  0.00     0.315 C 
ATOM     18  C   UNL A   1      31.585  21.798  25.360  1.00  0.00     0.047 A 
ATOM     19  C   UNL A   1      31.173  23.853  26.576  1.00  0.00     0.093 A 
ATOM     20  O   UNL A   1      32.756  25.627  26.503  1.00  0.00    -0.426 OA
ATOM     21  O   UNL A   1      34.124  27.424  26.161  1.00  0.00    -0.251 OA
ATOM     22  C   UNL A   1      30.777  22.594  26.167  1.00  0.00     0.119 A 
BRANCH  22  23
ATOM     23  O   UNL A   1      29.528  22.182  26.501  1.00  0.00    -0.508 OA
ATOM     24  H   UNL A   1      28.815  22.791  26.490  1.00  0.00     0.293 HD
ENDBRANCH  22  23
ENDBRANCH  10  11
ENDBRANCH   7  10
ENDBRANCH   5   6
BRANCH   5  25
ATOM     25  C   UNL A   1      29.500  28.141  22.752  1.00  0.00     0.070 C 
BRANCH  25  26
ATOM     26  C   UNL A   1      28.330  28.978  22.201  1.00  0.00    -0.037 C 
ATOM     27  C   UNL A   1      28.511  30.258  21.847  1.00  0.00     0.001 A 
ATOM     28  C   UNL A   1      27.174  28.950  23.191  1.00  0.00     0.174 C 
ATOM     29  C   UNL A   1      28.152  30.959  20.634  1.00  0.00     0.010 A 
ATOM     30  C   UNL A   1      27.984  30.939  23.063  1.00  0.00     0.065 A 
ATOM     31  N   UNL A   1      27.243  30.257  23.876  1.00  0.00    -0.280 NA
ATOM     32  C   UNL A   1      28.087  32.304  20.699  1.00  0.00     0.001 A 
ATOM     33  C   UNL A   1      28.338  32.369  23.133  1.00  0.00     0.028 A 
ATOM     34  C   UNL A   1      28.403  32.999  21.946  1.00  0.00     0.002 A 
ENDBRANCH  25  26
ENDBRANCH   5  25
ENDBRANCH   3   5
ENDBRANCH   2   3
ENDBRANCH   1   2
BRANCH   1  35
ATOM     35  C   UNL A   1      32.515  30.399  27.128  1.00  0.00     0.275 C 
BRANCH  35  36
ATOM     36  O   UNL A   1      33.925  30.583  26.889  1.00  0.00    -0.458 OA
BRANCH  36  37
ATOM     37  C   UNL A   1      34.527  31.524  27.654  1.00  0.00     0.338 C 
ATOM     38  O   UNL A   1      34.054  32.598  27.996  1.00  0.00    -0.246 OA
BRANCH  37  39
ATOM     39  C   UNL A   1      35.795  30.997  28.204  1.00  0.00     0.060 A 
ATOM     40  C   UNL A   1      36.977  31.740  28.247  1.00  0.00     0.016 A 
ATOM     41  C   UNL A   1      35.776  29.703  28.722  1.00  0.00     0.016 A 
ATOM     42  C   UNL A   1      38.149  31.165  28.770  1.00  0.00     0.010 A 
ATOM     43  C   UNL A   1      36.940  29.136  29.239  1.00  0.00     0.010 A 
ATOM     44  C   UNL A   1      38.150  29.844  29.242  1.00  0.00    -0.014 A 
BRANCH  44  45
ATOM     45  C   UNL A   1      39.363  29.214  29.836  1.00  0.00     0.031 A 
ATOM     46  C   UNL A   1      39.921  29.638  31.170  1.00  0.00     0.074 A 
ATOM     47  C   UNL A   1      40.048  28.322  29.102  1.00  0.00     0.049 A 
ATOM     48  N   UNL A   1      41.070  29.344  31.733  1.00  0.00    -0.248 NA
ATOM     49  C   UNL A   1      39.116  30.592  31.930  1.00  0.00     0.031 C 
ATOM     50  C   UNL A   1      39.670  27.860  27.768  1.00  0.00     0.029 A 
ATOM     51  N   UNL A   1      41.202  27.641  29.386  1.00  0.00    -0.354 N 
ATOM     52  C   UNL A   1      41.172  30.170  32.852  1.00  0.00     0.074 A 
ATOM     53  C   UNL A   1      39.986  30.998  32.846  1.00  0.00     0.031 C 
ATOM     54  C   UNL A   1      40.554  26.933  27.365  1.00  0.00     0.029 A 
ATOM     55  C   UNL A   1      41.554  26.743  28.412  1.00  0.00     0.049 A 
ATOM     56  H   UNL A   1      41.725  27.782  30.207  1.00  0.00     0.167 HD
ATOM     57  C   UNL A   1      42.142  30.213  33.805  1.00  0.00     0.037 A 
ATOM     58  C   UNL A   1      42.549  25.838  28.391  1.00  0.00     0.037 A 
ATOM     59  C   UNL A   1      43.212  29.244  33.893  1.00  0.00     0.049 A 
ATOM     60  C   UNL A   1      43.468  25.719  29.575  1.00  0.00     0.074 A 
ATOM     61  C   UNL A   1      44.133  29.057  34.911  1.00  0.00     0.029 A 
ATOM     62  N   UNL A   1      43.464  28.262  32.948  1.00  0.00    -0.354 N 
ATOM     63  N   UNL A   1      43.526  26.455  30.658  1.00  0.00    -0.248 NA
ATOM     64  C   UNL A   1      44.444  24.621  29.542  1.00  0.00     0.031 C 
ATOM     65  C   UNL A   1      44.943  27.965  34.579  1.00  0.00     0.029 A 
ATOM     66  C   UNL A   1      44.505  27.451  33.370  1.00  0.00     0.049 A 
ATOM     67  H   UNL A   1      42.976  28.157  32.100  1.00  0.00     0.167 HD
ATOM     68  C   UNL A   1      44.522  25.892  31.447  1.00  0.00     0.074 A 
ATOM     69  C   UNL A   1      45.021  24.738  30.728  1.00  0.00     0.031 C 
ATOM     70  C   UNL A   1      44.986  26.297  32.654  1.00  0.00     0.037 A 
BRANCH  57  71
ATOM     71  C   UNL A   1      42.075  31.291  34.866  1.00  0.00     0.057 A 
ATOM     72  C   UNL A   1      41.280  31.126  36.013  1.00  0.00     0.134 A 
ATOM     73  C   UNL A   1      42.746  32.516  34.742  1.00  0.00     0.134 A 
ATOM     74  F   UNL A   1      40.563  30.006  36.195  1.00  0.00    -0.206 F 
ATOM     75  C   UNL A   1      41.182  32.118  36.996  1.00  0.00     0.040 A 
ATOM     76  C   UNL A   1      42.698  33.492  35.742  1.00  0.00     0.040 A 
ATOM     77  F   UNL A   1      43.493  32.776  33.658  1.00  0.00    -0.206 F 
ATOM     78  C   UNL A   1      41.911  33.297  36.872  1.00  0.00     0.006 A 
ENDBRANCH  57  71
BRANCH  58  79
ATOM     79  C   UNL A   1      42.634  24.881  27.264  1.00  0.00     0.057 A 
ATOM     80  C   UNL A   1      43.407  25.140  26.129  1.00  0.00     0.134 A 
ATOM     81  C   UNL A   1      41.908  23.684  27.298  1.00  0.00     0.134 A 
ATOM     82  F   UNL A   1      44.100  26.285  26.026  1.00  0.00    -0.206 F 
ATOM     83  C   UNL A   1      43.462  24.236  25.068  1.00  0.00     0.040 A 
ATOM     84  C   UNL A   1      41.975  22.759  26.259  1.00  0.00     0.040 A 
ATOM     85  F   UNL A   1      41.150  23.386  28.365  1.00  0.00    -0.206 F 
ATOM     86  C   UNL A   1      42.753  23.037  25.137  1.00  0.00     0.006 A 
ENDBRANCH  58  79
BRANCH  70  87
ATOM     87  C   UNL A   1      46.065  25.467  33.290  1.00  0.00     0.057 A 
ATOM     88  C   UNL A   1      45.739  24.413  34.154  1.00  0.00     0.134 A 
ATOM     89  C   UNL A   1      47.424  25.719  33.062  1.00  0.00     0.134 A 
ATOM     90  F   UNL A   1      44.458  24.121  34.421  1.00  0.00    -0.206 F 
ATOM     91  C   UNL A   1      46.728  23.638  34.764  1.00  0.00     0.040 A 
ATOM     92  C   UNL A   1      48.420  24.934  33.645  1.00  0.00     0.040 A 
ATOM     93  F   UNL A   1      47.803  26.706  32.236  1.00  0.00    -0.206 F 
ATOM     94  C   UNL A   1      48.072  23.893  34.503  1.00  0.00     0.006 A 
ENDBRANCH  70  87
ENDBRANCH  44  45
ENDBRANCH  37  39
ENDBRANCH  36  37
ENDBRANCH  35  36
ENDBRANCH   1  35
TORSDOF 17
ENDMDL
