MODEL 1
REMARK VINA RESULT:     -11.6      0.000      0.000
REMARK SMILES COc1ccc([C@@H]2[NH2+][C@H](C(=O)OCCOC(=O)c3ccc(-c4c5nc(c(-c6c(F)cccc6F)c6ccc([nH]6)c(-c6c(F)cccc6F)c6nc(c(-c7c(F)cccc7F)c7ccc4[nH]7)C=C6)C=C5)cc3)CS2)cc1Cn1nc(C)c(Br)c1C
REMARK SMILES IDX 13 1 12 2 10 3 11 4 9 5 7 6 8 7 73 8 72 11 6 12 3 13 4 14
REMARK SMILES IDX 75 15 5 16 74 17 2 18 1 19 76 20 77 21 78 22 83 23 79 24
REMARK SMILES IDX 81 25 84 26 80 27 82 28 14 29 15 30 16 31 17 32 18 33 19 34
REMARK SMILES IDX 71 35 20 36 70 37 21 38 22 39 23 40 64 41 24 42 69 43 63 44
REMARK SMILES IDX 65 45 25 46 68 47 62 48 61 49 26 51 52 52 35 53 51 54 36 55
REMARK SMILES IDX 39 56 50 57 66 58 37 59 38 60 49 62 67 63 40 64 27 65 28 66
REMARK SMILES IDX 33 67 29 68 30 69 32 70 34 71 31 72 53 73 54 74 59 75 55 76
REMARK SMILES IDX 56 77 58 78 60 79 57 80 41 81 42 82 47 83 43 84 44 85 46 86
REMARK SMILES IDX 48 87 45 88
REMARK H PARENT 8 9 8 10 65 50 39 61
REMARK Flexibility Score: inf
ROOT
ATOM      1  C   UNL A   1      35.573  20.985  25.357  1.00  0.00     0.274 C 
ENDROOT
BRANCH   1   2
ATOM      2  O   UNL A   1      35.317  22.227  24.677  1.00  0.00    -0.458 OA
BRANCH   2   3
ATOM      3  C   UNL A   1      34.040  22.687  24.660  1.00  0.00     0.365 C 
ATOM      4  O   UNL A   1      33.542  23.331  23.740  1.00  0.00    -0.245 OA
BRANCH   3   5
ATOM      5  C   UNL A   1      33.222  22.275  25.893  1.00  0.00     0.304 C 
ATOM      6  C   UNL A   1      31.728  23.957  26.742  1.00  0.00     0.274 C 
ATOM      7  N   UNL A   1      33.044  23.350  26.900  1.00  0.00    -0.319 N 
ATOM      8  S   UNL A   1      30.590  22.648  26.254  1.00  0.00    -0.087 SA
ATOM      9  H   UNL A   1      33.126  22.954  27.837  1.00  0.00     0.348 HD
ATOM     10  H   UNL A   1      33.763  24.062  26.767  1.00  0.00     0.348 HD
ATOM     11  C   UNL A   1      31.884  21.658  25.475  1.00  0.00     0.153 C 
BRANCH   6  12
ATOM     12  C   UNL A   1      31.748  25.174  25.833  1.00  0.00     0.021 A 
ATOM     13  C   UNL A   1      31.668  27.417  24.138  1.00  0.00     0.123 A 
ATOM     14  C   UNL A   1      30.674  26.441  24.054  1.00  0.00     0.047 A 
ATOM     15  C   UNL A   1      32.694  27.327  25.085  1.00  0.00     0.016 A 
ATOM     16  C   UNL A   1      30.713  25.330  24.898  1.00  0.00     0.015 A 
ATOM     17  C   UNL A   1      32.724  26.188  25.911  1.00  0.00     0.020 A 
BRANCH  13  18
ATOM     18  O   UNL A   1      31.563  28.491  23.296  1.00  0.00    -0.496 OA
ATOM     19  C   UNL A   1      30.201  28.874  23.104  1.00  0.00     0.278 C 
ENDBRANCH  13  18
BRANCH  15  20
ATOM     20  C   UNL A   1      33.780  28.370  25.195  1.00  0.00     0.184 C 
BRANCH  20  21
ATOM     21  N   UNL A   1      33.478  29.474  26.108  1.00  0.00    -0.264 N 
ATOM     22  N   UNL A   1      32.346  30.191  25.904  1.00  0.00    -0.177 NA
ATOM     23  C   UNL A   1      34.303  30.037  27.060  1.00  0.00     0.050 A 
ATOM     24  C   UNL A   1      32.444  31.231  26.740  1.00  0.00     0.074 A 
ATOM     25  C   UNL A   1      33.643  31.172  27.473  1.00  0.00     0.061 A 
ATOM     26  C   UNL A   1      35.603  29.464  27.490  1.00  0.00     0.067 C 
ATOM     27  C   UNL A   1      31.369  32.250  26.792  1.00  0.00     0.070 C 
ATOM     28  Br  UNL A   1      34.185  32.417  28.764  1.00  0.00    -0.047 Br
ENDBRANCH  20  21
ENDBRANCH  15  20
ENDBRANCH   6  12
ENDBRANCH   3   5
ENDBRANCH   2   3
ENDBRANCH   1   2
BRANCH   1  29
ATOM     29  C   UNL A   1      36.937  20.407  24.985  1.00  0.00     0.275 C 
BRANCH  29  30
ATOM     30  O   UNL A   1      37.950  21.425  25.059  1.00  0.00    -0.458 OA
BRANCH  30  31
ATOM     31  C   UNL A   1      39.007  21.094  25.832  1.00  0.00     0.338 C 
ATOM     32  O   UNL A   1      39.607  20.035  25.872  1.00  0.00    -0.246 OA
BRANCH  31  33
ATOM     33  C   UNL A   1      39.472  22.277  26.564  1.00  0.00     0.060 A 
ATOM     34  C   UNL A   1      38.942  23.510  26.177  1.00  0.00     0.016 A 
ATOM     35  C   UNL A   1      40.502  22.197  27.500  1.00  0.00     0.016 A 
ATOM     36  C   UNL A   1      39.480  24.686  26.674  1.00  0.00     0.010 A 
ATOM     37  C   UNL A   1      41.051  23.380  27.996  1.00  0.00     0.010 A 
ATOM     38  C   UNL A   1      40.570  24.624  27.546  1.00  0.00    -0.014 A 
BRANCH  38  39
ATOM     39  C   UNL A   1      41.327  25.860  27.820  1.00  0.00     0.031 A 
ATOM     40  C   UNL A   1      40.672  26.926  28.652  1.00  0.00     0.074 A 
ATOM     41  C   UNL A   1      42.594  25.988  27.397  1.00  0.00     0.049 A 
ATOM     42  N   UNL A   1      41.093  28.128  28.939  1.00  0.00    -0.248 NA
ATOM     43  C   UNL A   1      39.365  26.586  29.242  1.00  0.00     0.031 C 
ATOM     44  C   UNL A   1      43.349  24.969  26.669  1.00  0.00     0.029 A 
ATOM     45  N   UNL A   1      43.469  27.033  27.525  1.00  0.00    -0.354 N 
ATOM     46  C   UNL A   1      40.096  28.696  29.722  1.00  0.00     0.074 A 
ATOM     47  C   UNL A   1      39.044  27.714  29.857  1.00  0.00     0.031 C 
ATOM     48  C   UNL A   1      44.579  25.446  26.406  1.00  0.00     0.029 A 
ATOM     49  C   UNL A   1      44.673  26.814  26.906  1.00  0.00     0.049 A 
ATOM     50  H   UNL A   1      43.255  27.861  28.013  1.00  0.00     0.167 HD
ATOM     51  C   UNL A   1      40.067  29.930  30.277  1.00  0.00     0.037 A 
ATOM     52  C   UNL A   1      45.718  27.646  26.739  1.00  0.00     0.037 A 
ATOM     53  C   UNL A   1      41.125  30.892  30.137  1.00  0.00     0.049 A 
ATOM     54  C   UNL A   1      45.630  29.038  27.302  1.00  0.00     0.074 A 
ATOM     55  C   UNL A   1      41.186  32.191  30.609  1.00  0.00     0.029 A 
ATOM     56  N   UNL A   1      42.321  30.646  29.477  1.00  0.00    -0.354 N 
ATOM     57  N   UNL A   1      44.659  29.594  27.987  1.00  0.00    -0.248 NA
ATOM     58  C   UNL A   1      46.780  29.921  27.064  1.00  0.00     0.031 C 
ATOM     59  C   UNL A   1      42.412  32.738  30.215  1.00  0.00     0.029 A 
ATOM     60  C   UNL A   1      43.129  31.768  29.531  1.00  0.00     0.049 A 
ATOM     61  H   UNL A   1      42.559  29.799  29.036  1.00  0.00     0.167 HD
ATOM     62  C   UNL A   1      45.089  30.879  28.286  1.00  0.00     0.074 A 
ATOM     63  C   UNL A   1      46.415  31.017  27.714  1.00  0.00     0.031 C 
ATOM     64  C   UNL A   1      44.451  31.860  28.969  1.00  0.00     0.037 A 
BRANCH  51  65
ATOM     65  C   UNL A   1      38.838  30.308  31.048  1.00  0.00     0.057 A 
ATOM     66  C   UNL A   1      37.771  30.991  30.450  1.00  0.00     0.134 A 
ATOM     67  C   UNL A   1      38.717  29.980  32.403  1.00  0.00     0.134 A 
ATOM     68  F   UNL A   1      37.834  31.354  29.160  1.00  0.00    -0.206 F 
ATOM     69  C   UNL A   1      36.635  31.349  31.178  1.00  0.00     0.040 A 
ATOM     70  C   UNL A   1      37.577  30.314  33.137  1.00  0.00     0.040 A 
ATOM     71  F   UNL A   1      39.705  29.330  33.038  1.00  0.00    -0.206 F 
ATOM     72  C   UNL A   1      36.534  31.005  32.524  1.00  0.00     0.006 A 
ENDBRANCH  51  65
BRANCH  52  73
ATOM     73  C   UNL A   1      46.916  27.199  25.988  1.00  0.00     0.057 A 
ATOM     74  C   UNL A   1      47.016  27.386  24.604  1.00  0.00     0.134 A 
ATOM     75  C   UNL A   1      47.982  26.558  26.631  1.00  0.00     0.134 A 
ATOM     76  F   UNL A   1      46.018  27.975  23.929  1.00  0.00    -0.206 F 
ATOM     77  C   UNL A   1      48.126  26.938  23.884  1.00  0.00     0.040 A 
ATOM     78  C   UNL A   1      49.108  26.128  25.928  1.00  0.00     0.040 A 
ATOM     79  F   UNL A   1      47.948  26.350  27.955  1.00  0.00    -0.206 F 
ATOM     80  C   UNL A   1      49.178  26.311  24.549  1.00  0.00     0.006 A 
ENDBRANCH  52  73
BRANCH  64  81
ATOM     81  C   UNL A   1      45.204  33.139  29.179  1.00  0.00     0.057 A 
ATOM     82  C   UNL A   1      46.046  33.326  30.280  1.00  0.00     0.134 A 
ATOM     83  C   UNL A   1      45.107  34.178  28.247  1.00  0.00     0.134 A 
ATOM     84  F   UNL A   1      46.170  32.370  31.213  1.00  0.00    -0.206 F 
ATOM     85  C   UNL A   1      46.750  34.517  30.459  1.00  0.00     0.040 A 
ATOM     86  C   UNL A   1      45.823  35.364  28.402  1.00  0.00     0.040 A 
ATOM     87  F   UNL A   1      44.321  34.053  27.165  1.00  0.00    -0.206 F 
ATOM     88  C   UNL A   1      46.643  35.538  29.515  1.00  0.00     0.006 A 
ENDBRANCH  64  81
ENDBRANCH  38  39
ENDBRANCH  31  33
ENDBRANCH  30  31
ENDBRANCH  29  30
ENDBRANCH   1  29
TORSDOF 15
ENDMDL
MODEL 2
REMARK VINA RESULT:     -11.4      3.803      8.931
REMARK SMILES COc1ccc([C@@H]2[NH2+][C@H](C(=O)OCCOC(=O)c3ccc(-c4c5nc(c(-c6c(F)cccc6F)c6ccc([nH]6)c(-c6c(F)cccc6F)c6nc(c(-c7c(F)cccc7F)c7ccc4[nH]7)C=C6)C=C5)cc3)CS2)cc1Cn1nc(C)c(Br)c1C
REMARK SMILES IDX 13 1 12 2 10 3 11 4 9 5 7 6 8 7 73 8 72 11 6 12 3 13 4 14
REMARK SMILES IDX 75 15 5 16 74 17 2 18 1 19 76 20 77 21 78 22 83 23 79 24
REMARK SMILES IDX 81 25 84 26 80 27 82 28 14 29 15 30 16 31 17 32 18 33 19 34
REMARK SMILES IDX 71 35 20 36 70 37 21 38 22 39 23 40 64 41 24 42 69 43 63 44
REMARK SMILES IDX 65 45 25 46 68 47 62 48 61 49 26 51 52 52 35 53 51 54 36 55
REMARK SMILES IDX 39 56 50 57 66 58 37 59 38 60 49 62 67 63 40 64 27 65 28 66
REMARK SMILES IDX 33 67 29 68 30 69 32 70 34 71 31 72 53 73 54 74 59 75 55 76
REMARK SMILES IDX 56 77 58 78 60 79 57 80 41 81 42 82 47 83 43 84 44 85 46 86
REMARK SMILES IDX 48 87 45 88
REMARK H PARENT 8 9 8 10 65 50 39 61
REMARK Flexibility Score: inf
ROOT
ATOM      1  C   UNL A   1      32.895  29.689  24.962  1.00  0.00     0.274 C 
ENDROOT
BRANCH   1   2
ATOM      2  O   UNL A   1      33.491  28.427  25.315  1.00  0.00    -0.458 OA
BRANCH   2   3
ATOM      3  C   UNL A   1      32.701  27.325  25.288  1.00  0.00     0.365 C 
ATOM      4  O   UNL A   1      32.666  26.469  26.169  1.00  0.00    -0.245 OA
BRANCH   3   5
ATOM      5  C   UNL A   1      31.781  27.257  24.060  1.00  0.00     0.304 C 
ATOM      6  C   UNL A   1      31.686  25.119  22.964  1.00  0.00     0.274 C 
ATOM      7  N   UNL A   1      32.307  26.438  22.941  1.00  0.00    -0.319 N 
ATOM      8  S   UNL A   1      29.986  25.338  23.520  1.00  0.00    -0.087 SA
ATOM      9  H   UNL A   1      32.097  26.897  22.055  1.00  0.00     0.348 HD
ATOM     10  H   UNL A   1      33.318  26.337  23.040  1.00  0.00     0.348 HD
ATOM     11  C   UNL A   1      30.367  26.830  24.465  1.00  0.00     0.153 C 
BRANCH   6  12
ATOM     12  C   UNL A   1      32.499  24.100  23.745  1.00  0.00     0.021 A 
ATOM     13  C   UNL A   1      33.902  22.164  25.226  1.00  0.00     0.123 A 
ATOM     14  C   UNL A   1      32.593  22.498  25.575  1.00  0.00     0.047 A 
ATOM     15  C   UNL A   1      34.528  22.747  24.118  1.00  0.00     0.016 A 
ATOM     16  C   UNL A   1      31.897  23.456  24.838  1.00  0.00     0.015 A 
ATOM     17  C   UNL A   1      33.814  23.726  23.402  1.00  0.00     0.020 A 
BRANCH  13  18
ATOM     18  O   UNL A   1      34.525  21.203  25.976  1.00  0.00    -0.496 OA
ATOM     19  C   UNL A   1      34.501  21.529  27.367  1.00  0.00     0.278 C 
ENDBRANCH  13  18
BRANCH  15  20
ATOM     20  C   UNL A   1      35.943  22.402  23.721  1.00  0.00     0.184 C 
BRANCH  20  21
ATOM     21  N   UNL A   1      36.933  22.559  24.789  1.00  0.00    -0.264 N 
ATOM     22  N   UNL A   1      37.133  23.794  25.310  1.00  0.00    -0.177 NA
ATOM     23  C   UNL A   1      37.866  21.638  25.222  1.00  0.00     0.050 A 
ATOM     24  C   UNL A   1      38.211  23.665  26.092  1.00  0.00     0.074 A 
ATOM     25  C   UNL A   1      38.694  22.345  26.064  1.00  0.00     0.061 A 
ATOM     26  C   UNL A   1      37.885  20.210  24.820  1.00  0.00     0.067 C 
ATOM     27  C   UNL A   1      38.736  24.834  26.837  1.00  0.00     0.070 C 
ATOM     28  Br  UNL A   1      40.178  21.715  27.019  1.00  0.00    -0.047 Br
ENDBRANCH  20  21
ENDBRANCH  15  20
ENDBRANCH   6  12
ENDBRANCH   3   5
ENDBRANCH   2   3
ENDBRANCH   1   2
BRANCH   1  29
ATOM     29  C   UNL A   1      31.948  30.191  26.050  1.00  0.00     0.275 C 
BRANCH  29  30
ATOM     30  O   UNL A   1      32.649  30.337  27.297  1.00  0.00    -0.458 OA
BRANCH  30  31
ATOM     31  C   UNL A   1      33.346  31.489  27.405  1.00  0.00     0.338 C 
ATOM     32  O   UNL A   1      32.926  32.631  27.341  1.00  0.00    -0.246 OA
BRANCH  31  33
ATOM     33  C   UNL A   1      34.734  31.193  27.776  1.00  0.00     0.060 A 
ATOM     34  C   UNL A   1      35.051  29.856  28.027  1.00  0.00     0.016 A 
ATOM     35  C   UNL A   1      35.658  32.209  28.013  1.00  0.00     0.016 A 
ATOM     36  C   UNL A   1      36.276  29.523  28.580  1.00  0.00     0.010 A 
ATOM     37  C   UNL A   1      36.890  31.877  28.577  1.00  0.00     0.010 A 
ATOM     38  C   UNL A   1      37.179  30.539  28.903  1.00  0.00    -0.014 A 
BRANCH  38  39
ATOM     39  C   UNL A   1      38.330  30.213  29.765  1.00  0.00     0.031 A 
ATOM     40  C   UNL A   1      39.409  29.328  29.208  1.00  0.00     0.074 A 
ATOM     41  C   UNL A   1      38.441  30.759  30.987  1.00  0.00     0.049 A 
ATOM     42  N   UNL A   1      40.457  28.825  29.802  1.00  0.00    -0.248 NA
ATOM     43  C   UNL A   1      39.289  28.966  27.784  1.00  0.00     0.031 C 
ATOM     44  C   UNL A   1      37.497  31.706  31.577  1.00  0.00     0.029 A 
ATOM     45  N   UNL A   1      39.401  30.593  31.947  1.00  0.00    -0.354 N 
ATOM     46  C   UNL A   1      41.108  28.069  28.835  1.00  0.00     0.074 A 
ATOM     47  C   UNL A   1      40.334  28.169  27.618  1.00  0.00     0.031 C 
ATOM     48  C   UNL A   1      37.923  32.033  32.810  1.00  0.00     0.029 A 
ATOM     49  C   UNL A   1      39.139  31.282  33.105  1.00  0.00     0.049 A 
ATOM     50  H   UNL A   1      40.202  30.034  31.821  1.00  0.00     0.167 HD
ATOM     51  C   UNL A   1      42.251  27.355  28.958  1.00  0.00     0.037 A 
ATOM     52  C   UNL A   1      39.799  31.273  34.278  1.00  0.00     0.037 A 
ATOM     53  C   UNL A   1      43.012  27.272  30.174  1.00  0.00     0.049 A 
ATOM     54  C   UNL A   1      41.026  30.413  34.411  1.00  0.00     0.074 A 
ATOM     55  C   UNL A   1      44.156  26.540  30.434  1.00  0.00     0.029 A 
ATOM     56  N   UNL A   1      42.701  27.961  31.338  1.00  0.00    -0.354 N 
ATOM     57  N   UNL A   1      41.603  29.649  33.514  1.00  0.00    -0.248 NA
ATOM     58  C   UNL A   1      41.690  30.410  35.721  1.00  0.00     0.031 C 
ATOM     59  C   UNL A   1      44.525  26.771  31.764  1.00  0.00     0.029 A 
ATOM     60  C   UNL A   1      43.632  27.674  32.319  1.00  0.00     0.049 A 
ATOM     61  H   UNL A   1      41.931  28.565  31.448  1.00  0.00     0.167 HD
ATOM     62  C   UNL A   1      42.711  29.096  34.139  1.00  0.00     0.074 A 
ATOM     63  C   UNL A   1      42.731  29.621  35.491  1.00  0.00     0.031 C 
ATOM     64  C   UNL A   1      43.632  28.232  33.647  1.00  0.00     0.037 A 
BRANCH  51  65
ATOM     65  C   UNL A   1      42.715  26.589  27.756  1.00  0.00     0.057 A 
ATOM     66  C   UNL A   1      42.376  25.244  27.561  1.00  0.00     0.134 A 
ATOM     67  C   UNL A   1      43.506  27.204  26.778  1.00  0.00     0.134 A 
ATOM     68  F   UNL A   1      41.641  24.589  28.472  1.00  0.00    -0.206 F 
ATOM     69  C   UNL A   1      42.822  24.534  26.444  1.00  0.00     0.040 A 
ATOM     70  C   UNL A   1      43.940  26.511  25.647  1.00  0.00     0.040 A 
ATOM     71  F   UNL A   1      43.869  28.490  26.907  1.00  0.00    -0.206 F 
ATOM     72  C   UNL A   1      43.602  25.171  25.481  1.00  0.00     0.006 A 
ENDBRANCH  51  65
BRANCH  52  73
ATOM     73  C   UNL A   1      39.299  32.077  35.420  1.00  0.00     0.057 A 
ATOM     74  C   UNL A   1      38.424  31.529  36.364  1.00  0.00     0.134 A 
ATOM     75  C   UNL A   1      39.672  33.416  35.587  1.00  0.00     0.134 A 
ATOM     76  F   UNL A   1      38.014  30.258  36.247  1.00  0.00    -0.206 F 
ATOM     77  C   UNL A   1      37.923  32.289  37.424  1.00  0.00     0.040 A 
ATOM     78  C   UNL A   1      39.200  34.180  36.655  1.00  0.00     0.040 A 
ATOM     79  F   UNL A   1      40.510  33.999  34.717  1.00  0.00    -0.206 F 
ATOM     80  C   UNL A   1      38.316  33.618  37.573  1.00  0.00     0.006 A 
ENDBRANCH  52  73
BRANCH  64  81
ATOM     81  C   UNL A   1      44.759  27.852  34.557  1.00  0.00     0.057 A 
ATOM     82  C   UNL A   1      44.684  26.737  35.399  1.00  0.00     0.134 A 
ATOM     83  C   UNL A   1      45.946  28.595  34.561  1.00  0.00     0.134 A 
ATOM     84  F   UNL A   1      43.568  25.995  35.447  1.00  0.00    -0.206 F 
ATOM     85  C   UNL A   1      45.745  26.387  36.233  1.00  0.00     0.040 A 
ATOM     86  C   UNL A   1      47.021  28.242  35.374  1.00  0.00     0.040 A 
ATOM     87  F   UNL A   1      46.080  29.670  33.768  1.00  0.00    -0.206 F 
ATOM     88  C   UNL A   1      46.920  27.137  36.218  1.00  0.00     0.006 A 
ENDBRANCH  64  81
ENDBRANCH  38  39
ENDBRANCH  31  33
ENDBRANCH  30  31
ENDBRANCH  29  30
ENDBRANCH   1  29
TORSDOF 15
ENDMDL
MODEL 3
REMARK VINA RESULT:     -11.4      1.980      6.569
REMARK SMILES COc1ccc([C@@H]2[NH2+][C@H](C(=O)OCCOC(=O)c3ccc(-c4c5nc(c(-c6c(F)cccc6F)c6ccc([nH]6)c(-c6c(F)cccc6F)c6nc(c(-c7c(F)cccc7F)c7ccc4[nH]7)C=C6)C=C5)cc3)CS2)cc1Cn1nc(C)c(Br)c1C
REMARK SMILES IDX 13 1 12 2 10 3 11 4 9 5 7 6 8 7 73 8 72 11 6 12 3 13 4 14
REMARK SMILES IDX 75 15 5 16 74 17 2 18 1 19 76 20 77 21 78 22 83 23 79 24
REMARK SMILES IDX 81 25 84 26 80 27 82 28 14 29 15 30 16 31 17 32 18 33 19 34
REMARK SMILES IDX 71 35 20 36 70 37 21 38 22 39 23 40 64 41 24 42 69 43 63 44
REMARK SMILES IDX 65 45 25 46 68 47 62 48 61 49 26 51 52 52 35 53 51 54 36 55
REMARK SMILES IDX 39 56 50 57 66 58 37 59 38 60 49 62 67 63 40 64 27 65 28 66
REMARK SMILES IDX 33 67 29 68 30 69 32 70 34 71 31 72 53 73 54 74 59 75 55 76
REMARK SMILES IDX 56 77 58 78 60 79 57 80 41 81 42 82 47 83 43 84 44 85 46 86
REMARK SMILES IDX 48 87 45 88
REMARK H PARENT 8 9 8 10 65 50 39 61
REMARK Flexibility Score: inf
ROOT
ATOM      1  C   UNL A   1      37.855  20.923  25.028  1.00  0.00     0.274 C 
ENDROOT
BRANCH   1   2
ATOM      2  O   UNL A   1      36.559  20.301  25.102  1.00  0.00    -0.458 OA
BRANCH   2   3
ATOM      3  C   UNL A   1      35.525  21.047  25.567  1.00  0.00     0.365 C 
ATOM      4  O   UNL A   1      35.567  22.261  25.749  1.00  0.00    -0.245 OA
BRANCH   3   5
ATOM      5  C   UNL A   1      34.239  20.239  25.799  1.00  0.00     0.304 C 
ATOM      6  C   UNL A   1      32.256  21.157  24.796  1.00  0.00     0.274 C 
ATOM      7  N   UNL A   1      33.028  21.064  26.030  1.00  0.00    -0.319 N 
ATOM      8  S   UNL A   1      32.418  19.579  23.943  1.00  0.00    -0.087 SA
ATOM      9  H   UNL A   1      32.457  20.633  26.757  1.00  0.00     0.348 HD
ATOM     10  H   UNL A   1      33.307  22.001  26.326  1.00  0.00     0.348 HD
ATOM     11  C   UNL A   1      34.030  19.219  24.676  1.00  0.00     0.153 C 
BRANCH   6  12
ATOM     12  C   UNL A   1      32.612  22.383  23.972  1.00  0.00     0.021 A 
ATOM     13  C   UNL A   1      33.234  24.593  22.347  1.00  0.00     0.123 A 
ATOM     14  C   UNL A   1      33.207  23.309  21.801  1.00  0.00     0.047 A 
ATOM     15  C   UNL A   1      32.915  24.815  23.692  1.00  0.00     0.016 A 
ATOM     16  C   UNL A   1      32.895  22.214  22.607  1.00  0.00     0.015 A 
ATOM     17  C   UNL A   1      32.624  23.693  24.490  1.00  0.00     0.020 A 
BRANCH  13  18
ATOM     18  O   UNL A   1      33.529  25.627  21.501  1.00  0.00    -0.496 OA
ATOM     19  C   UNL A   1      32.538  25.768  20.483  1.00  0.00     0.278 C 
ENDBRANCH  13  18
BRANCH  15  20
ATOM     20  C   UNL A   1      32.938  26.194  24.306  1.00  0.00     0.184 C 
BRANCH  20  21
ATOM     21  N   UNL A   1      31.795  27.039  23.955  1.00  0.00    -0.264 N 
ATOM     22  N   UNL A   1      30.546  26.572  24.197  1.00  0.00    -0.177 NA
ATOM     23  C   UNL A   1      31.796  28.199  23.206  1.00  0.00     0.050 A 
ATOM     24  C   UNL A   1      29.731  27.446  23.596  1.00  0.00     0.074 A 
ATOM     25  C   UNL A   1      30.467  28.468  22.971  1.00  0.00     0.061 A 
ATOM     26  C   UNL A   1      33.019  28.935  22.799  1.00  0.00     0.067 C 
ATOM     27  C   UNL A   1      28.262  27.253  23.648  1.00  0.00     0.070 C 
ATOM     28  Br  UNL A   1      29.731  29.907  22.023  1.00  0.00    -0.047 Br
ENDBRANCH  20  21
ENDBRANCH  15  20
ENDBRANCH   6  12
ENDBRANCH   3   5
ENDBRANCH   2   3
ENDBRANCH   1   2
BRANCH   1  29
ATOM     29  C   UNL A   1      38.965  19.972  25.468  1.00  0.00     0.275 C 
BRANCH  29  30
ATOM     30  O   UNL A   1      40.170  20.705  25.754  1.00  0.00    -0.458 OA
BRANCH  30  31
ATOM     31  C   UNL A   1      40.570  20.626  27.041  1.00  0.00     0.338 C 
ATOM     32  O   UNL A   1      40.845  19.629  27.683  1.00  0.00    -0.246 OA
BRANCH  31  33
ATOM     33  C   UNL A   1      40.788  21.976  27.572  1.00  0.00     0.060 A 
ATOM     34  C   UNL A   1      40.015  23.004  27.028  1.00  0.00     0.016 A 
ATOM     35  C   UNL A   1      41.819  22.248  28.470  1.00  0.00     0.016 A 
ATOM     36  C   UNL A   1      40.305  24.325  27.325  1.00  0.00     0.010 A 
ATOM     37  C   UNL A   1      42.118  23.579  28.765  1.00  0.00     0.010 A 
ATOM     38  C   UNL A   1      41.390  24.616  28.156  1.00  0.00    -0.014 A 
BRANCH  38  39
ATOM     39  C   UNL A   1      41.881  26.006  28.215  1.00  0.00     0.031 A 
ATOM     40  C   UNL A   1      43.199  26.324  27.568  1.00  0.00     0.074 A 
ATOM     41  C   UNL A   1      41.128  26.970  28.767  1.00  0.00     0.049 A 
ATOM     42  N   UNL A   1      43.879  27.438  27.576  1.00  0.00    -0.248 NA
ATOM     43  C   UNL A   1      43.834  25.234  26.805  1.00  0.00     0.031 C 
ATOM     44  C   UNL A   1      39.792  26.780  29.332  1.00  0.00     0.029 A 
ATOM     45  N   UNL A   1      41.382  28.304  28.939  1.00  0.00    -0.354 N 
ATOM     46  C   UNL A   1      45.030  27.179  26.843  1.00  0.00     0.074 A 
ATOM     47  C   UNL A   1      44.964  25.801  26.412  1.00  0.00     0.031 C 
ATOM     48  C   UNL A   1      39.346  27.959  29.799  1.00  0.00     0.029 A 
ATOM     49  C   UNL A   1      40.383  28.968  29.605  1.00  0.00     0.049 A 
ATOM     50  H   UNL A   1      42.202  28.744  28.617  1.00  0.00     0.167 HD
ATOM     51  C   UNL A   1      46.050  28.022  26.557  1.00  0.00     0.037 A 
ATOM     52  C   UNL A   1      40.336  30.243  30.035  1.00  0.00     0.037 A 
ATOM     53  C   UNL A   1      46.096  29.392  26.989  1.00  0.00     0.049 A 
ATOM     54  C   UNL A   1      41.515  31.138  29.769  1.00  0.00     0.074 A 
ATOM     55  C   UNL A   1      47.099  30.327  26.805  1.00  0.00     0.029 A 
ATOM     56  N   UNL A   1      45.077  30.025  27.688  1.00  0.00    -0.354 N 
ATOM     57  N   UNL A   1      42.629  30.873  29.130  1.00  0.00    -0.248 NA
ATOM     58  C   UNL A   1      41.432  32.510  30.288  1.00  0.00     0.031 C 
ATOM     59  C   UNL A   1      46.694  31.521  27.414  1.00  0.00     0.029 A 
ATOM     60  C   UNL A   1      45.426  31.339  27.942  1.00  0.00     0.049 A 
ATOM     61  H   UNL A   1      44.232  29.601  27.962  1.00  0.00     0.167 HD
ATOM     62  C   UNL A   1      43.368  32.047  29.146  1.00  0.00     0.074 A 
ATOM     63  C   UNL A   1      42.569  33.031  29.850  1.00  0.00     0.031 C 
ATOM     64  C   UNL A   1      44.595  32.295  28.628  1.00  0.00     0.037 A 
BRANCH  51  65
ATOM     65  C   UNL A   1      47.201  27.468  25.775  1.00  0.00     0.057 A 
ATOM     66  C   UNL A   1      47.254  27.549  24.377  1.00  0.00     0.134 A 
ATOM     67  C   UNL A   1      48.276  26.850  26.426  1.00  0.00     0.134 A 
ATOM     68  F   UNL A   1      46.246  28.108  23.691  1.00  0.00    -0.206 F 
ATOM     69  C   UNL A   1      48.326  27.020  23.656  1.00  0.00     0.040 A 
ATOM     70  C   UNL A   1      49.363  26.337  25.718  1.00  0.00     0.040 A 
ATOM     71  F   UNL A   1      48.286  26.736  27.764  1.00  0.00    -0.206 F 
ATOM     72  C   UNL A   1      49.386  26.416  24.327  1.00  0.00     0.006 A 
ENDBRANCH  51  65
BRANCH  52  73
ATOM     73  C   UNL A   1      39.152  30.735  30.781  1.00  0.00     0.057 A 
ATOM     74  C   UNL A   1      39.038  30.548  32.163  1.00  0.00     0.134 A 
ATOM     75  C   UNL A   1      38.101  31.390  30.129  1.00  0.00     0.134 A 
ATOM     76  F   UNL A   1      40.003  29.909  32.840  1.00  0.00    -0.206 F 
ATOM     77  C   UNL A   1      37.912  30.980  32.868  1.00  0.00     0.040 A 
ATOM     78  C   UNL A   1      36.982  31.849  30.825  1.00  0.00     0.040 A 
ATOM     79  F   UNL A   1      38.151  31.602  28.806  1.00  0.00    -0.206 F 
ATOM     80  C   UNL A   1      36.882  31.636  32.198  1.00  0.00     0.006 A 
ENDBRANCH  52  73
BRANCH  64  81
ATOM     81  C   UNL A   1      45.115  33.695  28.757  1.00  0.00     0.057 A 
ATOM     82  C   UNL A   1      45.916  34.087  29.834  1.00  0.00     0.134 A 
ATOM     83  C   UNL A   1      44.835  34.647  27.769  1.00  0.00     0.134 A 
ATOM     84  F   UNL A   1      46.208  33.222  30.817  1.00  0.00    -0.206 F 
ATOM     85  C   UNL A   1      46.403  35.390  29.937  1.00  0.00     0.040 A 
ATOM     86  C   UNL A   1      45.334  35.945  27.850  1.00  0.00     0.040 A 
ATOM     87  F   UNL A   1      44.079  34.326  26.708  1.00  0.00    -0.206 F 
ATOM     88  C   UNL A   1      46.117  36.322  28.940  1.00  0.00     0.006 A 
ENDBRANCH  64  81
ENDBRANCH  38  39
ENDBRANCH  31  33
ENDBRANCH  30  31
ENDBRANCH  29  30
ENDBRANCH   1  29
TORSDOF 15
ENDMDL
