MODEL 1
REMARK VINA RESULT:     -10.9      0.000      0.000
REMARK SMILES CCC1(CC)CCN(C(=O)N2CC[C@](C)(C(=O)OCCOC(=O)c3ccc(-c4c5nc(c(-c6c(F)cccc6F)c6ccc([nH]6)c(-c6c(F)cccc6F)c6nc(c(-c7c(F)cccc7F)c7ccc4[nH]7)C=C6)C=C5)cc3)C2)C1
REMARK SMILES IDX 19 1 18 2 16 3 17 4 14 5 11 6 12 7 78 8 13 9 15 10 9 11
REMARK SMILES IDX 10 12 8 13 3 14 6 15 79 16 7 17 2 18 1 19 4 20 5 21 20 22
REMARK SMILES IDX 21 23 22 24 23 25 24 26 25 27 77 28 26 29 76 30 27 31 28 32
REMARK SMILES IDX 29 33 70 34 30 35 75 36 69 37 71 38 31 39 74 40 68 41 67 42
REMARK SMILES IDX 32 44 58 45 41 46 57 47 42 48 45 49 56 50 72 51 43 52 44 53
REMARK SMILES IDX 55 55 73 56 46 57 33 58 34 59 39 60 35 61 36 62 38 63 40 64
REMARK SMILES IDX 37 65 59 66 60 67 65 68 61 69 62 70 64 71 66 72 63 73 47 74
REMARK SMILES IDX 48 75 53 76 49 77 50 78 52 79 54 80 51 81
REMARK H PARENT 71 43 45 54
REMARK Flexibility Score: inf
ROOT
ATOM      1  C   UNL A   1      44.486  20.539  25.358  1.00  0.00     0.274 C 
ENDROOT
BRANCH   1   2
ATOM      2  O   UNL A   1      43.070  20.754  25.193  1.00  0.00    -0.462 OA
BRANCH   2   3
ATOM      3  C   UNL A   1      42.250  19.821  25.751  1.00  0.00     0.313 C 
ATOM      4  O   UNL A   1      42.424  18.611  25.674  1.00  0.00    -0.252 OA
BRANCH   3   5
ATOM      5  C   UNL A   1      41.080  20.457  26.494  1.00  0.00     0.084 C 
ATOM      6  N   UNL A   1      38.908  20.877  25.619  1.00  0.00    -0.323 N 
ATOM      7  C   UNL A   1      39.374  22.113  26.207  1.00  0.00     0.122 C 
ATOM      8  C   UNL A   1      39.768  19.786  26.051  1.00  0.00     0.139 C 
ATOM      9  C   UNL A   1      40.880  21.950  26.140  1.00  0.00     0.042 C 
ATOM     10  C   UNL A   1      41.280  20.308  28.013  1.00  0.00     0.026 C 
BRANCH   6  11
ATOM     11  C   UNL A   1      37.700  20.595  25.048  1.00  0.00     0.320 C 
ATOM     12  O   UNL A   1      37.414  19.430  24.755  1.00  0.00    -0.248 OA
BRANCH  11  13
ATOM     13  N   UNL A   1      36.835  21.619  24.768  1.00  0.00    -0.324 N 
ATOM     14  C   UNL A   1      34.752  22.839  24.852  1.00  0.00    -0.011 C 
ATOM     15  C   UNL A   1      35.825  23.577  24.028  1.00  0.00     0.030 C 
ATOM     16  C   UNL A   1      35.605  21.733  25.543  1.00  0.00     0.128 C 
ATOM     17  C   UNL A   1      36.751  22.458  23.585  1.00  0.00     0.122 C 
BRANCH  14  18
ATOM     18  C   UNL A   1      33.677  22.143  23.963  1.00  0.00     0.005 C 
ATOM     19  C   UNL A   1      33.081  22.948  22.814  1.00  0.00     0.004 C 
ENDBRANCH  14  18
BRANCH  14  20
ATOM     20  C   UNL A   1      34.137  23.733  25.956  1.00  0.00     0.005 C 
ATOM     21  C   UNL A   1      34.014  25.216  25.650  1.00  0.00     0.004 C 
ENDBRANCH  14  20
ENDBRANCH  11  13
ENDBRANCH   6  11
ENDBRANCH   3   5
ENDBRANCH   2   3
ENDBRANCH   1   2
BRANCH   1  22
ATOM     22  C   UNL A   1      45.202  21.848  25.676  1.00  0.00     0.275 C 
BRANCH  22  23
ATOM     23  O   UNL A   1      44.283  22.776  26.280  1.00  0.00    -0.458 OA
BRANCH  23  24
ATOM     24  C   UNL A   1      44.158  23.967  25.663  1.00  0.00     0.338 C 
ATOM     25  O   UNL A   1      44.479  24.264  24.519  1.00  0.00    -0.246 OA
BRANCH  24  26
ATOM     26  C   UNL A   1      43.495  24.910  26.568  1.00  0.00     0.060 A 
ATOM     27  C   UNL A   1      43.906  26.243  26.569  1.00  0.00     0.016 A 
ATOM     28  C   UNL A   1      42.561  24.456  27.498  1.00  0.00     0.016 A 
ATOM     29  C   UNL A   1      43.426  27.122  27.533  1.00  0.00     0.010 A 
ATOM     30  C   UNL A   1      42.036  25.354  28.432  1.00  0.00     0.010 A 
ATOM     31  C   UNL A   1      42.487  26.687  28.476  1.00  0.00    -0.014 A 
BRANCH  31  32
ATOM     32  C   UNL A   1      42.027  27.606  29.546  1.00  0.00     0.031 A 
ATOM     33  C   UNL A   1      42.772  27.668  30.850  1.00  0.00     0.074 A 
ATOM     34  C   UNL A   1      40.960  28.402  29.348  1.00  0.00     0.049 A 
ATOM     35  N   UNL A   1      42.458  28.295  31.954  1.00  0.00    -0.248 NA
ATOM     36  C   UNL A   1      44.037  26.920  30.921  1.00  0.00     0.031 C 
ATOM     37  C   UNL A   1      40.178  28.478  28.114  1.00  0.00     0.029 A 
ATOM     38  N   UNL A   1      40.353  29.302  30.186  1.00  0.00    -0.354 N 
ATOM     39  C   UNL A   1      43.455  27.977  32.867  1.00  0.00     0.074 A 
ATOM     40  C   UNL A   1      44.388  27.104  32.185  1.00  0.00     0.031 C 
ATOM     41  C   UNL A   1      39.205  29.389  28.268  1.00  0.00     0.029 A 
ATOM     42  C   UNL A   1      39.258  29.917  29.628  1.00  0.00     0.049 A 
ATOM     43  H   UNL A   1      40.670  29.490  31.098  1.00  0.00     0.167 HD
ATOM     44  C   UNL A   1      43.579  28.371  34.156  1.00  0.00     0.037 A 
ATOM     45  C   UNL A   1      38.378  30.783  30.163  1.00  0.00     0.037 A 
ATOM     46  C   UNL A   1      42.678  29.276  34.819  1.00  0.00     0.049 A 
ATOM     47  C   UNL A   1      38.526  31.198  31.598  1.00  0.00     0.074 A 
ATOM     48  C   UNL A   1      42.727  29.745  36.121  1.00  0.00     0.029 A 
ATOM     49  N   UNL A   1      41.569  29.860  34.225  1.00  0.00    -0.354 N 
ATOM     50  N   UNL A   1      39.443  30.847  32.467  1.00  0.00    -0.248 NA
ATOM     51  C   UNL A   1      37.507  32.113  32.132  1.00  0.00     0.031 C 
ATOM     52  C   UNL A   1      41.633  30.596  36.320  1.00  0.00     0.029 A 
ATOM     53  C   UNL A   1      40.922  30.679  35.135  1.00  0.00     0.049 A 
ATOM     54  H   UNL A   1      41.286  29.714  33.294  1.00  0.00     0.167 HD
ATOM     55  C   UNL A   1      39.114  31.498  33.648  1.00  0.00     0.074 A 
ATOM     56  C   UNL A   1      37.925  32.281  33.379  1.00  0.00     0.031 C 
ATOM     57  C   UNL A   1      39.737  31.445  34.850  1.00  0.00     0.037 A 
BRANCH  44  58
ATOM     58  C   UNL A   1      44.716  27.793  34.942  1.00  0.00     0.057 A 
ATOM     59  C   UNL A   1      45.962  28.426  35.024  1.00  0.00     0.134 A 
ATOM     60  C   UNL A   1      44.554  26.587  35.635  1.00  0.00     0.134 A 
ATOM     61  F   UNL A   1      46.185  29.575  34.366  1.00  0.00    -0.206 F 
ATOM     62  C   UNL A   1      47.015  27.868  35.751  1.00  0.00     0.040 A 
ATOM     63  C   UNL A   1      45.593  26.029  36.380  1.00  0.00     0.040 A 
ATOM     64  F   UNL A   1      43.384  25.931  35.596  1.00  0.00    -0.206 F 
ATOM     65  C   UNL A   1      46.830  26.668  36.435  1.00  0.00     0.006 A 
ENDBRANCH  44  58
BRANCH  45  66
ATOM     66  C   UNL A   1      37.257  31.291  29.336  1.00  0.00     0.057 A 
ATOM     67  C   UNL A   1      36.121  30.510  29.102  1.00  0.00     0.134 A 
ATOM     68  C   UNL A   1      37.289  32.574  28.779  1.00  0.00     0.134 A 
ATOM     69  F   UNL A   1      36.046  29.265  29.593  1.00  0.00    -0.206 F 
ATOM     70  C   UNL A   1      35.053  30.988  28.342  1.00  0.00     0.040 A 
ATOM     71  C   UNL A   1      36.220  33.073  28.034  1.00  0.00     0.040 A 
ATOM     72  F   UNL A   1      38.353  33.369  28.968  1.00  0.00    -0.206 F 
ATOM     73  C   UNL A   1      35.098  32.277  27.812  1.00  0.00     0.006 A 
ENDBRANCH  45  66
BRANCH  57  74
ATOM     74  C   UNL A   1      39.146  32.262  35.958  1.00  0.00     0.057 A 
ATOM     75  C   UNL A   1      38.236  31.711  36.867  1.00  0.00     0.134 A 
ATOM     76  C   UNL A   1      39.515  33.602  36.134  1.00  0.00     0.134 A 
ATOM     77  F   UNL A   1      37.835  30.438  36.741  1.00  0.00    -0.206 F 
ATOM     78  C   UNL A   1      37.699  32.471  37.908  1.00  0.00     0.040 A 
ATOM     79  C   UNL A   1      38.998  34.366  37.181  1.00  0.00     0.040 A 
ATOM     80  F   UNL A   1      40.387  34.184  35.298  1.00  0.00    -0.206 F 
ATOM     81  C   UNL A   1      38.084  33.801  38.070  1.00  0.00     0.006 A 
ENDBRANCH  57  74
ENDBRANCH  31  32
ENDBRANCH  24  26
ENDBRANCH  23  24
ENDBRANCH  22  23
ENDBRANCH   1  22
TORSDOF 15
ENDMDL
MODEL 2
REMARK VINA RESULT:     -10.9      4.103      8.473
REMARK SMILES CCC1(CC)CCN(C(=O)N2CC[C@](C)(C(=O)OCCOC(=O)c3ccc(-c4c5nc(c(-c6c(F)cccc6F)c6ccc([nH]6)c(-c6c(F)cccc6F)c6nc(c(-c7c(F)cccc7F)c7ccc4[nH]7)C=C6)C=C5)cc3)C2)C1
REMARK SMILES IDX 19 1 18 2 16 3 17 4 14 5 11 6 12 7 78 8 13 9 15 10 9 11
REMARK SMILES IDX 10 12 8 13 3 14 6 15 79 16 7 17 2 18 1 19 4 20 5 21 20 22
REMARK SMILES IDX 21 23 22 24 23 25 24 26 25 27 77 28 26 29 76 30 27 31 28 32
REMARK SMILES IDX 29 33 70 34 30 35 75 36 69 37 71 38 31 39 74 40 68 41 67 42
REMARK SMILES IDX 32 44 58 45 41 46 57 47 42 48 45 49 56 50 72 51 43 52 44 53
REMARK SMILES IDX 55 55 73 56 46 57 33 58 34 59 39 60 35 61 36 62 38 63 40 64
REMARK SMILES IDX 37 65 59 66 60 67 65 68 61 69 62 70 64 71 66 72 63 73 47 74
REMARK SMILES IDX 48 75 53 76 49 77 50 78 52 79 54 80 51 81
REMARK H PARENT 71 43 45 54
REMARK Flexibility Score: inf
ROOT
ATOM      1  C   UNL A   1      35.356  21.595  26.000  1.00  0.00     0.274 C 
ENDROOT
BRANCH   1   2
ATOM      2  O   UNL A   1      34.383  22.404  25.310  1.00  0.00    -0.462 OA
BRANCH   2   3
ATOM      3  C   UNL A   1      33.215  21.789  24.975  1.00  0.00     0.313 C 
ATOM      4  O   UNL A   1      32.749  20.821  25.563  1.00  0.00    -0.252 OA
BRANCH   3   5
ATOM      5  C   UNL A   1      32.541  22.450  23.778  1.00  0.00     0.084 C 
ATOM      6  N   UNL A   1      32.757  24.724  23.112  1.00  0.00    -0.323 N 
ATOM      7  C   UNL A   1      31.341  24.436  23.182  1.00  0.00     0.122 C 
ATOM      8  C   UNL A   1      33.504  23.476  23.153  1.00  0.00     0.139 C 
ATOM      9  C   UNL A   1      31.300  23.286  24.170  1.00  0.00     0.042 C 
ATOM     10  C   UNL A   1      32.140  21.382  22.744  1.00  0.00     0.026 C 
BRANCH   6  11
ATOM     11  C   UNL A   1      33.384  25.871  22.716  1.00  0.00     0.320 C 
ATOM     12  O   UNL A   1      34.021  25.890  21.659  1.00  0.00    -0.248 OA
BRANCH  11  13
ATOM     13  N   UNL A   1      33.334  26.976  23.522  1.00  0.00    -0.324 N 
ATOM     14  C   UNL A   1      33.276  28.188  25.611  1.00  0.00    -0.011 C 
ATOM     15  C   UNL A   1      33.279  29.131  24.391  1.00  0.00     0.030 C 
ATOM     16  C   UNL A   1      33.626  26.824  24.943  1.00  0.00     0.128 C 
ATOM     17  C   UNL A   1      32.706  28.264  23.283  1.00  0.00     0.122 C 
BRANCH  14  18
ATOM     18  C   UNL A   1      31.871  28.061  26.275  1.00  0.00     0.005 C 
ATOM     19  C   UNL A   1      31.319  26.657  26.496  1.00  0.00     0.004 C 
ENDBRANCH  14  18
BRANCH  14  20
ATOM     20  C   UNL A   1      34.396  28.530  26.623  1.00  0.00     0.005 C 
ATOM     21  C   UNL A   1      34.351  29.910  27.258  1.00  0.00     0.004 C 
ENDBRANCH  14  20
ENDBRANCH  11  13
ENDBRANCH   6  11
ENDBRANCH   3   5
ENDBRANCH   2   3
ENDBRANCH   1   2
BRANCH   1  22
ATOM     22  C   UNL A   1      36.215  20.814  25.009  1.00  0.00     0.275 C 
BRANCH  22  23
ATOM     23  O   UNL A   1      37.463  21.497  24.796  1.00  0.00    -0.458 OA
BRANCH  23  24
ATOM     24  C   UNL A   1      38.496  21.087  25.557  1.00  0.00     0.338 C 
ATOM     25  O   UNL A   1      38.919  19.947  25.708  1.00  0.00    -0.246 OA
BRANCH  24  26
ATOM     26  C   UNL A   1      39.131  22.254  26.176  1.00  0.00     0.060 A 
ATOM     27  C   UNL A   1      38.597  23.519  25.928  1.00  0.00     0.016 A 
ATOM     28  C   UNL A   1      40.317  22.114  26.894  1.00  0.00     0.016 A 
ATOM     29  C   UNL A   1      39.272  24.658  26.351  1.00  0.00     0.010 A 
ATOM     30  C   UNL A   1      40.967  23.258  27.368  1.00  0.00     0.010 A 
ATOM     31  C   UNL A   1      40.465  24.540  27.073  1.00  0.00    -0.014 A 
BRANCH  31  32
ATOM     32  C   UNL A   1      41.221  25.756  27.464  1.00  0.00     0.031 A 
ATOM     33  C   UNL A   1      40.562  26.806  28.313  1.00  0.00     0.074 A 
ATOM     34  C   UNL A   1      42.502  25.913  27.081  1.00  0.00     0.049 A 
ATOM     35  N   UNL A   1      40.997  27.994  28.646  1.00  0.00    -0.248 NA
ATOM     36  C   UNL A   1      39.235  26.476  28.855  1.00  0.00     0.031 C 
ATOM     37  C   UNL A   1      43.277  24.949  26.299  1.00  0.00     0.029 A 
ATOM     38  N   UNL A   1      43.378  26.945  27.305  1.00  0.00    -0.354 N 
ATOM     39  C   UNL A   1      39.977  28.574  29.391  1.00  0.00     0.074 A 
ATOM     40  C   UNL A   1      38.905  27.605  29.465  1.00  0.00     0.031 C 
ATOM     41  C   UNL A   1      44.519  25.426  26.123  1.00  0.00     0.029 A 
ATOM     42  C   UNL A   1      44.609  26.753  26.727  1.00  0.00     0.049 A 
ATOM     43  H   UNL A   1      43.147  27.746  27.828  1.00  0.00     0.167 HD
ATOM     44  C   UNL A   1      39.938  29.804  29.956  1.00  0.00     0.037 A 
ATOM     45  C   UNL A   1      45.679  27.566  26.663  1.00  0.00     0.037 A 
ATOM     46  C   UNL A   1      41.022  30.749  29.923  1.00  0.00     0.049 A 
ATOM     47  C   UNL A   1      45.610  28.930  27.286  1.00  0.00     0.074 A 
ATOM     48  C   UNL A   1      41.082  32.016  30.478  1.00  0.00     0.029 A 
ATOM     49  N   UNL A   1      42.245  30.523  29.309  1.00  0.00    -0.354 N 
ATOM     50  N   UNL A   1      44.621  29.488  27.941  1.00  0.00    -0.248 NA
ATOM     51  C   UNL A   1      46.798  29.784  27.144  1.00  0.00     0.031 C 
ATOM     52  C   UNL A   1      42.334  32.566  30.179  1.00  0.00     0.029 A 
ATOM     53  C   UNL A   1      43.064  31.630  29.465  1.00  0.00     0.049 A 
ATOM     54  H   UNL A   1      42.494  29.698  28.834  1.00  0.00     0.167 HD
ATOM     55  C   UNL A   1      45.065  30.755  28.291  1.00  0.00     0.074 A 
ATOM     56  C   UNL A   1      46.421  30.878  27.793  1.00  0.00     0.031 C 
ATOM     57  C   UNL A   1      44.407  31.734  28.958  1.00  0.00     0.037 A 
BRANCH  44  58
ATOM     58  C   UNL A   1      38.662  30.206  30.630  1.00  0.00     0.057 A 
ATOM     59  C   UNL A   1      37.637  30.872  29.948  1.00  0.00     0.134 A 
ATOM     60  C   UNL A   1      38.456  29.912  31.984  1.00  0.00     0.134 A 
ATOM     61  F   UNL A   1      37.783  31.199  28.655  1.00  0.00    -0.206 F 
ATOM     62  C   UNL A   1      36.460  31.250  30.594  1.00  0.00     0.040 A 
ATOM     63  C   UNL A   1      37.275  30.268  32.636  1.00  0.00     0.040 A 
ATOM     64  F   UNL A   1      39.400  29.274  32.694  1.00  0.00    -0.206 F 
ATOM     65  C   UNL A   1      36.274  30.945  31.942  1.00  0.00     0.006 A 
ENDBRANCH  44  58
BRANCH  45  66
ATOM     66  C   UNL A   1      46.899  27.115  25.952  1.00  0.00     0.057 A 
ATOM     67  C   UNL A   1      47.068  27.353  24.585  1.00  0.00     0.134 A 
ATOM     68  C   UNL A   1      47.932  26.455  26.629  1.00  0.00     0.134 A 
ATOM     69  F   UNL A   1      46.102  27.962  23.883  1.00  0.00    -0.206 F 
ATOM     70  C   UNL A   1      48.223  26.950  23.912  1.00  0.00     0.040 A 
ATOM     71  C   UNL A   1      49.100  26.064  25.974  1.00  0.00     0.040 A 
ATOM     72  F   UNL A   1      47.827  26.198  27.941  1.00  0.00    -0.206 F 
ATOM     73  C   UNL A   1      49.246  26.311  24.610  1.00  0.00     0.006 A 
ENDBRANCH  45  66
BRANCH  57  74
ATOM     74  C   UNL A   1      45.148  33.014  29.192  1.00  0.00     0.057 A 
ATOM     75  C   UNL A   1      45.057  34.086  28.296  1.00  0.00     0.134 A 
ATOM     76  C   UNL A   1      45.934  33.187  30.337  1.00  0.00     0.134 A 
ATOM     77  F   UNL A   1      44.329  33.975  27.174  1.00  0.00    -0.206 F 
ATOM     78  C   UNL A   1      45.736  35.284  28.525  1.00  0.00     0.040 A 
ATOM     79  C   UNL A   1      46.604  34.385  30.585  1.00  0.00     0.040 A 
ATOM     80  F   UNL A   1      46.057  32.198  31.234  1.00  0.00    -0.206 F 
ATOM     81  C   UNL A   1      46.509  35.438  29.675  1.00  0.00     0.006 A 
ENDBRANCH  57  74
ENDBRANCH  31  32
ENDBRANCH  24  26
ENDBRANCH  23  24
ENDBRANCH  22  23
ENDBRANCH   1  22
TORSDOF 15
ENDMDL
MODEL 3
REMARK VINA RESULT:     -10.7      4.220      8.894
REMARK SMILES CCC1(CC)CCN(C(=O)N2CC[C@](C)(C(=O)OCCOC(=O)c3ccc(-c4c5nc(c(-c6c(F)cccc6F)c6ccc([nH]6)c(-c6c(F)cccc6F)c6nc(c(-c7c(F)cccc7F)c7ccc4[nH]7)C=C6)C=C5)cc3)C2)C1
REMARK SMILES IDX 19 1 18 2 16 3 17 4 14 5 11 6 12 7 78 8 13 9 15 10 9 11
REMARK SMILES IDX 10 12 8 13 3 14 6 15 79 16 7 17 2 18 1 19 4 20 5 21 20 22
REMARK SMILES IDX 21 23 22 24 23 25 24 26 25 27 77 28 26 29 76 30 27 31 28 32
REMARK SMILES IDX 29 33 70 34 30 35 75 36 69 37 71 38 31 39 74 40 68 41 67 42
REMARK SMILES IDX 32 44 58 45 41 46 57 47 42 48 45 49 56 50 72 51 43 52 44 53
REMARK SMILES IDX 55 55 73 56 46 57 33 58 34 59 39 60 35 61 36 62 38 63 40 64
REMARK SMILES IDX 37 65 59 66 60 67 65 68 61 69 62 70 64 71 66 72 63 73 47 74
REMARK SMILES IDX 48 75 53 76 49 77 50 78 52 79 54 80 51 81
REMARK H PARENT 71 43 45 54
REMARK Flexibility Score: inf
ROOT
ATOM      1  C   UNL A   1      31.486  31.925  26.875  1.00  0.00     0.274 C 
ENDROOT
BRANCH   1   2
ATOM      2  O   UNL A   1      32.309  30.774  26.601  1.00  0.00    -0.462 OA
BRANCH   2   3
ATOM      3  C   UNL A   1      31.807  29.870  25.714  1.00  0.00     0.313 C 
ATOM      4  O   UNL A   1      30.999  30.139  24.834  1.00  0.00    -0.252 OA
BRANCH   3   5
ATOM      5  C   UNL A   1      32.375  28.472  25.937  1.00  0.00     0.084 C 
ATOM      6  N   UNL A   1      31.505  26.437  25.063  1.00  0.00    -0.323 N 
ATOM      7  C   UNL A   1      31.678  26.248  26.487  1.00  0.00     0.122 C 
ATOM      8  C   UNL A   1      32.207  27.644  24.651  1.00  0.00     0.139 C 
ATOM      9  C   UNL A   1      31.600  27.670  27.008  1.00  0.00     0.042 C 
ATOM     10  C   UNL A   1      33.860  28.565  26.332  1.00  0.00     0.026 C 
BRANCH   6  11
ATOM     11  C   UNL A   1      31.095  25.542  24.118  1.00  0.00     0.320 C 
ATOM     12  O   UNL A   1      29.923  25.551  23.729  1.00  0.00    -0.248 OA
BRANCH  11  13
ATOM     13  N   UNL A   1      31.982  24.613  23.643  1.00  0.00    -0.324 N 
ATOM     14  C   UNL A   1      33.675  22.896  23.790  1.00  0.00    -0.011 C 
ATOM     15  C   UNL A   1      33.260  23.181  22.332  1.00  0.00     0.030 C 
ATOM     16  C   UNL A   1      32.565  23.657  24.577  1.00  0.00     0.128 C 
ATOM     17  C   UNL A   1      32.727  24.603  22.396  1.00  0.00     0.122 C 
BRANCH  14  18
ATOM     18  C   UNL A   1      35.054  23.523  24.161  1.00  0.00     0.005 C 
ATOM     19  C   UNL A   1      35.103  24.460  25.362  1.00  0.00     0.004 C 
ENDBRANCH  14  18
BRANCH  14  20
ATOM     20  C   UNL A   1      33.576  21.394  24.148  1.00  0.00     0.005 C 
ATOM     21  C   UNL A   1      32.345  20.952  24.923  1.00  0.00     0.004 C 
ENDBRANCH  14  20
ENDBRANCH  11  13
ENDBRANCH   6  11
ENDBRANCH   3   5
ENDBRANCH   2   3
ENDBRANCH   1   2
BRANCH   1  22
ATOM     22  C   UNL A   1      32.309  33.208  26.824  1.00  0.00     0.275 C 
BRANCH  22  23
ATOM     23  O   UNL A   1      32.162  33.936  28.056  1.00  0.00    -0.458 OA
BRANCH  23  24
ATOM     24  C   UNL A   1      33.210  34.703  28.416  1.00  0.00     0.338 C 
ATOM     25  O   UNL A   1      33.264  35.924  28.488  1.00  0.00    -0.246 OA
BRANCH  24  26
ATOM     26  C   UNL A   1      34.332  33.838  28.790  1.00  0.00     0.060 A 
ATOM     27  C   UNL A   1      34.062  32.619  29.412  1.00  0.00     0.016 A 
ATOM     28  C   UNL A   1      35.645  34.282  28.642  1.00  0.00     0.016 A 
ATOM     29  C   UNL A   1      35.099  31.857  29.938  1.00  0.00     0.010 A 
ATOM     30  C   UNL A   1      36.692  33.488  29.121  1.00  0.00     0.010 A 
ATOM     31  C   UNL A   1      36.425  32.284  29.800  1.00  0.00    -0.014 A 
BRANCH  31  32
ATOM     32  C   UNL A   1      37.525  31.507  30.422  1.00  0.00     0.031 A 
ATOM     33  C   UNL A   1      37.838  31.687  31.881  1.00  0.00     0.074 A 
ATOM     34  C   UNL A   1      38.230  30.622  29.692  1.00  0.00     0.049 A 
ATOM     35  N   UNL A   1      38.838  31.213  32.578  1.00  0.00    -0.248 NA
ATOM     36  C   UNL A   1      36.904  32.519  32.655  1.00  0.00     0.031 C 
ATOM     37  C   UNL A   1      37.997  30.312  28.281  1.00  0.00     0.029 A 
ATOM     38  N   UNL A   1      39.285  29.818  30.042  1.00  0.00    -0.354 N 
ATOM     39  C   UNL A   1      38.684  31.728  33.859  1.00  0.00     0.074 A 
ATOM     40  C   UNL A   1      37.491  32.549  33.843  1.00  0.00     0.031 C 
ATOM     41  C   UNL A   1      38.872  29.372  27.890  1.00  0.00     0.029 A 
ATOM     42  C   UNL A   1      39.763  29.057  29.003  1.00  0.00     0.049 A 
ATOM     43  H   UNL A   1      39.664  29.789  30.950  1.00  0.00     0.167 HD
ATOM     44  C   UNL A   1      39.468  31.538  34.946  1.00  0.00     0.037 A 
ATOM     45  C   UNL A   1      40.818  28.225  28.946  1.00  0.00     0.037 A 
ATOM     46  C   UNL A   1      40.626  30.686  34.975  1.00  0.00     0.049 A 
ATOM     47  C   UNL A   1      41.681  28.039  30.159  1.00  0.00     0.074 A 
ATOM     48  C   UNL A   1      41.477  30.419  36.033  1.00  0.00     0.029 A 
ATOM     49  N   UNL A   1      41.088  29.948  33.895  1.00  0.00    -0.354 N 
ATOM     50  N   UNL A   1      41.557  28.573  31.349  1.00  0.00    -0.248 NA
ATOM     51  C   UNL A   1      42.842  27.149  30.016  1.00  0.00     0.031 C 
ATOM     52  C   UNL A   1      42.469  29.537  35.586  1.00  0.00     0.029 A 
ATOM     53  C   UNL A   1      42.217  29.233  34.258  1.00  0.00     0.049 A 
ATOM     54  H   UNL A   1      40.674  29.935  33.002  1.00  0.00     0.167 HD
ATOM     55  C   UNL A   1      42.619  28.086  32.097  1.00  0.00     0.074 A 
ATOM     56  C   UNL A   1      43.367  27.195  31.233  1.00  0.00     0.031 C 
ATOM     57  C   UNL A   1      42.951  28.357  33.383  1.00  0.00     0.037 A 
BRANCH  44  58
ATOM     58  C   UNL A   1      39.112  32.300  36.187  1.00  0.00     0.057 A 
ATOM     59  C   UNL A   1      38.256  31.776  37.162  1.00  0.00     0.134 A 
ATOM     60  C   UNL A   1      39.646  33.576  36.408  1.00  0.00     0.134 A 
ATOM     61  F   UNL A   1      37.697  30.567  36.997  1.00  0.00    -0.206 F 
ATOM     62  C   UNL A   1      37.925  32.503  38.306  1.00  0.00     0.040 A 
ATOM     63  C   UNL A   1      39.337  34.305  37.557  1.00  0.00     0.040 A 
ATOM     64  F   UNL A   1      40.473  34.133  35.512  1.00  0.00    -0.206 F 
ATOM     65  C   UNL A   1      38.470  33.771  38.508  1.00  0.00     0.006 A 
ENDBRANCH  44  58
BRANCH  45  66
ATOM     66  C   UNL A   1      41.130  27.527  27.675  1.00  0.00     0.057 A 
ATOM     67  C   UNL A   1      41.933  28.128  26.700  1.00  0.00     0.134 A 
ATOM     68  C   UNL A   1      40.651  26.238  27.418  1.00  0.00     0.134 A 
ATOM     69  F   UNL A   1      42.401  29.371  26.884  1.00  0.00    -0.206 F 
ATOM     70  C   UNL A   1      42.249  27.471  25.510  1.00  0.00     0.040 A 
ATOM     71  C   UNL A   1      40.975  25.560  26.242  1.00  0.00     0.040 A 
ATOM     72  F   UNL A   1      39.877  25.610  28.315  1.00  0.00    -0.206 F 
ATOM     73  C   UNL A   1      41.775  26.179  25.283  1.00  0.00     0.006 A 
ENDBRANCH  45  66
BRANCH  57  74
ATOM     74  C   UNL A   1      44.168  27.677  33.929  1.00  0.00     0.057 A 
ATOM     75  C   UNL A   1      45.427  28.285  33.882  1.00  0.00     0.134 A 
ATOM     76  C   UNL A   1      44.073  26.418  34.534  1.00  0.00     0.134 A 
ATOM     77  F   UNL A   1      45.583  29.485  33.303  1.00  0.00    -0.206 F 
ATOM     78  C   UNL A   1      46.559  27.656  34.407  1.00  0.00     0.040 A 
ATOM     79  C   UNL A   1      45.193  25.786  35.077  1.00  0.00     0.040 A 
ATOM     80  F   UNL A   1      42.893  25.787  34.614  1.00  0.00    -0.206 F 
ATOM     81  C   UNL A   1      46.441  26.404  35.011  1.00  0.00     0.006 A 
ENDBRANCH  57  74
ENDBRANCH  31  32
ENDBRANCH  24  26
ENDBRANCH  23  24
ENDBRANCH  22  23
ENDBRANCH   1  22
TORSDOF 15
ENDMDL
