MODEL 1
REMARK VINA RESULT:     -10.5      0.000      0.000
REMARK SMILES CC(C)[C@H](NC(=O)CCNC(=O)c1ccoc1)C(=O)OCCOC(=O)c1ccc(-c2c3nc(c(-c4c(F)cccc4F)c4ccc([nH]4)c(-c4c(F)cccc4F)c4nc(c(-c5c(F)cccc5F)c5ccc2[nH]5)C=C4)C=C3)cc1
REMARK SMILES IDX 20 1 18 2 19 3 4 4 2 5 1 6 3 7 5 8 6 9 7 11 8 12 9 13 10 14
REMARK SMILES IDX 11 15 12 17 13 18 14 19 17 20 15 21 16 22 21 23 22 24 23 25
REMARK SMILES IDX 24 26 25 27 26 28 27 29 79 30 28 31 78 32 29 33 30 34 31 35
REMARK SMILES IDX 72 36 32 37 77 38 71 39 73 40 33 41 76 42 70 43 69 44 34 46
REMARK SMILES IDX 60 47 43 48 59 49 44 50 47 51 58 52 74 53 45 54 46 55 57 57
REMARK SMILES IDX 75 58 48 59 35 60 36 61 41 62 37 63 38 64 40 65 42 66 39 67
REMARK SMILES IDX 61 68 62 69 67 70 63 71 64 72 66 73 68 74 65 75 49 76 50 77
REMARK SMILES IDX 55 78 51 79 52 80 54 81 56 82 53 83
REMARK H PARENT 5 10 10 16 73 45 47 56
REMARK Flexibility Score: inf
ROOT
ATOM      1  O   UNL A   1      32.110  30.726  25.889  1.00  0.00    -0.461 OA
ENDROOT
BRANCH   1   2
ATOM      2  C   UNL A   1      31.803  29.469  26.300  1.00  0.00     0.329 C 
ATOM      3  O   UNL A   1      31.536  29.176  27.465  1.00  0.00    -0.250 OA
BRANCH   2   4
ATOM      4  C   UNL A   1      31.946  28.379  25.222  1.00  0.00     0.194 C 
BRANCH   4   5
ATOM      5  C   UNL A   1      33.461  28.115  25.115  1.00  0.00     0.017 C 
ATOM      6  C   UNL A   1      33.892  26.725  25.595  1.00  0.00     0.010 C 
ATOM      7  C   UNL A   1      33.995  28.461  23.721  1.00  0.00     0.010 C 
ENDBRANCH   4   5
BRANCH   4   8
ATOM      8  N   UNL A   1      31.321  28.570  23.907  1.00  0.00    -0.342 N 
ATOM      9  C   UNL A   1      30.368  27.798  23.289  1.00  0.00     0.222 C 
ATOM     10  H   UNL A   1      31.626  29.357  23.400  1.00  0.00     0.164 HD
ATOM     11  O   UNL A   1      29.864  28.214  22.244  1.00  0.00    -0.275 OA
BRANCH   9  12
ATOM     12  C   UNL A   1      29.929  26.449  23.864  1.00  0.00     0.121 C 
BRANCH  12  13
ATOM     13  C   UNL A   1      30.503  25.242  23.094  1.00  0.00     0.126 C 
BRANCH  13  14
ATOM     14  N   UNL A   1      31.667  25.543  22.266  1.00  0.00    -0.351 N 
ATOM     15  C   UNL A   1      32.946  25.041  22.276  1.00  0.00     0.254 C 
ATOM     16  H   UNL A   1      31.507  26.229  21.578  1.00  0.00     0.163 HD
ATOM     17  O   UNL A   1      33.819  25.642  21.651  1.00  0.00    -0.269 OA
BRANCH  15  18
ATOM     18  C   UNL A   1      33.255  23.838  23.011  1.00  0.00     0.077 A 
ATOM     19  C   UNL A   1      32.559  22.598  23.031  1.00  0.00     0.056 A 
ATOM     20  C   UNL A   1      34.431  23.605  23.700  1.00  0.00     0.208 A 
ATOM     21  C   UNL A   1      33.348  21.716  23.734  1.00  0.00     0.195 A 
ATOM     22  O   UNL A   1      34.478  22.332  24.166  1.00  0.00    -0.472 OA
ENDBRANCH  15  18
ENDBRANCH  13  14
ENDBRANCH  12  13
ENDBRANCH   9  12
ENDBRANCH   4   8
ENDBRANCH   2   4
ENDBRANCH   1   2
BRANCH   1  23
ATOM     23  C   UNL A   1      31.361  31.750  26.582  1.00  0.00     0.274 C 
BRANCH  23  24
ATOM     24  C   UNL A   1      32.103  33.086  26.758  1.00  0.00     0.275 C 
BRANCH  24  25
ATOM     25  O   UNL A   1      32.138  33.565  28.117  1.00  0.00    -0.458 OA
BRANCH  25  26
ATOM     26  C   UNL A   1      33.189  34.373  28.397  1.00  0.00     0.338 C 
ATOM     27  O   UNL A   1      33.148  35.574  28.607  1.00  0.00    -0.246 OA
BRANCH  26  28
ATOM     28  C   UNL A   1      34.423  33.597  28.617  1.00  0.00     0.060 A 
ATOM     29  C   UNL A   1      34.276  32.315  29.152  1.00  0.00     0.016 A 
ATOM     30  C   UNL A   1      35.693  34.152  28.474  1.00  0.00     0.016 A 
ATOM     31  C   UNL A   1      35.375  31.584  29.572  1.00  0.00     0.010 A 
ATOM     32  C   UNL A   1      36.809  33.418  28.904  1.00  0.00     0.010 A 
ATOM     33  C   UNL A   1      36.651  32.144  29.482  1.00  0.00    -0.014 A 
BRANCH  33  34
ATOM     34  C   UNL A   1      37.772  31.430  30.138  1.00  0.00     0.031 A 
ATOM     35  C   UNL A   1      38.016  31.639  31.606  1.00  0.00     0.074 A 
ATOM     36  C   UNL A   1      38.489  30.519  29.454  1.00  0.00     0.049 A 
ATOM     37  N   UNL A   1      38.969  31.162  32.365  1.00  0.00    -0.248 NA
ATOM     38  C   UNL A   1      37.055  32.500  32.313  1.00  0.00     0.031 C 
ATOM     39  C   UNL A   1      38.280  30.160  28.051  1.00  0.00     0.029 A 
ATOM     40  N   UNL A   1      39.527  29.717  29.855  1.00  0.00    -0.354 N 
ATOM     41  C   UNL A   1      38.745  31.697  33.628  1.00  0.00     0.074 A 
ATOM     42  C   UNL A   1      37.574  32.541  33.532  1.00  0.00     0.031 C 
ATOM     43  C   UNL A   1      39.155  29.199  27.711  1.00  0.00     0.029 A 
ATOM     44  C   UNL A   1      40.021  28.919  28.853  1.00  0.00     0.049 A 
ATOM     45  H   UNL A   1      39.884  29.714  30.772  1.00  0.00     0.167 HD
ATOM     46  C   UNL A   1      39.455  31.499  34.765  1.00  0.00     0.037 A 
ATOM     47  C   UNL A   1      41.073  28.080  28.850  1.00  0.00     0.037 A 
ATOM     48  C   UNL A   1      40.601  30.632  34.856  1.00  0.00     0.049 A 
ATOM     49  C   UNL A   1      41.879  27.919  30.109  1.00  0.00     0.074 A 
ATOM     50  C   UNL A   1      41.404  30.373  35.954  1.00  0.00     0.029 A 
ATOM     51  N   UNL A   1      41.102  29.873  33.807  1.00  0.00    -0.354 N 
ATOM     52  N   UNL A   1      41.697  28.471  31.285  1.00  0.00    -0.248 NA
ATOM     53  C   UNL A   1      43.039  27.023  30.040  1.00  0.00     0.031 C 
ATOM     54  C   UNL A   1      42.412  29.487  35.557  1.00  0.00     0.029 A 
ATOM     55  C   UNL A   1      42.208  29.154  34.227  1.00  0.00     0.049 A 
ATOM     56  H   UNL A   1      40.726  29.851  32.897  1.00  0.00     0.167 HD
ATOM     57  C   UNL A   1      42.703  27.972  32.101  1.00  0.00     0.074 A 
ATOM     58  C   UNL A   1      43.479  27.056  31.289  1.00  0.00     0.031 C 
ATOM     59  C   UNL A   1      42.962  28.243  33.404  1.00  0.00     0.037 A 
BRANCH  46  60
ATOM     60  C   UNL A   1      39.036  32.272  35.982  1.00  0.00     0.057 A 
ATOM     61  C   UNL A   1      38.166  31.741  36.943  1.00  0.00     0.134 A 
ATOM     62  C   UNL A   1      39.519  33.570  36.195  1.00  0.00     0.134 A 
ATOM     63  F   UNL A   1      37.650  30.512  36.790  1.00  0.00    -0.206 F 
ATOM     64  C   UNL A   1      37.770  32.485  38.058  1.00  0.00     0.040 A 
ATOM     65  C   UNL A   1      39.153  34.311  37.319  1.00  0.00     0.040 A 
ATOM     66  F   UNL A   1      40.358  34.138  35.315  1.00  0.00    -0.206 F 
ATOM     67  C   UNL A   1      38.269  33.771  38.251  1.00  0.00     0.006 A 
ENDBRANCH  46  60
BRANCH  47  68
ATOM     68  C   UNL A   1      41.442  27.350  27.610  1.00  0.00     0.057 A 
ATOM     69  C   UNL A   1      42.235  27.946  26.623  1.00  0.00     0.134 A 
ATOM     70  C   UNL A   1      40.999  26.042  27.377  1.00  0.00     0.134 A 
ATOM     71  F   UNL A   1      42.671  29.206  26.777  1.00  0.00    -0.206 F 
ATOM     72  C   UNL A   1      42.562  27.276  25.443  1.00  0.00     0.040 A 
ATOM     73  C   UNL A   1      41.342  25.349  26.215  1.00  0.00     0.040 A 
ATOM     74  F   UNL A   1      40.237  25.412  28.283  1.00  0.00    -0.206 F 
ATOM     75  C   UNL A   1      42.120  25.970  25.240  1.00  0.00     0.006 A 
ENDBRANCH  47  68
BRANCH  59  76
ATOM     76  C   UNL A   1      44.106  27.504  34.035  1.00  0.00     0.057 A 
ATOM     77  C   UNL A   1      45.402  28.034  34.074  1.00  0.00     0.134 A 
ATOM     78  C   UNL A   1      43.903  26.247  34.617  1.00  0.00     0.134 A 
ATOM     79  F   UNL A   1      45.667  29.227  33.522  1.00  0.00    -0.206 F 
ATOM     80  C   UNL A   1      46.463  27.322  34.637  1.00  0.00     0.040 A 
ATOM     81  C   UNL A   1      44.949  25.539  35.210  1.00  0.00     0.040 A 
ATOM     82  F   UNL A   1      42.683  25.688  34.624  1.00  0.00    -0.206 F 
ATOM     83  C   UNL A   1      46.236  26.071  35.210  1.00  0.00     0.006 A 
ENDBRANCH  59  76
ENDBRANCH  33  34
ENDBRANCH  26  28
ENDBRANCH  25  26
ENDBRANCH  24  25
ENDBRANCH  23  24
ENDBRANCH   1  23
TORSDOF 17
ENDMDL
MODEL 2
REMARK VINA RESULT:     -10.2      3.824      7.620
REMARK SMILES CC(C)[C@H](NC(=O)CCNC(=O)c1ccoc1)C(=O)OCCOC(=O)c1ccc(-c2c3nc(c(-c4c(F)cccc4F)c4ccc([nH]4)c(-c4c(F)cccc4F)c4nc(c(-c5c(F)cccc5F)c5ccc2[nH]5)C=C4)C=C3)cc1
REMARK SMILES IDX 20 1 18 2 19 3 4 4 2 5 1 6 3 7 5 8 6 9 7 11 8 12 9 13 10 14
REMARK SMILES IDX 11 15 12 17 13 18 14 19 17 20 15 21 16 22 21 23 22 24 23 25
REMARK SMILES IDX 24 26 25 27 26 28 27 29 79 30 28 31 78 32 29 33 30 34 31 35
REMARK SMILES IDX 72 36 32 37 77 38 71 39 73 40 33 41 76 42 70 43 69 44 34 46
REMARK SMILES IDX 60 47 43 48 59 49 44 50 47 51 58 52 74 53 45 54 46 55 57 57
REMARK SMILES IDX 75 58 48 59 35 60 36 61 41 62 37 63 38 64 40 65 42 66 39 67
REMARK SMILES IDX 61 68 62 69 67 70 63 71 64 72 66 73 68 74 65 75 49 76 50 77
REMARK SMILES IDX 55 78 51 79 52 80 54 81 56 82 53 83
REMARK H PARENT 5 10 10 16 73 45 47 56
REMARK Flexibility Score: inf
ROOT
ATOM      1  O   UNL A   1      34.475  21.700  24.061  1.00  0.00    -0.461 OA
ENDROOT
BRANCH   1   2
ATOM      2  C   UNL A   1      33.221  21.980  24.499  1.00  0.00     0.329 C 
ATOM      3  O   UNL A   1      32.408  21.121  24.838  1.00  0.00    -0.250 OA
BRANCH   2   4
ATOM      4  C   UNL A   1      32.819  23.463  24.415  1.00  0.00     0.194 C 
BRANCH   4   5
ATOM      5  C   UNL A   1      31.310  23.490  24.730  1.00  0.00     0.017 C 
ATOM      6  C   UNL A   1      30.959  24.132  26.076  1.00  0.00     0.010 C 
ATOM      7  C   UNL A   1      30.502  24.064  23.562  1.00  0.00     0.010 C 
ENDBRANCH   4   5
BRANCH   4   8
ATOM      8  N   UNL A   1      33.149  24.241  23.215  1.00  0.00    -0.342 N 
ATOM      9  C   UNL A   1      33.634  25.523  23.129  1.00  0.00     0.222 C 
ATOM     10  H   UNL A   1      33.005  23.782  22.356  1.00  0.00     0.164 HD
ATOM     11  O   UNL A   1      33.989  25.943  22.025  1.00  0.00    -0.275 OA
BRANCH   9  12
ATOM     12  C   UNL A   1      33.738  26.428  24.358  1.00  0.00     0.121 C 
BRANCH  12  13
ATOM     13  C   UNL A   1      32.643  27.513  24.411  1.00  0.00     0.126 C 
BRANCH  13  14
ATOM     14  N   UNL A   1      31.763  27.438  25.573  1.00  0.00    -0.351 N 
ATOM     15  C   UNL A   1      31.877  27.964  26.837  1.00  0.00     0.254 C 
ATOM     16  H   UNL A   1      30.941  26.917  25.425  1.00  0.00     0.163 HD
ATOM     17  O   UNL A   1      31.130  27.543  27.719  1.00  0.00    -0.269 OA
BRANCH  15  18
ATOM     18  C   UNL A   1      32.858  28.984  27.121  1.00  0.00     0.077 A 
ATOM     19  C   UNL A   1      34.258  28.845  27.330  1.00  0.00     0.056 A 
ATOM     20  C   UNL A   1      32.636  30.346  27.045  1.00  0.00     0.208 A 
ATOM     21  C   UNL A   1      34.776  30.119  27.380  1.00  0.00     0.195 A 
ATOM     22  O   UNL A   1      33.788  31.039  27.232  1.00  0.00    -0.472 OA
ENDBRANCH  15  18
ENDBRANCH  13  14
ENDBRANCH  12  13
ENDBRANCH   9  12
ENDBRANCH   4   8
ENDBRANCH   2   4
ENDBRANCH   1   2
BRANCH   1  23
ATOM     23  C   UNL A   1      35.193  20.793  24.928  1.00  0.00     0.274 C 
BRANCH  23  24
ATOM     24  C   UNL A   1      36.341  21.434  25.727  1.00  0.00     0.275 C 
BRANCH  24  25
ATOM     25  O   UNL A   1      37.589  21.506  25.008  1.00  0.00    -0.458 OA
BRANCH  25  26
ATOM     26  C   UNL A   1      38.675  21.166  25.743  1.00  0.00     0.338 C 
ATOM     27  O   UNL A   1      39.246  20.088  25.741  1.00  0.00    -0.246 OA
BRANCH  26  28
ATOM     28  C   UNL A   1      39.243  22.335  26.440  1.00  0.00     0.060 A 
ATOM     29  C   UNL A   1      38.752  23.590  26.072  1.00  0.00     0.016 A 
ATOM     30  C   UNL A   1      40.336  22.237  27.298  1.00  0.00     0.016 A 
ATOM     31  C   UNL A   1      39.350  24.754  26.525  1.00  0.00     0.010 A 
ATOM     32  C   UNL A   1      40.949  23.413  27.755  1.00  0.00     0.010 A 
ATOM     33  C   UNL A   1      40.477  24.675  27.346  1.00  0.00    -0.014 A 
BRANCH  33  34
ATOM     34  C   UNL A   1      41.219  25.926  27.632  1.00  0.00     0.031 A 
ATOM     35  C   UNL A   1      40.565  26.992  28.465  1.00  0.00     0.074 A 
ATOM     36  C   UNL A   1      42.503  26.057  27.248  1.00  0.00     0.049 A 
ATOM     37  N   UNL A   1      41.007  28.180  28.789  1.00  0.00    -0.248 NA
ATOM     38  C   UNL A   1      39.235  26.675  29.009  1.00  0.00     0.031 C 
ATOM     39  C   UNL A   1      43.273  25.049  26.519  1.00  0.00     0.029 A 
ATOM     40  N   UNL A   1      43.388  27.086  27.435  1.00  0.00    -0.354 N 
ATOM     41  C   UNL A   1      39.994  28.766  29.539  1.00  0.00     0.074 A 
ATOM     42  C   UNL A   1      38.912  27.808  29.614  1.00  0.00     0.031 C 
ATOM     43  C   UNL A   1      44.522  25.505  26.331  1.00  0.00     0.029 A 
ATOM     44  C   UNL A   1      44.620  26.857  26.874  1.00  0.00     0.049 A 
ATOM     45  H   UNL A   1      43.164  27.910  27.924  1.00  0.00     0.167 HD
ATOM     46  C   UNL A   1      39.972  29.993  30.113  1.00  0.00     0.037 A 
ATOM     47  C   UNL A   1      45.696  27.661  26.782  1.00  0.00     0.037 A 
ATOM     48  C   UNL A   1      41.067  30.926  30.057  1.00  0.00     0.049 A 
ATOM     49  C   UNL A   1      45.628  29.040  27.379  1.00  0.00     0.074 A 
ATOM     50  C   UNL A   1      41.144  32.202  30.588  1.00  0.00     0.029 A 
ATOM     51  N   UNL A   1      42.285  30.677  29.439  1.00  0.00    -0.354 N 
ATOM     52  N   UNL A   1      44.646  29.608  28.037  1.00  0.00    -0.248 NA
ATOM     53  C   UNL A   1      46.814  29.889  27.216  1.00  0.00     0.031 C 
ATOM     54  C   UNL A   1      42.394  32.738  30.258  1.00  0.00     0.029 A 
ATOM     55  C   UNL A   1      43.116  31.778  29.566  1.00  0.00     0.049 A 
ATOM     56  H   UNL A   1      42.523  29.840  28.977  1.00  0.00     0.167 HD
ATOM     57  C   UNL A   1      45.104  30.872  28.387  1.00  0.00     0.074 A 
ATOM     58  C   UNL A   1      46.459  30.976  27.885  1.00  0.00     0.031 C 
ATOM     59  C   UNL A   1      44.464  31.858  29.063  1.00  0.00     0.037 A 
BRANCH  46  60
ATOM     60  C   UNL A   1      38.706  30.407  30.805  1.00  0.00     0.057 A 
ATOM     61  C   UNL A   1      38.496  30.193  32.173  1.00  0.00     0.134 A 
ATOM     62  C   UNL A   1      37.681  31.037  30.085  1.00  0.00     0.134 A 
ATOM     63  F   UNL A   1      39.427  29.577  32.916  1.00  0.00    -0.206 F 
ATOM     64  C   UNL A   1      37.301  30.565  32.794  1.00  0.00     0.040 A 
ATOM     65  C   UNL A   1      36.495  31.437  30.701  1.00  0.00     0.040 A 
ATOM     66  F   UNL A   1      37.817  31.274  28.772  1.00  0.00    -0.206 F 
ATOM     67  C   UNL A   1      36.299  31.195  32.059  1.00  0.00     0.006 A 
ENDBRANCH  46  60
BRANCH  47  68
ATOM     68  C   UNL A   1      46.917  27.195  26.076  1.00  0.00     0.057 A 
ATOM     69  C   UNL A   1      47.077  27.382  24.699  1.00  0.00     0.134 A 
ATOM     70  C   UNL A   1      47.949  26.541  26.761  1.00  0.00     0.134 A 
ATOM     71  F   UNL A   1      46.114  27.980  23.982  1.00  0.00    -0.206 F 
ATOM     72  C   UNL A   1      48.210  26.922  24.024  1.00  0.00     0.040 A 
ATOM     73  C   UNL A   1      49.099  26.101  26.106  1.00  0.00     0.040 A 
ATOM     74  F   UNL A   1      47.859  26.331  28.083  1.00  0.00    -0.206 F 
ATOM     75  C   UNL A   1      49.229  26.285  24.730  1.00  0.00     0.006 A 
ENDBRANCH  47  68
BRANCH  59  76
ATOM     76  C   UNL A   1      45.244  33.111  29.334  1.00  0.00     0.057 A 
ATOM     77  C   UNL A   1      45.221  34.204  28.458  1.00  0.00     0.134 A 
ATOM     78  C   UNL A   1      46.024  33.224  30.491  1.00  0.00     0.134 A 
ATOM     79  F   UNL A   1      44.505  34.154  27.325  1.00  0.00    -0.206 F 
ATOM     80  C   UNL A   1      45.976  35.352  28.707  1.00  0.00     0.040 A 
ATOM     81  C   UNL A   1      46.759  34.378  30.765  1.00  0.00     0.040 A 
ATOM     82  F   UNL A   1      46.081  32.218  31.377  1.00  0.00    -0.206 F 
ATOM     83  C   UNL A   1      46.746  35.442  29.866  1.00  0.00     0.006 A 
ENDBRANCH  59  76
ENDBRANCH  33  34
ENDBRANCH  26  28
ENDBRANCH  25  26
ENDBRANCH  24  25
ENDBRANCH  23  24
ENDBRANCH   1  23
TORSDOF 17
ENDMDL
MODEL 3
REMARK VINA RESULT:     -10.2      4.028      7.665
REMARK SMILES CC(C)[C@H](NC(=O)CCNC(=O)c1ccoc1)C(=O)OCCOC(=O)c1ccc(-c2c3nc(c(-c4c(F)cccc4F)c4ccc([nH]4)c(-c4c(F)cccc4F)c4nc(c(-c5c(F)cccc5F)c5ccc2[nH]5)C=C4)C=C3)cc1
REMARK SMILES IDX 20 1 18 2 19 3 4 4 2 5 1 6 3 7 5 8 6 9 7 11 8 12 9 13 10 14
REMARK SMILES IDX 11 15 12 17 13 18 14 19 17 20 15 21 16 22 21 23 22 24 23 25
REMARK SMILES IDX 24 26 25 27 26 28 27 29 79 30 28 31 78 32 29 33 30 34 31 35
REMARK SMILES IDX 72 36 32 37 77 38 71 39 73 40 33 41 76 42 70 43 69 44 34 46
REMARK SMILES IDX 60 47 43 48 59 49 44 50 47 51 58 52 74 53 45 54 46 55 57 57
REMARK SMILES IDX 75 58 48 59 35 60 36 61 41 62 37 63 38 64 40 65 42 66 39 67
REMARK SMILES IDX 61 68 62 69 67 70 63 71 64 72 66 73 68 74 65 75 49 76 50 77
REMARK SMILES IDX 55 78 51 79 52 80 54 81 56 82 53 83
REMARK H PARENT 5 10 10 16 73 45 47 56
REMARK Flexibility Score: inf
ROOT
ATOM      1  O   UNL A   1      35.485  21.085  25.748  1.00  0.00    -0.461 OA
ENDROOT
BRANCH   1   2
ATOM      2  C   UNL A   1      34.144  21.221  25.588  1.00  0.00     0.329 C 
ATOM      3  O   UNL A   1      33.346  20.290  25.683  1.00  0.00    -0.250 OA
BRANCH   2   4
ATOM      4  C   UNL A   1      33.682  22.617  25.132  1.00  0.00     0.194 C 
BRANCH   4   5
ATOM      5  C   UNL A   1      34.975  23.365  24.750  1.00  0.00     0.017 C 
ATOM      6  C   UNL A   1      35.336  23.277  23.264  1.00  0.00     0.010 C 
ATOM      7  C   UNL A   1      34.973  24.800  25.285  1.00  0.00     0.010 C 
ENDBRANCH   4   5
BRANCH   4   8
ATOM      8  N   UNL A   1      32.815  23.418  26.006  1.00  0.00    -0.342 N 
ATOM      9  C   UNL A   1      31.493  23.749  25.833  1.00  0.00     0.222 C 
ATOM     10  H   UNL A   1      33.238  23.763  26.825  1.00  0.00     0.164 HD
ATOM     11  O   UNL A   1      30.904  24.308  26.760  1.00  0.00    -0.275 OA
BRANCH   9  12
ATOM     12  C   UNL A   1      30.751  23.445  24.530  1.00  0.00     0.121 C 
BRANCH  12  13
ATOM     13  C   UNL A   1      30.764  24.621  23.532  1.00  0.00     0.126 C 
BRANCH  13  14
ATOM     14  N   UNL A   1      31.843  24.577  22.550  1.00  0.00    -0.351 N 
ATOM     15  C   UNL A   1      32.598  25.575  21.982  1.00  0.00     0.254 C 
ATOM     16  H   UNL A   1      32.069  23.672  22.238  1.00  0.00     0.163 HD
ATOM     17  O   UNL A   1      33.268  25.310  20.985  1.00  0.00    -0.269 OA
BRANCH  15  18
ATOM     18  C   UNL A   1      32.596  26.905  22.543  1.00  0.00     0.077 A 
ATOM     19  C   UNL A   1      33.668  27.627  23.138  1.00  0.00     0.056 A 
ATOM     20  C   UNL A   1      31.566  27.819  22.423  1.00  0.00     0.208 A 
ATOM     21  C   UNL A   1      33.211  28.908  23.345  1.00  0.00     0.195 A 
ATOM     22  O   UNL A   1      31.922  29.024  22.935  1.00  0.00    -0.472 OA
ENDBRANCH  15  18
ENDBRANCH  13  14
ENDBRANCH  12  13
ENDBRANCH   9  12
ENDBRANCH   4   8
ENDBRANCH   2   4
ENDBRANCH   1   2
BRANCH   1  23
ATOM     23  C   UNL A   1      36.045  20.003  24.970  1.00  0.00     0.274 C 
BRANCH  23  24
ATOM     24  C   UNL A   1      37.580  20.001  24.875  1.00  0.00     0.275 C 
BRANCH  24  25
ATOM     25  O   UNL A   1      38.200  21.211  25.356  1.00  0.00    -0.458 OA
BRANCH  25  26
ATOM     26  C   UNL A   1      39.329  21.009  26.079  1.00  0.00     0.338 C 
ATOM     27  O   UNL A   1      40.006  19.995  26.104  1.00  0.00    -0.246 OA
BRANCH  26  28
ATOM     28  C   UNL A   1      39.788  22.255  26.721  1.00  0.00     0.060 A 
ATOM     29  C   UNL A   1      39.280  23.453  26.212  1.00  0.00     0.016 A 
ATOM     30  C   UNL A   1      40.806  22.277  27.671  1.00  0.00     0.016 A 
ATOM     31  C   UNL A   1      39.789  24.675  26.616  1.00  0.00     0.010 A 
ATOM     32  C   UNL A   1      41.331  23.512  28.078  1.00  0.00     0.010 A 
ATOM     33  C   UNL A   1      40.845  24.715  27.529  1.00  0.00    -0.014 A 
BRANCH  33  34
ATOM     34  C   UNL A   1      41.508  26.018  27.771  1.00  0.00     0.031 A 
ATOM     35  C   UNL A   1      40.798  27.063  28.584  1.00  0.00     0.074 A 
ATOM     36  C   UNL A   1      42.776  26.219  27.365  1.00  0.00     0.049 A 
ATOM     37  N   UNL A   1      41.168  28.285  28.870  1.00  0.00    -0.248 NA
ATOM     38  C   UNL A   1      39.498  26.677  29.155  1.00  0.00     0.031 C 
ATOM     39  C   UNL A   1      43.601  25.242  26.653  1.00  0.00     0.029 A 
ATOM     40  N   UNL A   1      43.597  27.308  27.512  1.00  0.00    -0.354 N 
ATOM     41  C   UNL A   1      40.129  28.826  29.618  1.00  0.00     0.074 A 
ATOM     42  C   UNL A   1      39.111  27.804  29.734  1.00  0.00     0.031 C 
ATOM     43  C   UNL A   1      44.816  25.771  26.435  1.00  0.00     0.029 A 
ATOM     44  C   UNL A   1      44.834  27.142  26.939  1.00  0.00     0.049 A 
ATOM     45  H   UNL A   1      43.326  28.129  27.982  1.00  0.00     0.167 HD
ATOM     46  C   UNL A   1      40.035  30.065  30.158  1.00  0.00     0.037 A 
ATOM     47  C   UNL A   1      45.855  28.010  26.811  1.00  0.00     0.037 A 
ATOM     48  C   UNL A   1      41.068  31.064  30.062  1.00  0.00     0.049 A 
ATOM     49  C   UNL A   1      45.706  29.397  27.371  1.00  0.00     0.074 A 
ATOM     50  C   UNL A   1      41.069  32.357  30.557  1.00  0.00     0.029 A 
ATOM     51  N   UNL A   1      42.291  30.876  29.434  1.00  0.00    -0.354 N 
ATOM     52  N   UNL A   1      44.698  29.921  28.027  1.00  0.00    -0.248 NA
ATOM     53  C   UNL A   1      46.833  30.315  27.168  1.00  0.00     0.031 C 
ATOM     54  C   UNL A   1      42.278  32.961  30.195  1.00  0.00     0.029 A 
ATOM     55  C   UNL A   1      43.051  32.030  29.519  1.00  0.00     0.049 A 
ATOM     56  H   UNL A   1      42.576  30.043  28.991  1.00  0.00     0.167 HD
ATOM     57  C   UNL A   1      45.079  31.220  28.337  1.00  0.00     0.074 A 
ATOM     58  C   UNL A   1      46.418  31.396  27.813  1.00  0.00     0.031 C 
ATOM     59  C   UNL A   1      44.385  32.181  28.995  1.00  0.00     0.037 A 
BRANCH  46  60
ATOM     60  C   UNL A   1      38.754  30.417  30.857  1.00  0.00     0.057 A 
ATOM     61  C   UNL A   1      37.672  31.003  30.187  1.00  0.00     0.134 A 
ATOM     62  C   UNL A   1      38.601  30.156  32.225  1.00  0.00     0.134 A 
ATOM     63  F   UNL A   1      37.760  31.297  28.881  1.00  0.00    -0.206 F 
ATOM     64  C   UNL A   1      36.496  31.343  30.859  1.00  0.00     0.040 A 
ATOM     65  C   UNL A   1      37.420  30.467  32.901  1.00  0.00     0.040 A 
ATOM     66  F   UNL A   1      39.596  29.595  32.927  1.00  0.00    -0.206 F 
ATOM     67  C   UNL A   1      36.365  31.069  32.218  1.00  0.00     0.006 A 
ENDBRANCH  46  60
BRANCH  47  68
ATOM     68  C   UNL A   1      47.094  27.603  26.100  1.00  0.00     0.057 A 
ATOM     69  C   UNL A   1      47.188  27.666  24.706  1.00  0.00     0.134 A 
ATOM     70  C   UNL A   1      48.212  27.129  26.800  1.00  0.00     0.134 A 
ATOM     71  F   UNL A   1      46.143  28.089  23.978  1.00  0.00    -0.206 F 
ATOM     72  C   UNL A   1      48.340  27.260  24.030  1.00  0.00     0.040 A 
ATOM     73  C   UNL A   1      49.380  26.746  26.140  1.00  0.00     0.040 A 
ATOM     74  F   UNL A   1      48.188  27.044  28.138  1.00  0.00    -0.206 F 
ATOM     75  C   UNL A   1      49.443  26.804  24.749  1.00  0.00     0.006 A 
ENDBRANCH  47  68
BRANCH  59  76
ATOM     76  C   UNL A   1      45.087  33.489  29.220  1.00  0.00     0.057 A 
ATOM     77  C   UNL A   1      44.981  34.554  28.317  1.00  0.00     0.134 A 
ATOM     78  C   UNL A   1      45.875  33.683  30.362  1.00  0.00     0.134 A 
ATOM     79  F   UNL A   1      44.253  34.428  27.198  1.00  0.00    -0.206 F 
ATOM     80  C   UNL A   1      45.664  35.754  28.524  1.00  0.00     0.040 A 
ATOM     81  C   UNL A   1      46.538  34.888  30.594  1.00  0.00     0.040 A 
ATOM     82  F   UNL A   1      46.010  32.706  31.272  1.00  0.00    -0.206 F 
ATOM     83  C   UNL A   1      46.443  35.924  29.668  1.00  0.00     0.006 A 
ENDBRANCH  59  76
ENDBRANCH  33  34
ENDBRANCH  26  28
ENDBRANCH  25  26
ENDBRANCH  24  25
ENDBRANCH  23  24
ENDBRANCH   1  23
TORSDOF 17
ENDMDL
