MODEL 1
REMARK VINA RESULT:     -11.9      0.000      0.000
REMARK SMILES CCN(c1cccc(F)c1)c1cc(C)c(N)c(C(=O)OCCOC(=O)c2ccc(-c3c4nc(c(-c5c(F)cccc5F)c5ccc([nH]5)c(-c5c(F)cccc5F)c5nc(c(-c6c(F)cccc6F)c6ccc3[nH]6)C=C5)C=C4)cc2)c1
REMARK SMILES IDX 21 1 20 2 18 3 19 4 17 5 11 6 12 7 80 8 13 9 14 10 15 11
REMARK SMILES IDX 3 12 2 13 1 14 4 15 5 16 10 17 6 18 8 19 7 20 9 21 16 22
REMARK SMILES IDX 22 25 23 26 24 27 25 28 26 29 27 30 79 31 28 32 78 33 29 34
REMARK SMILES IDX 30 35 31 36 72 37 32 38 77 39 71 40 73 41 33 42 76 43 70 44
REMARK SMILES IDX 69 45 34 47 60 48 43 49 59 50 44 51 47 52 58 53 74 54 45 55
REMARK SMILES IDX 46 56 57 58 75 59 48 60 35 61 36 62 41 63 37 64 38 65 40 66
REMARK SMILES IDX 42 67 39 68 61 69 62 70 67 71 63 72 64 73 66 74 68 75 65 76
REMARK SMILES IDX 49 77 50 78 55 79 51 80 52 81 54 82 56 83 53 84
REMARK H PARENT 16 23 16 24 73 46 47 57
REMARK Flexibility Score: inf
ROOT
ATOM      1  C   UNL A   1      31.424  28.448  24.166  1.00  0.00     0.275 C 
ENDROOT
BRANCH   1   2
ATOM      2  O   UNL A   1      31.531  27.107  24.691  1.00  0.00    -0.458 OA
BRANCH   2   3
ATOM      3  C   UNL A   1      31.332  26.098  23.802  1.00  0.00     0.340 C 
ATOM      4  O   UNL A   1      31.193  26.219  22.592  1.00  0.00    -0.246 OA
BRANCH   3   5
ATOM      5  C   UNL A   1      31.356  24.779  24.489  1.00  0.00     0.085 A 
ATOM      6  C   UNL A   1      32.422  22.595  24.762  1.00  0.00     0.042 A 
ATOM      7  C   UNL A   1      31.500  22.319  25.777  1.00  0.00     0.031 A 
ATOM      8  C   UNL A   1      32.291  23.817  24.085  1.00  0.00     0.044 A 
ATOM      9  C   UNL A   1      30.525  23.251  26.172  1.00  0.00    -0.025 A 
ATOM     10  C   UNL A   1      29.546  22.865  27.251  1.00  0.00     0.047 C 
ATOM     11  C   UNL A   1      30.521  24.535  25.600  1.00  0.00     0.049 A 
BRANCH   6  12
ATOM     12  N   UNL A   1      33.530  21.757  24.486  1.00  0.00    -0.342 N 
BRANCH  12  13
ATOM     13  C   UNL A   1      34.883  22.258  24.809  1.00  0.00     0.119 C 
ATOM     14  C   UNL A   1      35.687  22.708  23.596  1.00  0.00     0.027 C 
ENDBRANCH  12  13
BRANCH  12  15
ATOM     15  C   UNL A   1      33.373  20.390  24.144  1.00  0.00     0.044 A 
ATOM     16  C   UNL A   1      32.386  19.924  23.260  1.00  0.00     0.026 A 
ATOM     17  C   UNL A   1      34.292  19.444  24.635  1.00  0.00     0.065 A 
ATOM     18  C   UNL A   1      32.319  18.575  22.883  1.00  0.00     0.005 A 
ATOM     19  C   UNL A   1      34.227  18.108  24.252  1.00  0.00     0.125 A 
ATOM     20  C   UNL A   1      33.246  17.665  23.378  1.00  0.00     0.039 A 
ATOM     21  F   UNL A   1      35.133  17.240  24.723  1.00  0.00    -0.207 F 
ENDBRANCH  12  15
ENDBRANCH   6  12
BRANCH  11  22
ATOM     22  N   UNL A   1      29.632  25.499  26.073  1.00  0.00    -0.398 N 
ATOM     23  H   UNL A   1      28.924  25.246  26.708  1.00  0.00     0.156 HD
ATOM     24  H   UNL A   1      29.712  26.433  25.771  1.00  0.00     0.156 HD
ENDBRANCH  11  22
ENDBRANCH   3   5
ENDBRANCH   2   3
ENDBRANCH   1   2
BRANCH   1  25
ATOM     25  C   UNL A   1      31.403  29.472  25.300  1.00  0.00     0.275 C 
BRANCH  25  26
ATOM     26  O   UNL A   1      32.745  29.922  25.550  1.00  0.00    -0.458 OA
BRANCH  26  27
ATOM     27  C   UNL A   1      32.906  30.819  26.553  1.00  0.00     0.338 C 
ATOM     28  O   UNL A   1      32.098  31.653  26.921  1.00  0.00    -0.246 OA
BRANCH  27  29
ATOM     29  C   UNL A   1      34.236  30.627  27.187  1.00  0.00     0.060 A 
ATOM     30  C   UNL A   1      34.733  29.346  27.410  1.00  0.00     0.016 A 
ATOM     31  C   UNL A   1      34.963  31.723  27.652  1.00  0.00     0.016 A 
ATOM     32  C   UNL A   1      35.891  29.151  28.166  1.00  0.00     0.010 A 
ATOM     33  C   UNL A   1      36.183  31.526  28.322  1.00  0.00     0.010 A 
ATOM     34  C   UNL A   1      36.651  30.234  28.625  1.00  0.00    -0.014 A 
BRANCH  34  35
ATOM     35  C   UNL A   1      37.871  30.016  29.469  1.00  0.00     0.031 A 
ATOM     36  C   UNL A   1      39.054  29.262  28.909  1.00  0.00     0.074 A 
ATOM     37  C   UNL A   1      37.977  30.513  30.721  1.00  0.00     0.049 A 
ATOM     38  N   UNL A   1      40.073  28.731  29.538  1.00  0.00    -0.248 NA
ATOM     39  C   UNL A   1      39.087  29.067  27.451  1.00  0.00     0.031 C 
ATOM     40  C   UNL A   1      36.975  31.331  31.405  1.00  0.00     0.029 A 
ATOM     41  N   UNL A   1      38.999  30.418  31.640  1.00  0.00    -0.354 N 
ATOM     42  C   UNL A   1      40.809  28.059  28.570  1.00  0.00     0.074 A 
ATOM     43  C   UNL A   1      40.137  28.270  27.306  1.00  0.00     0.031 C 
ATOM     44  C   UNL A   1      37.462  31.730  32.590  1.00  0.00     0.029 A 
ATOM     45  C   UNL A   1      38.754  31.091  32.814  1.00  0.00     0.049 A 
ATOM     46  H   UNL A   1      39.828  29.915  31.472  1.00  0.00     0.167 HD
ATOM     47  C   UNL A   1      41.937  27.322  28.724  1.00  0.00     0.037 A 
ATOM     48  C   UNL A   1      39.451  31.149  33.967  1.00  0.00     0.037 A 
ATOM     49  C   UNL A   1      42.667  27.198  29.959  1.00  0.00     0.049 A 
ATOM     50  C   UNL A   1      40.694  30.323  34.126  1.00  0.00     0.074 A 
ATOM     51  C   UNL A   1      43.816  26.467  30.211  1.00  0.00     0.029 A 
ATOM     52  N   UNL A   1      42.345  27.854  31.136  1.00  0.00    -0.354 N 
ATOM     53  N   UNL A   1      41.292  29.557  33.248  1.00  0.00    -0.248 NA
ATOM     54  C   UNL A   1      41.332  30.329  35.452  1.00  0.00     0.031 C 
ATOM     55  C   UNL A   1      44.180  26.667  31.546  1.00  0.00     0.029 A 
ATOM     56  C   UNL A   1      43.277  27.549  32.115  1.00  0.00     0.049 A 
ATOM     57  H   UNL A   1      41.571  28.449  31.258  1.00  0.00     0.167 HD
ATOM     58  C   UNL A   1      42.363  28.979  33.916  1.00  0.00     0.074 A 
ATOM     59  C   UNL A   1      42.354  29.506  35.265  1.00  0.00     0.031 C 
ATOM     60  C   UNL A   1      43.260  28.076  33.454  1.00  0.00     0.037 A 
BRANCH  47  61
ATOM     61  C   UNL A   1      42.443  26.557  27.537  1.00  0.00     0.057 A 
ATOM     62  C   UNL A   1      42.042  25.227  27.340  1.00  0.00     0.134 A 
ATOM     63  C   UNL A   1      43.369  27.093  26.638  1.00  0.00     0.134 A 
ATOM     64  F   UNL A   1      41.163  24.650  28.173  1.00  0.00    -0.206 F 
ATOM     65  C   UNL A   1      42.556  24.455  26.298  1.00  0.00     0.040 A 
ATOM     66  C   UNL A   1      43.873  26.338  25.576  1.00  0.00     0.040 A 
ATOM     67  F   UNL A   1      43.782  28.363  26.764  1.00  0.00    -0.206 F 
ATOM     68  C   UNL A   1      43.475  25.012  25.411  1.00  0.00     0.006 A 
ENDBRANCH  47  61
BRANCH  48  69
ATOM     69  C   UNL A   1      38.941  31.976  35.091  1.00  0.00     0.057 A 
ATOM     70  C   UNL A   1      39.187  33.353  35.159  1.00  0.00     0.134 A 
ATOM     71  C   UNL A   1      38.224  31.398  36.144  1.00  0.00     0.134 A 
ATOM     72  F   UNL A   1      39.863  33.968  34.177  1.00  0.00    -0.206 F 
ATOM     73  C   UNL A   1      38.778  34.117  36.252  1.00  0.00     0.040 A 
ATOM     74  C   UNL A   1      37.783  32.156  37.231  1.00  0.00     0.040 A 
ATOM     75  F   UNL A   1      37.926  30.089  36.121  1.00  0.00    -0.206 F 
ATOM     76  C   UNL A   1      38.073  33.518  37.293  1.00  0.00     0.006 A 
ENDBRANCH  48  69
BRANCH  60  77
ATOM     77  C   UNL A   1      44.316  27.600  34.405  1.00  0.00     0.057 A 
ATOM     78  C   UNL A   1      44.099  26.477  35.212  1.00  0.00     0.134 A 
ATOM     79  C   UNL A   1      45.520  28.294  34.565  1.00  0.00     0.134 A 
ATOM     80  F   UNL A   1      42.961  25.775  35.111  1.00  0.00    -0.206 F 
ATOM     81  C   UNL A   1      45.043  26.065  36.154  1.00  0.00     0.040 A 
ATOM     82  C   UNL A   1      46.480  27.882  35.491  1.00  0.00     0.040 A 
ATOM     83  F   UNL A   1      45.789  29.372  33.814  1.00  0.00    -0.206 F 
ATOM     84  C   UNL A   1      46.239  26.768  36.293  1.00  0.00     0.006 A 
ENDBRANCH  60  77
ENDBRANCH  34  35
ENDBRANCH  27  29
ENDBRANCH  26  27
ENDBRANCH  25  26
ENDBRANCH   1  25
TORSDOF 15
ENDMDL
MODEL 2
REMARK VINA RESULT:     -11.8      4.202      9.086
REMARK SMILES CCN(c1cccc(F)c1)c1cc(C)c(N)c(C(=O)OCCOC(=O)c2ccc(-c3c4nc(c(-c5c(F)cccc5F)c5ccc([nH]5)c(-c5c(F)cccc5F)c5nc(c(-c6c(F)cccc6F)c6ccc3[nH]6)C=C5)C=C4)cc2)c1
REMARK SMILES IDX 21 1 20 2 18 3 19 4 17 5 11 6 12 7 80 8 13 9 14 10 15 11
REMARK SMILES IDX 3 12 2 13 1 14 4 15 5 16 10 17 6 18 8 19 7 20 9 21 16 22
REMARK SMILES IDX 22 25 23 26 24 27 25 28 26 29 27 30 79 31 28 32 78 33 29 34
REMARK SMILES IDX 30 35 31 36 72 37 32 38 77 39 71 40 73 41 33 42 76 43 70 44
REMARK SMILES IDX 69 45 34 47 60 48 43 49 59 50 44 51 47 52 58 53 74 54 45 55
REMARK SMILES IDX 46 56 57 58 75 59 48 60 35 61 36 62 41 63 37 64 38 65 40 66
REMARK SMILES IDX 42 67 39 68 61 69 62 70 67 71 63 72 64 73 66 74 68 75 65 76
REMARK SMILES IDX 49 77 50 78 55 79 51 80 52 81 54 82 56 83 53 84
REMARK H PARENT 16 23 16 24 73 46 47 57
REMARK Flexibility Score: inf
ROOT
ATOM      1  C   UNL A   1      34.431  21.229  24.925  1.00  0.00     0.275 C 
ENDROOT
BRANCH   1   2
ATOM      2  O   UNL A   1      34.476  22.538  25.531  1.00  0.00    -0.458 OA
BRANCH   2   3
ATOM      3  C   UNL A   1      33.664  22.730  26.604  1.00  0.00     0.340 C 
ATOM      4  O   UNL A   1      33.629  22.041  27.615  1.00  0.00    -0.246 OA
BRANCH   3   5
ATOM      5  C   UNL A   1      32.828  23.947  26.421  1.00  0.00     0.085 A 
ATOM      6  C   UNL A   1      32.716  26.335  25.907  1.00  0.00     0.042 A 
ATOM      7  C   UNL A   1      31.324  26.247  26.000  1.00  0.00     0.031 A 
ATOM      8  C   UNL A   1      33.457  25.175  26.184  1.00  0.00     0.044 A 
ATOM      9  C   UNL A   1      30.670  25.034  26.278  1.00  0.00    -0.025 A 
ATOM     10  C   UNL A   1      29.168  25.028  26.395  1.00  0.00     0.047 C 
ATOM     11  C   UNL A   1      31.421  23.850  26.381  1.00  0.00     0.049 A 
BRANCH   6  12
ATOM     12  N   UNL A   1      33.380  27.493  25.435  1.00  0.00    -0.342 N 
BRANCH  12  13
ATOM     13  C   UNL A   1      33.752  27.552  24.005  1.00  0.00     0.119 C 
ATOM     14  C   UNL A   1      32.573  27.760  23.062  1.00  0.00     0.027 C 
ENDBRANCH  12  13
BRANCH  12  15
ATOM     15  C   UNL A   1      33.481  28.674  26.214  1.00  0.00     0.044 A 
ATOM     16  C   UNL A   1      34.623  29.010  26.959  1.00  0.00     0.026 A 
ATOM     17  C   UNL A   1      32.431  29.611  26.190  1.00  0.00     0.065 A 
ATOM     18  C   UNL A   1      34.715  30.228  27.648  1.00  0.00     0.005 A 
ATOM     19  C   UNL A   1      32.529  30.821  26.869  1.00  0.00     0.125 A 
ATOM     20  C   UNL A   1      33.665  31.138  27.599  1.00  0.00     0.039 A 
ATOM     21  F   UNL A   1      31.519  31.699  26.804  1.00  0.00    -0.207 F 
ENDBRANCH  12  15
ENDBRANCH   6  12
BRANCH  11  22
ATOM     22  N   UNL A   1      30.766  22.629  26.539  1.00  0.00    -0.398 N 
ATOM     23  H   UNL A   1      30.832  22.143  27.392  1.00  0.00     0.156 HD
ATOM     24  H   UNL A   1      30.239  22.253  25.797  1.00  0.00     0.156 HD
ENDBRANCH  11  22
ENDBRANCH   3   5
ENDBRANCH   2   3
ENDBRANCH   1   2
BRANCH   1  25
ATOM     25  C   UNL A   1      35.799  20.551  24.999  1.00  0.00     0.275 C 
BRANCH  25  26
ATOM     26  O   UNL A   1      36.818  21.561  25.075  1.00  0.00    -0.458 OA
BRANCH  26  27
ATOM     27  C   UNL A   1      38.042  21.156  25.493  1.00  0.00     0.338 C 
ATOM     28  O   UNL A   1      38.520  20.040  25.376  1.00  0.00    -0.246 OA
BRANCH  27  29
ATOM     29  C   UNL A   1      38.763  22.298  26.111  1.00  0.00     0.060 A 
ATOM     30  C   UNL A   1      38.253  23.590  26.015  1.00  0.00     0.016 A 
ATOM     31  C   UNL A   1      40.006  22.107  26.715  1.00  0.00     0.016 A 
ATOM     32  C   UNL A   1      39.009  24.688  26.430  1.00  0.00     0.010 A 
ATOM     33  C   UNL A   1      40.718  23.207  27.225  1.00  0.00     0.010 A 
ATOM     34  C   UNL A   1      40.249  24.523  27.058  1.00  0.00    -0.014 A 
BRANCH  34  35
ATOM     35  C   UNL A   1      41.071  25.710  27.465  1.00  0.00     0.031 A 
ATOM     36  C   UNL A   1      40.495  26.744  28.402  1.00  0.00     0.074 A 
ATOM     37  C   UNL A   1      42.348  25.874  27.054  1.00  0.00     0.049 A 
ATOM     38  N   UNL A   1      40.915  27.958  28.659  1.00  0.00    -0.248 NA
ATOM     39  C   UNL A   1      39.277  26.369  29.138  1.00  0.00     0.031 C 
ATOM     40  C   UNL A   1      43.103  24.946  26.212  1.00  0.00     0.029 A 
ATOM     41  N   UNL A   1      43.250  26.883  27.313  1.00  0.00    -0.354 N 
ATOM     42  C   UNL A   1      39.963  28.521  29.500  1.00  0.00     0.074 A 
ATOM     43  C   UNL A   1      38.957  27.509  29.736  1.00  0.00     0.031 C 
ATOM     44  C   UNL A   1      44.366  25.381  26.094  1.00  0.00     0.029 A 
ATOM     45  C   UNL A   1      44.483  26.686  26.737  1.00  0.00     0.049 A 
ATOM     46  H   UNL A   1      43.032  27.672  27.859  1.00  0.00     0.167 HD
ATOM     47  C   UNL A   1      39.928  29.772  30.020  1.00  0.00     0.037 A 
ATOM     48  C   UNL A   1      45.573  27.477  26.675  1.00  0.00     0.037 A 
ATOM     49  C   UNL A   1      40.979  30.746  29.875  1.00  0.00     0.049 A 
ATOM     50  C   UNL A   1      45.516  28.863  27.249  1.00  0.00     0.074 A 
ATOM     51  C   UNL A   1      41.026  32.042  30.361  1.00  0.00     0.029 A 
ATOM     52  N   UNL A   1      42.185  30.516  29.234  1.00  0.00    -0.354 N 
ATOM     53  N   UNL A   1      44.542  29.445  27.904  1.00  0.00    -0.248 NA
ATOM     54  C   UNL A   1      46.691  29.722  27.032  1.00  0.00     0.031 C 
ATOM     55  C   UNL A   1      42.254  32.603  29.998  1.00  0.00     0.029 A 
ATOM     56  C   UNL A   1      42.984  31.644  29.316  1.00  0.00     0.049 A 
ATOM     57  H   UNL A   1      42.436  29.676  28.787  1.00  0.00     0.167 HD
ATOM     58  C   UNL A   1      44.977  30.738  28.162  1.00  0.00     0.074 A 
ATOM     59  C   UNL A   1      46.316  30.849  27.622  1.00  0.00     0.031 C 
ATOM     60  C   UNL A   1      44.314  31.747  28.775  1.00  0.00     0.037 A 
BRANCH  47  61
ATOM     61  C   UNL A   1      38.696  30.186  30.769  1.00  0.00     0.057 A 
ATOM     62  C   UNL A   1      38.589  29.917  32.142  1.00  0.00     0.134 A 
ATOM     63  C   UNL A   1      37.596  30.775  30.139  1.00  0.00     0.134 A 
ATOM     64  F   UNL A   1      39.605  29.344  32.805  1.00  0.00    -0.206 F 
ATOM     65  C   UNL A   1      37.426  30.208  32.856  1.00  0.00     0.040 A 
ATOM     66  C   UNL A   1      36.436  31.093  30.847  1.00  0.00     0.040 A 
ATOM     67  F   UNL A   1      37.641  31.069  28.831  1.00  0.00    -0.206 F 
ATOM     68  C   UNL A   1      36.344  30.800  32.207  1.00  0.00     0.006 A 
ENDBRANCH  47  61
BRANCH  48  69
ATOM     69  C   UNL A   1      46.793  26.995  25.978  1.00  0.00     0.057 A 
ATOM     70  C   UNL A   1      47.810  26.321  26.664  1.00  0.00     0.134 A 
ATOM     71  C   UNL A   1      46.983  27.229  24.612  1.00  0.00     0.134 A 
ATOM     72  F   UNL A   1      47.685  26.060  27.974  1.00  0.00    -0.206 F 
ATOM     73  C   UNL A   1      48.991  25.937  26.029  1.00  0.00     0.040 A 
ATOM     74  C   UNL A   1      48.147  26.824  23.957  1.00  0.00     0.040 A 
ATOM     75  F   UNL A   1      46.029  27.839  23.892  1.00  0.00    -0.206 F 
ATOM     76  C   UNL A   1      49.162  26.189  24.670  1.00  0.00     0.006 A 
ENDBRANCH  48  69
BRANCH  60  77
ATOM     77  C   UNL A   1      45.022  33.061  28.906  1.00  0.00     0.057 A 
ATOM     78  C   UNL A   1      44.919  34.034  27.905  1.00  0.00     0.134 A 
ATOM     79  C   UNL A   1      45.856  33.334  29.996  1.00  0.00     0.134 A 
ATOM     80  F   UNL A   1      44.141  33.826  26.831  1.00  0.00    -0.206 F 
ATOM     81  C   UNL A   1      45.630  35.232  27.978  1.00  0.00     0.040 A 
ATOM     82  C   UNL A   1      46.559  34.537  30.090  1.00  0.00     0.040 A 
ATOM     83  F   UNL A   1      45.988  32.446  30.992  1.00  0.00    -0.206 F 
ATOM     84  C   UNL A   1      46.451  35.487  29.075  1.00  0.00     0.006 A 
ENDBRANCH  60  77
ENDBRANCH  34  35
ENDBRANCH  27  29
ENDBRANCH  26  27
ENDBRANCH  25  26
ENDBRANCH   1  25
TORSDOF 15
ENDMDL
MODEL 3
REMARK VINA RESULT:     -11.7      3.669      8.595
REMARK SMILES CCN(c1cccc(F)c1)c1cc(C)c(N)c(C(=O)OCCOC(=O)c2ccc(-c3c4nc(c(-c5c(F)cccc5F)c5ccc([nH]5)c(-c5c(F)cccc5F)c5nc(c(-c6c(F)cccc6F)c6ccc3[nH]6)C=C5)C=C4)cc2)c1
REMARK SMILES IDX 21 1 20 2 18 3 19 4 17 5 11 6 12 7 80 8 13 9 14 10 15 11
REMARK SMILES IDX 3 12 2 13 1 14 4 15 5 16 10 17 6 18 8 19 7 20 9 21 16 22
REMARK SMILES IDX 22 25 23 26 24 27 25 28 26 29 27 30 79 31 28 32 78 33 29 34
REMARK SMILES IDX 30 35 31 36 72 37 32 38 77 39 71 40 73 41 33 42 76 43 70 44
REMARK SMILES IDX 69 45 34 47 60 48 43 49 59 50 44 51 47 52 58 53 74 54 45 55
REMARK SMILES IDX 46 56 57 58 75 59 48 60 35 61 36 62 41 63 37 64 38 65 40 66
REMARK SMILES IDX 42 67 39 68 61 69 62 70 67 71 63 72 64 73 66 74 68 75 65 76
REMARK SMILES IDX 49 77 50 78 55 79 51 80 52 81 54 82 56 83 53 84
REMARK H PARENT 16 23 16 24 73 46 47 57
REMARK Flexibility Score: inf
ROOT
ATOM      1  C   UNL A   1      33.993  35.261  28.998  1.00  0.00     0.275 C 
ENDROOT
BRANCH   1   2
ATOM      2  O   UNL A   1      33.730  33.852  29.175  1.00  0.00    -0.458 OA
BRANCH   2   3
ATOM      3  C   UNL A   1      33.264  33.188  28.085  1.00  0.00     0.340 C 
ATOM      4  O   UNL A   1      32.394  33.580  27.319  1.00  0.00    -0.246 OA
BRANCH   3   5
ATOM      5  C   UNL A   1      33.995  31.907  27.897  1.00  0.00     0.085 A 
ATOM      6  C   UNL A   1      33.907  29.519  27.374  1.00  0.00     0.042 A 
ATOM      7  C   UNL A   1      35.302  29.491  27.467  1.00  0.00     0.031 A 
ATOM      8  C   UNL A   1      33.266  30.736  27.655  1.00  0.00     0.044 A 
ATOM      9  C   UNL A   1      36.055  30.643  27.749  1.00  0.00    -0.025 A 
ATOM     10  C   UNL A   1      37.552  30.523  27.867  1.00  0.00     0.047 C 
ATOM     11  C   UNL A   1      35.406  31.885  27.857  1.00  0.00     0.049 A 
BRANCH   6  12
ATOM     12  N   UNL A   1      33.149  28.422  26.897  1.00  0.00    -0.342 N 
BRANCH  12  13
ATOM     13  C   UNL A   1      31.844  28.145  27.535  1.00  0.00     0.119 C 
ATOM     14  C   UNL A   1      30.968  27.167  26.762  1.00  0.00     0.027 C 
ENDBRANCH  12  13
BRANCH  12  15
ATOM     15  C   UNL A   1      33.479  27.744  25.696  1.00  0.00     0.044 A 
ATOM     16  C   UNL A   1      33.848  26.390  25.653  1.00  0.00     0.026 A 
ATOM     17  C   UNL A   1      33.355  28.416  24.466  1.00  0.00     0.065 A 
ATOM     18  C   UNL A   1      34.083  25.734  24.435  1.00  0.00     0.005 A 
ATOM     19  C   UNL A   1      33.582  27.760  23.260  1.00  0.00     0.125 A 
ATOM     20  C   UNL A   1      33.945  26.422  23.234  1.00  0.00     0.039 A 
ATOM     21  F   UNL A   1      33.433  28.426  22.107  1.00  0.00    -0.207 F 
ENDBRANCH  12  15
ENDBRANCH   6  12
BRANCH  11  22
ATOM     22  N   UNL A   1      36.160  33.047  28.020  1.00  0.00    -0.398 N 
ATOM     23  H   UNL A   1      37.143  33.001  28.013  1.00  0.00     0.156 HD
ATOM     24  H   UNL A   1      35.708  33.913  28.142  1.00  0.00     0.156 HD
ENDBRANCH  11  22
ENDBRANCH   3   5
ENDBRANCH   2   3
ENDBRANCH   1   2
BRANCH   1  25
ATOM     25  C   UNL A   1      32.874  36.101  29.614  1.00  0.00     0.275 C 
BRANCH  25  26
ATOM     26  O   UNL A   1      32.327  35.398  30.741  1.00  0.00    -0.458 OA
BRANCH  26  27
ATOM     27  C   UNL A   1      32.620  35.899  31.966  1.00  0.00     0.338 C 
ATOM     28  O   UNL A   1      32.043  36.808  32.539  1.00  0.00    -0.246 OA
BRANCH  27  29
ATOM     29  C   UNL A   1      33.761  35.150  32.553  1.00  0.00     0.060 A 
ATOM     30  C   UNL A   1      35.038  35.706  32.566  1.00  0.00     0.016 A 
ATOM     31  C   UNL A   1      33.589  33.845  33.014  1.00  0.00     0.016 A 
ATOM     32  C   UNL A   1      36.144  34.943  32.945  1.00  0.00     0.010 A 
ATOM     33  C   UNL A   1      34.692  33.116  33.493  1.00  0.00     0.010 A 
ATOM     34  C   UNL A   1      35.996  33.639  33.432  1.00  0.00    -0.014 A 
BRANCH  34  35
ATOM     35  C   UNL A   1      37.194  32.814  33.800  1.00  0.00     0.031 A 
ATOM     36  C   UNL A   1      37.837  32.976  35.157  1.00  0.00     0.074 A 
ATOM     37  C   UNL A   1      37.706  31.881  32.968  1.00  0.00     0.049 A 
ATOM     38  N   UNL A   1      39.014  32.578  35.571  1.00  0.00    -0.248 NA
ATOM     39  C   UNL A   1      37.059  33.694  36.179  1.00  0.00     0.031 C 
ATOM     40  C   UNL A   1      37.178  31.524  31.651  1.00  0.00     0.029 A 
ATOM     41  N   UNL A   1      38.786  31.039  33.122  1.00  0.00    -0.354 N 
ATOM     42  C   UNL A   1      39.156  33.082  36.858  1.00  0.00     0.074 A 
ATOM     43  C   UNL A   1      37.934  33.791  37.171  1.00  0.00     0.031 C 
ATOM     44  C   UNL A   1      37.876  30.490  31.158  1.00  0.00     0.029 A 
ATOM     45  C   UNL A   1      38.985  30.192  32.057  1.00  0.00     0.049 A 
ATOM     46  H   UNL A   1      39.362  31.043  33.920  1.00  0.00     0.167 HD
ATOM     47  C   UNL A   1      40.214  32.971  37.698  1.00  0.00     0.037 A 
ATOM     48  C   UNL A   1      39.973  29.313  31.793  1.00  0.00     0.037 A 
ATOM     49  C   UNL A   1      41.387  32.178  37.433  1.00  0.00     0.049 A 
ATOM     50  C   UNL A   1      41.142  29.206  32.728  1.00  0.00     0.074 A 
ATOM     51  C   UNL A   1      42.512  32.013  38.224  1.00  0.00     0.029 A 
ATOM     52  N   UNL A   1      41.565  31.383  36.313  1.00  0.00    -0.354 N 
ATOM     53  N   UNL A   1      41.342  29.817  33.870  1.00  0.00    -0.248 NA
ATOM     54  C   UNL A   1      42.247  28.328  32.315  1.00  0.00     0.031 C 
ATOM     55  C   UNL A   1      43.380  31.131  37.573  1.00  0.00     0.029 A 
ATOM     56  C   UNL A   1      42.779  30.721  36.395  1.00  0.00     0.049 A 
ATOM     57  H   UNL A   1      40.924  31.300  35.571  1.00  0.00     0.167 HD
ATOM     58  C   UNL A   1      42.597  29.410  34.304  1.00  0.00     0.074 A 
ATOM     59  C   UNL A   1      43.101  28.476  33.319  1.00  0.00     0.031 C 
ATOM     60  C   UNL A   1      43.275  29.795  35.410  1.00  0.00     0.037 A 
BRANCH  47  61
ATOM     61  C   UNL A   1      40.179  33.754  38.977  1.00  0.00     0.057 A 
ATOM     62  C   UNL A   1      40.847  34.984  39.062  1.00  0.00     0.134 A 
ATOM     63  C   UNL A   1      39.558  33.275  40.134  1.00  0.00     0.134 A 
ATOM     64  F   UNL A   1      41.471  35.497  37.991  1.00  0.00    -0.206 F 
ATOM     65  C   UNL A   1      40.911  35.701  40.258  1.00  0.00     0.040 A 
ATOM     66  C   UNL A   1      39.594  33.994  41.331  1.00  0.00     0.040 A 
ATOM     67  F   UNL A   1      38.892  32.110  40.114  1.00  0.00    -0.206 F 
ATOM     68  C   UNL A   1      40.281  35.206  41.397  1.00  0.00     0.006 A 
ENDBRANCH  47  61
BRANCH  48  69
ATOM     69  C   UNL A   1      39.927  28.511  30.542  1.00  0.00     0.057 A 
ATOM     70  C   UNL A   1      39.187  27.326  30.459  1.00  0.00     0.134 A 
ATOM     71  C   UNL A   1      40.654  28.898  29.411  1.00  0.00     0.134 A 
ATOM     72  F   UNL A   1      38.464  26.904  31.507  1.00  0.00    -0.206 F 
ATOM     73  C   UNL A   1      39.206  26.530  29.313  1.00  0.00     0.040 A 
ATOM     74  C   UNL A   1      40.659  28.127  28.247  1.00  0.00     0.040 A 
ATOM     75  F   UNL A   1      41.356  30.042  29.417  1.00  0.00    -0.206 F 
ATOM     76  C   UNL A   1      39.944  26.931  28.202  1.00  0.00     0.006 A 
ENDBRANCH  48  69
BRANCH  60  77
ATOM     77  C   UNL A   1      44.636  29.206  35.628  1.00  0.00     0.057 A 
ATOM     78  C   UNL A   1      45.774  29.817  35.090  1.00  0.00     0.134 A 
ATOM     79  C   UNL A   1      44.807  28.001  36.316  1.00  0.00     0.134 A 
ATOM     80  F   UNL A   1      45.674  30.970  34.412  1.00  0.00    -0.206 F 
ATOM     81  C   UNL A   1      47.039  29.242  35.222  1.00  0.00     0.040 A 
ATOM     82  C   UNL A   1      46.069  27.424  36.471  1.00  0.00     0.040 A 
ATOM     83  F   UNL A   1      43.754  27.373  36.862  1.00  0.00    -0.206 F 
ATOM     84  C   UNL A   1      47.189  28.043  35.917  1.00  0.00     0.006 A 
ENDBRANCH  60  77
ENDBRANCH  34  35
ENDBRANCH  27  29
ENDBRANCH  26  27
ENDBRANCH  25  26
ENDBRANCH   1  25
TORSDOF 15
ENDMDL
