MODEL 1
REMARK VINA RESULT:     -12.7      0.000      0.000
REMARK SMILES O=C(CCC(=O)OCCOC(=O)c1ccc(-c2c3nc(c(-c4c(F)cccc4F)c4ccc([nH]4)c(-c4c(F)cccc4F)c4nc(c(-c5c(F)cccc5F)c5ccc2[nH]5)C=C4)C=C3)cc1)Nc1cccc2c1C(=O)c1ccccc1C2=O
REMARK SMILES IDX 8 1 7 2 5 3 6 4 4 5 3 6 2 7 1 8 67 9 68 11 69 12 73 13 70 14
REMARK SMILES IDX 72 15 74 16 71 17 82 18 75 19 76 20 81 21 83 22 77 23 80 24
REMARK SMILES IDX 78 25 79 26 9 27 10 28 11 29 12 30 13 31 14 32 66 33 15 34
REMARK SMILES IDX 65 35 16 36 17 37 18 38 59 39 19 40 64 41 58 42 60 43 20 44
REMARK SMILES IDX 63 45 57 46 56 47 21 49 47 50 30 51 46 52 31 53 34 54 45 55
REMARK SMILES IDX 61 56 32 57 33 58 44 60 62 61 35 62 22 63 23 64 28 65 24 66
REMARK SMILES IDX 25 67 27 68 29 69 26 70 48 71 49 72 54 73 50 74 51 75 53 76
REMARK SMILES IDX 55 77 52 78 36 79 37 80 42 81 38 82 39 83 41 84 43 85 40 86
REMARK H PARENT 67 10 60 48 34 59
REMARK Flexibility Score: inf
ROOT
ATOM      1  C   UNL A   1      42.250  20.480  26.269  1.00  0.00     0.274 C 
ENDROOT
BRANCH   1   2
ATOM      2  O   UNL A   1      40.995  21.104  26.623  1.00  0.00    -0.462 OA
BRANCH   2   3
ATOM      3  C   UNL A   1      39.873  20.635  26.013  1.00  0.00     0.306 C 
ATOM      4  O   UNL A   1      39.721  19.485  25.625  1.00  0.00    -0.252 OA
BRANCH   3   5
ATOM      5  C   UNL A   1      38.871  21.744  25.747  1.00  0.00     0.132 C 
BRANCH   5   6
ATOM      6  C   UNL A   1      37.575  21.291  25.083  1.00  0.00     0.112 C 
BRANCH   6   7
ATOM      7  C   UNL A   1      36.701  22.361  24.423  1.00  0.00     0.224 C 
ATOM      8  O   UNL A   1      36.796  22.577  23.217  1.00  0.00    -0.275 OA
ATOM      9  N   UNL A   1      35.694  22.855  25.232  1.00  0.00    -0.325 N 
ATOM     10  H   UNL A   1      35.912  23.054  26.171  1.00  0.00     0.169 HD
BRANCH   9  11
ATOM     11  C   UNL A   1      34.362  23.092  24.789  1.00  0.00     0.053 A 
ATOM     12  C   UNL A   1      33.666  21.907  24.521  1.00  0.00     0.027 A 
ATOM     13  C   UNL A   1      33.987  24.246  24.100  1.00  0.00     0.057 A 
ATOM     14  C   UNL A   1      32.938  21.791  23.337  1.00  0.00     0.003 A 
ATOM     15  C   UNL A   1      33.433  24.085  22.835  1.00  0.00     0.036 A 
ATOM     16  C   UNL A   1      33.407  25.386  24.887  1.00  0.00     0.196 C 
ATOM     17  C   UNL A   1      32.915  22.853  22.436  1.00  0.00     0.013 A 
ATOM     18  C   UNL A   1      33.089  25.279  22.060  1.00  0.00     0.194 C 
ATOM     19  O   UNL A   1      33.601  25.502  26.092  1.00  0.00    -0.288 OA
ATOM     20  C   UNL A   1      32.420  26.280  24.206  1.00  0.00     0.034 A 
ATOM     21  C   UNL A   1      32.348  26.298  22.811  1.00  0.00     0.034 A 
ATOM     22  O   UNL A   1      33.277  25.336  20.855  1.00  0.00    -0.289 OA
ATOM     23  C   UNL A   1      31.483  27.015  24.937  1.00  0.00     0.013 A 
ATOM     24  C   UNL A   1      31.422  27.097  22.134  1.00  0.00     0.013 A 
ATOM     25  C   UNL A   1      30.507  27.765  24.267  1.00  0.00     0.001 A 
ATOM     26  C   UNL A   1      30.491  27.824  22.870  1.00  0.00     0.001 A 
ENDBRANCH   9  11
ENDBRANCH   6   7
ENDBRANCH   5   6
ENDBRANCH   3   5
ENDBRANCH   2   3
ENDBRANCH   1   2
BRANCH   1  27
ATOM     27  C   UNL A   1      43.157  21.423  25.474  1.00  0.00     0.275 C 
BRANCH  27  28
ATOM     28  O   UNL A   1      42.527  22.697  25.260  1.00  0.00    -0.458 OA
BRANCH  28  29
ATOM     29  C   UNL A   1      43.356  23.765  25.267  1.00  0.00     0.338 C 
ATOM     30  O   UNL A   1      44.284  23.981  24.502  1.00  0.00    -0.246 OA
BRANCH  29  31
ATOM     31  C   UNL A   1      42.899  24.729  26.279  1.00  0.00     0.060 A 
ATOM     32  C   UNL A   1      43.515  25.984  26.323  1.00  0.00     0.016 A 
ATOM     33  C   UNL A   1      41.902  24.391  27.198  1.00  0.00     0.016 A 
ATOM     34  C   UNL A   1      43.135  26.910  27.292  1.00  0.00     0.010 A 
ATOM     35  C   UNL A   1      41.527  25.318  28.170  1.00  0.00     0.010 A 
ATOM     36  C   UNL A   1      42.147  26.578  28.228  1.00  0.00    -0.014 A 
BRANCH  36  37
ATOM     37  C   UNL A   1      41.775  27.528  29.299  1.00  0.00     0.031 A 
ATOM     38  C   UNL A   1      42.493  27.480  30.614  1.00  0.00     0.074 A 
ATOM     39  C   UNL A   1      40.767  28.397  29.103  1.00  0.00     0.049 A 
ATOM     40  N   UNL A   1      42.232  28.124  31.722  1.00  0.00    -0.248 NA
ATOM     41  C   UNL A   1      43.656  26.582  30.697  1.00  0.00     0.031 C 
ATOM     42  C   UNL A   1      40.013  28.550  27.859  1.00  0.00     0.029 A 
ATOM     43  N   UNL A   1      40.191  29.300  29.960  1.00  0.00    -0.354 N 
ATOM     44  C   UNL A   1      43.180  27.694  32.640  1.00  0.00     0.074 A 
ATOM     45  C   UNL A   1      44.024  26.733  31.962  1.00  0.00     0.031 C 
ATOM     46  C   UNL A   1      39.056  29.475  28.042  1.00  0.00     0.029 A 
ATOM     47  C   UNL A   1      39.109  29.951  29.422  1.00  0.00     0.049 A 
ATOM     48  H   UNL A   1      40.521  29.464  30.873  1.00  0.00     0.167 HD
ATOM     49  C   UNL A   1      43.329  28.068  33.932  1.00  0.00     0.037 A 
ATOM     50  C   UNL A   1      38.241  30.807  29.990  1.00  0.00     0.037 A 
ATOM     51  C   UNL A   1      42.504  29.041  34.597  1.00  0.00     0.049 A 
ATOM     52  C   UNL A   1      38.409  31.179  31.438  1.00  0.00     0.074 A 
ATOM     53  C   UNL A   1      42.605  29.515  35.893  1.00  0.00     0.029 A 
ATOM     54  N   UNL A   1      41.424  29.686  34.016  1.00  0.00    -0.354 N 
ATOM     55  N   UNL A   1      39.324  30.784  32.290  1.00  0.00    -0.248 NA
ATOM     56  C   UNL A   1      37.423  32.112  32.003  1.00  0.00     0.031 C 
ATOM     57  C   UNL A   1      41.566  30.428  36.105  1.00  0.00     0.029 A 
ATOM     58  C   UNL A   1      40.838  30.541  34.933  1.00  0.00     0.049 A 
ATOM     59  H   UNL A   1      41.119  29.555  33.088  1.00  0.00     0.167 HD
ATOM     60  C   UNL A   1      39.037  31.434  33.482  1.00  0.00     0.074 A 
ATOM     61  C   UNL A   1      37.867  32.255  33.245  1.00  0.00     0.031 C 
ATOM     62  C   UNL A   1      39.685  31.360  34.669  1.00  0.00     0.037 A 
BRANCH  49  63
ATOM     63  C   UNL A   1      44.415  27.410  34.722  1.00  0.00     0.057 A 
ATOM     64  C   UNL A   1      45.694  27.968  34.825  1.00  0.00     0.134 A 
ATOM     65  C   UNL A   1      44.160  26.232  35.435  1.00  0.00     0.134 A 
ATOM     66  F   UNL A   1      46.002  29.089  34.155  1.00  0.00    -0.206 F 
ATOM     67  C   UNL A   1      46.687  27.372  35.605  1.00  0.00     0.040 A 
ATOM     68  C   UNL A   1      45.138  25.635  36.230  1.00  0.00     0.040 A 
ATOM     69  F   UNL A   1      42.953  25.650  35.378  1.00  0.00    -0.206 F 
ATOM     70  C   UNL A   1      46.407  26.206  36.316  1.00  0.00     0.006 A 
ENDBRANCH  49  63
BRANCH  50  71
ATOM     71  C   UNL A   1      37.110  31.352  29.201  1.00  0.00     0.057 A 
ATOM     72  C   UNL A   1      37.135  32.661  28.711  1.00  0.00     0.134 A 
ATOM     73  C   UNL A   1      35.970  30.583  28.941  1.00  0.00     0.134 A 
ATOM     74  F   UNL A   1      38.191  33.453  28.951  1.00  0.00    -0.206 F 
ATOM     75  C   UNL A   1      36.058  33.194  28.001  1.00  0.00     0.040 A 
ATOM     76  C   UNL A   1      34.894  31.097  28.215  1.00  0.00     0.040 A 
ATOM     77  F   UNL A   1      35.888  29.320  29.386  1.00  0.00    -0.206 F 
ATOM     78  C   UNL A   1      34.934  32.409  27.750  1.00  0.00     0.006 A 
ENDBRANCH  50  71
BRANCH  62  79
ATOM     79  C   UNL A   1      39.169  32.213  35.786  1.00  0.00     0.057 A 
ATOM     80  C   UNL A   1      39.574  33.543  35.942  1.00  0.00     0.134 A 
ATOM     81  C   UNL A   1      38.221  31.710  36.686  1.00  0.00     0.134 A 
ATOM     82  F   UNL A   1      40.490  34.075  35.118  1.00  0.00    -0.206 F 
ATOM     83  C   UNL A   1      39.060  34.344  36.962  1.00  0.00     0.040 A 
ATOM     84  C   UNL A   1      37.687  32.506  37.699  1.00  0.00     0.040 A 
ATOM     85  F   UNL A   1      37.790  30.444  36.584  1.00  0.00    -0.206 F 
ATOM     86  C   UNL A   1      38.109  33.826  37.841  1.00  0.00     0.006 A 
ENDBRANCH  62  79
ENDBRANCH  36  37
ENDBRANCH  29  31
ENDBRANCH  28  29
ENDBRANCH  27  28
ENDBRANCH   1  27
TORSDOF 14
ENDMDL
MODEL 2
REMARK VINA RESULT:     -12.6      5.150     11.231
REMARK SMILES O=C(CCC(=O)OCCOC(=O)c1ccc(-c2c3nc(c(-c4c(F)cccc4F)c4ccc([nH]4)c(-c4c(F)cccc4F)c4nc(c(-c5c(F)cccc5F)c5ccc2[nH]5)C=C4)C=C3)cc1)Nc1cccc2c1C(=O)c1ccccc1C2=O
REMARK SMILES IDX 8 1 7 2 5 3 6 4 4 5 3 6 2 7 1 8 67 9 68 11 69 12 73 13 70 14
REMARK SMILES IDX 72 15 74 16 71 17 82 18 75 19 76 20 81 21 83 22 77 23 80 24
REMARK SMILES IDX 78 25 79 26 9 27 10 28 11 29 12 30 13 31 14 32 66 33 15 34
REMARK SMILES IDX 65 35 16 36 17 37 18 38 59 39 19 40 64 41 58 42 60 43 20 44
REMARK SMILES IDX 63 45 57 46 56 47 21 49 47 50 30 51 46 52 31 53 34 54 45 55
REMARK SMILES IDX 61 56 32 57 33 58 44 60 62 61 35 62 22 63 23 64 28 65 24 66
REMARK SMILES IDX 25 67 27 68 29 69 26 70 48 71 49 72 54 73 50 74 51 75 53 76
REMARK SMILES IDX 55 77 52 78 36 79 37 80 42 81 38 82 39 83 41 84 43 85 40 86
REMARK H PARENT 67 10 60 48 34 59
REMARK Flexibility Score: inf
ROOT
ATOM      1  C   UNL A   1      33.493  34.629  28.617  1.00  0.00     0.274 C 
ENDROOT
BRANCH   1   2
ATOM      2  O   UNL A   1      32.557  34.966  29.666  1.00  0.00    -0.462 OA
BRANCH   2   3
ATOM      3  C   UNL A   1      32.756  36.138  30.324  1.00  0.00     0.306 C 
ATOM      4  O   UNL A   1      33.160  37.169  29.803  1.00  0.00    -0.252 OA
BRANCH   3   5
ATOM      5  C   UNL A   1      32.545  35.988  31.820  1.00  0.00     0.132 C 
BRANCH   5   6
ATOM      6  C   UNL A   1      33.823  35.994  32.652  1.00  0.00     0.112 C 
BRANCH   6   7
ATOM      7  C   UNL A   1      34.413  34.641  33.061  1.00  0.00     0.224 C 
ATOM      8  O   UNL A   1      34.047  33.613  32.498  1.00  0.00    -0.275 OA
ATOM      9  N   UNL A   1      35.502  34.727  33.910  1.00  0.00    -0.325 N 
ATOM     10  H   UNL A   1      35.461  35.375  34.650  1.00  0.00     0.169 HD
BRANCH   9  11
ATOM     11  C   UNL A   1      36.677  33.935  33.778  1.00  0.00     0.053 A 
ATOM     12  C   UNL A   1      36.690  32.842  34.655  1.00  0.00     0.027 A 
ATOM     13  C   UNL A   1      37.901  34.458  33.360  1.00  0.00     0.057 A 
ATOM     14  C   UNL A   1      37.840  32.572  35.396  1.00  0.00     0.003 A 
ATOM     15  C   UNL A   1      38.983  34.327  34.224  1.00  0.00     0.036 A 
ATOM     16  C   UNL A   1      38.258  34.356  31.906  1.00  0.00     0.196 C 
ATOM     17  C   UNL A   1      38.957  33.392  35.259  1.00  0.00     0.013 A 
ATOM     18  C   UNL A   1      40.264  34.923  33.844  1.00  0.00     0.194 C 
ATOM     19  O   UNL A   1      37.403  34.197  31.042  1.00  0.00    -0.288 OA
ATOM     20  C   UNL A   1      39.706  34.256  31.542  1.00  0.00     0.034 A 
ATOM     21  C   UNL A   1      40.681  34.640  32.466  1.00  0.00     0.034 A 
ATOM     22  O   UNL A   1      40.982  35.475  34.663  1.00  0.00    -0.289 OA
ATOM     23  C   UNL A   1      40.112  33.674  30.338  1.00  0.00     0.013 A 
ATOM     24  C   UNL A   1      42.045  34.537  32.179  1.00  0.00     0.013 A 
ATOM     25  C   UNL A   1      41.478  33.504  30.072  1.00  0.00     0.001 A 
ATOM     26  C   UNL A   1      42.441  33.955  30.978  1.00  0.00     0.001 A 
ENDBRANCH   9  11
ENDBRANCH   6   7
ENDBRANCH   5   6
ENDBRANCH   3   5
ENDBRANCH   2   3
ENDBRANCH   1   2
BRANCH   1  27
ATOM     27  C   UNL A   1      34.467  33.529  29.047  1.00  0.00     0.275 C 
BRANCH  27  28
ATOM     28  O   UNL A   1      34.990  32.820  27.911  1.00  0.00    -0.458 OA
BRANCH  28  29
ATOM     29  C   UNL A   1      34.839  31.477  27.943  1.00  0.00     0.338 C 
ATOM     30  O   UNL A   1      33.923  30.828  27.464  1.00  0.00    -0.246 OA
BRANCH  29  31
ATOM     31  C   UNL A   1      36.033  30.868  28.550  1.00  0.00     0.060 A 
ATOM     32  C   UNL A   1      37.283  31.417  28.243  1.00  0.00     0.016 A 
ATOM     33  C   UNL A   1      35.929  29.751  29.381  1.00  0.00     0.016 A 
ATOM     34  C   UNL A   1      38.440  30.845  28.768  1.00  0.00     0.010 A 
ATOM     35  C   UNL A   1      37.089  29.177  29.903  1.00  0.00     0.010 A 
ATOM     36  C   UNL A   1      38.349  29.715  29.592  1.00  0.00    -0.014 A 
BRANCH  36  37
ATOM     37  C   UNL A   1      39.572  29.062  30.109  1.00  0.00     0.031 A 
ATOM     38  C   UNL A   1      40.235  29.601  31.341  1.00  0.00     0.074 A 
ATOM     39  C   UNL A   1      40.104  28.019  29.448  1.00  0.00     0.049 A 
ATOM     40  N   UNL A   1      41.380  29.266  31.877  1.00  0.00    -0.248 NA
ATOM     41  C   UNL A   1      39.518  30.665  32.063  1.00  0.00     0.031 C 
ATOM     42  C   UNL A   1      39.535  27.396  28.253  1.00  0.00     0.029 A 
ATOM     43  N   UNL A   1      41.260  27.316  29.678  1.00  0.00    -0.354 N 
ATOM     44  C   UNL A   1      41.534  30.090  32.983  1.00  0.00     0.074 A 
ATOM     45  C   UNL A   1      40.366  30.943  33.044  1.00  0.00     0.031 C 
ATOM     46  C   UNL A   1      40.358  26.416  27.840  1.00  0.00     0.029 A 
ATOM     47  C   UNL A   1      41.523  26.369  28.720  1.00  0.00     0.049 A 
ATOM     48  H   UNL A   1      41.844  27.476  30.454  1.00  0.00     0.167 HD
ATOM     49  C   UNL A   1      42.559  30.129  33.866  1.00  0.00     0.037 A 
ATOM     50  C   UNL A   1      42.600  25.579  28.553  1.00  0.00     0.037 A 
ATOM     51  C   UNL A   1      43.707  29.264  33.817  1.00  0.00     0.049 A 
ATOM     52  C   UNL A   1      43.741  25.669  29.529  1.00  0.00     0.074 A 
ATOM     53  C   UNL A   1      44.778  29.203  34.692  1.00  0.00     0.029 A 
ATOM     54  N   UNL A   1      43.933  28.311  32.837  1.00  0.00    -0.354 N 
ATOM     55  N   UNL A   1      43.865  26.435  30.585  1.00  0.00    -0.248 NA
ATOM     56  C   UNL A   1      44.892  24.786  29.287  1.00  0.00     0.031 C 
ATOM     57  C   UNL A   1      45.667  28.230  34.224  1.00  0.00     0.029 A 
ATOM     58  C   UNL A   1      45.136  27.668  33.074  1.00  0.00     0.049 A 
ATOM     59  H   UNL A   1      43.329  28.120  32.083  1.00  0.00     0.167 HD
ATOM     60  C   UNL A   1      45.094  26.114  31.144  1.00  0.00     0.074 A 
ATOM     61  C   UNL A   1      45.677  25.079  30.316  1.00  0.00     0.031 C 
ATOM     62  C   UNL A   1      45.688  26.630  32.246  1.00  0.00     0.037 A 
BRANCH  49  63
ATOM     63  C   UNL A   1      42.498  31.156  34.952  1.00  0.00     0.057 A 
ATOM     64  C   UNL A   1      41.753  30.951  36.119  1.00  0.00     0.134 A 
ATOM     65  C   UNL A   1      43.239  32.339  34.853  1.00  0.00     0.134 A 
ATOM     66  F   UNL A   1      41.012  29.841  36.266  1.00  0.00    -0.206 F 
ATOM     67  C   UNL A   1      41.741  31.893  37.149  1.00  0.00     0.040 A 
ATOM     68  C   UNL A   1      43.249  33.282  35.882  1.00  0.00     0.040 A 
ATOM     69  F   UNL A   1      43.974  32.592  33.760  1.00  0.00    -0.206 F 
ATOM     70  C   UNL A   1      42.497  33.059  37.034  1.00  0.00     0.006 A 
ENDBRANCH  49  63
BRANCH  50  71
ATOM     71  C   UNL A   1      42.670  24.653  27.397  1.00  0.00     0.057 A 
ATOM     72  C   UNL A   1      42.182  23.346  27.488  1.00  0.00     0.134 A 
ATOM     73  C   UNL A   1      43.249  25.047  26.185  1.00  0.00     0.134 A 
ATOM     74  F   UNL A   1      41.639  22.905  28.632  1.00  0.00    -0.206 F 
ATOM     75  C   UNL A   1      42.281  22.456  26.417  1.00  0.00     0.040 A 
ATOM     76  C   UNL A   1      43.336  24.175  25.100  1.00  0.00     0.040 A 
ATOM     77  F   UNL A   1      43.735  26.289  26.039  1.00  0.00    -0.206 F 
ATOM     78  C   UNL A   1      42.857  22.872  25.218  1.00  0.00     0.006 A 
ENDBRANCH  50  71
BRANCH  62  79
ATOM     79  C   UNL A   1      47.014  26.058  32.641  1.00  0.00     0.057 A 
ATOM     80  C   UNL A   1      47.116  25.008  33.560  1.00  0.00     0.134 A 
ATOM     81  C   UNL A   1      48.195  26.532  32.059  1.00  0.00     0.134 A 
ATOM     82  F   UNL A   1      46.019  24.520  34.160  1.00  0.00    -0.206 F 
ATOM     83  C   UNL A   1      48.352  24.453  33.894  1.00  0.00     0.040 A 
ATOM     84  C   UNL A   1      49.435  25.976  32.373  1.00  0.00     0.040 A 
ATOM     85  F   UNL A   1      48.161  27.534  31.168  1.00  0.00    -0.206 F 
ATOM     86  C   UNL A   1      49.516  24.934  33.296  1.00  0.00     0.006 A 
ENDBRANCH  62  79
ENDBRANCH  36  37
ENDBRANCH  29  31
ENDBRANCH  28  29
ENDBRANCH  27  28
ENDBRANCH   1  27
TORSDOF 14
ENDMDL
MODEL 3
REMARK VINA RESULT:     -12.5      1.465      2.098
REMARK SMILES O=C(CCC(=O)OCCOC(=O)c1ccc(-c2c3nc(c(-c4c(F)cccc4F)c4ccc([nH]4)c(-c4c(F)cccc4F)c4nc(c(-c5c(F)cccc5F)c5ccc2[nH]5)C=C4)C=C3)cc1)Nc1cccc2c1C(=O)c1ccccc1C2=O
REMARK SMILES IDX 8 1 7 2 5 3 6 4 4 5 3 6 2 7 1 8 67 9 68 11 69 12 73 13 70 14
REMARK SMILES IDX 72 15 74 16 71 17 82 18 75 19 76 20 81 21 83 22 77 23 80 24
REMARK SMILES IDX 78 25 79 26 9 27 10 28 11 29 12 30 13 31 14 32 66 33 15 34
REMARK SMILES IDX 65 35 16 36 17 37 18 38 59 39 19 40 64 41 58 42 60 43 20 44
REMARK SMILES IDX 63 45 57 46 56 47 21 49 47 50 30 51 46 52 31 53 34 54 45 55
REMARK SMILES IDX 61 56 32 57 33 58 44 60 62 61 35 62 22 63 23 64 28 65 24 66
REMARK SMILES IDX 25 67 27 68 29 69 26 70 48 71 49 72 54 73 50 74 51 75 53 76
REMARK SMILES IDX 55 77 52 78 36 79 37 80 42 81 38 82 39 83 41 84 43 85 40 86
REMARK H PARENT 67 10 60 48 34 59
REMARK Flexibility Score: inf
ROOT
ATOM      1  C   UNL A   1      43.834  21.402  25.751  1.00  0.00     0.274 C 
ENDROOT
BRANCH   1   2
ATOM      2  O   UNL A   1      42.633  21.305  26.550  1.00  0.00    -0.462 OA
BRANCH   2   3
ATOM      3  C   UNL A   1      41.653  20.476  26.102  1.00  0.00     0.306 C 
ATOM      4  O   UNL A   1      41.846  19.463  25.443  1.00  0.00    -0.252 OA
BRANCH   3   5
ATOM      5  C   UNL A   1      40.270  21.025  26.400  1.00  0.00     0.132 C 
BRANCH   5   6
ATOM      6  C   UNL A   1      40.147  22.542  26.302  1.00  0.00     0.112 C 
BRANCH   6   7
ATOM      7  C   UNL A   1      38.743  23.150  26.373  1.00  0.00     0.224 C 
ATOM      8  O   UNL A   1      38.584  24.356  26.204  1.00  0.00    -0.275 OA
ATOM      9  N   UNL A   1      37.720  22.220  26.407  1.00  0.00    -0.325 N 
ATOM     10  H   UNL A   1      37.832  21.430  26.984  1.00  0.00     0.169 HD
BRANCH   9  11
ATOM     11  C   UNL A   1      36.514  22.336  25.660  1.00  0.00     0.053 A 
ATOM     12  C   UNL A   1      36.684  22.003  24.310  1.00  0.00     0.027 A 
ATOM     13  C   UNL A   1      35.500  23.235  25.993  1.00  0.00     0.057 A 
ATOM     14  C   UNL A   1      36.160  22.840  23.325  1.00  0.00     0.003 A 
ATOM     15  C   UNL A   1      35.139  24.177  25.036  1.00  0.00     0.036 A 
ATOM     16  C   UNL A   1      34.357  22.737  26.830  1.00  0.00     0.196 C 
ATOM     17  C   UNL A   1      35.477  23.995  23.695  1.00  0.00     0.013 A 
ATOM     18  C   UNL A   1      34.124  25.175  25.378  1.00  0.00     0.194 C 
ATOM     19  O   UNL A   1      34.460  21.737  27.531  1.00  0.00    -0.288 OA
ATOM     20  C   UNL A   1      33.018  23.378  26.644  1.00  0.00     0.034 A 
ATOM     21  C   UNL A   1      32.927  24.627  26.025  1.00  0.00     0.034 A 
ATOM     22  O   UNL A   1      34.218  26.335  25.011  1.00  0.00    -0.289 OA
ATOM     23  C   UNL A   1      31.840  22.700  26.969  1.00  0.00     0.013 A 
ATOM     24  C   UNL A   1      31.694  25.248  25.805  1.00  0.00     0.013 A 
ATOM     25  C   UNL A   1      30.598  23.287  26.690  1.00  0.00     0.001 A 
ATOM     26  C   UNL A   1      30.526  24.566  26.131  1.00  0.00     0.001 A 
ENDBRANCH   9  11
ENDBRANCH   6   7
ENDBRANCH   5   6
ENDBRANCH   3   5
ENDBRANCH   2   3
ENDBRANCH   1   2
BRANCH   1  27
ATOM     27  C   UNL A   1      43.622  22.253  24.496  1.00  0.00     0.275 C 
BRANCH  27  28
ATOM     28  O   UNL A   1      43.106  23.553  24.826  1.00  0.00    -0.458 OA
BRANCH  28  29
ATOM     29  C   UNL A   1      44.032  24.479  25.161  1.00  0.00     0.338 C 
ATOM     30  O   UNL A   1      45.120  24.657  24.633  1.00  0.00    -0.246 OA
BRANCH  29  31
ATOM     31  C   UNL A   1      43.485  25.358  26.205  1.00  0.00     0.060 A 
ATOM     32  C   UNL A   1      43.908  26.691  26.236  1.00  0.00     0.016 A 
ATOM     33  C   UNL A   1      42.594  24.870  27.164  1.00  0.00     0.016 A 
ATOM     34  C   UNL A   1      43.441  27.545  27.233  1.00  0.00     0.010 A 
ATOM     35  C   UNL A   1      42.131  25.725  28.164  1.00  0.00     0.010 A 
ATOM     36  C   UNL A   1      42.559  27.063  28.209  1.00  0.00    -0.014 A 
BRANCH  36  37
ATOM     37  C   UNL A   1      42.100  27.941  29.308  1.00  0.00     0.031 A 
ATOM     38  C   UNL A   1      42.800  27.897  30.633  1.00  0.00     0.074 A 
ATOM     39  C   UNL A   1      41.032  28.738  29.127  1.00  0.00     0.049 A 
ATOM     40  N   UNL A   1      42.475  28.477  31.759  1.00  0.00    -0.248 NA
ATOM     41  C   UNL A   1      44.027  27.087  30.702  1.00  0.00     0.031 C 
ATOM     42  C   UNL A   1      40.286  28.880  27.877  1.00  0.00     0.029 A 
ATOM     43  N   UNL A   1      40.377  29.561  30.007  1.00  0.00    -0.354 N 
ATOM     44  C   UNL A   1      43.441  28.085  32.677  1.00  0.00     0.074 A 
ATOM     45  C   UNL A   1      44.365  27.217  31.978  1.00  0.00     0.031 C 
ATOM     46  C   UNL A   1      39.258  29.723  28.078  1.00  0.00     0.029 A 
ATOM     47  C   UNL A   1      39.256  30.149  29.475  1.00  0.00     0.049 A 
ATOM     48  H   UNL A   1      40.680  29.715  30.931  1.00  0.00     0.167 HD
ATOM     49  C   UNL A   1      43.543  28.420  33.984  1.00  0.00     0.037 A 
ATOM     50  C   UNL A   1      38.317  30.915  30.059  1.00  0.00     0.037 A 
ATOM     51  C   UNL A   1      42.636  29.302  34.670  1.00  0.00     0.049 A 
ATOM     52  C   UNL A   1      38.436  31.243  31.523  1.00  0.00     0.074 A 
ATOM     53  C   UNL A   1      42.682  29.733  35.985  1.00  0.00     0.029 A 
ATOM     54  N   UNL A   1      41.519  29.885  34.095  1.00  0.00    -0.354 N 
ATOM     55  N   UNL A   1      39.365  30.886  32.375  1.00  0.00    -0.248 NA
ATOM     56  C   UNL A   1      37.373  32.076  32.105  1.00  0.00     0.031 C 
ATOM     57  C   UNL A   1      41.574  30.556  36.212  1.00  0.00     0.029 A 
ATOM     58  C   UNL A   1      40.856  30.658  35.032  1.00  0.00     0.049 A 
ATOM     59  H   UNL A   1      41.238  29.767  33.158  1.00  0.00     0.167 HD
ATOM     60  C   UNL A   1      39.013  31.467  33.586  1.00  0.00     0.074 A 
ATOM     61  C   UNL A   1      37.788  32.205  33.358  1.00  0.00     0.031 C 
ATOM     62  C   UNL A   1      39.648  31.396  34.780  1.00  0.00     0.037 A 
BRANCH  49  63
ATOM     63  C   UNL A   1      44.664  27.816  34.768  1.00  0.00     0.057 A 
ATOM     64  C   UNL A   1      45.871  28.495  34.970  1.00  0.00     0.134 A 
ATOM     65  C   UNL A   1      44.512  26.564  35.375  1.00  0.00     0.134 A 
ATOM     66  F   UNL A   1      46.080  29.694  34.405  1.00  0.00    -0.206 F 
ATOM     67  C   UNL A   1      46.894  27.944  35.745  1.00  0.00     0.040 A 
ATOM     68  C   UNL A   1      45.520  26.009  36.163  1.00  0.00     0.040 A 
ATOM     69  F   UNL A   1      43.378  25.865  35.218  1.00  0.00    -0.206 F 
ATOM     70  C   UNL A   1      46.716  26.700  36.350  1.00  0.00     0.006 A 
ENDBRANCH  49  63
BRANCH  50  71
ATOM     71  C   UNL A   1      37.159  31.402  29.272  1.00  0.00     0.057 A 
ATOM     72  C   UNL A   1      37.144  32.691  28.731  1.00  0.00     0.134 A 
ATOM     73  C   UNL A   1      36.032  30.598  29.065  1.00  0.00     0.134 A 
ATOM     74  F   UNL A   1      38.186  33.515  28.919  1.00  0.00    -0.206 F 
ATOM     75  C   UNL A   1      36.042  33.171  28.021  1.00  0.00     0.040 A 
ATOM     76  C   UNL A   1      34.932  31.057  28.340  1.00  0.00     0.040 A 
ATOM     77  F   UNL A   1      35.988  29.352  29.560  1.00  0.00    -0.206 F 
ATOM     78  C   UNL A   1      34.932  32.351  27.823  1.00  0.00     0.006 A 
ENDBRANCH  50  71
BRANCH  62  79
ATOM     79  C   UNL A   1      39.052  32.164  35.919  1.00  0.00     0.057 A 
ATOM     80  C   UNL A   1      38.186  31.561  36.837  1.00  0.00     0.134 A 
ATOM     81  C   UNL A   1      39.387  33.508  36.124  1.00  0.00     0.134 A 
ATOM     82  F   UNL A   1      37.817  30.280  36.684  1.00  0.00    -0.206 F 
ATOM     83  C   UNL A   1      37.664  32.272  37.918  1.00  0.00     0.040 A 
ATOM     84  C   UNL A   1      38.886  34.224  37.211  1.00  0.00     0.040 A 
ATOM     85  F   UNL A   1      40.218  34.139  35.281  1.00  0.00    -0.206 F 
ATOM     86  C   UNL A   1      38.019  33.607  38.110  1.00  0.00     0.006 A 
ENDBRANCH  62  79
ENDBRANCH  36  37
ENDBRANCH  29  31
ENDBRANCH  28  29
ENDBRANCH  27  28
ENDBRANCH   1  27
TORSDOF 14
ENDMDL
