MODEL 1
REMARK VINA RESULT:     -11.6      0.000      0.000
REMARK SMILES COc1ccccc1-n1nnc(C(=O)OCCOC(=O)c2ccc(-c3c4nc(c(-c5c(F)cccc5F)c5ccc([nH]5)c(-c5c(F)cccc5F)c5nc(c(-c6c(F)cccc6F)c6ccc3[nH]6)C=C5)C=C4)cc2)c1-c1ccc(Cl)cc1
REMARK SMILES IDX 16 1 15 2 13 3 14 4 12 5 9 6 10 7 75 8 11 9 8 10 3 11 4 12
REMARK SMILES IDX 5 13 7 14 6 15 2 16 1 17 76 18 77 19 82 20 78 21 81 22 79 23
REMARK SMILES IDX 80 24 17 25 18 26 19 27 20 28 21 29 22 30 74 31 23 32 73 33
REMARK SMILES IDX 24 34 25 35 26 36 67 37 27 38 72 39 66 40 68 41 28 42 71 43
REMARK SMILES IDX 65 44 64 45 29 47 55 48 38 49 54 50 39 51 42 52 53 53 69 54
REMARK SMILES IDX 40 55 41 56 52 58 70 59 43 60 30 61 31 62 36 63 32 64 33 65
REMARK SMILES IDX 35 66 37 67 34 68 56 69 57 70 62 71 58 72 59 73 61 74 63 75
REMARK SMILES IDX 60 76 44 77 45 78 50 79 46 80 47 81 49 82 51 83 48 84
REMARK H PARENT 68 46 42 57
REMARK Flexibility Score: inf
ROOT
ATOM      1  C   UNL A   1      33.518  28.905  25.773  1.00  0.00     0.275 C 
ENDROOT
BRANCH   1   2
ATOM      2  O   UNL A   1      33.608  27.568  25.267  1.00  0.00    -0.457 OA
BRANCH   2   3
ATOM      3  C   UNL A   1      33.703  27.338  23.926  1.00  0.00     0.361 C 
ATOM      4  O   UNL A   1      34.333  28.051  23.151  1.00  0.00    -0.244 OA
BRANCH   3   5
ATOM      5  C   UNL A   1      33.024  26.105  23.543  1.00  0.00     0.198 A 
ATOM      6  N   UNL A   1      32.426  24.036  23.268  1.00  0.00    -0.208 N 
ATOM      7  N   UNL A   1      31.490  24.799  22.660  1.00  0.00    -0.061 NA
ATOM      8  C   UNL A   1      33.501  24.806  23.663  1.00  0.00     0.109 A 
ATOM      9  N   UNL A   1      31.800  26.070  22.906  1.00  0.00    -0.122 NA
BRANCH   6  10
ATOM     10  C   UNL A   1      32.171  22.703  23.633  1.00  0.00     0.109 A 
ATOM     11  C   UNL A   1      31.933  22.385  24.980  1.00  0.00     0.144 A 
ATOM     12  C   UNL A   1      31.977  21.053  25.381  1.00  0.00     0.049 A 
ATOM     13  C   UNL A   1      32.194  20.047  24.440  1.00  0.00     0.004 A 
ATOM     14  C   UNL A   1      32.316  21.699  22.670  1.00  0.00     0.032 A 
ATOM     15  C   UNL A   1      32.342  20.367  23.087  1.00  0.00     0.003 A 
BRANCH  11  16
ATOM     16  O   UNL A   1      31.719  23.309  25.970  1.00  0.00    -0.494 OA
ATOM     17  C   UNL A   1      32.335  22.959  27.213  1.00  0.00     0.278 C 
ENDBRANCH  11  16
ENDBRANCH   6  10
BRANCH   8  18
ATOM     18  C   UNL A   1      34.788  24.274  24.107  1.00  0.00     0.003 A 
ATOM     19  C   UNL A   1      35.569  23.497  23.241  1.00  0.00     0.012 A 
ATOM     20  C   UNL A   1      35.215  24.465  25.427  1.00  0.00     0.012 A 
ATOM     21  C   UNL A   1      36.716  22.856  23.703  1.00  0.00     0.021 A 
ATOM     22  C   UNL A   1      36.383  23.848  25.883  1.00  0.00     0.021 A 
ATOM     23  C   UNL A   1      37.115  23.030  25.025  1.00  0.00     0.041 A 
ATOM     24  Cl  UNL A   1      38.512  22.211  25.602  1.00  0.00    -0.084 Cl
ENDBRANCH   8  18
ENDBRANCH   3   5
ENDBRANCH   2   3
ENDBRANCH   1   2
BRANCH   1  25
ATOM     25  C   UNL A   1      33.935  28.928  27.235  1.00  0.00     0.275 C 
BRANCH  25  26
ATOM     26  O   UNL A   1      35.206  29.557  27.323  1.00  0.00    -0.458 OA
BRANCH  26  27
ATOM     27  C   UNL A   1      35.255  30.737  27.980  1.00  0.00     0.338 C 
ATOM     28  O   UNL A   1      34.645  31.757  27.708  1.00  0.00    -0.246 OA
BRANCH  27  29
ATOM     29  C   UNL A   1      36.302  30.641  29.001  1.00  0.00     0.060 A 
ATOM     30  C   UNL A   1      37.394  31.499  28.844  1.00  0.00     0.016 A 
ATOM     31  C   UNL A   1      36.374  29.455  29.744  1.00  0.00     0.016 A 
ATOM     32  C   UNL A   1      38.637  30.996  29.137  1.00  0.00     0.010 A 
ATOM     33  C   UNL A   1      37.611  28.937  29.987  1.00  0.00     0.010 A 
ATOM     34  C   UNL A   1      38.718  29.672  29.574  1.00  0.00    -0.014 A 
BRANCH  34  35
ATOM     35  C   UNL A   1      40.009  29.037  29.632  1.00  0.00     0.031 A 
ATOM     36  C   UNL A   1      40.531  28.950  31.007  1.00  0.00     0.074 A 
ATOM     37  C   UNL A   1      40.545  28.455  28.544  1.00  0.00     0.049 A 
ATOM     38  N   UNL A   1      41.543  29.572  31.510  1.00  0.00    -0.248 NA
ATOM     39  C   UNL A   1      39.698  28.243  31.998  1.00  0.00     0.031 C 
ATOM     40  C   UNL A   1      39.940  28.238  27.224  1.00  0.00     0.029 A 
ATOM     41  N   UNL A   1      41.738  27.820  28.440  1.00  0.00    -0.354 N 
ATOM     42  C   UNL A   1      41.591  29.163  32.837  1.00  0.00     0.074 A 
ATOM     43  C   UNL A   1      40.321  28.561  33.131  1.00  0.00     0.031 C 
ATOM     44  C   UNL A   1      40.676  27.329  26.542  1.00  0.00     0.029 A 
ATOM     45  C   UNL A   1      41.856  27.003  27.322  1.00  0.00     0.049 A 
ATOM     46  H   UNL A   1      42.460  27.929  29.101  1.00  0.00     0.167 HD
ATOM     47  C   UNL A   1      42.772  29.081  33.503  1.00  0.00     0.037 A 
ATOM     48  C   UNL A   1      42.815  26.057  27.158  1.00  0.00     0.037 A 
ATOM     49  C   UNL A   1      43.798  29.844  32.839  1.00  0.00     0.049 A 
ATOM     50  C   UNL A   1      43.914  26.378  28.114  1.00  0.00     0.074 A 
ATOM     51  C   UNL A   1      43.950  31.179  32.513  1.00  0.00     0.029 A 
ATOM     52  N   UNL A   1      44.691  29.163  32.046  1.00  0.00    -0.354 N 
ATOM     53  N   UNL A   1      44.670  27.439  28.013  1.00  0.00    -0.248 NA
ATOM     54  C   UNL A   1      43.829  25.800  29.450  1.00  0.00     0.031 C 
ATOM     55  C   UNL A   1      44.556  31.179  31.223  1.00  0.00     0.029 A 
ATOM     56  C   UNL A   1      44.801  29.853  30.864  1.00  0.00     0.049 A 
ATOM     57  H   UNL A   1      45.165  28.333  32.282  1.00  0.00     0.167 HD
ATOM     58  C   UNL A   1      44.816  27.901  29.316  1.00  0.00     0.074 A 
ATOM     59  C   UNL A   1      44.321  26.818  30.163  1.00  0.00     0.031 C 
ATOM     60  C   UNL A   1      45.039  29.223  29.584  1.00  0.00     0.037 A 
BRANCH  47  61
ATOM     61  C   UNL A   1      43.076  28.008  34.515  1.00  0.00     0.057 A 
ATOM     62  C   UNL A   1      43.236  26.686  34.072  1.00  0.00     0.134 A 
ATOM     63  C   UNL A   1      42.949  28.161  35.913  1.00  0.00     0.134 A 
ATOM     64  F   UNL A   1      43.353  26.408  32.765  1.00  0.00    -0.206 F 
ATOM     65  C   UNL A   1      43.197  25.596  34.948  1.00  0.00     0.040 A 
ATOM     66  C   UNL A   1      42.969  27.083  36.801  1.00  0.00     0.040 A 
ATOM     67  F   UNL A   1      42.697  29.338  36.497  1.00  0.00    -0.206 F 
ATOM     68  C   UNL A   1      43.058  25.792  36.316  1.00  0.00     0.006 A 
ENDBRANCH  47  61
BRANCH  48  69
ATOM     69  C   UNL A   1      42.650  24.720  26.541  1.00  0.00     0.057 A 
ATOM     70  C   UNL A   1      43.388  24.336  25.415  1.00  0.00     0.134 A 
ATOM     71  C   UNL A   1      41.942  23.693  27.194  1.00  0.00     0.134 A 
ATOM     72  F   UNL A   1      44.139  25.230  24.756  1.00  0.00    -0.206 F 
ATOM     73  C   UNL A   1      43.422  23.007  24.965  1.00  0.00     0.040 A 
ATOM     74  C   UNL A   1      41.962  22.366  26.753  1.00  0.00     0.040 A 
ATOM     75  F   UNL A   1      41.277  23.925  28.334  1.00  0.00    -0.206 F 
ATOM     76  C   UNL A   1      42.712  22.016  25.638  1.00  0.00     0.006 A 
ENDBRANCH  48  69
BRANCH  60  77
ATOM     77  C   UNL A   1      45.313  30.143  28.424  1.00  0.00     0.057 A 
ATOM     78  C   UNL A   1      44.312  30.825  27.714  1.00  0.00     0.134 A 
ATOM     79  C   UNL A   1      46.636  30.488  28.129  1.00  0.00     0.134 A 
ATOM     80  F   UNL A   1      43.017  30.643  27.997  1.00  0.00    -0.206 F 
ATOM     81  C   UNL A   1      44.613  31.774  26.732  1.00  0.00     0.040 A 
ATOM     82  C   UNL A   1      46.951  31.457  27.174  1.00  0.00     0.040 A 
ATOM     83  F   UNL A   1      47.647  29.923  28.809  1.00  0.00    -0.206 F 
ATOM     84  C   UNL A   1      45.939  32.098  26.465  1.00  0.00     0.006 A 
ENDBRANCH  60  77
ENDBRANCH  34  35
ENDBRANCH  27  29
ENDBRANCH  26  27
ENDBRANCH  25  26
ENDBRANCH   1  25
TORSDOF 14
ENDMDL
MODEL 2
REMARK VINA RESULT:     -11.6      2.857      7.505
REMARK SMILES COc1ccccc1-n1nnc(C(=O)OCCOC(=O)c2ccc(-c3c4nc(c(-c5c(F)cccc5F)c5ccc([nH]5)c(-c5c(F)cccc5F)c5nc(c(-c6c(F)cccc6F)c6ccc3[nH]6)C=C5)C=C4)cc2)c1-c1ccc(Cl)cc1
REMARK SMILES IDX 16 1 15 2 13 3 14 4 12 5 9 6 10 7 75 8 11 9 8 10 3 11 4 12
REMARK SMILES IDX 5 13 7 14 6 15 2 16 1 17 76 18 77 19 82 20 78 21 81 22 79 23
REMARK SMILES IDX 80 24 17 25 18 26 19 27 20 28 21 29 22 30 74 31 23 32 73 33
REMARK SMILES IDX 24 34 25 35 26 36 67 37 27 38 72 39 66 40 68 41 28 42 71 43
REMARK SMILES IDX 65 44 64 45 29 47 55 48 38 49 54 50 39 51 42 52 53 53 69 54
REMARK SMILES IDX 40 55 41 56 52 58 70 59 43 60 30 61 31 62 36 63 32 64 33 65
REMARK SMILES IDX 35 66 37 67 34 68 56 69 57 70 62 71 58 72 59 73 61 74 63 75
REMARK SMILES IDX 60 76 44 77 45 78 50 79 46 80 47 81 49 82 51 83 48 84
REMARK H PARENT 68 46 42 57
REMARK Flexibility Score: inf
ROOT
ATOM      1  C   UNL A   1      36.222  22.871  26.133  1.00  0.00     0.275 C 
ENDROOT
BRANCH   1   2
ATOM      2  O   UNL A   1      35.027  23.585  25.793  1.00  0.00    -0.457 OA
BRANCH   2   3
ATOM      3  C   UNL A   1      33.870  23.372  26.483  1.00  0.00     0.361 C 
ATOM      4  O   UNL A   1      33.828  22.941  27.632  1.00  0.00    -0.244 OA
BRANCH   3   5
ATOM      5  C   UNL A   1      32.701  23.785  25.716  1.00  0.00     0.198 A 
ATOM      6  N   UNL A   1      31.172  24.910  24.662  1.00  0.00    -0.208 N 
ATOM      7  N   UNL A   1      30.873  23.601  24.508  1.00  0.00    -0.061 NA
ATOM      8  C   UNL A   1      32.197  25.071  25.573  1.00  0.00     0.109 A 
ATOM      9  N   UNL A   1      31.858  22.904  25.070  1.00  0.00    -0.122 NA
BRANCH   6  10
ATOM     10  C   UNL A   1      30.648  25.895  23.808  1.00  0.00     0.109 A 
ATOM     11  C   UNL A   1      31.375  26.290  22.674  1.00  0.00     0.144 A 
ATOM     12  C   UNL A   1      31.010  27.453  22.003  1.00  0.00     0.049 A 
ATOM     13  C   UNL A   1      29.895  28.180  22.421  1.00  0.00     0.004 A 
ATOM     14  C   UNL A   1      29.486  26.574  24.191  1.00  0.00     0.032 A 
ATOM     15  C   UNL A   1      29.124  27.730  23.498  1.00  0.00     0.003 A 
BRANCH  11  16
ATOM     16  O   UNL A   1      32.485  25.641  22.199  1.00  0.00    -0.494 OA
ATOM     17  C   UNL A   1      33.652  26.469  22.160  1.00  0.00     0.278 C 
ENDBRANCH  11  16
ENDBRANCH   6  10
BRANCH   8  18
ATOM     18  C   UNL A   1      32.589  26.348  26.167  1.00  0.00     0.003 A 
ATOM     19  C   UNL A   1      31.733  27.006  27.060  1.00  0.00     0.012 A 
ATOM     20  C   UNL A   1      33.787  26.967  25.787  1.00  0.00     0.012 A 
ATOM     21  C   UNL A   1      32.026  28.292  27.507  1.00  0.00     0.021 A 
ATOM     22  C   UNL A   1      34.098  28.245  26.261  1.00  0.00     0.021 A 
ATOM     23  C   UNL A   1      33.206  28.908  27.101  1.00  0.00     0.041 A 
ATOM     24  Cl  UNL A   1      33.549  30.509  27.626  1.00  0.00    -0.084 Cl
ENDBRANCH   8  18
ENDBRANCH   3   5
ENDBRANCH   2   3
ENDBRANCH   1   2
BRANCH   1  25
ATOM     25  C   UNL A   1      37.422  23.544  25.485  1.00  0.00     0.275 C 
BRANCH  25  26
ATOM     26  O   UNL A   1      38.264  24.036  26.518  1.00  0.00    -0.458 OA
BRANCH  26  27
ATOM     27  C   UNL A   1      39.466  23.435  26.657  1.00  0.00     0.338 C 
ATOM     28  O   UNL A   1      39.688  22.239  26.728  1.00  0.00    -0.246 OA
BRANCH  27  29
ATOM     29  C   UNL A   1      40.470  24.481  26.874  1.00  0.00     0.060 A 
ATOM     30  C   UNL A   1      41.134  24.451  28.102  1.00  0.00     0.016 A 
ATOM     31  C   UNL A   1      40.370  25.644  26.098  1.00  0.00     0.016 A 
ATOM     32  C   UNL A   1      41.392  25.655  28.710  1.00  0.00     0.010 A 
ATOM     33  C   UNL A   1      40.579  26.838  26.721  1.00  0.00     0.010 A 
ATOM     34  C   UNL A   1      40.978  26.816  28.053  1.00  0.00    -0.014 A 
BRANCH  34  35
ATOM     35  C   UNL A   1      40.990  28.063  28.774  1.00  0.00     0.031 A 
ATOM     36  C   UNL A   1      42.130  28.919  28.397  1.00  0.00     0.074 A 
ATOM     37  C   UNL A   1      39.957  28.421  29.557  1.00  0.00     0.049 A 
ATOM     38  N   UNL A   1      43.147  29.245  29.120  1.00  0.00    -0.248 NA
ATOM     39  C   UNL A   1      42.254  29.283  26.974  1.00  0.00     0.031 C 
ATOM     40  C   UNL A   1      38.660  27.756  29.731  1.00  0.00     0.029 A 
ATOM     41  N   UNL A   1      39.820  29.553  30.291  1.00  0.00    -0.354 N 
ATOM     42  C   UNL A   1      43.935  30.036  28.293  1.00  0.00     0.074 A 
ATOM     43  C   UNL A   1      43.471  29.820  26.951  1.00  0.00     0.031 C 
ATOM     44  C   UNL A   1      37.799  28.612  30.330  1.00  0.00     0.029 A 
ATOM     45  C   UNL A   1      38.516  29.822  30.689  1.00  0.00     0.049 A 
ATOM     46  H   UNL A   1      40.580  30.135  30.523  1.00  0.00     0.167 HD
ATOM     47  C   UNL A   1      44.708  31.029  28.803  1.00  0.00     0.037 A 
ATOM     48  C   UNL A   1      38.089  31.019  31.164  1.00  0.00     0.037 A 
ATOM     49  C   UNL A   1      44.919  30.853  30.216  1.00  0.00     0.049 A 
ATOM     50  C   UNL A   1      39.298  31.774  31.600  1.00  0.00     0.074 A 
ATOM     51  C   UNL A   1      45.493  29.862  30.990  1.00  0.00     0.029 A 
ATOM     52  N   UNL A   1      44.147  31.598  31.077  1.00  0.00    -0.354 N 
ATOM     53  N   UNL A   1      40.043  31.419  32.613  1.00  0.00    -0.248 NA
ATOM     54  C   UNL A   1      39.959  32.611  30.606  1.00  0.00     0.031 C 
ATOM     55  C   UNL A   1      44.666  29.769  32.147  1.00  0.00     0.029 A 
ATOM     56  C   UNL A   1      43.677  30.749  32.048  1.00  0.00     0.049 A 
ATOM     57  H   UNL A   1      43.966  32.564  31.009  1.00  0.00     0.167 HD
ATOM     58  C   UNL A   1      41.351  31.628  32.188  1.00  0.00     0.074 A 
ATOM     59  C   UNL A   1      41.232  32.417  30.963  1.00  0.00     0.031 C 
ATOM     60  C   UNL A   1      42.391  30.897  32.691  1.00  0.00     0.037 A 
BRANCH  47  61
ATOM     61  C   UNL A   1      44.934  32.342  28.099  1.00  0.00     0.057 A 
ATOM     62  C   UNL A   1      43.871  33.256  28.016  1.00  0.00     0.134 A 
ATOM     63  C   UNL A   1      46.041  32.634  27.273  1.00  0.00     0.134 A 
ATOM     64  F   UNL A   1      42.756  33.082  28.740  1.00  0.00    -0.206 F 
ATOM     65  C   UNL A   1      43.883  34.334  27.124  1.00  0.00     0.040 A 
ATOM     66  C   UNL A   1      46.086  33.740  26.424  1.00  0.00     0.040 A 
ATOM     67  F   UNL A   1      47.098  31.820  27.158  1.00  0.00    -0.206 F 
ATOM     68  C   UNL A   1      44.990  34.576  26.321  1.00  0.00     0.006 A 
ENDBRANCH  47  61
BRANCH  48  69
ATOM     69  C   UNL A   1      36.788  31.673  30.888  1.00  0.00     0.057 A 
ATOM     70  C   UNL A   1      35.902  32.009  31.919  1.00  0.00     0.134 A 
ATOM     71  C   UNL A   1      36.491  32.211  29.621  1.00  0.00     0.134 A 
ATOM     72  F   UNL A   1      36.127  31.590  33.172  1.00  0.00    -0.206 F 
ATOM     73  C   UNL A   1      34.788  32.834  31.704  1.00  0.00     0.040 A 
ATOM     74  C   UNL A   1      35.381  33.029  29.391  1.00  0.00     0.040 A 
ATOM     75  F   UNL A   1      37.318  32.033  28.581  1.00  0.00    -0.206 F 
ATOM     76  C   UNL A   1      34.528  33.352  30.437  1.00  0.00     0.006 A 
ENDBRANCH  48  69
BRANCH  60  77
ATOM     77  C   UNL A   1      42.114  29.986  33.858  1.00  0.00     0.057 A 
ATOM     78  C   UNL A   1      41.715  28.647  33.727  1.00  0.00     0.134 A 
ATOM     79  C   UNL A   1      42.433  30.422  35.149  1.00  0.00     0.134 A 
ATOM     80  F   UNL A   1      41.491  28.107  32.523  1.00  0.00    -0.206 F 
ATOM     81  C   UNL A   1      41.600  27.795  34.830  1.00  0.00     0.040 A 
ATOM     82  C   UNL A   1      42.354  29.573  36.255  1.00  0.00     0.040 A 
ATOM     83  F   UNL A   1      42.881  31.672  35.347  1.00  0.00    -0.206 F 
ATOM     84  C   UNL A   1      41.927  28.257  36.100  1.00  0.00     0.006 A 
ENDBRANCH  60  77
ENDBRANCH  34  35
ENDBRANCH  27  29
ENDBRANCH  26  27
ENDBRANCH  25  26
ENDBRANCH   1  25
TORSDOF 14
ENDMDL
MODEL 3
REMARK VINA RESULT:     -11.5      2.832      6.740
REMARK SMILES COc1ccccc1-n1nnc(C(=O)OCCOC(=O)c2ccc(-c3c4nc(c(-c5c(F)cccc5F)c5ccc([nH]5)c(-c5c(F)cccc5F)c5nc(c(-c6c(F)cccc6F)c6ccc3[nH]6)C=C5)C=C4)cc2)c1-c1ccc(Cl)cc1
REMARK SMILES IDX 16 1 15 2 13 3 14 4 12 5 9 6 10 7 75 8 11 9 8 10 3 11 4 12
REMARK SMILES IDX 5 13 7 14 6 15 2 16 1 17 76 18 77 19 82 20 78 21 81 22 79 23
REMARK SMILES IDX 80 24 17 25 18 26 19 27 20 28 21 29 22 30 74 31 23 32 73 33
REMARK SMILES IDX 24 34 25 35 26 36 67 37 27 38 72 39 66 40 68 41 28 42 71 43
REMARK SMILES IDX 65 44 64 45 29 47 55 48 38 49 54 50 39 51 42 52 53 53 69 54
REMARK SMILES IDX 40 55 41 56 52 58 70 59 43 60 30 61 31 62 36 63 32 64 33 65
REMARK SMILES IDX 35 66 37 67 34 68 56 69 57 70 62 71 58 72 59 73 61 74 63 75
REMARK SMILES IDX 60 76 44 77 45 78 50 79 46 80 47 81 49 82 51 83 48 84
REMARK H PARENT 68 46 42 57
REMARK Flexibility Score: inf
ROOT
ATOM      1  C   UNL A   1      36.045  21.556  25.319  1.00  0.00     0.275 C 
ENDROOT
BRANCH   1   2
ATOM      2  O   UNL A   1      35.414  22.832  25.166  1.00  0.00    -0.457 OA
BRANCH   2   3
ATOM      3  C   UNL A   1      34.484  23.260  26.067  1.00  0.00     0.361 C 
ATOM      4  O   UNL A   1      34.710  23.413  27.263  1.00  0.00    -0.244 OA
BRANCH   3   5
ATOM      5  C   UNL A   1      33.216  23.580  25.421  1.00  0.00     0.198 A 
ATOM      6  N   UNL A   1      31.491  24.580  24.563  1.00  0.00    -0.208 N 
ATOM      7  N   UNL A   1      31.321  23.256  24.354  1.00  0.00    -0.061 NA
ATOM      8  C   UNL A   1      32.567  24.808  25.397  1.00  0.00     0.109 A 
ATOM      9  N   UNL A   1      32.419  22.645  24.793  1.00  0.00    -0.122 NA
BRANCH   6  10
ATOM     10  C   UNL A   1      30.793  25.543  23.814  1.00  0.00     0.109 A 
ATOM     11  C   UNL A   1      31.443  26.212  22.765  1.00  0.00     0.144 A 
ATOM     12  C   UNL A   1      30.863  27.357  22.226  1.00  0.00     0.049 A 
ATOM     13  C   UNL A   1      29.620  27.793  22.686  1.00  0.00     0.004 A 
ATOM     14  C   UNL A   1      29.514  25.928  24.232  1.00  0.00     0.032 A 
ATOM     15  C   UNL A   1      28.939  27.069  23.670  1.00  0.00     0.003 A 
BRANCH  11  16
ATOM     16  O   UNL A   1      32.666  25.858  22.258  1.00  0.00    -0.494 OA
ATOM     17  C   UNL A   1      33.532  26.975  22.034  1.00  0.00     0.278 C 
ENDBRANCH  11  16
ENDBRANCH   6  10
BRANCH   8  18
ATOM     18  C   UNL A   1      32.871  26.087  26.034  1.00  0.00     0.003 A 
ATOM     19  C   UNL A   1      31.952  26.677  26.912  1.00  0.00     0.012 A 
ATOM     20  C   UNL A   1      34.046  26.778  25.710  1.00  0.00     0.012 A 
ATOM     21  C   UNL A   1      32.161  27.965  27.399  1.00  0.00     0.021 A 
ATOM     22  C   UNL A   1      34.272  28.058  26.224  1.00  0.00     0.021 A 
ATOM     23  C   UNL A   1      33.319  28.652  27.048  1.00  0.00     0.041 A 
ATOM     24  Cl  UNL A   1      33.559  30.255  27.621  1.00  0.00    -0.084 Cl
ENDBRANCH   8  18
ENDBRANCH   3   5
ENDBRANCH   2   3
ENDBRANCH   1   2
BRANCH   1  25
ATOM     25  C   UNL A   1      37.467  21.619  24.783  1.00  0.00     0.275 C 
BRANCH  25  26
ATOM     26  O   UNL A   1      38.359  21.435  25.874  1.00  0.00    -0.458 OA
BRANCH  26  27
ATOM     27  C   UNL A   1      39.307  20.483  25.728  1.00  0.00     0.338 C 
ATOM     28  O   UNL A   1      39.147  19.341  25.334  1.00  0.00    -0.246 OA
BRANCH  27  29
ATOM     29  C   UNL A   1      40.559  21.005  26.282  1.00  0.00     0.060 A 
ATOM     30  C   UNL A   1      40.744  20.831  27.655  1.00  0.00     0.016 A 
ATOM     31  C   UNL A   1      41.225  21.997  25.550  1.00  0.00     0.016 A 
ATOM     32  C   UNL A   1      41.323  21.864  28.350  1.00  0.00     0.010 A 
ATOM     33  C   UNL A   1      41.754  23.045  26.244  1.00  0.00     0.010 A 
ATOM     34  C   UNL A   1      41.689  23.005  27.633  1.00  0.00    -0.014 A 
BRANCH  34  35
ATOM     35  C   UNL A   1      42.047  24.196  28.359  1.00  0.00     0.031 A 
ATOM     36  C   UNL A   1      41.025  25.252  28.242  1.00  0.00     0.074 A 
ATOM     37  C   UNL A   1      43.117  24.217  29.173  1.00  0.00     0.049 A 
ATOM     38  N   UNL A   1      41.124  26.385  27.632  1.00  0.00    -0.248 NA
ATOM     39  C   UNL A   1      39.659  24.917  28.681  1.00  0.00     0.031 C 
ATOM     40  C   UNL A   1      43.993  23.109  29.570  1.00  0.00     0.029 A 
ATOM     41  N   UNL A   1      43.577  25.251  29.920  1.00  0.00    -0.354 N 
ATOM     42  C   UNL A   1      39.885  26.990  27.798  1.00  0.00     0.074 A 
ATOM     43  C   UNL A   1      38.976  25.962  28.221  1.00  0.00     0.031 C 
ATOM     44  C   UNL A   1      44.721  23.482  30.649  1.00  0.00     0.029 A 
ATOM     45  C   UNL A   1      44.453  24.881  30.932  1.00  0.00     0.049 A 
ATOM     46  H   UNL A   1      43.312  26.186  29.758  1.00  0.00     0.167 HD
ATOM     47  C   UNL A   1      39.768  28.342  27.862  1.00  0.00     0.037 A 
ATOM     48  C   UNL A   1      44.806  25.675  31.973  1.00  0.00     0.037 A 
ATOM     49  C   UNL A   1      40.936  28.992  27.326  1.00  0.00     0.049 A 
ATOM     50  C   UNL A   1      44.480  27.077  31.585  1.00  0.00     0.074 A 
ATOM     51  C   UNL A   1      41.557  28.996  26.091  1.00  0.00     0.029 A 
ATOM     52  N   UNL A   1      41.874  29.461  28.216  1.00  0.00    -0.354 N 
ATOM     53  N   UNL A   1      45.096  27.723  30.631  1.00  0.00    -0.248 NA
ATOM     54  C   UNL A   1      43.143  27.565  31.902  1.00  0.00     0.031 C 
ATOM     55  C   UNL A   1      42.953  28.998  26.378  1.00  0.00     0.029 A 
ATOM     56  C   UNL A   1      43.107  29.062  27.763  1.00  0.00     0.049 A 
ATOM     57  H   UNL A   1      41.694  29.987  29.028  1.00  0.00     0.167 HD
ATOM     58  C   UNL A   1      44.094  28.410  29.956  1.00  0.00     0.074 A 
ATOM     59  C   UNL A   1      42.919  28.318  30.820  1.00  0.00     0.031 C 
ATOM     60  C   UNL A   1      44.214  28.731  28.632  1.00  0.00     0.037 A 
BRANCH  47  61
ATOM     61  C   UNL A   1      38.781  29.043  28.757  1.00  0.00     0.057 A 
ATOM     62  C   UNL A   1      38.829  28.800  30.139  1.00  0.00     0.134 A 
ATOM     63  C   UNL A   1      37.626  29.720  28.308  1.00  0.00     0.134 A 
ATOM     64  F   UNL A   1      39.867  28.152  30.688  1.00  0.00    -0.206 F 
ATOM     65  C   UNL A   1      37.775  29.140  30.994  1.00  0.00     0.040 A 
ATOM     66  C   UNL A   1      36.595  30.116  29.163  1.00  0.00     0.040 A 
ATOM     67  F   UNL A   1      37.373  29.949  27.014  1.00  0.00    -0.206 F 
ATOM     68  C   UNL A   1      36.651  29.795  30.506  1.00  0.00     0.006 A 
ENDBRANCH  47  61
BRANCH  48  69
ATOM     69  C   UNL A   1      45.016  25.258  33.380  1.00  0.00     0.057 A 
ATOM     70  C   UNL A   1      43.943  24.924  34.214  1.00  0.00     0.134 A 
ATOM     71  C   UNL A   1      46.298  24.935  33.866  1.00  0.00     0.134 A 
ATOM     72  F   UNL A   1      42.680  25.142  33.818  1.00  0.00    -0.206 F 
ATOM     73  C   UNL A   1      44.131  24.305  35.459  1.00  0.00     0.040 A 
ATOM     74  C   UNL A   1      46.501  24.323  35.107  1.00  0.00     0.040 A 
ATOM     75  F   UNL A   1      47.392  25.123  33.115  1.00  0.00    -0.206 F 
ATOM     76  C   UNL A   1      45.413  23.997  35.906  1.00  0.00     0.006 A 
ENDBRANCH  48  69
BRANCH  60  77
ATOM     77  C   UNL A   1      45.543  28.490  27.965  1.00  0.00     0.057 A 
ATOM     78  C   UNL A   1      46.626  29.380  28.034  1.00  0.00     0.134 A 
ATOM     79  C   UNL A   1      45.794  27.242  27.386  1.00  0.00     0.134 A 
ATOM     80  F   UNL A   1      46.515  30.556  28.663  1.00  0.00    -0.206 F 
ATOM     81  C   UNL A   1      47.885  29.060  27.517  1.00  0.00     0.040 A 
ATOM     82  C   UNL A   1      47.055  26.896  26.895  1.00  0.00     0.040 A 
ATOM     83  F   UNL A   1      44.825  26.314  27.338  1.00  0.00    -0.206 F 
ATOM     84  C   UNL A   1      48.104  27.809  26.950  1.00  0.00     0.006 A 
ENDBRANCH  60  77
ENDBRANCH  34  35
ENDBRANCH  27  29
ENDBRANCH  26  27
ENDBRANCH  25  26
ENDBRANCH   1  25
TORSDOF 14
ENDMDL
