MODEL 1
REMARK VINA RESULT:     -10.0      0.000      0.000
REMARK SMILES [NH3+][C@@]1(C(=O)OCCOC(=O)c2ccc(-c3c4nc(c(-c5c(F)cccc5F)c5ccc([nH]5)c(-c5c(F)cccc5F)c5nc(c(-c6c(F)cccc6F)c6ccc3[nH]6)C=C5)C=C4)cc2)CC[N@H+](Cc2ccc(OCC(=O)N3CCCCC3)cc2)C1
REMARK SMILES IDX 5 1 3 2 4 3 2 4 65 5 85 6 66 7 67 8 1 10 68 14 69 15 70 16
REMARK SMILES IDX 84 17 71 18 83 19 72 20 73 21 74 22 75 23 76 24 77 25 78 26
REMARK SMILES IDX 82 27 79 28 81 29 80 30 6 31 7 32 8 33 9 34 10 35 11 36
REMARK SMILES IDX 12 37 64 38 13 39 63 40 14 41 15 42 16 43 57 44 17 45 62 46
REMARK SMILES IDX 56 47 58 48 18 49 61 50 55 51 54 52 19 54 45 55 28 56 44 57
REMARK SMILES IDX 29 58 32 59 43 60 59 61 30 62 31 63 42 65 60 66 33 67 20 68
REMARK SMILES IDX 21 69 26 70 22 71 23 72 25 73 27 74 24 75 46 76 47 77 52 78
REMARK SMILES IDX 48 79 49 80 51 81 53 82 50 83 34 84 35 85 40 86 36 87 37 88
REMARK SMILES IDX 39 89 41 90 38 91
REMARK H PARENT 67 9 1 11 1 12 1 13 58 53 32 64
REMARK Flexibility Score: inf
ROOT
ATOM      1  O   UNL A   1      33.707  34.127  30.118  1.00  0.00    -0.457 OA
ENDROOT
BRANCH   1   2
ATOM      2  C   UNL A   1      33.547  35.190  30.944  1.00  0.00     0.374 C 
ATOM      3  O   UNL A   1      33.259  36.323  30.572  1.00  0.00    -0.244 OA
BRANCH   2   4
ATOM      4  C   UNL A   1      33.595  34.761  32.429  1.00  0.00     0.246 C 
ATOM      5  C   UNL A   1      34.458  35.729  33.232  1.00  0.00     0.148 C 
ATOM      6  C   UNL A   1      34.336  33.424  32.623  1.00  0.00     0.344 C 
ATOM      7  C   UNL A   1      35.872  35.213  33.007  1.00  0.00     0.270 C 
ATOM      8  N   UNL A   1      35.746  33.777  32.804  1.00  0.00    -0.325 N 
ATOM      9  H   UNL A   1      36.052  33.340  33.673  1.00  0.00     0.348 HD
BRANCH   4  10
ATOM     10  N   UNL A   1      32.215  34.782  32.973  1.00  0.00    -0.338 N 
ATOM     11  H   UNL A   1      31.633  34.128  32.450  1.00  0.00     0.345 HD
ATOM     12  H   UNL A   1      31.830  35.722  32.890  1.00  0.00     0.345 HD
ATOM     13  H   UNL A   1      32.233  34.508  33.956  1.00  0.00     0.345 HD
ENDBRANCH   4  10
BRANCH   8  14
ATOM     14  C   UNL A   1      36.759  33.070  32.018  1.00  0.00     0.299 C 
BRANCH  14  15
ATOM     15  C   UNL A   1      37.541  31.940  32.675  1.00  0.00     0.006 A 
ATOM     16  C   UNL A   1      37.013  30.643  32.730  1.00  0.00     0.013 A 
ATOM     17  C   UNL A   1      38.787  32.146  33.286  1.00  0.00     0.013 A 
ATOM     18  C   UNL A   1      37.780  29.578  33.225  1.00  0.00     0.047 A 
ATOM     19  C   UNL A   1      39.582  31.073  33.722  1.00  0.00     0.047 A 
ATOM     20  C   UNL A   1      39.110  29.772  33.608  1.00  0.00     0.120 A 
BRANCH  20  21
ATOM     21  O   UNL A   1      39.846  28.622  33.707  1.00  0.00    -0.484 OA
BRANCH  21  22
ATOM     22  C   UNL A   1      41.216  28.696  34.061  1.00  0.00     0.329 C 
BRANCH  22  23
ATOM     23  C   UNL A   1      42.286  27.644  33.646  1.00  0.00     0.260 C 
ATOM     24  O   UNL A   1      42.959  27.853  32.631  1.00  0.00    -0.271 OA
ATOM     25  N   UNL A   1      42.558  26.558  34.480  1.00  0.00    -0.340 N 
ATOM     26  C   UNL A   1      43.872  25.922  34.380  1.00  0.00     0.119 C 
ATOM     27  C   UNL A   1      41.709  26.052  35.558  1.00  0.00     0.119 C 
ATOM     28  C   UNL A   1      43.755  24.416  34.202  1.00  0.00     0.022 C 
ATOM     29  C   UNL A   1      41.649  24.513  35.595  1.00  0.00     0.022 C 
ATOM     30  C   UNL A   1      42.981  23.803  35.364  1.00  0.00     0.004 C 
ENDBRANCH  22  23
ENDBRANCH  21  22
ENDBRANCH  20  21
ENDBRANCH  14  15
ENDBRANCH   8  14
ENDBRANCH   2   4
ENDBRANCH   1   2
BRANCH   1  31
ATOM     31  C   UNL A   1      34.044  34.408  28.762  1.00  0.00     0.274 C 
BRANCH  31  32
ATOM     32  C   UNL A   1      35.074  33.375  28.277  1.00  0.00     0.275 C 
BRANCH  32  33
ATOM     33  O   UNL A   1      34.968  32.191  29.088  1.00  0.00    -0.458 OA
BRANCH  33  34
ATOM     34  C   UNL A   1      34.739  31.080  28.359  1.00  0.00     0.338 C 
ATOM     35  O   UNL A   1      33.792  30.852  27.627  1.00  0.00    -0.246 OA
BRANCH  34  36
ATOM     36  C   UNL A   1      35.995  30.324  28.293  1.00  0.00     0.060 A 
ATOM     37  C   UNL A   1      36.356  29.652  29.460  1.00  0.00     0.016 A 
ATOM     38  C   UNL A   1      36.824  30.306  27.177  1.00  0.00     0.016 A 
ATOM     39  C   UNL A   1      37.611  29.091  29.585  1.00  0.00     0.010 A 
ATOM     40  C   UNL A   1      38.076  29.692  27.281  1.00  0.00     0.010 A 
ATOM     41  C   UNL A   1      38.500  29.143  28.509  1.00  0.00    -0.014 A 
BRANCH  41  42
ATOM     42  C   UNL A   1      39.913  28.773  28.755  1.00  0.00     0.031 A 
ATOM     43  C   UNL A   1      40.788  29.717  29.536  1.00  0.00     0.074 A 
ATOM     44  C   UNL A   1      40.367  27.557  28.400  1.00  0.00     0.049 A 
ATOM     45  N   UNL A   1      42.058  29.619  29.832  1.00  0.00    -0.248 NA
ATOM     46  C   UNL A   1      40.147  30.939  30.048  1.00  0.00     0.031 C 
ATOM     47  C   UNL A   1      39.579  26.525  27.722  1.00  0.00     0.029 A 
ATOM     48  N   UNL A   1      41.591  26.971  28.592  1.00  0.00    -0.354 N 
ATOM     49  C   UNL A   1      42.374  30.782  30.525  1.00  0.00     0.074 A 
ATOM     50  C   UNL A   1      41.171  31.581  30.588  1.00  0.00     0.031 C 
ATOM     51  C   UNL A   1      40.331  25.421  27.586  1.00  0.00     0.029 A 
ATOM     52  C   UNL A   1      41.668  25.691  28.102  1.00  0.00     0.049 A 
ATOM     53  H   UNL A   1      42.343  27.424  29.039  1.00  0.00     0.167 HD
ATOM     54  C   UNL A   1      43.561  31.145  31.065  1.00  0.00     0.037 A 
ATOM     55  C   UNL A   1      42.712  24.843  28.052  1.00  0.00     0.037 A 
ATOM     56  C   UNL A   1      44.740  30.321  31.032  1.00  0.00     0.049 A 
ATOM     57  C   UNL A   1      44.031  25.290  28.614  1.00  0.00     0.074 A 
ATOM     58  C   UNL A   1      46.000  30.592  31.535  1.00  0.00     0.029 A 
ATOM     59  N   UNL A   1      44.796  29.051  30.474  1.00  0.00    -0.354 N 
ATOM     60  N   UNL A   1      44.338  26.417  29.213  1.00  0.00    -0.248 NA
ATOM     61  C   UNL A   1      45.155  24.353  28.485  1.00  0.00     0.031 C 
ATOM     62  C   UNL A   1      46.829  29.504  31.241  1.00  0.00     0.029 A 
ATOM     63  C   UNL A   1      46.074  28.533  30.604  1.00  0.00     0.049 A 
ATOM     64  H   UNL A   1      44.039  28.588  30.048  1.00  0.00     0.167 HD
ATOM     65  C   UNL A   1      45.682  26.319  29.545  1.00  0.00     0.074 A 
ATOM     66  C   UNL A   1      46.123  25.010  29.107  1.00  0.00     0.031 C 
ATOM     67  C   UNL A   1      46.485  27.228  30.151  1.00  0.00     0.037 A 
BRANCH  54  68
ATOM     68  C   UNL A   1      43.647  32.509  31.690  1.00  0.00     0.057 A 
ATOM     69  C   UNL A   1      43.363  32.734  33.043  1.00  0.00     0.134 A 
ATOM     70  C   UNL A   1      44.023  33.617  30.918  1.00  0.00     0.134 A 
ATOM     71  F   UNL A   1      42.975  31.723  33.835  1.00  0.00    -0.206 F 
ATOM     72  C   UNL A   1      43.423  34.015  33.599  1.00  0.00     0.040 A 
ATOM     73  C   UNL A   1      44.114  34.896  31.468  1.00  0.00     0.040 A 
ATOM     74  F   UNL A   1      44.308  33.473  29.615  1.00  0.00    -0.206 F 
ATOM     75  C   UNL A   1      43.806  35.100  32.812  1.00  0.00     0.006 A 
ENDBRANCH  54  68
BRANCH  55  76
ATOM     76  C   UNL A   1      42.559  23.508  27.416  1.00  0.00     0.057 A 
ATOM     77  C   UNL A   1      42.693  23.338  26.033  1.00  0.00     0.134 A 
ATOM     78  C   UNL A   1      42.262  22.370  28.177  1.00  0.00     0.134 A 
ATOM     79  F   UNL A   1      42.954  24.392  25.245  1.00  0.00    -0.206 F 
ATOM     80  C   UNL A   1      42.523  22.091  25.430  1.00  0.00     0.040 A 
ATOM     81  C   UNL A   1      42.120  21.112  27.592  1.00  0.00     0.040 A 
ATOM     82  F   UNL A   1      42.122  22.463  29.508  1.00  0.00    -0.206 F 
ATOM     83  C   UNL A   1      42.243  20.971  26.212  1.00  0.00     0.006 A 
ENDBRANCH  55  76
BRANCH  67  84
ATOM     84  C   UNL A   1      47.908  26.816  30.392  1.00  0.00     0.057 A 
ATOM     85  C   UNL A   1      48.287  26.105  31.538  1.00  0.00     0.134 A 
ATOM     86  C   UNL A   1      48.908  27.134  29.465  1.00  0.00     0.134 A 
ATOM     87  F   UNL A   1      47.378  25.780  32.470  1.00  0.00    -0.206 F 
ATOM     88  C   UNL A   1      49.619  25.760  31.772  1.00  0.00     0.040 A 
ATOM     89  C   UNL A   1      50.238  26.767  29.674  1.00  0.00     0.040 A 
ATOM     90  F   UNL A   1      48.610  27.803  28.342  1.00  0.00    -0.206 F 
ATOM     91  C   UNL A   1      50.597  26.088  30.837  1.00  0.00     0.006 A 
ENDBRANCH  67  84
ENDBRANCH  41  42
ENDBRANCH  34  36
ENDBRANCH  33  34
ENDBRANCH  32  33
ENDBRANCH  31  32
ENDBRANCH   1  31
TORSDOF 17
ENDMDL
MODEL 2
REMARK VINA RESULT:     -10.0      4.497     11.666
REMARK SMILES [NH3+][C@@]1(C(=O)OCCOC(=O)c2ccc(-c3c4nc(c(-c5c(F)cccc5F)c5ccc([nH]5)c(-c5c(F)cccc5F)c5nc(c(-c6c(F)cccc6F)c6ccc3[nH]6)C=C5)C=C4)cc2)CC[N@H+](Cc2ccc(OCC(=O)N3CCCCC3)cc2)C1
REMARK SMILES IDX 5 1 3 2 4 3 2 4 65 5 85 6 66 7 67 8 1 10 68 14 69 15 70 16
REMARK SMILES IDX 84 17 71 18 83 19 72 20 73 21 74 22 75 23 76 24 77 25 78 26
REMARK SMILES IDX 82 27 79 28 81 29 80 30 6 31 7 32 8 33 9 34 10 35 11 36
REMARK SMILES IDX 12 37 64 38 13 39 63 40 14 41 15 42 16 43 57 44 17 45 62 46
REMARK SMILES IDX 56 47 58 48 18 49 61 50 55 51 54 52 19 54 45 55 28 56 44 57
REMARK SMILES IDX 29 58 32 59 43 60 59 61 30 62 31 63 42 65 60 66 33 67 20 68
REMARK SMILES IDX 21 69 26 70 22 71 23 72 25 73 27 74 24 75 46 76 47 77 52 78
REMARK SMILES IDX 48 79 49 80 51 81 53 82 50 83 34 84 35 85 40 86 36 87 37 88
REMARK SMILES IDX 39 89 41 90 38 91
REMARK H PARENT 67 9 1 11 1 12 1 13 58 53 32 64
REMARK Flexibility Score: inf
ROOT
ATOM      1  O   UNL A   1      42.869  21.444  25.646  1.00  0.00    -0.457 OA
ENDROOT
BRANCH   1   2
ATOM      2  C   UNL A   1      42.507  20.138  25.663  1.00  0.00     0.374 C 
ATOM      3  O   UNL A   1      43.009  19.268  24.957  1.00  0.00    -0.244 OA
BRANCH   2   4
ATOM      4  C   UNL A   1      41.509  19.845  26.807  1.00  0.00     0.246 C 
ATOM      5  C   UNL A   1      40.370  18.965  26.303  1.00  0.00     0.148 C 
ATOM      6  C   UNL A   1      40.765  21.113  27.267  1.00  0.00     0.344 C 
ATOM      7  C   UNL A   1      39.404  19.961  25.678  1.00  0.00     0.270 C 
ATOM      8  N   UNL A   1      39.577  21.203  26.416  1.00  0.00    -0.325 N 
ATOM      9  H   UNL A   1      38.771  21.278  27.037  1.00  0.00     0.348 HD
BRANCH   4  10
ATOM     10  N   UNL A   1      42.228  19.129  27.890  1.00  0.00    -0.338 N 
ATOM     11  H   UNL A   1      43.203  18.999  27.623  1.00  0.00     0.345 HD
ATOM     12  H   UNL A   1      41.793  18.219  28.044  1.00  0.00     0.345 HD
ATOM     13  H   UNL A   1      42.181  19.677  28.750  1.00  0.00     0.345 HD
ENDBRANCH   4  10
BRANCH   8  14
ATOM     14  C   UNL A   1      39.270  22.477  25.762  1.00  0.00     0.299 C 
BRANCH  14  15
ATOM     15  C   UNL A   1      37.830  22.768  25.361  1.00  0.00     0.006 A 
ATOM     16  C   UNL A   1      37.056  23.684  26.088  1.00  0.00     0.013 A 
ATOM     17  C   UNL A   1      37.201  22.113  24.292  1.00  0.00     0.013 A 
ATOM     18  C   UNL A   1      35.774  24.044  25.651  1.00  0.00     0.047 A 
ATOM     19  C   UNL A   1      35.942  22.519  23.814  1.00  0.00     0.047 A 
ATOM     20  C   UNL A   1      35.264  23.552  24.446  1.00  0.00     0.120 A 
BRANCH  20  21
ATOM     21  O   UNL A   1      34.195  24.252  23.953  1.00  0.00    -0.484 OA
BRANCH  21  22
ATOM     22  C   UNL A   1      34.406  25.514  23.344  1.00  0.00     0.329 C 
BRANCH  22  23
ATOM     23  C   UNL A   1      33.341  26.264  22.491  1.00  0.00     0.260 C 
ATOM     24  O   UNL A   1      33.371  26.136  21.262  1.00  0.00    -0.271 OA
ATOM     25  N   UNL A   1      32.306  26.957  23.119  1.00  0.00    -0.340 N 
ATOM     26  C   UNL A   1      31.065  27.170  22.373  1.00  0.00     0.119 C 
ATOM     27  C   UNL A   1      32.268  27.394  24.514  1.00  0.00     0.119 C 
ATOM     28  C   UNL A   1      30.646  28.632  22.385  1.00  0.00     0.022 C 
ATOM     29  C   UNL A   1      31.690  28.812  24.678  1.00  0.00     0.022 C 
ATOM     30  C   UNL A   1      30.468  29.122  23.817  1.00  0.00     0.004 C 
ENDBRANCH  22  23
ENDBRANCH  21  22
ENDBRANCH  20  21
ENDBRANCH  14  15
ENDBRANCH   8  14
ENDBRANCH   2   4
ENDBRANCH   1   2
BRANCH   1  31
ATOM     31  C   UNL A   1      44.246  21.731  25.416  1.00  0.00     0.274 C 
BRANCH  31  32
ATOM     32  C   UNL A   1      44.369  22.672  24.207  1.00  0.00     0.275 C 
BRANCH  32  33
ATOM     33  O   UNL A   1      43.581  23.852  24.451  1.00  0.00    -0.458 OA
BRANCH  33  34
ATOM     34  C   UNL A   1      44.281  24.826  25.067  1.00  0.00     0.338 C 
ATOM     35  O   UNL A   1      45.376  25.265  24.759  1.00  0.00    -0.246 OA
BRANCH  34  36
ATOM     36  C   UNL A   1      43.360  25.540  25.959  1.00  0.00     0.060 A 
ATOM     37  C   UNL A   1      43.543  26.920  26.034  1.00  0.00     0.016 A 
ATOM     38  C   UNL A   1      42.399  24.907  26.738  1.00  0.00     0.016 A 
ATOM     39  C   UNL A   1      42.886  27.662  26.995  1.00  0.00     0.010 A 
ATOM     40  C   UNL A   1      41.691  25.664  27.676  1.00  0.00     0.010 A 
ATOM     41  C   UNL A   1      41.983  27.033  27.854  1.00  0.00    -0.014 A 
BRANCH  41  42
ATOM     42  C   UNL A   1      41.498  27.790  29.030  1.00  0.00     0.031 A 
ATOM     43  C   UNL A   1      42.296  27.747  30.305  1.00  0.00     0.074 A 
ATOM     44  C   UNL A   1      40.434  28.608  28.918  1.00  0.00     0.049 A 
ATOM     45  N   UNL A   1      42.040  28.295  31.465  1.00  0.00    -0.248 NA
ATOM     46  C   UNL A   1      43.551  26.977  30.272  1.00  0.00     0.031 C 
ATOM     47  C   UNL A   1      39.641  28.801  27.702  1.00  0.00     0.029 A 
ATOM     48  N   UNL A   1      39.860  29.454  29.830  1.00  0.00    -0.354 N 
ATOM     49  C   UNL A   1      43.075  27.902  32.305  1.00  0.00     0.074 A 
ATOM     50  C   UNL A   1      43.953  27.053  31.531  1.00  0.00     0.031 C 
ATOM     51  C   UNL A   1      38.704  29.734  27.935  1.00  0.00     0.029 A 
ATOM     52  C   UNL A   1      38.787  30.151  29.331  1.00  0.00     0.049 A 
ATOM     53  H   UNL A   1      40.185  29.553  30.754  1.00  0.00     0.167 HD
ATOM     54  C   UNL A   1      43.277  28.227  33.603  1.00  0.00     0.037 A 
ATOM     55  C   UNL A   1      37.949  31.008  29.943  1.00  0.00     0.037 A 
ATOM     56  C   UNL A   1      42.419  29.109  34.350  1.00  0.00     0.049 A 
ATOM     57  C   UNL A   1      38.167  31.314  31.397  1.00  0.00     0.074 A 
ATOM     58  C   UNL A   1      42.518  29.498  35.673  1.00  0.00     0.029 A 
ATOM     59  N   UNL A   1      41.305  29.752  33.825  1.00  0.00    -0.354 N 
ATOM     60  N   UNL A   1      39.113  30.889  32.201  1.00  0.00    -0.248 NA
ATOM     61  C   UNL A   1      37.193  32.210  32.035  1.00  0.00     0.031 C 
ATOM     62  C   UNL A   1      41.440  30.342  35.961  1.00  0.00     0.029 A 
ATOM     63  C   UNL A   1      40.698  30.521  34.804  1.00  0.00     0.049 A 
ATOM     64  H   UNL A   1      40.993  29.671  32.895  1.00  0.00     0.167 HD
ATOM     65  C   UNL A   1      38.859  31.477  33.433  1.00  0.00     0.074 A 
ATOM     66  C   UNL A   1      37.687  32.311  33.260  1.00  0.00     0.031 C 
ATOM     67  C   UNL A   1      39.527  31.337  34.605  1.00  0.00     0.037 A 
BRANCH  54  68
ATOM     68  C   UNL A   1      44.442  27.587  34.302  1.00  0.00     0.057 A 
ATOM     69  C   UNL A   1      45.694  28.209  34.401  1.00  0.00     0.134 A 
ATOM     70  C   UNL A   1      44.304  26.321  34.889  1.00  0.00     0.134 A 
ATOM     71  F   UNL A   1      45.903  29.410  33.842  1.00  0.00    -0.206 F 
ATOM     72  C   UNL A   1      46.773  27.584  35.033  1.00  0.00     0.040 A 
ATOM     73  C   UNL A   1      45.366  25.700  35.548  1.00  0.00     0.040 A 
ATOM     74  F   UNL A   1      43.134  25.669  34.832  1.00  0.00    -0.206 F 
ATOM     75  C   UNL A   1      46.608  26.328  35.614  1.00  0.00     0.006 A 
ENDBRANCH  54  68
BRANCH  55  76
ATOM     76  C   UNL A   1      36.814  31.605  29.192  1.00  0.00     0.057 A 
ATOM     77  C   UNL A   1      36.862  32.921  28.719  1.00  0.00     0.134 A 
ATOM     78  C   UNL A   1      35.645  30.874  28.941  1.00  0.00     0.134 A 
ATOM     79  F   UNL A   1      37.943  33.682  28.947  1.00  0.00    -0.206 F 
ATOM     80  C   UNL A   1      35.786  33.493  28.038  1.00  0.00     0.040 A 
ATOM     81  C   UNL A   1      34.575  31.423  28.234  1.00  0.00     0.040 A 
ATOM     82  F   UNL A   1      35.534  29.607  29.365  1.00  0.00    -0.206 F 
ATOM     83  C   UNL A   1      34.640  32.740  27.787  1.00  0.00     0.006 A 
ENDBRANCH  55  76
BRANCH  67  84
ATOM     84  C   UNL A   1      39.012  32.126  35.772  1.00  0.00     0.057 A 
ATOM     85  C   UNL A   1      39.347  33.474  35.958  1.00  0.00     0.134 A 
ATOM     86  C   UNL A   1      38.171  31.531  36.720  1.00  0.00     0.134 A 
ATOM     87  F   UNL A   1      40.159  34.099  35.092  1.00  0.00    -0.206 F 
ATOM     88  C   UNL A   1      38.895  34.189  37.067  1.00  0.00     0.040 A 
ATOM     89  C   UNL A   1      37.688  32.245  37.817  1.00  0.00     0.040 A 
ATOM     90  F   UNL A   1      37.803  30.247  36.594  1.00  0.00    -0.206 F 
ATOM     91  C   UNL A   1      38.060  33.576  37.998  1.00  0.00     0.006 A 
ENDBRANCH  67  84
ENDBRANCH  41  42
ENDBRANCH  34  36
ENDBRANCH  33  34
ENDBRANCH  32  33
ENDBRANCH  31  32
ENDBRANCH   1  31
TORSDOF 17
ENDMDL
MODEL 3
REMARK VINA RESULT:     -10.0      5.457     11.257
REMARK SMILES [NH3+][C@@]1(C(=O)OCCOC(=O)c2ccc(-c3c4nc(c(-c5c(F)cccc5F)c5ccc([nH]5)c(-c5c(F)cccc5F)c5nc(c(-c6c(F)cccc6F)c6ccc3[nH]6)C=C5)C=C4)cc2)CC[N@H+](Cc2ccc(OCC(=O)N3CCCCC3)cc2)C1
REMARK SMILES IDX 5 1 3 2 4 3 2 4 65 5 85 6 66 7 67 8 1 10 68 14 69 15 70 16
REMARK SMILES IDX 84 17 71 18 83 19 72 20 73 21 74 22 75 23 76 24 77 25 78 26
REMARK SMILES IDX 82 27 79 28 81 29 80 30 6 31 7 32 8 33 9 34 10 35 11 36
REMARK SMILES IDX 12 37 64 38 13 39 63 40 14 41 15 42 16 43 57 44 17 45 62 46
REMARK SMILES IDX 56 47 58 48 18 49 61 50 55 51 54 52 19 54 45 55 28 56 44 57
REMARK SMILES IDX 29 58 32 59 43 60 59 61 30 62 31 63 42 65 60 66 33 67 20 68
REMARK SMILES IDX 21 69 26 70 22 71 23 72 25 73 27 74 24 75 46 76 47 77 52 78
REMARK SMILES IDX 48 79 49 80 51 81 53 82 50 83 34 84 35 85 40 86 36 87 37 88
REMARK SMILES IDX 39 89 41 90 38 91
REMARK H PARENT 67 9 1 11 1 12 1 13 58 53 32 64
REMARK Flexibility Score: inf
ROOT
ATOM      1  O   UNL A   1      35.415  20.716  24.692  1.00  0.00    -0.457 OA
ENDROOT
BRANCH   1   2
ATOM      2  C   UNL A   1      34.651  19.602  24.807  1.00  0.00     0.374 C 
ATOM      3  O   UNL A   1      35.045  18.462  24.579  1.00  0.00    -0.244 OA
BRANCH   2   4
ATOM      4  C   UNL A   1      33.275  19.926  25.434  1.00  0.00     0.246 C 
ATOM      5  C   UNL A   1      32.215  20.055  24.346  1.00  0.00     0.148 C 
ATOM      6  C   UNL A   1      33.248  21.321  26.086  1.00  0.00     0.344 C 
ATOM      7  C   UNL A   1      32.368  21.493  23.871  1.00  0.00     0.270 C 
ATOM      8  N   UNL A   1      32.846  22.244  25.022  1.00  0.00    -0.325 N 
ATOM      9  H   UNL A   1      32.043  22.768  25.371  1.00  0.00     0.348 HD
BRANCH   4  10
ATOM     10  N   UNL A   1      32.897  18.816  26.345  1.00  0.00    -0.338 N 
ATOM     11  H   UNL A   1      33.729  18.286  26.599  1.00  0.00     0.345 HD
ATOM     12  H   UNL A   1      32.232  18.202  25.875  1.00  0.00     0.345 HD
ATOM     13  H   UNL A   1      32.468  19.200  27.188  1.00  0.00     0.345 HD
ENDBRANCH   4  10
BRANCH   8  14
ATOM     14  C   UNL A   1      33.629  23.464  24.811  1.00  0.00     0.299 C 
BRANCH  14  15
ATOM     15  C   UNL A   1      33.082  24.787  25.332  1.00  0.00     0.006 A 
ATOM     16  C   UNL A   1      33.827  25.967  25.208  1.00  0.00     0.013 A 
ATOM     17  C   UNL A   1      31.847  24.880  25.992  1.00  0.00     0.013 A 
ATOM     18  C   UNL A   1      33.276  27.204  25.576  1.00  0.00     0.047 A 
ATOM     19  C   UNL A   1      31.268  26.123  26.302  1.00  0.00     0.047 A 
ATOM     20  C   UNL A   1      31.951  27.296  26.010  1.00  0.00     0.120 A 
BRANCH  20  21
ATOM     21  O   UNL A   1      31.429  28.561  25.975  1.00  0.00    -0.484 OA
BRANCH  21  22
ATOM     22  C   UNL A   1      31.560  29.340  24.799  1.00  0.00     0.329 C 
BRANCH  22  23
ATOM     23  C   UNL A   1      30.684  29.158  23.526  1.00  0.00     0.260 C 
ATOM     24  O   UNL A   1      30.912  28.198  22.782  1.00  0.00    -0.271 OA
ATOM     25  N   UNL A   1      29.586  29.993  23.308  1.00  0.00    -0.340 N 
ATOM     26  C   UNL A   1      28.497  29.497  22.466  1.00  0.00     0.119 C 
ATOM     27  C   UNL A   1      29.334  31.286  23.942  1.00  0.00     0.119 C 
ATOM     28  C   UNL A   1      28.141  30.485  21.367  1.00  0.00     0.022 C 
ATOM     29  C   UNL A   1      28.795  32.338  22.955  1.00  0.00     0.022 C 
ATOM     30  C   UNL A   1      27.747  31.828  21.968  1.00  0.00     0.004 C 
ENDBRANCH  22  23
ENDBRANCH  21  22
ENDBRANCH  20  21
ENDBRANCH  14  15
ENDBRANCH   8  14
ENDBRANCH   2   4
ENDBRANCH   1   2
BRANCH   1  31
ATOM     31  C   UNL A   1      36.482  20.867  25.625  1.00  0.00     0.274 C 
BRANCH  31  32
ATOM     32  C   UNL A   1      37.757  20.242  25.035  1.00  0.00     0.275 C 
BRANCH  32  33
ATOM     33  O   UNL A   1      38.845  21.173  25.179  1.00  0.00    -0.458 OA
BRANCH  33  34
ATOM     34  C   UNL A   1      39.709  20.816  26.151  1.00  0.00     0.338 C 
ATOM     35  O   UNL A   1      40.319  19.766  26.256  1.00  0.00    -0.246 OA
BRANCH  34  36
ATOM     36  C   UNL A   1      40.091  22.033  26.877  1.00  0.00     0.060 A 
ATOM     37  C   UNL A   1      39.385  23.185  26.535  1.00  0.00     0.016 A 
ATOM     38  C   UNL A   1      41.124  22.081  27.807  1.00  0.00     0.016 A 
ATOM     39  C   UNL A   1      39.799  24.421  26.991  1.00  0.00     0.010 A 
ATOM     40  C   UNL A   1      41.512  23.325  28.313  1.00  0.00     0.010 A 
ATOM     41  C   UNL A   1      40.895  24.507  27.853  1.00  0.00    -0.014 A 
BRANCH  41  42
ATOM     42  C   UNL A   1      41.473  25.845  28.112  1.00  0.00     0.031 A 
ATOM     43  C   UNL A   1      42.824  26.179  27.537  1.00  0.00     0.074 A 
ATOM     44  C   UNL A   1      40.745  26.788  28.737  1.00  0.00     0.049 A 
ATOM     45  N   UNL A   1      43.537  27.267  27.671  1.00  0.00    -0.248 NA
ATOM     46  C   UNL A   1      43.460  25.145  26.704  1.00  0.00     0.031 C 
ATOM     47  C   UNL A   1      39.386  26.604  29.253  1.00  0.00     0.029 A 
ATOM     48  N   UNL A   1      41.033  28.099  29.014  1.00  0.00    -0.354 N 
ATOM     49  C   UNL A   1      44.718  27.031  26.977  1.00  0.00     0.074 A 
ATOM     50  C   UNL A   1      44.637  25.691  26.440  1.00  0.00     0.031 C 
ATOM     51  C   UNL A   1      38.947  27.771  29.753  1.00  0.00     0.029 A 
ATOM     52  C   UNL A   1      40.015  28.760  29.655  1.00  0.00     0.049 A 
ATOM     53  H   UNL A   1      41.887  28.527  28.775  1.00  0.00     0.167 HD
ATOM     54  C   UNL A   1      45.771  27.862  26.798  1.00  0.00     0.037 A 
ATOM     55  C   UNL A   1      39.963  30.016  30.136  1.00  0.00     0.037 A 
ATOM     56  C   UNL A   1      45.821  29.209  27.301  1.00  0.00     0.049 A 
ATOM     57  C   UNL A   1      41.165  30.902  29.968  1.00  0.00     0.074 A 
ATOM     58  C   UNL A   1      46.842  30.136  27.192  1.00  0.00     0.029 A 
ATOM     59  N   UNL A   1      44.792  29.826  27.999  1.00  0.00    -0.354 N 
ATOM     60  N   UNL A   1      42.302  30.650  29.363  1.00  0.00    -0.248 NA
ATOM     61  C   UNL A   1      41.082  32.244  30.558  1.00  0.00     0.031 C 
ATOM     62  C   UNL A   1      46.447  31.299  27.863  1.00  0.00     0.029 A 
ATOM     63  C   UNL A   1      45.160  31.116  28.344  1.00  0.00     0.049 A 
ATOM     64  H   UNL A   1      43.928  29.408  28.218  1.00  0.00     0.167 HD
ATOM     65  C   UNL A   1      43.063  31.804  29.487  1.00  0.00     0.074 A 
ATOM     66  C   UNL A   1      42.245  32.766  30.198  1.00  0.00     0.031 C 
ATOM     67  C   UNL A   1      44.326  32.049  29.059  1.00  0.00     0.037 A 
BRANCH  54  68
ATOM     68  C   UNL A   1      46.966  27.315  26.070  1.00  0.00     0.057 A 
ATOM     69  C   UNL A   1      48.001  26.637  26.728  1.00  0.00     0.134 A 
ATOM     70  C   UNL A   1      47.080  27.472  24.682  1.00  0.00     0.134 A 
ATOM     71  F   UNL A   1      47.969  26.472  28.059  1.00  0.00    -0.206 F 
ATOM     72  C   UNL A   1      49.118  26.160  26.036  1.00  0.00     0.040 A 
ATOM     73  C   UNL A   1      48.176  26.975  23.976  1.00  0.00     0.040 A 
ATOM     74  F   UNL A   1      46.126  28.111  23.989  1.00  0.00    -0.206 F 
ATOM     75  C   UNL A   1      49.204  26.323  24.654  1.00  0.00     0.006 A 
ENDBRANCH  54  68
BRANCH  55  76
ATOM     76  C   UNL A   1      38.749  30.493  30.849  1.00  0.00     0.057 A 
ATOM     77  C   UNL A   1      38.560  30.246  32.213  1.00  0.00     0.134 A 
ATOM     78  C   UNL A   1      37.742  31.198  30.178  1.00  0.00     0.134 A 
ATOM     79  F   UNL A   1      39.476  29.556  32.909  1.00  0.00    -0.206 F 
ATOM     80  C   UNL A   1      37.408  30.668  32.880  1.00  0.00     0.040 A 
ATOM     81  C   UNL A   1      36.600  31.653  30.838  1.00  0.00     0.040 A 
ATOM     82  F   UNL A   1      37.862  31.469  28.870  1.00  0.00    -0.206 F 
ATOM     83  C   UNL A   1      36.427  31.382  32.193  1.00  0.00     0.006 A 
ENDBRANCH  55  76
BRANCH  67  84
ATOM     84  C   UNL A   1      44.876  33.419  29.331  1.00  0.00     0.057 A 
ATOM     85  C   UNL A   1      44.691  34.480  28.435  1.00  0.00     0.134 A 
ATOM     86  C   UNL A   1      45.598  33.677  30.503  1.00  0.00     0.134 A 
ATOM     87  F   UNL A   1      44.019  34.295  27.289  1.00  0.00    -0.206 F 
ATOM     88  C   UNL A   1      45.239  35.740  28.679  1.00  0.00     0.040 A 
ATOM     89  C   UNL A   1      46.125  34.940  30.771  1.00  0.00     0.040 A 
ATOM     90  F   UNL A   1      45.801  32.706  31.406  1.00  0.00    -0.206 F 
ATOM     91  C   UNL A   1      45.955  35.974  29.851  1.00  0.00     0.006 A 
ENDBRANCH  67  84
ENDBRANCH  41  42
ENDBRANCH  34  36
ENDBRANCH  33  34
ENDBRANCH  32  33
ENDBRANCH  31  32
ENDBRANCH   1  31
TORSDOF 17
ENDMDL
