MODEL 1
REMARK VINA RESULT:     -12.2      0.000      0.000
REMARK SMILES O=C(OCCOC(=O)c1nnn(-c2ccc(C(F)(F)F)cc2)c1-c1cccc(Cl)c1)c1ccc(-c2c3nc(c(-c4c(F)cccc4F)c4ccc([nH]4)c(-c4c(F)cccc4F)c4nc(c(-c5c(F)cccc5F)c5ccc2[nH]5)C=C4)C=C3)cc1
REMARK SMILES IDX 4 1 3 2 2 3 1 4 31 5 32 6 84 7 33 8 83 9 34 10 35 11 36 12
REMARK SMILES IDX 77 13 37 14 82 15 76 16 78 17 38 18 81 19 75 20 74 21 39 23
REMARK SMILES IDX 65 24 48 25 64 26 49 27 52 28 63 29 79 30 50 31 51 32 62 34
REMARK SMILES IDX 80 35 53 36 40 37 41 38 46 39 42 40 43 41 45 42 47 43 44 44
REMARK SMILES IDX 66 45 67 46 72 47 68 48 69 49 71 50 73 51 70 52 54 53 55 54
REMARK SMILES IDX 60 55 56 56 57 57 59 58 61 59 58 60 5 61 6 62 7 63 8 64 9 65
REMARK SMILES IDX 10 66 23 67 11 68 12 69 24 70 25 71 30 72 26 73 28 74 27 75
REMARK SMILES IDX 29 76 13 77 14 78 22 79 15 80 21 81 16 82 17 83 18 84 19 85
REMARK SMILES IDX 20 86
REMARK H PARENT 78 22 52 33
REMARK Flexibility Score: inf
ROOT
ATOM      1  C   UNL A   1      37.564  23.537  26.105  1.00  0.00     0.275 C 
ENDROOT
BRANCH   1   2
ATOM      2  O   UNL A   1      38.577  24.540  25.874  1.00  0.00    -0.458 OA
BRANCH   2   3
ATOM      3  C   UNL A   1      39.613  24.622  26.736  1.00  0.00     0.338 C 
ATOM      4  O   UNL A   1      40.570  23.866  26.727  1.00  0.00    -0.246 OA
BRANCH   3   5
ATOM      5  C   UNL A   1      39.518  25.816  27.612  1.00  0.00     0.060 A 
ATOM      6  C   UNL A   1      40.021  27.061  27.213  1.00  0.00     0.016 A 
ATOM      7  C   UNL A   1      38.915  25.671  28.868  1.00  0.00     0.016 A 
ATOM      8  C   UNL A   1      40.007  28.127  28.097  1.00  0.00     0.010 A 
ATOM      9  C   UNL A   1      38.900  26.740  29.755  1.00  0.00     0.010 A 
ATOM     10  C   UNL A   1      39.496  27.947  29.384  1.00  0.00    -0.014 A 
BRANCH  10  11
ATOM     11  C   UNL A   1      39.659  29.051  30.322  1.00  0.00     0.031 A 
ATOM     12  C   UNL A   1      38.485  29.947  30.519  1.00  0.00     0.074 A 
ATOM     13  C   UNL A   1      40.797  29.222  31.022  1.00  0.00     0.049 A 
ATOM     14  N   UNL A   1      38.408  31.226  30.324  1.00  0.00    -0.248 NA
ATOM     15  C   UNL A   1      37.222  29.330  30.946  1.00  0.00     0.031 C 
ATOM     16  C   UNL A   1      41.924  28.293  31.147  1.00  0.00     0.029 A 
ATOM     17  N   UNL A   1      41.142  30.241  31.858  1.00  0.00    -0.354 N 
ATOM     18  C   UNL A   1      37.142  31.610  30.768  1.00  0.00     0.074 A 
ATOM     19  C   UNL A   1      36.422  30.393  31.039  1.00  0.00     0.031 C 
ATOM     20  C   UNL A   1      42.710  28.686  32.173  1.00  0.00     0.029 A 
ATOM     21  C   UNL A   1      42.221  29.958  32.678  1.00  0.00     0.049 A 
ATOM     22  H   UNL A   1      40.665  31.103  31.877  1.00  0.00     0.167 HD
ATOM     23  C   UNL A   1      36.850  32.909  31.064  1.00  0.00     0.037 A 
ATOM     24  C   UNL A   1      42.643  30.680  33.743  1.00  0.00     0.037 A 
ATOM     25  C   UNL A   1      37.759  33.818  30.416  1.00  0.00     0.049 A 
ATOM     26  C   UNL A   1      42.093  32.050  33.615  1.00  0.00     0.074 A 
ATOM     27  C   UNL A   1      38.106  34.089  29.106  1.00  0.00     0.029 A 
ATOM     28  N   UNL A   1      38.714  34.444  31.177  1.00  0.00    -0.354 N 
ATOM     29  N   UNL A   1      42.478  32.915  32.720  1.00  0.00    -0.248 NA
ATOM     30  C   UNL A   1      40.807  32.327  34.239  1.00  0.00     0.031 C 
ATOM     31  C   UNL A   1      39.494  34.415  29.150  1.00  0.00     0.029 A 
ATOM     32  C   UNL A   1      39.890  34.355  30.485  1.00  0.00     0.049 A 
ATOM     33  H   UNL A   1      38.578  34.874  32.053  1.00  0.00     0.167 HD
ATOM     34  C   UNL A   1      41.320  33.588  32.361  1.00  0.00     0.074 A 
ATOM     35  C   UNL A   1      40.350  33.261  33.402  1.00  0.00     0.031 C 
ATOM     36  C   UNL A   1      41.168  34.119  31.111  1.00  0.00     0.037 A 
BRANCH  23  37
ATOM     37  C   UNL A   1      35.980  33.346  32.225  1.00  0.00     0.057 A 
ATOM     38  C   UNL A   1      34.975  34.310  32.006  1.00  0.00     0.134 A 
ATOM     39  C   UNL A   1      36.293  33.115  33.580  1.00  0.00     0.134 A 
ATOM     40  F   UNL A   1      34.569  34.615  30.763  1.00  0.00    -0.206 F 
ATOM     41  C   UNL A   1      34.418  35.070  33.043  1.00  0.00     0.040 A 
ATOM     42  C   UNL A   1      35.706  33.835  34.626  1.00  0.00     0.040 A 
ATOM     43  F   UNL A   1      37.243  32.256  33.963  1.00  0.00    -0.206 F 
ATOM     44  C   UNL A   1      34.798  34.845  34.358  1.00  0.00     0.006 A 
ENDBRANCH  23  37
BRANCH  24  45
ATOM     45  C   UNL A   1      43.244  30.178  34.998  1.00  0.00     0.057 A 
ATOM     46  C   UNL A   1      42.654  29.137  35.725  1.00  0.00     0.134 A 
ATOM     47  C   UNL A   1      44.552  30.534  35.376  1.00  0.00     0.134 A 
ATOM     48  F   UNL A   1      41.429  28.694  35.409  1.00  0.00    -0.206 F 
ATOM     49  C   UNL A   1      43.331  28.477  36.760  1.00  0.00     0.040 A 
ATOM     50  C   UNL A   1      45.233  29.893  36.412  1.00  0.00     0.040 A 
ATOM     51  F   UNL A   1      45.244  31.458  34.694  1.00  0.00    -0.206 F 
ATOM     52  C   UNL A   1      44.629  28.849  37.101  1.00  0.00     0.006 A 
ENDBRANCH  24  45
BRANCH  36  53
ATOM     53  C   UNL A   1      42.378  34.191  30.225  1.00  0.00     0.057 A 
ATOM     54  C   UNL A   1      43.250  35.290  30.191  1.00  0.00     0.134 A 
ATOM     55  C   UNL A   1      42.758  33.056  29.502  1.00  0.00     0.134 A 
ATOM     56  F   UNL A   1      43.024  36.379  30.936  1.00  0.00    -0.206 F 
ATOM     57  C   UNL A   1      44.424  35.274  29.432  1.00  0.00     0.040 A 
ATOM     58  C   UNL A   1      43.945  33.015  28.766  1.00  0.00     0.040 A 
ATOM     59  F   UNL A   1      42.004  31.946  29.540  1.00  0.00    -0.206 F 
ATOM     60  C   UNL A   1      44.777  34.132  28.720  1.00  0.00     0.006 A 
ENDBRANCH  36  53
ENDBRANCH  10  11
ENDBRANCH   3   5
ENDBRANCH   2   3
ENDBRANCH   1   2
BRANCH   1  61
ATOM     61  C   UNL A   1      36.475  23.396  25.046  1.00  0.00     0.275 C 
BRANCH  61  62
ATOM     62  O   UNL A   1      35.532  24.473  25.183  1.00  0.00    -0.457 OA
BRANCH  62  63
ATOM     63  C   UNL A   1      34.364  24.172  25.819  1.00  0.00     0.361 C 
ATOM     64  O   UNL A   1      34.271  23.577  26.886  1.00  0.00    -0.244 OA
BRANCH  63  65
ATOM     65  C   UNL A   1      33.222  24.439  24.980  1.00  0.00     0.198 A 
ATOM     66  N   UNL A   1      32.559  23.533  24.197  1.00  0.00    -0.122 NA
ATOM     67  C   UNL A   1      32.553  25.646  24.960  1.00  0.00     0.109 A 
ATOM     68  N   UNL A   1      31.503  24.144  23.665  1.00  0.00    -0.061 NA
ATOM     69  N   UNL A   1      31.562  25.452  24.014  1.00  0.00    -0.212 N 
BRANCH  67  70
ATOM     70  C   UNL A   1      32.679  26.782  25.868  1.00  0.00     0.004 A 
ATOM     71  C   UNL A   1      31.606  27.129  26.704  1.00  0.00     0.010 A 
ATOM     72  C   UNL A   1      33.884  27.483  25.969  1.00  0.00     0.031 A 
ATOM     73  C   UNL A   1      31.729  28.177  27.614  1.00  0.00     0.002 A 
ATOM     74  C   UNL A   1      34.001  28.528  26.883  1.00  0.00     0.041 A 
ATOM     75  C   UNL A   1      32.930  28.879  27.703  1.00  0.00     0.020 A 
ATOM     76  Cl  UNL A   1      35.485  29.389  27.005  1.00  0.00    -0.084 Cl
ENDBRANCH  67  70
BRANCH  69  77
ATOM     77  C   UNL A   1      30.681  26.427  23.504  1.00  0.00     0.067 A 
ATOM     78  C   UNL A   1      29.330  26.405  23.853  1.00  0.00     0.029 A 
ATOM     79  C   UNL A   1      31.202  27.472  22.728  1.00  0.00     0.029 A 
ATOM     80  C   UNL A   1      28.530  27.503  23.517  1.00  0.00     0.015 A 
ATOM     81  C   UNL A   1      30.393  28.544  22.369  1.00  0.00     0.015 A 
ATOM     82  C   UNL A   1      29.059  28.589  22.792  1.00  0.00     0.056 A 
BRANCH  82  83
ATOM     83  C   UNL A   1      28.212  29.807  22.511  1.00  0.00     0.416 C 
ATOM     84  F   UNL A   1      28.036  30.031  21.181  1.00  0.00    -0.166 F 
ATOM     85  F   UNL A   1      26.964  29.697  23.045  1.00  0.00    -0.166 F 
ATOM     86  F   UNL A   1      28.733  30.958  23.021  1.00  0.00    -0.166 F 
ENDBRANCH  82  83
ENDBRANCH  69  77
ENDBRANCH  63  65
ENDBRANCH  62  63
ENDBRANCH  61  62
ENDBRANCH   1  61
TORSDOF 14
ENDMDL
MODEL 2
REMARK VINA RESULT:     -11.7      2.133      6.393
REMARK SMILES O=C(OCCOC(=O)c1nnn(-c2ccc(C(F)(F)F)cc2)c1-c1cccc(Cl)c1)c1ccc(-c2c3nc(c(-c4c(F)cccc4F)c4ccc([nH]4)c(-c4c(F)cccc4F)c4nc(c(-c5c(F)cccc5F)c5ccc2[nH]5)C=C4)C=C3)cc1
REMARK SMILES IDX 4 1 3 2 2 3 1 4 31 5 32 6 84 7 33 8 83 9 34 10 35 11 36 12
REMARK SMILES IDX 77 13 37 14 82 15 76 16 78 17 38 18 81 19 75 20 74 21 39 23
REMARK SMILES IDX 65 24 48 25 64 26 49 27 52 28 63 29 79 30 50 31 51 32 62 34
REMARK SMILES IDX 80 35 53 36 40 37 41 38 46 39 42 40 43 41 45 42 47 43 44 44
REMARK SMILES IDX 66 45 67 46 72 47 68 48 69 49 71 50 73 51 70 52 54 53 55 54
REMARK SMILES IDX 60 55 56 56 57 57 59 58 61 59 58 60 5 61 6 62 7 63 8 64 9 65
REMARK SMILES IDX 10 66 23 67 11 68 12 69 24 70 25 71 30 72 26 73 28 74 27 75
REMARK SMILES IDX 29 76 13 77 14 78 22 79 15 80 21 81 16 82 17 83 18 84 19 85
REMARK SMILES IDX 20 86
REMARK H PARENT 78 22 52 33
REMARK Flexibility Score: inf
ROOT
ATOM      1  C   UNL A   1      36.668  22.085  25.670  1.00  0.00     0.275 C 
ENDROOT
BRANCH   1   2
ATOM      2  O   UNL A   1      38.004  22.476  25.286  1.00  0.00    -0.458 OA
BRANCH   2   3
ATOM      3  C   UNL A   1      39.018  22.242  26.147  1.00  0.00     0.338 C 
ATOM      4  O   UNL A   1      39.613  21.181  26.229  1.00  0.00    -0.246 OA
BRANCH   3   5
ATOM      5  C   UNL A   1      39.412  23.465  26.891  1.00  0.00     0.060 A 
ATOM      6  C   UNL A   1      38.624  24.622  26.872  1.00  0.00     0.016 A 
ATOM      7  C   UNL A   1      40.610  23.441  27.617  1.00  0.00     0.016 A 
ATOM      8  C   UNL A   1      39.074  25.774  27.493  1.00  0.00     0.010 A 
ATOM      9  C   UNL A   1      41.062  24.597  28.241  1.00  0.00     0.010 A 
ATOM     10  C   UNL A   1      40.318  25.773  28.128  1.00  0.00    -0.014 A 
BRANCH  10  11
ATOM     11  C   UNL A   1      40.813  27.054  28.618  1.00  0.00     0.031 A 
ATOM     12  C   UNL A   1      42.109  27.534  28.064  1.00  0.00     0.074 A 
ATOM     13  C   UNL A   1      40.104  27.798  29.490  1.00  0.00     0.049 A 
ATOM     14  N   UNL A   1      43.200  27.817  28.702  1.00  0.00    -0.248 NA
ATOM     15  C   UNL A   1      42.216  27.671  26.605  1.00  0.00     0.031 C 
ATOM     16  C   UNL A   1      38.715  27.605  29.915  1.00  0.00     0.029 A 
ATOM     17  N   UNL A   1      40.460  28.958  30.110  1.00  0.00    -0.354 N 
ATOM     18  C   UNL A   1      44.081  28.337  27.753  1.00  0.00     0.074 A 
ATOM     19  C   UNL A   1      43.463  28.124  26.470  1.00  0.00     0.031 C 
ATOM     20  C   UNL A   1      38.282  28.725  30.536  1.00  0.00     0.029 A 
ATOM     21  C   UNL A   1      39.397  29.646  30.672  1.00  0.00     0.049 A 
ATOM     22  H   UNL A   1      41.390  29.278  30.154  1.00  0.00     0.167 HD
ATOM     23  C   UNL A   1      45.167  29.080  28.111  1.00  0.00     0.037 A 
ATOM     24  C   UNL A   1      39.413  30.913  31.151  1.00  0.00     0.037 A 
ATOM     25  C   UNL A   1      45.549  28.834  29.478  1.00  0.00     0.049 A 
ATOM     26  C   UNL A   1      40.822  31.280  31.430  1.00  0.00     0.074 A 
ATOM     27  C   UNL A   1      45.943  27.723  30.200  1.00  0.00     0.029 A 
ATOM     28  N   UNL A   1      45.279  29.796  30.417  1.00  0.00    -0.354 N 
ATOM     29  N   UNL A   1      41.535  30.774  32.396  1.00  0.00    -0.248 NA
ATOM     30  C   UNL A   1      41.579  31.926  30.368  1.00  0.00     0.031 C 
ATOM     31  C   UNL A   1      45.404  27.921  31.507  1.00  0.00     0.029 A 
ATOM     32  C   UNL A   1      44.749  29.151  31.501  1.00  0.00     0.049 A 
ATOM     33  H   UNL A   1      45.436  30.765  30.328  1.00  0.00     0.167 HD
ATOM     34  C   UNL A   1      42.811  30.654  31.865  1.00  0.00     0.074 A 
ATOM     35  C   UNL A   1      42.801  31.477  30.659  1.00  0.00     0.031 C 
ATOM     36  C   UNL A   1      43.668  29.681  32.296  1.00  0.00     0.037 A 
BRANCH  23  37
ATOM     37  C   UNL A   1      45.659  30.296  27.354  1.00  0.00     0.057 A 
ATOM     38  C   UNL A   1      47.045  30.479  27.175  1.00  0.00     0.134 A 
ATOM     39  C   UNL A   1      44.873  31.435  27.089  1.00  0.00     0.134 A 
ATOM     40  F   UNL A   1      47.907  29.471  27.378  1.00  0.00    -0.206 F 
ATOM     41  C   UNL A   1      47.610  31.726  26.877  1.00  0.00     0.040 A 
ATOM     42  C   UNL A   1      45.424  32.673  26.743  1.00  0.00     0.040 A 
ATOM     43  F   UNL A   1      43.544  31.444  27.239  1.00  0.00    -0.206 F 
ATOM     44  C   UNL A   1      46.798  32.834  26.678  1.00  0.00     0.006 A 
ENDBRANCH  23  37
BRANCH  24  45
ATOM     45  C   UNL A   1      38.325  31.912  31.107  1.00  0.00     0.057 A 
ATOM     46  C   UNL A   1      37.728  32.289  29.898  1.00  0.00     0.134 A 
ATOM     47  C   UNL A   1      37.667  32.331  32.279  1.00  0.00     0.134 A 
ATOM     48  F   UNL A   1      38.253  31.898  28.728  1.00  0.00    -0.206 F 
ATOM     49  C   UNL A   1      36.537  33.027  29.855  1.00  0.00     0.040 A 
ATOM     50  C   UNL A   1      36.486  33.076  32.251  1.00  0.00     0.040 A 
ATOM     51  F   UNL A   1      38.102  31.955  33.490  1.00  0.00    -0.206 F 
ATOM     52  C   UNL A   1      35.908  33.416  31.035  1.00  0.00     0.006 A 
ENDBRANCH  24  45
BRANCH  36  53
ATOM     53  C   UNL A   1      43.302  28.916  33.534  1.00  0.00     0.057 A 
ATOM     54  C   UNL A   1      43.645  29.327  34.831  1.00  0.00     0.134 A 
ATOM     55  C   UNL A   1      42.444  27.817  33.422  1.00  0.00     0.134 A 
ATOM     56  F   UNL A   1      44.372  30.432  35.039  1.00  0.00    -0.206 F 
ATOM     57  C   UNL A   1      43.193  28.644  35.963  1.00  0.00     0.040 A 
ATOM     58  C   UNL A   1      41.958  27.145  34.547  1.00  0.00     0.040 A 
ATOM     59  F   UNL A   1      42.022  27.407  32.216  1.00  0.00    -0.206 F 
ATOM     60  C   UNL A   1      42.342  27.552  35.824  1.00  0.00     0.006 A 
ENDBRANCH  36  53
ENDBRANCH  10  11
ENDBRANCH   3   5
ENDBRANCH   2   3
ENDBRANCH   1   2
BRANCH   1  61
ATOM     61  C   UNL A   1      35.533  22.484  24.732  1.00  0.00     0.275 C 
BRANCH  61  62
ATOM     62  O   UNL A   1      35.122  23.831  25.024  1.00  0.00    -0.457 OA
BRANCH  62  63
ATOM     63  C   UNL A   1      33.963  23.966  25.730  1.00  0.00     0.361 C 
ATOM     64  O   UNL A   1      33.803  23.640  26.899  1.00  0.00    -0.244 OA
BRANCH  63  65
ATOM     65  C   UNL A   1      32.864  24.337  24.872  1.00  0.00     0.198 A 
ATOM     66  N   UNL A   1      32.155  23.500  24.052  1.00  0.00    -0.122 NA
ATOM     67  C   UNL A   1      32.286  25.590  24.868  1.00  0.00     0.109 A 
ATOM     68  N   UNL A   1      31.160  24.200  23.512  1.00  0.00    -0.061 NA
ATOM     69  N   UNL A   1      31.307  25.491  23.896  1.00  0.00    -0.212 N 
BRANCH  67  70
ATOM     70  C   UNL A   1      32.474  26.691  25.807  1.00  0.00     0.004 A 
ATOM     71  C   UNL A   1      31.425  27.064  26.663  1.00  0.00     0.010 A 
ATOM     72  C   UNL A   1      33.711  27.332  25.917  1.00  0.00     0.031 A 
ATOM     73  C   UNL A   1      31.605  28.078  27.602  1.00  0.00     0.002 A 
ATOM     74  C   UNL A   1      33.884  28.343  26.859  1.00  0.00     0.041 A 
ATOM     75  C   UNL A   1      32.838  28.720  27.699  1.00  0.00     0.020 A 
ATOM     76  Cl  UNL A   1      35.409  29.129  26.992  1.00  0.00    -0.084 Cl
ENDBRANCH  67  70
BRANCH  69  77
ATOM     77  C   UNL A   1      30.512  26.541  23.391  1.00  0.00     0.067 A 
ATOM     78  C   UNL A   1      29.156  26.613  23.711  1.00  0.00     0.029 A 
ATOM     79  C   UNL A   1      31.126  27.561  22.651  1.00  0.00     0.029 A 
ATOM     80  C   UNL A   1      28.447  27.774  23.385  1.00  0.00     0.015 A 
ATOM     81  C   UNL A   1      30.407  28.698  22.302  1.00  0.00     0.015 A 
ATOM     82  C   UNL A   1      29.071  28.834  22.698  1.00  0.00     0.056 A 
BRANCH  82  83
ATOM     83  C   UNL A   1      28.323  30.118  22.428  1.00  0.00     0.416 C 
ATOM     84  F   UNL A   1      27.292  30.318  23.292  1.00  0.00    -0.166 F 
ATOM     85  F   UNL A   1      29.128  31.211  22.539  1.00  0.00    -0.166 F 
ATOM     86  F   UNL A   1      27.785  30.178  21.178  1.00  0.00    -0.166 F 
ENDBRANCH  82  83
ENDBRANCH  69  77
ENDBRANCH  63  65
ENDBRANCH  62  63
ENDBRANCH  61  62
ENDBRANCH   1  61
TORSDOF 14
ENDMDL
MODEL 3
REMARK VINA RESULT:     -11.7      1.760      6.068
REMARK SMILES O=C(OCCOC(=O)c1nnn(-c2ccc(C(F)(F)F)cc2)c1-c1cccc(Cl)c1)c1ccc(-c2c3nc(c(-c4c(F)cccc4F)c4ccc([nH]4)c(-c4c(F)cccc4F)c4nc(c(-c5c(F)cccc5F)c5ccc2[nH]5)C=C4)C=C3)cc1
REMARK SMILES IDX 4 1 3 2 2 3 1 4 31 5 32 6 84 7 33 8 83 9 34 10 35 11 36 12
REMARK SMILES IDX 77 13 37 14 82 15 76 16 78 17 38 18 81 19 75 20 74 21 39 23
REMARK SMILES IDX 65 24 48 25 64 26 49 27 52 28 63 29 79 30 50 31 51 32 62 34
REMARK SMILES IDX 80 35 53 36 40 37 41 38 46 39 42 40 43 41 45 42 47 43 44 44
REMARK SMILES IDX 66 45 67 46 72 47 68 48 69 49 71 50 73 51 70 52 54 53 55 54
REMARK SMILES IDX 60 55 56 56 57 57 59 58 61 59 58 60 5 61 6 62 7 63 8 64 9 65
REMARK SMILES IDX 10 66 23 67 11 68 12 69 24 70 25 71 30 72 26 73 28 74 27 75
REMARK SMILES IDX 29 76 13 77 14 78 22 79 15 80 21 81 16 82 17 83 18 84 19 85
REMARK SMILES IDX 20 86
REMARK H PARENT 78 22 52 33
REMARK Flexibility Score: inf
ROOT
ATOM      1  C   UNL A   1      36.847  23.735  25.833  1.00  0.00     0.275 C 
ENDROOT
BRANCH   1   2
ATOM      2  O   UNL A   1      38.214  23.429  25.484  1.00  0.00    -0.458 OA
BRANCH   2   3
ATOM      3  C   UNL A   1      39.103  23.217  26.479  1.00  0.00     0.338 C 
ATOM      4  O   UNL A   1      39.544  22.120  26.779  1.00  0.00    -0.246 OA
BRANCH   3   5
ATOM      5  C   UNL A   1      39.581  24.487  27.080  1.00  0.00     0.060 A 
ATOM      6  C   UNL A   1      39.345  24.798  28.425  1.00  0.00     0.016 A 
ATOM      7  C   UNL A   1      40.276  25.387  26.261  1.00  0.00     0.016 A 
ATOM      8  C   UNL A   1      39.716  26.035  28.923  1.00  0.00     0.010 A 
ATOM      9  C   UNL A   1      40.650  26.628  26.761  1.00  0.00     0.010 A 
ATOM     10  C   UNL A   1      40.317  26.967  28.074  1.00  0.00    -0.014 A 
BRANCH  10  11
ATOM     11  C   UNL A   1      40.533  28.307  28.607  1.00  0.00     0.031 A 
ATOM     12  C   UNL A   1      41.767  29.017  28.169  1.00  0.00     0.074 A 
ATOM     13  C   UNL A   1      39.632  28.899  29.415  1.00  0.00     0.049 A 
ATOM     14  N   UNL A   1      42.732  29.478  28.900  1.00  0.00    -0.248 NA
ATOM     15  C   UNL A   1      41.972  29.196  26.725  1.00  0.00     0.031 C 
ATOM     16  C   UNL A   1      38.268  28.457  29.718  1.00  0.00     0.029 A 
ATOM     17  N   UNL A   1      39.722  30.093  30.065  1.00  0.00    -0.354 N 
ATOM     18  C   UNL A   1      43.584  30.161  28.031  1.00  0.00     0.074 A 
ATOM     19  C   UNL A   1      43.125  29.864  26.699  1.00  0.00     0.031 C 
ATOM     20  C   UNL A   1      37.592  29.472  30.300  1.00  0.00     0.029 A 
ATOM     21  C   UNL A   1      38.510  30.574  30.534  1.00  0.00     0.049 A 
ATOM     22  H   UNL A   1      40.574  30.572  30.191  1.00  0.00     0.167 HD
ATOM     23  C   UNL A   1      44.486  31.078  28.484  1.00  0.00     0.037 A 
ATOM     24  C   UNL A   1      38.261  31.815  31.014  1.00  0.00     0.037 A 
ATOM     25  C   UNL A   1      44.788  30.880  29.878  1.00  0.00     0.049 A 
ATOM     26  C   UNL A   1      39.553  32.420  31.415  1.00  0.00     0.074 A 
ATOM     27  C   UNL A   1      45.310  29.845  30.630  1.00  0.00     0.029 A 
ATOM     28  N   UNL A   1      44.273  31.764  30.792  1.00  0.00    -0.354 N 
ATOM     29  N   UNL A   1      40.259  32.032  32.438  1.00  0.00    -0.248 NA
ATOM     30  C   UNL A   1      40.271  33.208  30.423  1.00  0.00     0.031 C 
ATOM     31  C   UNL A   1      44.635  29.922  31.885  1.00  0.00     0.029 A 
ATOM     32  C   UNL A   1      43.775  31.018  31.825  1.00  0.00     0.049 A 
ATOM     33  H   UNL A   1      44.262  32.747  30.718  1.00  0.00     0.167 HD
ATOM     34  C   UNL A   1      41.577  32.149  32.021  1.00  0.00     0.074 A 
ATOM     35  C   UNL A   1      41.524  32.977  30.819  1.00  0.00     0.031 C 
ATOM     36  C   UNL A   1      42.553  31.335  32.523  1.00  0.00     0.037 A 
BRANCH  23  37
ATOM     37  C   UNL A   1      44.818  32.375  27.774  1.00  0.00     0.057 A 
ATOM     38  C   UNL A   1      43.904  33.446  27.839  1.00  0.00     0.134 A 
ATOM     39  C   UNL A   1      45.811  32.503  26.782  1.00  0.00     0.134 A 
ATOM     40  F   UNL A   1      42.918  33.459  28.749  1.00  0.00    -0.206 F 
ATOM     41  C   UNL A   1      43.905  34.497  26.912  1.00  0.00     0.040 A 
ATOM     42  C   UNL A   1      45.850  33.573  25.883  1.00  0.00     0.040 A 
ATOM     43  F   UNL A   1      46.737  31.563  26.565  1.00  0.00    -0.206 F 
ATOM     44  C   UNL A   1      44.871  34.552  25.917  1.00  0.00     0.006 A 
ENDBRANCH  23  37
BRANCH  24  45
ATOM     45  C   UNL A   1      37.020  32.607  30.876  1.00  0.00     0.057 A 
ATOM     46  C   UNL A   1      36.682  33.231  29.670  1.00  0.00     0.134 A 
ATOM     47  C   UNL A   1      36.006  32.555  31.852  1.00  0.00     0.134 A 
ATOM     48  F   UNL A   1      37.565  33.289  28.662  1.00  0.00    -0.206 F 
ATOM     49  C   UNL A   1      35.405  33.761  29.439  1.00  0.00     0.040 A 
ATOM     50  C   UNL A   1      34.734  33.088  31.639  1.00  0.00     0.040 A 
ATOM     51  F   UNL A   1      36.191  31.906  33.010  1.00  0.00    -0.206 F 
ATOM     52  C   UNL A   1      34.423  33.683  30.423  1.00  0.00     0.006 A 
ENDBRANCH  24  45
BRANCH  36  53
ATOM     53  C   UNL A   1      42.224  30.497  33.723  1.00  0.00     0.057 A 
ATOM     54  C   UNL A   1      41.665  29.212  33.643  1.00  0.00     0.134 A 
ATOM     55  C   UNL A   1      42.627  30.935  34.988  1.00  0.00     0.134 A 
ATOM     56  F   UNL A   1      41.349  28.665  32.462  1.00  0.00    -0.206 F 
ATOM     57  C   UNL A   1      41.472  28.421  34.779  1.00  0.00     0.040 A 
ATOM     58  C   UNL A   1      42.471  30.142  36.127  1.00  0.00     0.040 A 
ATOM     59  F   UNL A   1      43.227  32.128  35.132  1.00  0.00    -0.206 F 
ATOM     60  C   UNL A   1      41.881  28.883  36.026  1.00  0.00     0.006 A 
ENDBRANCH  36  53
ENDBRANCH  10  11
ENDBRANCH   3   5
ENDBRANCH   2   3
ENDBRANCH   1   2
BRANCH   1  61
ATOM     61  C   UNL A   1      35.758  23.161  24.933  1.00  0.00     0.275 C 
BRANCH  61  62
ATOM     62  O   UNL A   1      34.834  24.203  24.574  1.00  0.00    -0.457 OA
BRANCH  62  63
ATOM     63  C   UNL A   1      33.633  24.190  25.221  1.00  0.00     0.361 C 
ATOM     64  O   UNL A   1      33.413  23.646  26.297  1.00  0.00    -0.244 OA
BRANCH  63  65
ATOM     65  C   UNL A   1      32.578  24.706  24.384  1.00  0.00     0.198 A 
ATOM     66  N   UNL A   1      31.856  24.000  23.459  1.00  0.00    -0.122 NA
ATOM     67  C   UNL A   1      32.057  25.979  24.506  1.00  0.00     0.109 A 
ATOM     68  N   UNL A   1      30.909  24.803  22.977  1.00  0.00    -0.061 NA
ATOM     69  N   UNL A   1      31.103  26.035  23.506  1.00  0.00    -0.212 N 
BRANCH  67  70
ATOM     70  C   UNL A   1      32.268  26.959  25.566  1.00  0.00     0.004 A 
ATOM     71  C   UNL A   1      31.247  27.208  26.497  1.00  0.00     0.010 A 
ATOM     72  C   UNL A   1      33.502  27.600  25.710  1.00  0.00     0.031 A 
ATOM     73  C   UNL A   1      31.450  28.102  27.547  1.00  0.00     0.002 A 
ATOM     74  C   UNL A   1      33.698  28.491  26.763  1.00  0.00     0.041 A 
ATOM     75  C   UNL A   1      32.679  28.746  27.679  1.00  0.00     0.020 A 
ATOM     76  Cl  UNL A   1      35.218  29.278  26.938  1.00  0.00    -0.084 Cl
ENDBRANCH  67  70
BRANCH  69  77
ATOM     77  C   UNL A   1      30.372  27.171  23.102  1.00  0.00     0.067 A 
ATOM     78  C   UNL A   1      29.028  27.303  23.451  1.00  0.00     0.029 A 
ATOM     79  C   UNL A   1      31.043  28.208  22.437  1.00  0.00     0.029 A 
ATOM     80  C   UNL A   1      28.393  28.530  23.233  1.00  0.00     0.015 A 
ATOM     81  C   UNL A   1      30.394  29.413  22.194  1.00  0.00     0.015 A 
ATOM     82  C   UNL A   1      29.075  29.601  22.624  1.00  0.00     0.056 A 
BRANCH  82  83
ATOM     83  C   UNL A   1      28.409  30.947  22.473  1.00  0.00     0.416 C 
ATOM     84  F   UNL A   1      27.965  31.176  21.208  1.00  0.00    -0.166 F 
ATOM     85  F   UNL A   1      27.323  31.075  23.284  1.00  0.00    -0.166 F 
ATOM     86  F   UNL A   1      29.227  31.993  22.780  1.00  0.00    -0.166 F 
ENDBRANCH  82  83
ENDBRANCH  69  77
ENDBRANCH  63  65
ENDBRANCH  62  63
ENDBRANCH  61  62
ENDBRANCH   1  61
TORSDOF 14
ENDMDL
