MODEL 1
REMARK VINA RESULT:     -13.3      0.000      0.000
REMARK SMILES O=C(OCCOC(=O)[C@@H]1[C@@H](C(=O)Nc2nc(-c3ccc(F)cc3)cs2)[C@H]2C=C[C@@H]1O2)c1ccc(-c2c3nc(c(-c4c(F)cccc4F)c4ccc([nH]4)c(-c4c(F)cccc4F)c4nc(c(-c5c(F)cccc5F)c5ccc2[nH]5)C=C4)C=C3)cc1
REMARK SMILES IDX 5 1 4 2 3 3 2 4 1 5 31 6 32 7 84 8 33 9 83 10 34 11 35 12
REMARK SMILES IDX 36 13 77 14 37 15 82 16 76 17 78 18 38 19 81 20 75 21 74 22
REMARK SMILES IDX 39 24 65 25 48 26 64 27 49 28 52 29 63 30 79 31 50 32 51 33
REMARK SMILES IDX 62 35 80 36 53 37 40 38 41 39 46 40 42 41 43 42 45 43 47 44
REMARK SMILES IDX 44 45 66 46 67 47 72 48 68 49 69 50 71 51 73 52 70 53 54 54
REMARK SMILES IDX 55 55 60 56 56 57 57 58 59 59 61 60 58 61 6 62 7 63 8 64
REMARK SMILES IDX 9 65 10 66 29 67 26 68 28 69 30 70 27 71 11 72 12 73 13 74
REMARK SMILES IDX 14 76 15 77 25 78 16 79 24 80 17 81 18 82 23 83 19 84 22 85
REMARK SMILES IDX 20 86 21 87
REMARK H PARENT 78 23 52 34 13 75
REMARK Flexibility Score: inf
ROOT
ATOM      1  C   UNL A   1      36.013  21.755  25.056  1.00  0.00     0.274 C 
ENDROOT
BRANCH   1   2
ATOM      2  C   UNL A   1      37.530  21.809  24.873  1.00  0.00     0.275 C 
BRANCH   2   3
ATOM      3  O   UNL A   1      38.276  21.722  26.088  1.00  0.00    -0.458 OA
BRANCH   3   4
ATOM      4  C   UNL A   1      39.515  22.202  26.320  1.00  0.00     0.338 C 
ATOM      5  O   UNL A   1      40.464  21.420  26.349  1.00  0.00    -0.246 OA
BRANCH   4   6
ATOM      6  C   UNL A   1      39.746  23.608  26.773  1.00  0.00     0.060 A 
ATOM      7  C   UNL A   1      39.530  24.822  26.128  1.00  0.00     0.016 A 
ATOM      8  C   UNL A   1      40.326  23.711  28.002  1.00  0.00     0.016 A 
ATOM      9  C   UNL A   1      39.548  26.108  26.814  1.00  0.00     0.010 A 
ATOM     10  C   UNL A   1      40.339  24.954  28.644  1.00  0.00     0.010 A 
ATOM     11  C   UNL A   1      39.672  26.378  28.283  1.00  0.00    -0.014 A 
BRANCH  11  12
ATOM     12  C   UNL A   1      39.164  28.010  29.634  1.00  0.00     0.031 A 
ATOM     13  C   UNL A   1      39.522  28.249  31.351  1.00  0.00     0.074 A 
ATOM     14  C   UNL A   1      38.209  29.127  29.743  1.00  0.00     0.049 A 
ATOM     15  N   UNL A   1      40.398  29.083  31.873  1.00  0.00    -0.248 NA
ATOM     16  C   UNL A   1      38.922  27.336  32.374  1.00  0.00     0.031 C 
ATOM     17  C   UNL A   1      37.017  29.421  28.909  1.00  0.00     0.029 A 
ATOM     18  N   UNL A   1      38.170  30.242  30.621  1.00  0.00    -0.354 N 
ATOM     19  C   UNL A   1      40.709  28.526  33.114  1.00  0.00     0.074 A 
ATOM     20  C   UNL A   1      39.832  27.408  33.344  1.00  0.00     0.031 C 
ATOM     21  C   UNL A   1      36.457  30.587  29.244  1.00  0.00     0.029 A 
ATOM     22  C   UNL A   1      37.201  31.184  30.336  1.00  0.00     0.049 A 
ATOM     23  H   UNL A   1      38.791  30.336  31.379  1.00  0.00     0.167 HD
ATOM     24  C   UNL A   1      41.665  28.928  33.978  1.00  0.00     0.037 A 
ATOM     25  C   UNL A   1      36.924  32.412  30.836  1.00  0.00     0.037 A 
ATOM     26  C   UNL A   1      41.736  30.298  34.387  1.00  0.00     0.049 A 
ATOM     27  C   UNL A   1      37.675  33.009  31.997  1.00  0.00     0.074 A 
ATOM     28  C   UNL A   1      42.473  30.890  35.396  1.00  0.00     0.029 A 
ATOM     29  N   UNL A   1      40.831  31.239  33.939  1.00  0.00    -0.354 N 
ATOM     30  N   UNL A   1      38.692  32.532  32.669  1.00  0.00    -0.248 NA
ATOM     31  C   UNL A   1      37.209  34.323  32.482  1.00  0.00     0.031 C 
ATOM     32  C   UNL A   1      41.889  32.141  35.665  1.00  0.00     0.029 A 
ATOM     33  C   UNL A   1      40.855  32.341  34.764  1.00  0.00     0.049 A 
ATOM     34  H   UNL A   1      40.254  31.138  33.148  1.00  0.00     0.167 HD
ATOM     35  C   UNL A   1      38.973  33.474  33.661  1.00  0.00     0.074 A 
ATOM     36  C   UNL A   1      38.046  34.567  33.482  1.00  0.00     0.031 C 
ATOM     37  C   UNL A   1      39.917  33.420  34.635  1.00  0.00     0.037 A 
BRANCH  24  38
ATOM     38  C   UNL A   1      42.495  27.907  34.679  1.00  0.00     0.057 A 
ATOM     39  C   UNL A   1      42.249  27.463  35.980  1.00  0.00     0.134 A 
ATOM     40  C   UNL A   1      43.684  27.484  34.065  1.00  0.00     0.134 A 
ATOM     41  F   UNL A   1      41.136  27.836  36.627  1.00  0.00    -0.206 F 
ATOM     42  C   UNL A   1      43.161  26.641  36.651  1.00  0.00     0.040 A 
ATOM     43  C   UNL A   1      44.604  26.667  34.725  1.00  0.00     0.040 A 
ATOM     44  F   UNL A   1      43.991  27.894  32.824  1.00  0.00    -0.206 F 
ATOM     45  C   UNL A   1      44.345  26.248  36.027  1.00  0.00     0.006 A 
ENDBRANCH  24  38
BRANCH  25  46
ATOM     46  C   UNL A   1      35.878  33.234  30.155  1.00  0.00     0.057 A 
ATOM     47  C   UNL A   1      36.117  33.900  28.947  1.00  0.00     0.134 A 
ATOM     48  C   UNL A   1      34.623  33.409  30.751  1.00  0.00     0.134 A 
ATOM     49  F   UNL A   1      37.303  33.779  28.332  1.00  0.00    -0.206 F 
ATOM     50  C   UNL A   1      35.159  34.740  28.376  1.00  0.00     0.040 A 
ATOM     51  C   UNL A   1      33.645  34.224  30.176  1.00  0.00     0.040 A 
ATOM     52  F   UNL A   1      34.327  32.780  31.898  1.00  0.00    -0.206 F 
ATOM     53  C   UNL A   1      33.919  34.904  28.991  1.00  0.00     0.006 A 
ENDBRANCH  25  46
BRANCH  37  54
ATOM     54  C   UNL A   1      39.981  34.523  35.646  1.00  0.00     0.057 A 
ATOM     55  C   UNL A   1      40.858  35.601  35.471  1.00  0.00     0.134 A 
ATOM     56  C   UNL A   1      39.264  34.460  36.848  1.00  0.00     0.134 A 
ATOM     57  F   UNL A   1      41.583  35.712  34.348  1.00  0.00    -0.206 F 
ATOM     58  C   UNL A   1      41.036  36.564  36.463  1.00  0.00     0.040 A 
ATOM     59  C   UNL A   1      39.418  35.431  37.839  1.00  0.00     0.040 A 
ATOM     60  F   UNL A   1      38.407  33.454  37.078  1.00  0.00    -0.206 F 
ATOM     61  C   UNL A   1      40.315  36.480  37.653  1.00  0.00     0.006 A 
ENDBRANCH  37  54
ENDBRANCH  11  12
ENDBRANCH   4   6
ENDBRANCH   3   4
ENDBRANCH   2   3
ENDBRANCH   1   2
BRANCH   1  62
ATOM     62  O   UNL A   1      35.340  23.029  25.066  1.00  0.00    -0.462 OA
BRANCH  62  63
ATOM     63  C   UNL A   1      34.820  23.447  23.869  1.00  0.00     0.312 C 
ATOM     64  O   UNL A   1      35.390  23.299  22.798  1.00  0.00    -0.252 OA
BRANCH  63  65
ATOM     65  C   UNL A   1      33.504  24.195  24.067  1.00  0.00     0.147 C 
ATOM     66  C   UNL A   1      32.556  23.564  25.147  1.00  0.00     0.129 C 
ATOM     67  C   UNL A   1      32.715  23.999  22.760  1.00  0.00     0.157 C 
ATOM     68  C   UNL A   1      31.404  23.085  24.217  1.00  0.00     0.155 C 
ATOM     69  C   UNL A   1      31.471  24.835  22.767  1.00  0.00     0.004 C 
ATOM     70  O   UNL A   1      32.118  22.707  23.014  1.00  0.00    -0.365 OA
ATOM     71  C   UNL A   1      30.658  24.273  23.672  1.00  0.00     0.004 C 
BRANCH  66  72
ATOM     72  C   UNL A   1      31.832  24.060  26.444  1.00  0.00     0.233 C 
ATOM     73  O   UNL A   1      31.454  23.175  27.238  1.00  0.00    -0.274 OA
ATOM     74  N   UNL A   1      31.660  25.305  26.957  1.00  0.00    -0.302 N 
ATOM     75  H   UNL A   1      31.429  25.367  27.912  1.00  0.00     0.172 HD
BRANCH  74  76
ATOM     76  C   UNL A   1      31.779  26.476  26.272  1.00  0.00     0.189 A 
ATOM     77  N   UNL A   1      30.632  27.269  25.378  1.00  0.00    -0.220 NA
ATOM     78  S   UNL A   1      33.944  27.315  25.728  1.00  0.00    -0.105 S 
ATOM     79  C   UNL A   1      31.175  28.787  24.385  1.00  0.00     0.084 A 
ATOM     80  C   UNL A   1      32.931  28.995  24.465  1.00  0.00     0.097 A 
BRANCH  79  81
ATOM     81  C   UNL A   1      30.131  29.526  23.625  1.00  0.00     0.001 A 
ATOM     82  C   UNL A   1      29.840  29.210  22.292  1.00  0.00     0.013 A 
ATOM     83  C   UNL A   1      29.615  30.740  24.125  1.00  0.00     0.013 A 
ATOM     84  C   UNL A   1      29.140  30.114  21.474  1.00  0.00     0.040 A 
ATOM     85  C   UNL A   1      28.861  31.612  23.333  1.00  0.00     0.040 A 
ATOM     86  C   UNL A   1      28.657  31.305  22.002  1.00  0.00     0.123 A 
ATOM     87  F   UNL A   1      28.018  32.181  21.214  1.00  0.00    -0.207 F 
ENDBRANCH  79  81
ENDBRANCH  74  76
ENDBRANCH  66  72
ENDBRANCH  63  65
ENDBRANCH  62  63
ENDBRANCH   1  62
TORSDOF 14
ENDMDL
MODEL 2
REMARK VINA RESULT:     -13.3      1.848      2.776
REMARK SMILES O=C(OCCOC(=O)[C@@H]1[C@@H](C(=O)Nc2nc(-c3ccc(F)cc3)cs2)[C@H]2C=C[C@@H]1O2)c1ccc(-c2c3nc(c(-c4c(F)cccc4F)c4ccc([nH]4)c(-c4c(F)cccc4F)c4nc(c(-c5c(F)cccc5F)c5ccc2[nH]5)C=C4)C=C3)cc1
REMARK SMILES IDX 5 1 4 2 3 3 2 4 1 5 31 6 32 7 84 8 33 9 83 10 34 11 35 12
REMARK SMILES IDX 36 13 77 14 37 15 82 16 76 17 78 18 38 19 81 20 75 21 74 22
REMARK SMILES IDX 39 24 65 25 48 26 64 27 49 28 52 29 63 30 79 31 50 32 51 33
REMARK SMILES IDX 62 35 80 36 53 37 40 38 41 39 46 40 42 41 43 42 45 43 47 44
REMARK SMILES IDX 44 45 66 46 67 47 72 48 68 49 69 50 71 51 73 52 70 53 54 54
REMARK SMILES IDX 55 55 60 56 56 57 57 58 59 59 61 60 58 61 6 62 7 63 8 64
REMARK SMILES IDX 9 65 10 66 29 67 26 68 28 69 30 70 27 71 11 72 12 73 13 74
REMARK SMILES IDX 14 76 15 77 25 78 16 79 24 80 17 81 18 82 23 83 19 84 22 85
REMARK SMILES IDX 20 86 21 87
REMARK H PARENT 78 23 52 34 13 75
REMARK Flexibility Score: inf
ROOT
ATOM      1  C   UNL A   1      38.552  21.856  25.756  1.00  0.00     0.274 C 
ENDROOT
BRANCH   1   2
ATOM      2  C   UNL A   1      39.787  21.078  26.211  1.00  0.00     0.275 C 
BRANCH   2   3
ATOM      3  O   UNL A   1      40.704  21.835  27.003  1.00  0.00    -0.458 OA
BRANCH   3   4
ATOM      4  C   UNL A   1      41.514  22.830  26.585  1.00  0.00     0.338 C 
ATOM      5  O   UNL A   1      42.600  22.546  26.085  1.00  0.00    -0.246 OA
BRANCH   4   6
ATOM      6  C   UNL A   1      41.242  24.262  26.918  1.00  0.00     0.060 A 
ATOM      7  C   UNL A   1      40.336  25.169  26.378  1.00  0.00     0.016 A 
ATOM      8  C   UNL A   1      42.069  24.781  27.870  1.00  0.00     0.016 A 
ATOM      9  C   UNL A   1      40.008  26.444  27.004  1.00  0.00     0.010 A 
ATOM     10  C   UNL A   1      41.741  26.007  28.457  1.00  0.00     0.010 A 
ATOM     11  C   UNL A   1      40.451  26.967  28.338  1.00  0.00    -0.014 A 
BRANCH  11  12
ATOM     12  C   UNL A   1      39.733  28.446  29.767  1.00  0.00     0.031 A 
ATOM     13  C   UNL A   1      39.965  28.576  31.517  1.00  0.00     0.074 A 
ATOM     14  C   UNL A   1      38.688  29.477  29.893  1.00  0.00     0.049 A 
ATOM     15  N   UNL A   1      40.738  29.430  32.156  1.00  0.00    -0.248 NA
ATOM     16  C   UNL A   1      39.378  27.544  32.428  1.00  0.00     0.031 C 
ATOM     17  C   UNL A   1      37.530  29.746  29.004  1.00  0.00     0.029 A 
ATOM     18  N   UNL A   1      38.507  30.514  30.845  1.00  0.00    -0.354 N 
ATOM     19  C   UNL A   1      41.016  28.802  33.371  1.00  0.00     0.074 A 
ATOM     20  C   UNL A   1      40.218  27.607  33.459  1.00  0.00     0.031 C 
ATOM     21  C   UNL A   1      36.860  30.837  29.386  1.00  0.00     0.029 A 
ATOM     22  C   UNL A   1      37.485  31.401  30.566  1.00  0.00     0.049 A 
ATOM     23  H   UNL A   1      39.071  30.595  31.649  1.00  0.00     0.167 HD
ATOM     24  C   UNL A   1      41.882  29.205  34.325  1.00  0.00     0.037 A 
ATOM     25  C   UNL A   1      37.082  32.561  31.134  1.00  0.00     0.037 A 
ATOM     26  C   UNL A   1      41.819  30.541  34.836  1.00  0.00     0.049 A 
ATOM     27  C   UNL A   1      37.710  33.121  32.384  1.00  0.00     0.074 A 
ATOM     28  C   UNL A   1      42.443  31.105  35.934  1.00  0.00     0.029 A 
ATOM     29  N   UNL A   1      40.872  31.444  34.399  1.00  0.00    -0.354 N 
ATOM     30  N   UNL A   1      38.719  32.669  33.086  1.00  0.00    -0.248 NA
ATOM     31  C   UNL A   1      37.113  34.354  32.932  1.00  0.00     0.031 C 
ATOM     32  C   UNL A   1      41.747  32.285  36.254  1.00  0.00     0.029 A 
ATOM     33  C   UNL A   1      40.758  32.476  35.302  1.00  0.00     0.049 A 
ATOM     34  H   UNL A   1      40.354  31.362  33.566  1.00  0.00     0.167 HD
ATOM     35  C   UNL A   1      38.863  33.549  34.161  1.00  0.00     0.074 A 
ATOM     36  C   UNL A   1      37.865  34.581  34.001  1.00  0.00     0.031 C 
ATOM     37  C   UNL A   1      39.746  33.490  35.190  1.00  0.00     0.037 A 
BRANCH  24  38
ATOM     38  C   UNL A   1      42.746  28.197  35.003  1.00  0.00     0.057 A 
ATOM     39  C   UNL A   1      42.418  27.577  36.211  1.00  0.00     0.134 A 
ATOM     40  C   UNL A   1      44.033  27.974  34.490  1.00  0.00     0.134 A 
ATOM     41  F   UNL A   1      41.208  27.755  36.760  1.00  0.00    -0.206 F 
ATOM     42  C   UNL A   1      43.343  26.777  36.891  1.00  0.00     0.040 A 
ATOM     43  C   UNL A   1      44.966  27.181  35.160  1.00  0.00     0.040 A 
ATOM     44  F   UNL A   1      44.419  28.560  33.345  1.00  0.00    -0.206 F 
ATOM     45  C   UNL A   1      44.623  26.585  36.371  1.00  0.00     0.006 A 
ENDBRANCH  24  38
BRANCH  25  46
ATOM     46  C   UNL A   1      36.018  33.354  30.447  1.00  0.00     0.057 A 
ATOM     47  C   UNL A   1      34.695  33.387  30.903  1.00  0.00     0.134 A 
ATOM     48  C   UNL A   1      36.312  34.055  29.270  1.00  0.00     0.134 A 
ATOM     49  F   UNL A   1      34.348  32.728  32.019  1.00  0.00    -0.206 F 
ATOM     50  C   UNL A   1      33.695  34.055  30.193  1.00  0.00     0.040 A 
ATOM     51  C   UNL A   1      35.328  34.752  28.566  1.00  0.00     0.040 A 
ATOM     52  F   UNL A   1      37.566  34.079  28.795  1.00  0.00    -0.206 F 
ATOM     53  C   UNL A   1      34.011  34.741  29.021  1.00  0.00     0.006 A 
ENDBRANCH  25  46
BRANCH  37  54
ATOM     54  C   UNL A   1      39.661  34.512  36.280  1.00  0.00     0.057 A 
ATOM     55  C   UNL A   1      40.394  35.702  36.202  1.00  0.00     0.134 A 
ATOM     56  C   UNL A   1      38.949  34.268  37.462  1.00  0.00     0.134 A 
ATOM     57  F   UNL A   1      41.108  35.989  35.103  1.00  0.00    -0.206 F 
ATOM     58  C   UNL A   1      40.439  36.603  37.266  1.00  0.00     0.040 A 
ATOM     59  C   UNL A   1      38.968  35.172  38.525  1.00  0.00     0.040 A 
ATOM     60  F   UNL A   1      38.225  33.146  37.602  1.00  0.00    -0.206 F 
ATOM     61  C   UNL A   1      39.726  36.338  38.433  1.00  0.00     0.006 A 
ENDBRANCH  37  54
ENDBRANCH  11  12
ENDBRANCH   4   6
ENDBRANCH   3   4
ENDBRANCH   2   3
ENDBRANCH   1   2
BRANCH   1  62
ATOM     62  O   UNL A   1      37.453  21.056  25.277  1.00  0.00    -0.462 OA
BRANCH  62  63
ATOM     63  C   UNL A   1      36.600  21.667  24.395  1.00  0.00     0.312 C 
ATOM     64  O   UNL A   1      36.972  22.438  23.523  1.00  0.00    -0.252 OA
BRANCH  63  65
ATOM     65  C   UNL A   1      35.144  21.336  24.711  1.00  0.00     0.147 C 
ATOM     66  C   UNL A   1      34.116  22.426  24.243  1.00  0.00     0.129 C 
ATOM     67  C   UNL A   1      35.030  21.389  26.244  1.00  0.00     0.157 C 
ATOM     68  C   UNL A   1      33.635  22.927  25.636  1.00  0.00     0.155 C 
ATOM     69  C   UNL A   1      33.680  20.911  26.687  1.00  0.00     0.004 C 
ATOM     70  O   UNL A   1      34.838  22.809  26.436  1.00  0.00    -0.365 OA
ATOM     71  C   UNL A   1      32.813  21.860  26.309  1.00  0.00     0.004 C 
BRANCH  66  72
ATOM     72  C   UNL A   1      32.830  22.457  23.351  1.00  0.00     0.233 C 
ATOM     73  O   UNL A   1      32.392  21.350  22.974  1.00  0.00    -0.274 OA
ATOM     74  N   UNL A   1      31.990  23.470  23.018  1.00  0.00    -0.302 N 
ATOM     75  H   UNL A   1      31.097  23.221  22.686  1.00  0.00     0.172 HD
BRANCH  74  76
ATOM     76  C   UNL A   1      32.269  24.800  23.101  1.00  0.00     0.189 A 
ATOM     77  N   UNL A   1      32.389  25.746  24.456  1.00  0.00    -0.220 NA
ATOM     78  S   UNL A   1      32.030  26.183  21.173  1.00  0.00    -0.105 S 
ATOM     79  C   UNL A   1      32.600  27.613  24.218  1.00  0.00     0.084 A 
ATOM     80  C   UNL A   1      32.459  28.048  22.507  1.00  0.00     0.097 A 
BRANCH  79  81
ATOM     81  C   UNL A   1      32.760  28.452  25.435  1.00  0.00     0.001 A 
ATOM     82  C   UNL A   1      31.840  29.461  25.749  1.00  0.00     0.013 A 
ATOM     83  C   UNL A   1      33.980  28.453  26.143  1.00  0.00     0.013 A 
ATOM     84  C   UNL A   1      32.168  30.475  26.667  1.00  0.00     0.040 A 
ATOM     85  C   UNL A   1      34.283  29.420  27.106  1.00  0.00     0.040 A 
ATOM     86  C   UNL A   1      33.384  30.444  27.336  1.00  0.00     0.123 A 
ATOM     87  F   UNL A   1      33.710  31.428  28.187  1.00  0.00    -0.207 F 
ENDBRANCH  79  81
ENDBRANCH  74  76
ENDBRANCH  66  72
ENDBRANCH  63  65
ENDBRANCH  62  63
ENDBRANCH   1  62
TORSDOF 14
ENDMDL
MODEL 3
REMARK VINA RESULT:     -13.0     11.301     16.426
REMARK SMILES O=C(OCCOC(=O)[C@@H]1[C@@H](C(=O)Nc2nc(-c3ccc(F)cc3)cs2)[C@H]2C=C[C@@H]1O2)c1ccc(-c2c3nc(c(-c4c(F)cccc4F)c4ccc([nH]4)c(-c4c(F)cccc4F)c4nc(c(-c5c(F)cccc5F)c5ccc2[nH]5)C=C4)C=C3)cc1
REMARK SMILES IDX 5 1 4 2 3 3 2 4 1 5 31 6 32 7 84 8 33 9 83 10 34 11 35 12
REMARK SMILES IDX 36 13 77 14 37 15 82 16 76 17 78 18 38 19 81 20 75 21 74 22
REMARK SMILES IDX 39 24 65 25 48 26 64 27 49 28 52 29 63 30 79 31 50 32 51 33
REMARK SMILES IDX 62 35 80 36 53 37 40 38 41 39 46 40 42 41 43 42 45 43 47 44
REMARK SMILES IDX 44 45 66 46 67 47 72 48 68 49 69 50 71 51 73 52 70 53 54 54
REMARK SMILES IDX 55 55 60 56 56 57 57 58 59 59 61 60 58 61 6 62 7 63 8 64
REMARK SMILES IDX 9 65 10 66 29 67 26 68 28 69 30 70 27 71 11 72 12 73 13 74
REMARK SMILES IDX 14 76 15 77 25 78 16 79 24 80 17 81 18 82 23 83 19 84 22 85
REMARK SMILES IDX 20 86 21 87
REMARK H PARENT 78 23 52 34 13 75
REMARK Flexibility Score: inf
ROOT
ATOM      1  C   UNL A   1      43.653  40.731  26.036  1.00  0.00     0.274 C 
ENDROOT
BRANCH   1   2
ATOM      2  C   UNL A   1      42.279  40.194  26.441  1.00  0.00     0.275 C 
BRANCH   2   3
ATOM      3  O   UNL A   1      42.157  38.773  26.376  1.00  0.00    -0.458 OA
BRANCH   3   4
ATOM      4  C   UNL A   1      42.422  37.886  27.359  1.00  0.00     0.338 C 
ATOM      5  O   UNL A   1      42.165  38.190  28.523  1.00  0.00    -0.246 OA
BRANCH   4   6
ATOM      6  C   UNL A   1      43.226  36.650  27.113  1.00  0.00     0.060 A 
ATOM      7  C   UNL A   1      44.466  36.255  27.603  1.00  0.00     0.016 A 
ATOM      8  C   UNL A   1      42.675  35.798  26.202  1.00  0.00     0.016 A 
ATOM      9  C   UNL A   1      44.981  34.897  27.480  1.00  0.00     0.010 A 
ATOM     10  C   UNL A   1      43.184  34.500  26.095  1.00  0.00     0.010 A 
ATOM     11  C   UNL A   1      44.284  33.682  26.946  1.00  0.00    -0.014 A 
BRANCH  11  12
ATOM     12  C   UNL A   1      44.498  31.524  27.151  1.00  0.00     0.031 A 
ATOM     13  C   UNL A   1      43.468  30.327  27.949  1.00  0.00     0.074 A 
ATOM     14  C   UNL A   1      45.537  30.482  27.069  1.00  0.00     0.049 A 
ATOM     15  N   UNL A   1      42.681  29.442  27.372  1.00  0.00    -0.248 NA
ATOM     16  C   UNL A   1      43.296  30.360  29.436  1.00  0.00     0.031 C 
ATOM     17  C   UNL A   1      47.009  30.637  26.962  1.00  0.00     0.029 A 
ATOM     18  N   UNL A   1      45.440  29.066  27.025  1.00  0.00    -0.354 N 
ATOM     19  C   UNL A   1      41.715  29.156  28.337  1.00  0.00     0.074 A 
ATOM     20  C   UNL A   1      42.092  29.805  29.565  1.00  0.00     0.031 C 
ATOM     21  C   UNL A   1      47.618  29.459  26.800  1.00  0.00     0.029 A 
ATOM     22  C   UNL A   1      46.628  28.400  26.794  1.00  0.00     0.049 A 
ATOM     23  H   UNL A   1      44.585  28.593  27.150  1.00  0.00     0.167 HD
ATOM     24  C   UNL A   1      40.599  28.410  28.187  1.00  0.00     0.037 A 
ATOM     25  C   UNL A   1      46.934  27.102  26.560  1.00  0.00     0.037 A 
ATOM     26  C   UNL A   1      40.683  27.091  27.637  1.00  0.00     0.049 A 
ATOM     27  C   UNL A   1      45.906  26.001  26.596  1.00  0.00     0.074 A 
ATOM     28  C   UNL A   1      39.735  26.087  27.584  1.00  0.00     0.029 A 
ATOM     29  N   UNL A   1      41.889  26.532  27.269  1.00  0.00    -0.354 N 
ATOM     30  N   UNL A   1      44.613  26.071  26.790  1.00  0.00    -0.248 NA
ATOM     31  C   UNL A   1      46.401  24.625  26.399  1.00  0.00     0.031 C 
ATOM     32  C   UNL A   1      40.415  24.879  27.342  1.00  0.00     0.029 A 
ATOM     33  C   UNL A   1      41.759  25.166  27.166  1.00  0.00     0.049 A 
ATOM     34  H   UNL A   1      42.719  27.034  27.104  1.00  0.00     0.167 HD
ATOM     35  C   UNL A   1      44.148  24.754  26.756  1.00  0.00     0.074 A 
ATOM     36  C   UNL A   1      45.288  23.909  26.487  1.00  0.00     0.031 C 
ATOM     37  C   UNL A   1      42.883  24.299  26.943  1.00  0.00     0.037 A 
BRANCH  24  38
ATOM     38  C   UNL A   1      39.322  28.871  28.803  1.00  0.00     0.057 A 
ATOM     39  C   UNL A   1      38.924  28.549  30.102  1.00  0.00     0.134 A 
ATOM     40  C   UNL A   1      38.391  29.530  27.985  1.00  0.00     0.134 A 
ATOM     41  F   UNL A   1      39.762  27.914  30.933  1.00  0.00    -0.206 F 
ATOM     42  C   UNL A   1      37.639  28.856  30.565  1.00  0.00     0.040 A 
ATOM     43  C   UNL A   1      37.105  29.839  28.434  1.00  0.00     0.040 A 
ATOM     44  F   UNL A   1      38.703  29.846  26.719  1.00  0.00    -0.206 F 
ATOM     45  C   UNL A   1      36.724  29.495  29.728  1.00  0.00     0.006 A 
ENDBRANCH  24  38
BRANCH  25  46
ATOM     46  C   UNL A   1      48.338  26.763  26.179  1.00  0.00     0.057 A 
ATOM     47  C   UNL A   1      49.302  26.390  27.123  1.00  0.00     0.134 A 
ATOM     48  C   UNL A   1      48.750  26.868  24.844  1.00  0.00     0.134 A 
ATOM     49  F   UNL A   1      48.972  26.281  28.419  1.00  0.00    -0.206 F 
ATOM     50  C   UNL A   1      50.633  26.171  26.760  1.00  0.00     0.040 A 
ATOM     51  C   UNL A   1      50.071  26.623  24.463  1.00  0.00     0.040 A 
ATOM     52  F   UNL A   1      47.867  27.200  23.891  1.00  0.00    -0.206 F 
ATOM     53  C   UNL A   1      51.020  26.287  25.426  1.00  0.00     0.006 A 
ENDBRANCH  25  46
BRANCH  37  54
ATOM     54  C   UNL A   1      42.634  22.823  26.939  1.00  0.00     0.057 A 
ATOM     55  C   UNL A   1      42.579  22.111  25.735  1.00  0.00     0.134 A 
ATOM     56  C   UNL A   1      42.331  22.127  28.117  1.00  0.00     0.134 A 
ATOM     57  F   UNL A   1      42.845  22.723  24.571  1.00  0.00    -0.206 F 
ATOM     58  C   UNL A   1      42.211  20.767  25.698  1.00  0.00     0.040 A 
ATOM     59  C   UNL A   1      41.983  20.775  28.095  1.00  0.00     0.040 A 
ATOM     60  F   UNL A   1      42.366  22.749  29.305  1.00  0.00    -0.206 F 
ATOM     61  C   UNL A   1      41.910  20.094  26.881  1.00  0.00     0.006 A 
ENDBRANCH  37  54
ENDBRANCH  11  12
ENDBRANCH   4   6
ENDBRANCH   3   4
ENDBRANCH   2   3
ENDBRANCH   1   2
BRANCH   1  62
ATOM     62  O   UNL A   1      43.677  41.552  24.852  1.00  0.00    -0.462 OA
BRANCH  62  63
ATOM     63  C   UNL A   1      44.242  42.794  24.990  1.00  0.00     0.312 C 
ATOM     64  O   UNL A   1      44.336  43.376  26.060  1.00  0.00    -0.252 OA
BRANCH  63  65
ATOM     65  C   UNL A   1      44.638  43.377  23.636  1.00  0.00     0.147 C 
ATOM     66  C   UNL A   1      46.031  42.888  23.102  1.00  0.00     0.129 C 
ATOM     67  C   UNL A   1      44.870  44.878  23.883  1.00  0.00     0.157 C 
ATOM     68  C   UNL A   1      46.814  44.230  23.190  1.00  0.00     0.155 C 
ATOM     69  C   UNL A   1      45.099  45.594  22.586  1.00  0.00     0.004 C 
ATOM     70  O   UNL A   1      46.233  44.848  24.365  1.00  0.00    -0.365 OA
ATOM     71  C   UNL A   1      46.301  45.192  22.153  1.00  0.00     0.004 C 
BRANCH  66  72
ATOM     72  C   UNL A   1      46.565  42.206  21.798  1.00  0.00     0.233 C 
ATOM     73  O   UNL A   1      47.678  41.648  21.883  1.00  0.00    -0.274 OA
ATOM     74  N   UNL A   1      45.974  41.971  20.600  1.00  0.00    -0.302 N 
ATOM     75  H   UNL A   1      46.385  41.285  20.025  1.00  0.00     0.172 HD
BRANCH  74  76
ATOM     76  C   UNL A   1      44.864  42.596  20.119  1.00  0.00     0.189 A 
ATOM     77  N   UNL A   1      44.773  43.903  19.105  1.00  0.00    -0.220 NA
ATOM     78  S   UNL A   1      42.760  42.264  21.191  1.00  0.00    -0.105 S 
ATOM     79  C   UNL A   1      43.067  44.656  18.778  1.00  0.00     0.084 A 
ATOM     80  C   UNL A   1      41.837  43.890  19.795  1.00  0.00     0.097 A 
BRANCH  79  81
ATOM     81  C   UNL A   1      42.984  45.796  17.826  1.00  0.00     0.001 A 
ATOM     82  C   UNL A   1      43.597  47.024  18.107  1.00  0.00     0.013 A 
ATOM     83  C   UNL A   1      42.057  45.769  16.764  1.00  0.00     0.013 A 
ATOM     84  C   UNL A   1      43.228  48.189  17.411  1.00  0.00     0.040 A 
ATOM     85  C   UNL A   1      41.736  46.913  16.025  1.00  0.00     0.040 A 
ATOM     86  C   UNL A   1      42.303  48.122  16.378  1.00  0.00     0.123 A 
ATOM     87  F   UNL A   1      41.927  49.238  15.738  1.00  0.00    -0.207 F 
ENDBRANCH  79  81
ENDBRANCH  74  76
ENDBRANCH  66  72
ENDBRANCH  63  65
ENDBRANCH  62  63
ENDBRANCH   1  62
TORSDOF 14
ENDMDL
