MODEL 1
REMARK VINA RESULT:     -10.5      0.000      0.000
REMARK SMILES Cc1ccc(Cl)c(Nc2ccccc2C(=O)N[C@@H](C)C(=O)OCCOC(=O)c2ccc(-c3c4nc(c(-c5c(F)cccc5F)c5ccc([nH]5)c(-c5c(F)cccc5F)c5nc(c(-c6c(F)cccc6F)c6ccc3[nH]6)C=C5)C=C4)cc2)c1Cl
REMARK SMILES IDX 23 1 22 2 20 3 21 4 18 5 19 6 17 7 15 8 16 9 14 11 9 12
REMARK SMILES IDX 10 13 11 14 13 15 12 16 8 17 7 19 1 20 2 21 3 22 82 23 4 24
REMARK SMILES IDX 83 25 5 26 6 27 24 28 25 29 26 30 27 31 28 32 29 33 81 34
REMARK SMILES IDX 30 35 80 36 31 37 32 38 33 39 74 40 34 41 79 42 73 43 75 44
REMARK SMILES IDX 35 45 78 46 72 47 71 48 36 50 62 51 45 52 61 53 46 54 49 55
REMARK SMILES IDX 60 56 76 57 47 58 48 59 59 61 77 62 50 63 37 64 38 65 43 66
REMARK SMILES IDX 39 67 40 68 42 69 44 70 41 71 63 72 64 73 69 74 65 75 66 76
REMARK SMILES IDX 68 77 70 78 67 79 51 80 52 81 57 82 53 83 54 84 56 85 58 86
REMARK SMILES IDX 55 87
REMARK H PARENT 17 10 8 18 75 49 49 60
REMARK Flexibility Score: inf
ROOT
ATOM      1  C   UNL A   1      33.591  34.456  28.597  1.00  0.00     0.274 C 
ENDROOT
BRANCH   1   2
ATOM      2  O   UNL A   1      32.745  34.853  29.755  1.00  0.00    -0.461 OA
BRANCH   2   3
ATOM      3  C   UNL A   1      33.026  35.886  30.636  1.00  0.00     0.328 C 
ATOM      4  O   UNL A   1      33.024  37.053  30.309  1.00  0.00    -0.250 OA
BRANCH   3   5
ATOM      5  C   UNL A   1      33.381  35.370  32.138  1.00  0.00     0.189 C 
ATOM      6  C   UNL A   1      34.166  36.444  32.889  1.00  0.00     0.043 C 
BRANCH   5   7
ATOM      7  N   UNL A   1      34.143  34.079  32.117  1.00  0.00    -0.339 N 
ATOM      8  C   UNL A   1      35.316  33.452  31.734  1.00  0.00     0.254 C 
ATOM      9  O   UNL A   1      35.211  32.229  31.949  1.00  0.00    -0.269 OA
ATOM     10  H   UNL A   1      33.580  33.401  32.555  1.00  0.00     0.164 HD
BRANCH   8  11
ATOM     11  C   UNL A   1      36.675  33.880  31.137  1.00  0.00     0.063 A 
ATOM     12  C   UNL A   1      37.809  34.530  31.680  1.00  0.00     0.051 A 
ATOM     13  C   UNL A   1      38.992  34.759  30.914  1.00  0.00     0.027 A 
ATOM     14  C   UNL A   1      39.154  34.215  29.656  1.00  0.00     0.002 A 
ATOM     15  C   UNL A   1      36.882  33.391  29.814  1.00  0.00     0.016 A 
ATOM     16  C   UNL A   1      38.097  33.513  29.110  1.00  0.00     0.001 A 
BRANCH  12  17
ATOM     17  N   UNL A   1      38.085  34.616  33.041  1.00  0.00    -0.352 N 
ATOM     18  H   UNL A   1      37.997  35.493  33.480  1.00  0.00     0.167 HD
BRANCH  17  19
ATOM     19  C   UNL A   1      38.483  33.515  33.827  1.00  0.00     0.077 A 
ATOM     20  C   UNL A   1      40.648  30.408  33.106  1.00  0.00     0.046 C 
ATOM     21  C   UNL A   1      39.592  31.347  33.608  1.00  0.00    -0.030 A 
ATOM     22  C   UNL A   1      38.446  30.825  34.146  1.00  0.00     0.006 A 
ATOM     23  C   UNL A   1      39.645  32.727  33.545  1.00  0.00     0.069 A 
ATOM     24  C   UNL A   1      37.447  31.636  34.726  1.00  0.00     0.023 A 
ATOM     25  Cl  UNL A   1      41.178  33.448  33.192  1.00  0.00    -0.082 Cl
ATOM     26  C   UNL A   1      37.463  32.990  34.591  1.00  0.00     0.066 A 
ATOM     27  Cl  UNL A   1      36.096  33.908  35.117  1.00  0.00    -0.082 Cl
ENDBRANCH  17  19
ENDBRANCH  12  17
ENDBRANCH   8  11
ENDBRANCH   5   7
ENDBRANCH   3   5
ENDBRANCH   2   3
ENDBRANCH   1   2
BRANCH   1  28
ATOM     28  C   UNL A   1      33.650  32.929  28.038  1.00  0.00     0.275 C 
BRANCH  28  29
ATOM     29  O   UNL A   1      34.323  31.869  28.832  1.00  0.00    -0.458 OA
BRANCH  29  30
ATOM     30  C   UNL A   1      34.550  30.628  28.236  1.00  0.00     0.338 C 
ATOM     31  O   UNL A   1      33.733  30.074  27.516  1.00  0.00    -0.246 OA
BRANCH  30  32
ATOM     32  C   UNL A   1      35.993  30.095  28.350  1.00  0.00     0.060 A 
ATOM     33  C   UNL A   1      36.556  29.756  29.570  1.00  0.00     0.016 A 
ATOM     34  C   UNL A   1      36.893  30.114  27.261  1.00  0.00     0.016 A 
ATOM     35  C   UNL A   1      37.962  29.661  29.721  1.00  0.00     0.010 A 
ATOM     36  C   UNL A   1      38.293  29.801  27.404  1.00  0.00     0.010 A 
ATOM     37  C   UNL A   1      38.876  29.558  28.656  1.00  0.00    -0.014 A 
BRANCH  37  38
ATOM     38  C   UNL A   1      40.326  29.092  28.906  1.00  0.00     0.031 A 
ATOM     39  C   UNL A   1      41.483  29.995  29.359  1.00  0.00     0.074 A 
ATOM     40  C   UNL A   1      40.672  27.789  28.711  1.00  0.00     0.049 A 
ATOM     41  N   UNL A   1      42.783  29.759  29.328  1.00  0.00    -0.248 NA
ATOM     42  C   UNL A   1      41.155  31.298  29.948  1.00  0.00     0.031 C 
ATOM     43  C   UNL A   1      39.768  26.702  28.334  1.00  0.00     0.029 A 
ATOM     44  N   UNL A   1      41.898  27.144  28.798  1.00  0.00    -0.354 N 
ATOM     45  C   UNL A   1      43.419  30.891  29.846  1.00  0.00     0.074 A 
ATOM     46  C   UNL A   1      42.356  31.803  30.222  1.00  0.00     0.031 C 
ATOM     47  C   UNL A   1      40.424  25.542  28.310  1.00  0.00     0.029 A 
ATOM     48  C   UNL A   1      41.844  25.814  28.439  1.00  0.00     0.049 A 
ATOM     49  H   UNL A   1      42.725  27.592  29.086  1.00  0.00     0.167 HD
ATOM     50  C   UNL A   1      44.749  31.162  29.979  1.00  0.00     0.037 A 
ATOM     51  C   UNL A   1      42.779  24.904  28.103  1.00  0.00     0.037 A 
ATOM     52  C   UNL A   1      45.837  30.265  29.646  1.00  0.00     0.049 A 
ATOM     53  C   UNL A   1      44.225  25.268  28.072  1.00  0.00     0.074 A 
ATOM     54  C   UNL A   1      47.206  30.485  29.757  1.00  0.00     0.029 A 
ATOM     55  N   UNL A   1      45.695  28.984  29.142  1.00  0.00    -0.354 N 
ATOM     56  N   UNL A   1      44.795  26.387  28.432  1.00  0.00    -0.248 NA
ATOM     57  C   UNL A   1      45.152  24.256  27.544  1.00  0.00     0.031 C 
ATOM     58  C   UNL A   1      47.887  29.364  29.267  1.00  0.00     0.029 A 
ATOM     59  C   UNL A   1      46.944  28.423  28.900  1.00  0.00     0.049 A 
ATOM     60  H   UNL A   1      44.835  28.536  28.978  1.00  0.00     0.167 HD
ATOM     61  C   UNL A   1      46.146  26.217  28.172  1.00  0.00     0.074 A 
ATOM     62  C   UNL A   1      46.317  24.881  27.647  1.00  0.00     0.031 C 
ATOM     63  C   UNL A   1      47.147  27.109  28.352  1.00  0.00     0.037 A 
BRANCH  50  64
ATOM     64  C   UNL A   1      45.160  32.534  30.457  1.00  0.00     0.057 A 
ATOM     65  C   UNL A   1      45.326  33.617  29.586  1.00  0.00     0.134 A 
ATOM     66  C   UNL A   1      45.240  32.800  31.834  1.00  0.00     0.134 A 
ATOM     67  F   UNL A   1      45.241  33.443  28.259  1.00  0.00    -0.206 F 
ATOM     68  C   UNL A   1      45.568  34.910  30.066  1.00  0.00     0.040 A 
ATOM     69  C   UNL A   1      45.462  34.089  32.324  1.00  0.00     0.040 A 
ATOM     70  F   UNL A   1      45.054  31.817  32.728  1.00  0.00    -0.206 F 
ATOM     71  C   UNL A   1      45.628  35.151  31.439  1.00  0.00     0.006 A 
ENDBRANCH  50  64
BRANCH  51  72
ATOM     72  C   UNL A   1      42.336  23.574  27.599  1.00  0.00     0.057 A 
ATOM     73  C   UNL A   1      42.115  23.348  26.239  1.00  0.00     0.134 A 
ATOM     74  C   UNL A   1      42.172  22.491  28.475  1.00  0.00     0.134 A 
ATOM     75  F   UNL A   1      42.222  24.354  25.360  1.00  0.00    -0.206 F 
ATOM     76  C   UNL A   1      41.764  22.084  25.764  1.00  0.00     0.040 A 
ATOM     77  C   UNL A   1      41.860  21.215  28.010  1.00  0.00     0.040 A 
ATOM     78  F   UNL A   1      42.371  22.647  29.793  1.00  0.00    -0.206 F 
ATOM     79  C   UNL A   1      41.653  21.010  26.649  1.00  0.00     0.006 A 
ENDBRANCH  51  72
BRANCH  63  80
ATOM     80  C   UNL A   1      48.531  26.661  27.992  1.00  0.00     0.057 A 
ATOM     81  C   UNL A   1      49.078  26.917  26.728  1.00  0.00     0.134 A 
ATOM     82  C   UNL A   1      49.318  25.945  28.903  1.00  0.00     0.134 A 
ATOM     83  F   UNL A   1      48.366  27.573  25.799  1.00  0.00    -0.206 F 
ATOM     84  C   UNL A   1      50.350  26.460  26.376  1.00  0.00     0.040 A 
ATOM     85  C   UNL A   1      50.599  25.501  28.569  1.00  0.00     0.040 A 
ATOM     86  F   UNL A   1      48.853  25.661  30.128  1.00  0.00    -0.206 F 
ATOM     87  C   UNL A   1      51.115  25.752  27.300  1.00  0.00     0.006 A 
ENDBRANCH  63  80
ENDBRANCH  37  38
ENDBRANCH  30  32
ENDBRANCH  29  30
ENDBRANCH  28  29
ENDBRANCH   1  28
TORSDOF 15
ENDMDL
MODEL 2
REMARK VINA RESULT:     -10.3      4.587      7.456
REMARK SMILES Cc1ccc(Cl)c(Nc2ccccc2C(=O)N[C@@H](C)C(=O)OCCOC(=O)c2ccc(-c3c4nc(c(-c5c(F)cccc5F)c5ccc([nH]5)c(-c5c(F)cccc5F)c5nc(c(-c6c(F)cccc6F)c6ccc3[nH]6)C=C5)C=C4)cc2)c1Cl
REMARK SMILES IDX 23 1 22 2 20 3 21 4 18 5 19 6 17 7 15 8 16 9 14 11 9 12
REMARK SMILES IDX 10 13 11 14 13 15 12 16 8 17 7 19 1 20 2 21 3 22 82 23 4 24
REMARK SMILES IDX 83 25 5 26 6 27 24 28 25 29 26 30 27 31 28 32 29 33 81 34
REMARK SMILES IDX 30 35 80 36 31 37 32 38 33 39 74 40 34 41 79 42 73 43 75 44
REMARK SMILES IDX 35 45 78 46 72 47 71 48 36 50 62 51 45 52 61 53 46 54 49 55
REMARK SMILES IDX 60 56 76 57 47 58 48 59 59 61 77 62 50 63 37 64 38 65 43 66
REMARK SMILES IDX 39 67 40 68 42 69 44 70 41 71 63 72 64 73 69 74 65 75 66 76
REMARK SMILES IDX 68 77 70 78 67 79 51 80 52 81 57 82 53 83 54 84 56 85 58 86
REMARK SMILES IDX 55 87
REMARK H PARENT 17 10 8 18 75 49 49 60
REMARK Flexibility Score: inf
ROOT
ATOM      1  C   UNL A   1      31.970  28.843  25.705  1.00  0.00     0.274 C 
ENDROOT
BRANCH   1   2
ATOM      2  O   UNL A   1      31.527  29.082  24.305  1.00  0.00    -0.461 OA
BRANCH   2   3
ATOM      3  C   UNL A   1      31.661  28.185  23.257  1.00  0.00     0.328 C 
ATOM      4  O   UNL A   1      30.740  27.868  22.536  1.00  0.00    -0.250 OA
BRANCH   3   5
ATOM      5  C   UNL A   1      33.168  27.585  23.114  1.00  0.00     0.189 C 
ATOM      6  C   UNL A   1      34.063  28.588  22.389  1.00  0.00     0.043 C 
BRANCH   5   7
ATOM      7  N   UNL A   1      33.176  26.265  22.405  1.00  0.00    -0.339 N 
ATOM      8  C   UNL A   1      32.928  24.908  22.515  1.00  0.00     0.254 C 
ATOM      9  O   UNL A   1      33.298  24.340  21.469  1.00  0.00    -0.269 OA
ATOM     10  H   UNL A   1      33.484  26.431  21.484  1.00  0.00     0.164 HD
BRANCH   8  11
ATOM     11  C   UNL A   1      32.319  23.960  23.573  1.00  0.00     0.063 A 
ATOM     12  C   UNL A   1      32.639  22.648  23.995  1.00  0.00     0.051 A 
ATOM     13  C   UNL A   1      31.944  22.002  25.062  1.00  0.00     0.027 A 
ATOM     14  C   UNL A   1      31.035  22.682  25.847  1.00  0.00     0.002 A 
ATOM     15  C   UNL A   1      31.332  24.591  24.385  1.00  0.00     0.016 A 
ATOM     16  C   UNL A   1      30.740  23.990  25.515  1.00  0.00     0.001 A 
BRANCH  12  17
ATOM     17  N   UNL A   1      33.864  22.028  23.766  1.00  0.00    -0.352 N 
ATOM     18  H   UNL A   1      34.059  21.701  22.857  1.00  0.00     0.167 HD
BRANCH  17  19
ATOM     19  C   UNL A   1      34.844  21.846  24.764  1.00  0.00     0.077 A 
ATOM     20  C   UNL A   1      38.033  23.790  25.717  1.00  0.00     0.046 C 
ATOM     21  C   UNL A   1      37.026  22.713  25.444  1.00  0.00    -0.030 A 
ATOM     22  C   UNL A   1      37.459  21.419  25.325  1.00  0.00     0.006 A 
ATOM     23  C   UNL A   1      35.670  22.905  25.258  1.00  0.00     0.069 A 
ATOM     24  C   UNL A   1      36.568  20.336  25.164  1.00  0.00     0.023 A 
ATOM     25  Cl  UNL A   1      35.014  24.439  25.719  1.00  0.00    -0.082 Cl
ATOM     26  C   UNL A   1      35.248  20.535  24.902  1.00  0.00     0.066 A 
ATOM     27  Cl  UNL A   1      34.256  19.182  24.482  1.00  0.00    -0.082 Cl
ENDBRANCH  17  19
ENDBRANCH  12  17
ENDBRANCH   8  11
ENDBRANCH   5   7
ENDBRANCH   3   5
ENDBRANCH   2   3
ENDBRANCH   1   2
BRANCH   1  28
ATOM     28  C   UNL A   1      33.445  29.271  26.242  1.00  0.00     0.275 C 
BRANCH  28  29
ATOM     29  O   UNL A   1      33.644  29.631  27.670  1.00  0.00    -0.458 OA
BRANCH  29  30
ATOM     30  C   UNL A   1      34.489  30.697  27.981  1.00  0.00     0.338 C 
ATOM     31  O   UNL A   1      34.085  31.835  28.170  1.00  0.00    -0.246 OA
BRANCH  30  32
ATOM     32  C   UNL A   1      35.948  30.312  28.303  1.00  0.00     0.060 A 
ATOM     33  C   UNL A   1      36.951  30.376  27.349  1.00  0.00     0.016 A 
ATOM     34  C   UNL A   1      36.312  29.681  29.513  1.00  0.00     0.016 A 
ATOM     35  C   UNL A   1      38.162  29.659  27.519  1.00  0.00     0.010 A 
ATOM     36  C   UNL A   1      37.630  29.145  29.744  1.00  0.00     0.010 A 
ATOM     37  C   UNL A   1      38.609  29.121  28.740  1.00  0.00    -0.014 A 
BRANCH  37  38
ATOM     38  C   UNL A   1      40.080  28.691  28.918  1.00  0.00     0.031 A 
ATOM     39  C   UNL A   1      41.238  29.623  29.303  1.00  0.00     0.074 A 
ATOM     40  C   UNL A   1      40.446  27.394  28.714  1.00  0.00     0.049 A 
ATOM     41  N   UNL A   1      42.540  29.416  29.206  1.00  0.00    -0.248 NA
ATOM     42  C   UNL A   1      40.911  30.923  29.899  1.00  0.00     0.031 C 
ATOM     43  C   UNL A   1      39.549  26.284  28.391  1.00  0.00     0.029 A 
ATOM     44  N   UNL A   1      41.689  26.778  28.741  1.00  0.00    -0.354 N 
ATOM     45  C   UNL A   1      43.175  30.567  29.681  1.00  0.00     0.074 A 
ATOM     46  C   UNL A   1      42.112  31.457  30.107  1.00  0.00     0.031 C 
ATOM     47  C   UNL A   1      40.229  25.138  28.342  1.00  0.00     0.029 A 
ATOM     48  C   UNL A   1      41.647  25.444  28.395  1.00  0.00     0.049 A 
ATOM     49  H   UNL A   1      42.520  27.247  28.982  1.00  0.00     0.167 HD
ATOM     50  C   UNL A   1      44.503  30.869  29.744  1.00  0.00     0.037 A 
ATOM     51  C   UNL A   1      42.584  24.553  28.016  1.00  0.00     0.037 A 
ATOM     52  C   UNL A   1      45.594  29.995  29.361  1.00  0.00     0.049 A 
ATOM     53  C   UNL A   1      44.018  24.949  27.907  1.00  0.00     0.074 A 
ATOM     54  C   UNL A   1      46.961  30.247  29.398  1.00  0.00     0.029 A 
ATOM     55  N   UNL A   1      45.455  28.707  28.873  1.00  0.00    -0.354 N 
ATOM     56  N   UNL A   1      44.580  26.084  28.230  1.00  0.00    -0.248 NA
ATOM     57  C   UNL A   1      44.940  23.955  27.339  1.00  0.00     0.031 C 
ATOM     58  C   UNL A   1      47.641  29.138  28.881  1.00  0.00     0.029 A 
ATOM     59  C   UNL A   1      46.703  28.173  28.570  1.00  0.00     0.049 A 
ATOM     60  H   UNL A   1      44.598  28.238  28.758  1.00  0.00     0.167 HD
ATOM     61  C   UNL A   1      45.919  25.943  27.900  1.00  0.00     0.074 A 
ATOM     62  C   UNL A   1      46.093  24.607  27.376  1.00  0.00     0.031 C 
ATOM     63  C   UNL A   1      46.907  26.859  28.022  1.00  0.00     0.037 A 
BRANCH  50  64
ATOM     64  C   UNL A   1      44.908  32.254  30.190  1.00  0.00     0.057 A 
ATOM     65  C   UNL A   1      45.256  32.549  31.512  1.00  0.00     0.134 A 
ATOM     66  C   UNL A   1      45.095  33.269  29.236  1.00  0.00     0.134 A 
ATOM     67  F   UNL A   1      45.124  31.623  32.473  1.00  0.00    -0.206 F 
ATOM     68  C   UNL A   1      45.763  33.803  31.873  1.00  0.00     0.040 A 
ATOM     69  C   UNL A   1      45.619  34.517  29.580  1.00  0.00     0.040 A 
ATOM     70  F   UNL A   1      44.818  33.044  27.942  1.00  0.00    -0.206 F 
ATOM     71  C   UNL A   1      45.954  34.789  30.904  1.00  0.00     0.006 A 
ENDBRANCH  50  64
BRANCH  51  72
ATOM     72  C   UNL A   1      42.147  23.209  27.546  1.00  0.00     0.057 A 
ATOM     73  C   UNL A   1      41.968  22.149  28.437  1.00  0.00     0.134 A 
ATOM     74  C   UNL A   1      41.855  22.979  26.193  1.00  0.00     0.134 A 
ATOM     75  F   UNL A   1      42.265  22.299  29.735  1.00  0.00    -0.206 F 
ATOM     76  C   UNL A   1      41.495  20.911  28.002  1.00  0.00     0.040 A 
ATOM     77  C   UNL A   1      41.345  21.761  25.752  1.00  0.00     0.040 A 
ATOM     78  F   UNL A   1      42.007  23.961  25.290  1.00  0.00    -0.206 F 
ATOM     79  C   UNL A   1      41.166  20.720  26.659  1.00  0.00     0.006 A 
ENDBRANCH  51  72
BRANCH  63  80
ATOM     80  C   UNL A   1      48.281  26.439  27.593  1.00  0.00     0.057 A 
ATOM     81  C   UNL A   1      48.758  26.703  26.302  1.00  0.00     0.134 A 
ATOM     82  C   UNL A   1      49.128  25.744  28.465  1.00  0.00     0.134 A 
ATOM     83  F   UNL A   1      47.986  27.341  25.410  1.00  0.00    -0.206 F 
ATOM     84  C   UNL A   1      50.020  26.273  25.887  1.00  0.00     0.040 A 
ATOM     85  C   UNL A   1      50.400  25.326  28.068  1.00  0.00     0.040 A 
ATOM     86  F   UNL A   1      48.732  25.454  29.712  1.00  0.00    -0.206 F 
ATOM     87  C   UNL A   1      50.846  25.585  26.773  1.00  0.00     0.006 A 
ENDBRANCH  63  80
ENDBRANCH  37  38
ENDBRANCH  30  32
ENDBRANCH  29  30
ENDBRANCH  28  29
ENDBRANCH   1  28
TORSDOF 15
ENDMDL
MODEL 3
REMARK VINA RESULT:     -10.2      5.404     10.096
REMARK SMILES Cc1ccc(Cl)c(Nc2ccccc2C(=O)N[C@@H](C)C(=O)OCCOC(=O)c2ccc(-c3c4nc(c(-c5c(F)cccc5F)c5ccc([nH]5)c(-c5c(F)cccc5F)c5nc(c(-c6c(F)cccc6F)c6ccc3[nH]6)C=C5)C=C4)cc2)c1Cl
REMARK SMILES IDX 23 1 22 2 20 3 21 4 18 5 19 6 17 7 15 8 16 9 14 11 9 12
REMARK SMILES IDX 10 13 11 14 13 15 12 16 8 17 7 19 1 20 2 21 3 22 82 23 4 24
REMARK SMILES IDX 83 25 5 26 6 27 24 28 25 29 26 30 27 31 28 32 29 33 81 34
REMARK SMILES IDX 30 35 80 36 31 37 32 38 33 39 74 40 34 41 79 42 73 43 75 44
REMARK SMILES IDX 35 45 78 46 72 47 71 48 36 50 62 51 45 52 61 53 46 54 49 55
REMARK SMILES IDX 60 56 76 57 47 58 48 59 59 61 77 62 50 63 37 64 38 65 43 66
REMARK SMILES IDX 39 67 40 68 42 69 44 70 41 71 63 72 64 73 69 74 65 75 66 76
REMARK SMILES IDX 68 77 70 78 67 79 51 80 52 81 57 82 53 83 54 84 56 85 58 86
REMARK SMILES IDX 55 87
REMARK H PARENT 17 10 8 18 75 49 49 60
REMARK Flexibility Score: inf
ROOT
ATOM      1  C   UNL A   1      30.464  30.275  24.006  1.00  0.00     0.274 C 
ENDROOT
BRANCH   1   2
ATOM      2  O   UNL A   1      30.497  28.789  23.964  1.00  0.00    -0.461 OA
BRANCH   2   3
ATOM      3  C   UNL A   1      31.063  28.027  22.953  1.00  0.00     0.328 C 
ATOM      4  O   UNL A   1      30.463  27.711  21.949  1.00  0.00    -0.250 OA
BRANCH   3   5
ATOM      5  C   UNL A   1      32.597  27.583  23.266  1.00  0.00     0.189 C 
ATOM      6  C   UNL A   1      33.565  28.647  22.752  1.00  0.00     0.043 C 
BRANCH   5   7
ATOM      7  N   UNL A   1      32.922  26.246  22.672  1.00  0.00    -0.339 N 
ATOM      8  C   UNL A   1      32.858  24.874  22.844  1.00  0.00     0.254 C 
ATOM      9  O   UNL A   1      33.485  24.319  21.920  1.00  0.00    -0.269 OA
ATOM     10  H   UNL A   1      33.359  26.411  21.805  1.00  0.00     0.164 HD
BRANCH   8  11
ATOM     11  C   UNL A   1      32.218  23.898  23.856  1.00  0.00     0.063 A 
ATOM     12  C   UNL A   1      32.485  22.552  24.204  1.00  0.00     0.051 A 
ATOM     13  C   UNL A   1      31.773  21.881  25.243  1.00  0.00     0.027 A 
ATOM     14  C   UNL A   1      30.900  22.556  26.073  1.00  0.00     0.002 A 
ATOM     15  C   UNL A   1      31.267  24.526  24.712  1.00  0.00     0.016 A 
ATOM     16  C   UNL A   1      30.659  23.891  25.815  1.00  0.00     0.001 A 
BRANCH  12  17
ATOM     17  N   UNL A   1      33.681  21.894  23.929  1.00  0.00    -0.352 N 
ATOM     18  H   UNL A   1      33.811  21.524  23.026  1.00  0.00     0.167 HD
BRANCH  17  19
ATOM     19  C   UNL A   1      34.716  21.732  24.873  1.00  0.00     0.077 A 
ATOM     20  C   UNL A   1      37.793  23.859  25.804  1.00  0.00     0.046 C 
ATOM     21  C   UNL A   1      36.857  22.724  25.511  1.00  0.00    -0.030 A 
ATOM     22  C   UNL A   1      37.378  21.476  25.297  1.00  0.00     0.006 A 
ATOM     23  C   UNL A   1      35.483  22.822  25.393  1.00  0.00     0.069 A 
ATOM     24  C   UNL A   1      36.563  20.339  25.111  1.00  0.00     0.023 A 
ATOM     25  Cl  UNL A   1      34.738  24.274  25.971  1.00  0.00    -0.082 Cl
ATOM     26  C   UNL A   1      35.222  20.450  24.916  1.00  0.00     0.066 A 
ATOM     27  Cl  UNL A   1      34.315  19.051  24.459  1.00  0.00    -0.082 Cl
ENDBRANCH  17  19
ENDBRANCH  12  17
ENDBRANCH   8  11
ENDBRANCH   5   7
ENDBRANCH   3   5
ENDBRANCH   2   3
ENDBRANCH   1   2
BRANCH   1  28
ATOM     28  C   UNL A   1      30.668  31.118  25.383  1.00  0.00     0.275 C 
BRANCH  28  29
ATOM     29  O   UNL A   1      31.848  30.861  26.248  1.00  0.00    -0.458 OA
BRANCH  29  30
ATOM     30  C   UNL A   1      32.418  31.932  26.938  1.00  0.00     0.338 C 
ATOM     31  O   UNL A   1      31.792  32.933  27.252  1.00  0.00    -0.246 OA
BRANCH  30  32
ATOM     32  C   UNL A   1      33.837  31.680  27.489  1.00  0.00     0.060 A 
ATOM     33  C   UNL A   1      34.316  30.402  27.724  1.00  0.00     0.016 A 
ATOM     34  C   UNL A   1      34.652  32.725  27.980  1.00  0.00     0.016 A 
ATOM     35  C   UNL A   1      35.423  30.187  28.584  1.00  0.00     0.010 A 
ATOM     36  C   UNL A   1      35.894  32.482  28.672  1.00  0.00     0.010 A 
ATOM     37  C   UNL A   1      36.323  31.187  28.995  1.00  0.00    -0.014 A 
BRANCH  37  38
ATOM     38  C   UNL A   1      37.685  30.812  29.615  1.00  0.00     0.031 A 
ATOM     39  C   UNL A   1      38.735  29.897  28.966  1.00  0.00     0.074 A 
ATOM     40  C   UNL A   1      38.036  31.287  30.843  1.00  0.00     0.049 A 
ATOM     41  N   UNL A   1      39.778  29.303  29.520  1.00  0.00    -0.248 NA
ATOM     42  C   UNL A   1      38.633  29.641  27.525  1.00  0.00     0.031 C 
ATOM     43  C   UNL A   1      37.259  32.216  31.664  1.00  0.00     0.029 A 
ATOM     44  N   UNL A   1      39.151  31.047  31.634  1.00  0.00    -0.354 N 
ATOM     45  C   UNL A   1      40.419  28.576  28.514  1.00  0.00     0.074 A 
ATOM     46  C   UNL A   1      39.669  28.836  27.300  1.00  0.00     0.031 C 
ATOM     47  C   UNL A   1      37.935  32.535  32.768  1.00  0.00     0.029 A 
ATOM     48  C   UNL A   1      39.092  31.664  32.865  1.00  0.00     0.049 A 
ATOM     49  H   UNL A   1      39.909  30.491  31.345  1.00  0.00     0.167 HD
ATOM     50  C   UNL A   1      41.508  27.759  28.585  1.00  0.00     0.037 A 
ATOM     51  C   UNL A   1      39.764  31.497  34.021  1.00  0.00     0.037 A 
ATOM     52  C   UNL A   1      42.302  27.501  29.770  1.00  0.00     0.049 A 
ATOM     53  C   UNL A   1      40.834  30.464  34.142  1.00  0.00     0.074 A 
ATOM     54  C   UNL A   1      43.416  26.679  29.905  1.00  0.00     0.029 A 
ATOM     55  N   UNL A   1      42.079  28.052  31.020  1.00  0.00    -0.354 N 
ATOM     56  N   UNL A   1      41.332  29.690  33.215  1.00  0.00    -0.248 NA
ATOM     57  C   UNL A   1      41.401  30.251  35.481  1.00  0.00     0.031 C 
ATOM     58  C   UNL A   1      43.827  26.689  31.243  1.00  0.00     0.029 A 
ATOM     59  C   UNL A   1      43.004  27.558  31.933  1.00  0.00     0.049 A 
ATOM     60  H   UNL A   1      41.370  28.700  31.231  1.00  0.00     0.167 HD
ATOM     61  C   UNL A   1      42.268  28.895  33.858  1.00  0.00     0.074 A 
ATOM     62  C   UNL A   1      42.289  29.295  35.247  1.00  0.00     0.031 C 
ATOM     63  C   UNL A   1      43.033  27.914  33.326  1.00  0.00     0.037 A 
BRANCH  50  64
ATOM     64  C   UNL A   1      41.914  26.989  27.352  1.00  0.00     0.057 A 
ATOM     65  C   UNL A   1      42.829  27.488  26.418  1.00  0.00     0.134 A 
ATOM     66  C   UNL A   1      41.490  25.659  27.186  1.00  0.00     0.134 A 
ATOM     67  F   UNL A   1      43.295  28.741  26.524  1.00  0.00    -0.206 F 
ATOM     68  C   UNL A   1      43.297  26.700  25.359  1.00  0.00     0.040 A 
ATOM     69  C   UNL A   1      41.965  24.857  26.146  1.00  0.00     0.040 A 
ATOM     70  F   UNL A   1      40.643  25.103  28.065  1.00  0.00    -0.206 F 
ATOM     71  C   UNL A   1      42.872  25.378  25.226  1.00  0.00     0.006 A 
ENDBRANCH  50  64
BRANCH  51  72
ATOM     72  C   UNL A   1      39.313  32.244  35.227  1.00  0.00     0.057 A 
ATOM     73  C   UNL A   1      39.752  33.545  35.485  1.00  0.00     0.134 A 
ATOM     74  C   UNL A   1      38.391  31.679  36.121  1.00  0.00     0.134 A 
ATOM     75  F   UNL A   1      40.658  34.123  34.686  1.00  0.00    -0.206 F 
ATOM     76  C   UNL A   1      39.275  34.265  36.581  1.00  0.00     0.040 A 
ATOM     77  C   UNL A   1      37.878  32.400  37.197  1.00  0.00     0.040 A 
ATOM     78  F   UNL A   1      37.933  30.432  35.926  1.00  0.00    -0.206 F 
ATOM     79  C   UNL A   1      38.323  33.699  37.430  1.00  0.00     0.006 A 
ENDBRANCH  51  72
BRANCH  63  80
ATOM     80  C   UNL A   1      43.978  27.209  34.253  1.00  0.00     0.057 A 
ATOM     81  C   UNL A   1      43.613  26.026  34.909  1.00  0.00     0.134 A 
ATOM     82  C   UNL A   1      45.253  27.727  34.513  1.00  0.00     0.134 A 
ATOM     83  F   UNL A   1      42.396  25.494  34.724  1.00  0.00    -0.206 F 
ATOM     84  C   UNL A   1      44.476  25.394  35.807  1.00  0.00     0.040 A 
ATOM     85  C   UNL A   1      46.131  27.092  35.394  1.00  0.00     0.040 A 
ATOM     86  F   UNL A   1      45.662  28.858  33.923  1.00  0.00    -0.206 F 
ATOM     87  C   UNL A   1      45.741  25.926  36.049  1.00  0.00     0.006 A 
ENDBRANCH  63  80
ENDBRANCH  37  38
ENDBRANCH  30  32
ENDBRANCH  29  30
ENDBRANCH  28  29
ENDBRANCH   1  28
TORSDOF 15
ENDMDL
