MODEL 1
REMARK VINA RESULT:     -12.1      0.000      0.000
REMARK SMILES Nc1c(Nc2ccc(I)cc2)ncnc1Nc1ccc(C(=O)OCCOC(=O)c2ccc(-c3c4nc(c(-c5c(F)cccc5F)c5ccc([nH]5)c(-c5c(F)cccc5F)c5nc(c(-c6c(F)cccc6F)c6ccc3[nH]6)C=C5)C=C4)cc2)cc1
REMARK SMILES IDX 24 1 23 2 21 3 22 4 20 5 17 6 18 7 84 8 19 9 83 10 16 11
REMARK SMILES IDX 15 13 2 14 3 15 12 16 14 17 13 18 1 19 4 22 5 24 6 25 11 26
REMARK SMILES IDX 7 27 10 28 8 29 9 30 25 31 26 32 27 33 28 34 29 35 30 36
REMARK SMILES IDX 82 37 31 38 81 39 32 40 33 41 34 42 75 43 35 44 80 45 74 46
REMARK SMILES IDX 76 47 36 48 79 49 73 50 72 51 37 53 63 54 46 55 62 56 47 57
REMARK SMILES IDX 50 58 61 59 77 60 48 61 49 62 60 64 78 65 51 66 38 67 39 68
REMARK SMILES IDX 44 69 40 70 41 71 43 72 45 73 42 74 64 75 65 76 70 77 66 78
REMARK SMILES IDX 67 79 69 80 71 81 68 82 52 83 53 84 58 85 54 86 55 87 57 88
REMARK SMILES IDX 59 89 56 90
REMARK H PARENT 16 12 1 20 1 21 4 23 76 52 50 63
REMARK Flexibility Score: inf
ROOT
ATOM      1  C   UNL A   1      42.557  21.002  26.033  1.00  0.00     0.275 C 
ENDROOT
BRANCH   1   2
ATOM      2  O   UNL A   1      41.241  21.387  25.586  1.00  0.00    -0.458 OA
BRANCH   2   3
ATOM      3  C   UNL A   1      40.299  21.456  26.558  1.00  0.00     0.338 C 
ATOM      4  O   UNL A   1      40.475  21.320  27.754  1.00  0.00    -0.246 OA
BRANCH   3   5
ATOM      5  C   UNL A   1      38.983  21.817  25.984  1.00  0.00     0.060 A 
ATOM      6  C   UNL A   1      36.375  22.521  25.243  1.00  0.00     0.040 A 
ATOM      7  C   UNL A   1      37.231  23.482  25.779  1.00  0.00     0.027 A 
ATOM      8  C   UNL A   1      36.854  21.218  25.030  1.00  0.00     0.027 A 
ATOM      9  C   UNL A   1      38.512  23.121  26.179  1.00  0.00     0.018 A 
ATOM     10  C   UNL A   1      38.163  20.867  25.376  1.00  0.00     0.018 A 
BRANCH   6  11
ATOM     11  N   UNL A   1      34.992  22.805  25.207  1.00  0.00    -0.338 N 
ATOM     12  H   UNL A   1      34.418  22.503  25.947  1.00  0.00     0.168 HD
BRANCH  11  13
ATOM     13  C   UNL A   1      34.411  23.519  24.121  1.00  0.00     0.159 A 
ATOM     14  C   UNL A   1      34.078  24.866  24.287  1.00  0.00     0.118 A 
ATOM     15  C   UNL A   1      33.544  25.485  23.146  1.00  0.00     0.159 A 
ATOM     16  N   UNL A   1      33.273  24.815  22.010  1.00  0.00    -0.217 NA
ATOM     17  N   UNL A   1      34.187  22.854  22.969  1.00  0.00    -0.217 NA
ATOM     18  C   UNL A   1      33.612  23.530  21.978  1.00  0.00     0.226 A 
BRANCH  14  19
ATOM     19  N   UNL A   1      34.333  25.582  25.466  1.00  0.00    -0.393 N 
ATOM     20  H   UNL A   1      33.824  25.380  26.284  1.00  0.00     0.156 HD
ATOM     21  H   UNL A   1      35.021  26.286  25.475  1.00  0.00     0.156 HD
ENDBRANCH  14  19
BRANCH  15  22
ATOM     22  N   UNL A   1      33.322  26.885  23.191  1.00  0.00    -0.338 N 
ATOM     23  H   UNL A   1      34.118  27.463  23.214  1.00  0.00     0.168 HD
BRANCH  22  24
ATOM     24  C   UNL A   1      32.069  27.524  23.207  1.00  0.00     0.040 A 
ATOM     25  C   UNL A   1      31.909  28.735  22.522  1.00  0.00     0.027 A 
ATOM     26  C   UNL A   1      30.942  26.928  23.785  1.00  0.00     0.027 A 
ATOM     27  C   UNL A   1      30.649  29.326  22.398  1.00  0.00     0.017 A 
ATOM     28  C   UNL A   1      29.680  27.519  23.677  1.00  0.00     0.017 A 
ATOM     29  C   UNL A   1      29.537  28.712  22.972  1.00  0.00     0.013 A 
ATOM     30  I   UNL A   1      27.656  29.564  22.751  1.00  0.00    -0.044 I 
ENDBRANCH  22  24
ENDBRANCH  15  22
ENDBRANCH  11  13
ENDBRANCH   6  11
ENDBRANCH   3   5
ENDBRANCH   2   3
ENDBRANCH   1   2
BRANCH   1  31
ATOM     31  C   UNL A   1      43.629  21.877  25.384  1.00  0.00     0.275 C 
BRANCH  31  32
ATOM     32  O   UNL A   1      43.044  23.089  24.872  1.00  0.00    -0.458 OA
BRANCH  32  33
ATOM     33  C   UNL A   1      43.767  24.216  25.053  1.00  0.00     0.338 C 
ATOM     34  O   UNL A   1      44.796  24.544  24.485  1.00  0.00    -0.246 OA
BRANCH  33  35
ATOM     35  C   UNL A   1      43.112  25.071  26.055  1.00  0.00     0.060 A 
ATOM     36  C   UNL A   1      43.531  26.389  26.190  1.00  0.00     0.016 A 
ATOM     37  C   UNL A   1      42.189  24.542  26.953  1.00  0.00     0.016 A 
ATOM     38  C   UNL A   1      43.133  27.145  27.287  1.00  0.00     0.010 A 
ATOM     39  C   UNL A   1      41.683  25.350  27.981  1.00  0.00     0.010 A 
ATOM     40  C   UNL A   1      42.177  26.651  28.186  1.00  0.00    -0.014 A 
BRANCH  40  41
ATOM     41  C   UNL A   1      41.716  27.502  29.325  1.00  0.00     0.031 A 
ATOM     42  C   UNL A   1      42.475  27.530  30.628  1.00  0.00     0.074 A 
ATOM     43  C   UNL A   1      40.630  28.289  29.178  1.00  0.00     0.049 A 
ATOM     44  N   UNL A   1      42.172  28.138  31.748  1.00  0.00    -0.248 NA
ATOM     45  C   UNL A   1      43.735  26.770  30.687  1.00  0.00     0.031 C 
ATOM     46  C   UNL A   1      39.815  28.389  27.966  1.00  0.00     0.029 A 
ATOM     47  N   UNL A   1      40.038  29.179  30.042  1.00  0.00    -0.354 N 
ATOM     48  C   UNL A   1      43.171  27.797  32.652  1.00  0.00     0.074 A 
ATOM     49  C   UNL A   1      44.085  26.918  31.957  1.00  0.00     0.031 C 
ATOM     50  C   UNL A   1      38.884  29.340  28.134  1.00  0.00     0.029 A 
ATOM     51  C   UNL A   1      38.969  29.850  29.496  1.00  0.00     0.049 A 
ATOM     52  H   UNL A   1      40.350  29.323  30.965  1.00  0.00     0.167 HD
ATOM     53  C   UNL A   1      43.316  28.189  33.941  1.00  0.00     0.037 A 
ATOM     54  C   UNL A   1      38.128  30.757  30.032  1.00  0.00     0.037 A 
ATOM     55  C   UNL A   1      42.435  29.105  34.618  1.00  0.00     0.049 A 
ATOM     56  C   UNL A   1      38.291  31.148  31.470  1.00  0.00     0.074 A 
ATOM     57  C   UNL A   1      42.508  29.561  35.924  1.00  0.00     0.029 A 
ATOM     58  N   UNL A   1      41.335  29.718  34.041  1.00  0.00    -0.354 N 
ATOM     59  N   UNL A   1      39.211  30.775  32.325  1.00  0.00    -0.248 NA
ATOM     60  C   UNL A   1      37.286  32.064  32.029  1.00  0.00     0.031 C 
ATOM     61  C   UNL A   1      41.431  30.425  36.146  1.00  0.00     0.029 A 
ATOM     62  C   UNL A   1      40.714  30.541  34.966  1.00  0.00     0.049 A 
ATOM     63  H   UNL A   1      41.038  29.589  33.111  1.00  0.00     0.167 HD
ATOM     64  C   UNL A   1      38.904  31.416  33.517  1.00  0.00     0.074 A 
ATOM     65  C   UNL A   1      37.722  32.217  33.272  1.00  0.00     0.031 C 
ATOM     66  C   UNL A   1      39.545  31.340  34.708  1.00  0.00     0.037 A 
BRANCH  53  67
ATOM     67  C   UNL A   1      44.467  27.620  34.721  1.00  0.00     0.057 A 
ATOM     68  C   UNL A   1      45.687  28.295  34.842  1.00  0.00     0.134 A 
ATOM     69  C   UNL A   1      44.325  26.412  35.418  1.00  0.00     0.134 A 
ATOM     70  F   UNL A   1      45.891  29.452  34.193  1.00  0.00    -0.206 F 
ATOM     71  C   UNL A   1      46.731  27.783  35.615  1.00  0.00     0.040 A 
ATOM     72  C   UNL A   1      45.352  25.903  36.215  1.00  0.00     0.040 A 
ATOM     73  F   UNL A   1      43.178  25.719  35.355  1.00  0.00    -0.206 F 
ATOM     74  C   UNL A   1      46.561  26.588  36.313  1.00  0.00     0.006 A 
ENDBRANCH  53  67
BRANCH  54  75
ATOM     75  C   UNL A   1      37.050  31.345  29.195  1.00  0.00     0.057 A 
ATOM     76  C   UNL A   1      35.906  30.606  28.874  1.00  0.00     0.134 A 
ATOM     77  C   UNL A   1      37.117  32.664  28.730  1.00  0.00     0.134 A 
ATOM     78  F   UNL A   1      35.793  29.330  29.270  1.00  0.00    -0.206 F 
ATOM     79  C   UNL A   1      34.867  31.158  28.122  1.00  0.00     0.040 A 
ATOM     80  C   UNL A   1      36.074  33.238  28.004  1.00  0.00     0.040 A 
ATOM     81  F   UNL A   1      38.185  33.426  29.007  1.00  0.00    -0.206 F 
ATOM     82  C   UNL A   1      34.945  32.483  27.695  1.00  0.00     0.006 A 
ENDBRANCH  54  75
BRANCH  66  83
ATOM     83  C   UNL A   1      39.001  32.159  35.840  1.00  0.00     0.057 A 
ATOM     84  C   UNL A   1      38.177  31.598  36.822  1.00  0.00     0.134 A 
ATOM     85  C   UNL A   1      39.374  33.501  35.991  1.00  0.00     0.134 A 
ATOM     86  F   UNL A   1      37.778  30.321  36.727  1.00  0.00    -0.206 F 
ATOM     87  C   UNL A   1      37.738  32.346  37.916  1.00  0.00     0.040 A 
ATOM     88  C   UNL A   1      38.959  34.253  37.091  1.00  0.00     0.040 A 
ATOM     89  F   UNL A   1      40.170  34.093  35.087  1.00  0.00    -0.206 F 
ATOM     90  C   UNL A   1      38.137  33.673  38.057  1.00  0.00     0.006 A 
ENDBRANCH  66  83
ENDBRANCH  40  41
ENDBRANCH  33  35
ENDBRANCH  32  33
ENDBRANCH  31  32
ENDBRANCH   1  31
TORSDOF 16
ENDMDL
MODEL 2
REMARK VINA RESULT:     -12.0      5.887     11.478
REMARK SMILES Nc1c(Nc2ccc(I)cc2)ncnc1Nc1ccc(C(=O)OCCOC(=O)c2ccc(-c3c4nc(c(-c5c(F)cccc5F)c5ccc([nH]5)c(-c5c(F)cccc5F)c5nc(c(-c6c(F)cccc6F)c6ccc3[nH]6)C=C5)C=C4)cc2)cc1
REMARK SMILES IDX 24 1 23 2 21 3 22 4 20 5 17 6 18 7 84 8 19 9 83 10 16 11
REMARK SMILES IDX 15 13 2 14 3 15 12 16 14 17 13 18 1 19 4 22 5 24 6 25 11 26
REMARK SMILES IDX 7 27 10 28 8 29 9 30 25 31 26 32 27 33 28 34 29 35 30 36
REMARK SMILES IDX 82 37 31 38 81 39 32 40 33 41 34 42 75 43 35 44 80 45 74 46
REMARK SMILES IDX 76 47 36 48 79 49 73 50 72 51 37 53 63 54 46 55 62 56 47 57
REMARK SMILES IDX 50 58 61 59 77 60 48 61 49 62 60 64 78 65 51 66 38 67 39 68
REMARK SMILES IDX 44 69 40 70 41 71 43 72 45 73 42 74 64 75 65 76 70 77 66 78
REMARK SMILES IDX 67 79 69 80 71 81 68 82 52 83 53 84 58 85 54 86 55 87 57 88
REMARK SMILES IDX 59 89 56 90
REMARK H PARENT 16 12 1 20 1 21 4 23 76 52 50 63
REMARK Flexibility Score: inf
ROOT
ATOM      1  C   UNL A   1      33.279  37.034  30.719  1.00  0.00     0.275 C 
ENDROOT
BRANCH   1   2
ATOM      2  O   UNL A   1      32.940  36.341  31.937  1.00  0.00    -0.458 OA
BRANCH   2   3
ATOM      3  C   UNL A   1      33.807  36.523  32.964  1.00  0.00     0.338 C 
ATOM      4  O   UNL A   1      34.010  37.557  33.572  1.00  0.00    -0.246 OA
BRANCH   3   5
ATOM      5  C   UNL A   1      34.449  35.242  33.337  1.00  0.00     0.060 A 
ATOM      6  C   UNL A   1      35.891  32.879  33.762  1.00  0.00     0.040 A 
ATOM      7  C   UNL A   1      36.450  34.108  34.109  1.00  0.00     0.027 A 
ATOM      8  C   UNL A   1      34.583  32.838  33.253  1.00  0.00     0.027 A 
ATOM      9  C   UNL A   1      35.745  35.281  33.863  1.00  0.00     0.018 A 
ATOM     10  C   UNL A   1      33.849  34.014  33.061  1.00  0.00     0.018 A 
BRANCH   6  11
ATOM     11  N   UNL A   1      36.749  31.762  33.660  1.00  0.00    -0.338 N 
ATOM     12  H   UNL A   1      36.646  31.143  32.902  1.00  0.00     0.168 HD
BRANCH  11  13
ATOM     13  C   UNL A   1      37.758  31.511  34.632  1.00  0.00     0.159 A 
ATOM     14  C   UNL A   1      38.903  30.799  34.263  1.00  0.00     0.118 A 
ATOM     15  C   UNL A   1      39.850  30.637  35.286  1.00  0.00     0.159 A 
ATOM     16  N   UNL A   1      39.636  31.041  36.552  1.00  0.00    -0.217 NA
ATOM     17  N   UNL A   1      37.559  31.961  35.888  1.00  0.00    -0.217 NA
ATOM     18  C   UNL A   1      38.498  31.688  36.789  1.00  0.00     0.226 A 
BRANCH  14  19
ATOM     19  N   UNL A   1      39.141  30.351  32.956  1.00  0.00    -0.393 N 
ATOM     20  H   UNL A   1      38.659  29.567  32.608  1.00  0.00     0.156 HD
ATOM     21  H   UNL A   1      39.792  30.822  32.386  1.00  0.00     0.156 HD
ENDBRANCH  14  19
BRANCH  15  22
ATOM     22  N   UNL A   1      41.100  30.057  34.949  1.00  0.00    -0.338 N 
ATOM     23  H   UNL A   1      41.797  30.664  34.610  1.00  0.00     0.168 HD
BRANCH  22  24
ATOM     24  C   UNL A   1      41.436  28.696  35.054  1.00  0.00     0.040 A 
ATOM     25  C   UNL A   1      41.518  27.919  33.892  1.00  0.00     0.027 A 
ATOM     26  C   UNL A   1      41.810  28.118  36.273  1.00  0.00     0.027 A 
ATOM     27  C   UNL A   1      41.984  26.602  33.943  1.00  0.00     0.017 A 
ATOM     28  C   UNL A   1      42.266  26.798  36.335  1.00  0.00     0.017 A 
ATOM     29  C   UNL A   1      42.362  26.049  35.165  1.00  0.00     0.013 A 
ATOM     30  I   UNL A   1      43.098  24.108  35.237  1.00  0.00    -0.044 I 
ENDBRANCH  22  24
ENDBRANCH  15  22
ENDBRANCH  11  13
ENDBRANCH   6  11
ENDBRANCH   3   5
ENDBRANCH   2   3
ENDBRANCH   1   2
BRANCH   1  31
ATOM     31  C   UNL A   1      32.509  36.454  29.533  1.00  0.00     0.275 C 
BRANCH  31  32
ATOM     32  O   UNL A   1      33.419  35.861  28.587  1.00  0.00    -0.458 OA
BRANCH  32  33
ATOM     33  C   UNL A   1      33.247  34.542  28.348  1.00  0.00     0.338 C 
ATOM     34  O   UNL A   1      32.234  33.976  27.971  1.00  0.00    -0.246 OA
BRANCH  33  35
ATOM     35  C   UNL A   1      34.511  33.826  28.582  1.00  0.00     0.060 A 
ATOM     36  C   UNL A   1      34.554  32.845  29.565  1.00  0.00     0.016 A 
ATOM     37  C   UNL A   1      35.682  34.212  27.936  1.00  0.00     0.016 A 
ATOM     38  C   UNL A   1      35.774  32.337  29.999  1.00  0.00     0.010 A 
ATOM     39  C   UNL A   1      36.895  33.598  28.278  1.00  0.00     0.010 A 
ATOM     40  C   UNL A   1      36.965  32.680  29.341  1.00  0.00    -0.014 A 
BRANCH  40  41
ATOM     41  C   UNL A   1      38.258  32.076  29.782  1.00  0.00     0.031 A 
ATOM     42  C   UNL A   1      39.132  32.769  30.797  1.00  0.00     0.074 A 
ATOM     43  C   UNL A   1      38.637  30.873  29.298  1.00  0.00     0.049 A 
ATOM     44  N   UNL A   1      40.324  32.437  31.226  1.00  0.00    -0.248 NA
ATOM     45  C   UNL A   1      38.606  34.003  31.404  1.00  0.00     0.031 C 
ATOM     46  C   UNL A   1      37.879  30.072  28.335  1.00  0.00     0.029 A 
ATOM     47  N   UNL A   1      39.739  30.099  29.571  1.00  0.00    -0.354 N 
ATOM     48  C   UNL A   1      40.706  33.438  32.111  1.00  0.00     0.074 A 
ATOM     49  C   UNL A   1      39.627  34.399  32.150  1.00  0.00     0.031 C 
ATOM     50  C   UNL A   1      38.493  28.893  28.159  1.00  0.00     0.029 A 
ATOM     51  C   UNL A   1      39.738  28.889  28.917  1.00  0.00     0.049 A 
ATOM     52  H   UNL A   1      40.461  30.381  30.178  1.00  0.00     0.167 HD
ATOM     53  C   UNL A   1      41.850  33.540  32.831  1.00  0.00     0.037 A 
ATOM     54  C   UNL A   1      40.645  27.893  28.901  1.00  0.00     0.037 A 
ATOM     55  C   UNL A   1      42.902  32.558  32.832  1.00  0.00     0.049 A 
ATOM     56  C   UNL A   1      41.916  28.046  29.681  1.00  0.00     0.074 A 
ATOM     57  C   UNL A   1      44.096  32.577  33.534  1.00  0.00     0.029 A 
ATOM     58  N   UNL A   1      42.882  31.374  32.113  1.00  0.00    -0.354 N 
ATOM     59  N   UNL A   1      42.283  29.024  30.472  1.00  0.00    -0.248 NA
ATOM     60  C   UNL A   1      42.913  26.973  29.548  1.00  0.00     0.031 C 
ATOM     61  C   UNL A   1      44.812  31.420  33.214  1.00  0.00     0.029 A 
ATOM     62  C   UNL A   1      44.045  30.659  32.346  1.00  0.00     0.049 A 
ATOM     63  H   UNL A   1      42.148  31.082  31.523  1.00  0.00     0.167 HD
ATOM     64  C   UNL A   1      43.545  28.682  30.938  1.00  0.00     0.074 A 
ATOM     65  C   UNL A   1      43.875  27.397  30.356  1.00  0.00     0.031 C 
ATOM     66  C   UNL A   1      44.357  29.377  31.770  1.00  0.00     0.037 A 
BRANCH  53  67
ATOM     67  C   UNL A   1      42.038  34.767  33.676  1.00  0.00     0.057 A 
ATOM     68  C   UNL A   1      42.742  35.886  33.214  1.00  0.00     0.134 A 
ATOM     69  C   UNL A   1      41.447  34.855  34.945  1.00  0.00     0.134 A 
ATOM     70  F   UNL A   1      43.340  35.864  32.012  1.00  0.00    -0.206 F 
ATOM     71  C   UNL A   1      42.864  37.042  33.987  1.00  0.00     0.040 A 
ATOM     72  C   UNL A   1      41.541  36.015  35.716  1.00  0.00     0.040 A 
ATOM     73  F   UNL A   1      40.749  33.824  35.444  1.00  0.00    -0.206 F 
ATOM     74  C   UNL A   1      42.253  37.112  35.238  1.00  0.00     0.006 A 
ENDBRANCH  53  67
BRANCH  54  75
ATOM     75  C   UNL A   1      40.377  26.666  28.106  1.00  0.00     0.057 A 
ATOM     76  C   UNL A   1      39.495  25.686  28.573  1.00  0.00     0.134 A 
ATOM     77  C   UNL A   1      40.963  26.461  26.851  1.00  0.00     0.134 A 
ATOM     78  F   UNL A   1      38.919  25.813  29.777  1.00  0.00    -0.206 F 
ATOM     79  C   UNL A   1      39.202  24.547  27.819  1.00  0.00     0.040 A 
ATOM     80  C   UNL A   1      40.658  25.343  26.074  1.00  0.00     0.040 A 
ATOM     81  F   UNL A   1      41.815  27.365  26.346  1.00  0.00    -0.206 F 
ATOM     82  C   UNL A   1      39.776  24.380  26.560  1.00  0.00     0.006 A 
ENDBRANCH  54  75
BRANCH  66  83
ATOM     83  C   UNL A   1      45.676  28.760  32.125  1.00  0.00     0.057 A 
ATOM     84  C   UNL A   1      46.795  28.889  31.294  1.00  0.00     0.134 A 
ATOM     85  C   UNL A   1      45.848  28.103  33.350  1.00  0.00     0.134 A 
ATOM     86  F   UNL A   1      46.691  29.499  30.103  1.00  0.00    -0.206 F 
ATOM     87  C   UNL A   1      48.039  28.379  31.666  1.00  0.00     0.040 A 
ATOM     88  C   UNL A   1      47.092  27.608  33.743  1.00  0.00     0.040 A 
ATOM     89  F   UNL A   1      44.815  27.956  34.195  1.00  0.00    -0.206 F 
ATOM     90  C   UNL A   1      48.192  27.747  32.898  1.00  0.00     0.006 A 
ENDBRANCH  66  83
ENDBRANCH  40  41
ENDBRANCH  33  35
ENDBRANCH  32  33
ENDBRANCH  31  32
ENDBRANCH   1  31
TORSDOF 16
ENDMDL
MODEL 3
REMARK VINA RESULT:     -11.8      0.904      6.303
REMARK SMILES Nc1c(Nc2ccc(I)cc2)ncnc1Nc1ccc(C(=O)OCCOC(=O)c2ccc(-c3c4nc(c(-c5c(F)cccc5F)c5ccc([nH]5)c(-c5c(F)cccc5F)c5nc(c(-c6c(F)cccc6F)c6ccc3[nH]6)C=C5)C=C4)cc2)cc1
REMARK SMILES IDX 24 1 23 2 21 3 22 4 20 5 17 6 18 7 84 8 19 9 83 10 16 11
REMARK SMILES IDX 15 13 2 14 3 15 12 16 14 17 13 18 1 19 4 22 5 24 6 25 11 26
REMARK SMILES IDX 7 27 10 28 8 29 9 30 25 31 26 32 27 33 28 34 29 35 30 36
REMARK SMILES IDX 82 37 31 38 81 39 32 40 33 41 34 42 75 43 35 44 80 45 74 46
REMARK SMILES IDX 76 47 36 48 79 49 73 50 72 51 37 53 63 54 46 55 62 56 47 57
REMARK SMILES IDX 50 58 61 59 77 60 48 61 49 62 60 64 78 65 51 66 38 67 39 68
REMARK SMILES IDX 44 69 40 70 41 71 43 72 45 73 42 74 64 75 65 76 70 77 66 78
REMARK SMILES IDX 67 79 69 80 71 81 68 82 52 83 53 84 58 85 54 86 55 87 57 88
REMARK SMILES IDX 59 89 56 90
REMARK H PARENT 16 12 1 20 1 21 4 23 76 52 50 63
REMARK Flexibility Score: inf
ROOT
ATOM      1  C   UNL A   1      42.807  21.332  25.855  1.00  0.00     0.275 C 
ENDROOT
BRANCH   1   2
ATOM      2  O   UNL A   1      41.445  21.733  25.602  1.00  0.00    -0.458 OA
BRANCH   2   3
ATOM      3  C   UNL A   1      40.636  21.741  26.690  1.00  0.00     0.338 C 
ATOM      4  O   UNL A   1      40.956  21.499  27.838  1.00  0.00    -0.246 OA
BRANCH   3   5
ATOM      5  C   UNL A   1      39.271  22.182  26.320  1.00  0.00     0.060 A 
ATOM      6  C   UNL A   1      36.811  23.020  25.276  1.00  0.00     0.040 A 
ATOM      7  C   UNL A   1      37.230  21.702  25.101  1.00  0.00     0.027 A 
ATOM      8  C   UNL A   1      37.609  23.900  26.025  1.00  0.00     0.027 A 
ATOM      9  C   UNL A   1      38.467  21.299  25.589  1.00  0.00     0.018 A 
ATOM     10  C   UNL A   1      38.827  23.479  26.570  1.00  0.00     0.018 A 
BRANCH   6  11
ATOM     11  N   UNL A   1      35.763  23.500  24.461  1.00  0.00    -0.338 N 
ATOM     12  H   UNL A   1      35.971  23.859  23.568  1.00  0.00     0.168 HD
BRANCH  11  13
ATOM     13  C   UNL A   1      34.410  23.479  24.904  1.00  0.00     0.159 A 
ATOM     14  C   UNL A   1      33.818  24.661  25.355  1.00  0.00     0.118 A 
ATOM     15  C   UNL A   1      32.473  24.537  25.735  1.00  0.00     0.159 A 
ATOM     16  N   UNL A   1      31.827  23.356  25.766  1.00  0.00    -0.217 NA
ATOM     17  N   UNL A   1      33.753  22.300  24.885  1.00  0.00    -0.217 NA
ATOM     18  C   UNL A   1      32.501  22.295  25.335  1.00  0.00     0.226 A 
BRANCH  14  19
ATOM     19  N   UNL A   1      34.475  25.900  25.351  1.00  0.00    -0.393 N 
ATOM     20  H   UNL A   1      35.174  26.088  26.017  1.00  0.00     0.156 HD
ATOM     21  H   UNL A   1      34.235  26.581  24.682  1.00  0.00     0.156 HD
ENDBRANCH  14  19
BRANCH  15  22
ATOM     22  N   UNL A   1      31.762  25.720  26.062  1.00  0.00    -0.338 N 
ATOM     23  H   UNL A   1      31.690  25.949  27.017  1.00  0.00     0.168 HD
BRANCH  22  24
ATOM     24  C   UNL A   1      31.149  26.597  25.149  1.00  0.00     0.040 A 
ATOM     25  C   UNL A   1      29.999  26.181  24.466  1.00  0.00     0.027 A 
ATOM     26  C   UNL A   1      31.581  27.919  24.989  1.00  0.00     0.027 A 
ATOM     27  C   UNL A   1      29.284  27.071  23.660  1.00  0.00     0.017 A 
ATOM     28  C   UNL A   1      30.878  28.812  24.176  1.00  0.00     0.017 A 
ATOM     29  C   UNL A   1      29.725  28.386  23.522  1.00  0.00     0.013 A 
ATOM     30  I   UNL A   1      28.639  29.724  22.362  1.00  0.00    -0.044 I 
ENDBRANCH  22  24
ENDBRANCH  15  22
ENDBRANCH  11  13
ENDBRANCH   6  11
ENDBRANCH   3   5
ENDBRANCH   2   3
ENDBRANCH   1   2
BRANCH   1  31
ATOM     31  C   UNL A   1      43.787  22.235  25.108  1.00  0.00     0.275 C 
BRANCH  31  32
ATOM     32  O   UNL A   1      43.190  23.521  24.856  1.00  0.00    -0.458 OA
BRANCH  32  33
ATOM     33  C   UNL A   1      43.953  24.596  25.151  1.00  0.00     0.338 C 
ATOM     34  O   UNL A   1      45.023  24.913  24.657  1.00  0.00    -0.246 OA
BRANCH  33  35
ATOM     35  C   UNL A   1      43.290  25.407  26.185  1.00  0.00     0.060 A 
ATOM     36  C   UNL A   1      43.703  26.720  26.374  1.00  0.00     0.016 A 
ATOM     37  C   UNL A   1      42.366  24.838  27.057  1.00  0.00     0.016 A 
ATOM     38  C   UNL A   1      43.297  27.430  27.499  1.00  0.00     0.010 A 
ATOM     39  C   UNL A   1      41.852  25.602  28.114  1.00  0.00     0.010 A 
ATOM     40  C   UNL A   1      42.339  26.895  28.373  1.00  0.00    -0.014 A 
BRANCH  40  41
ATOM     41  C   UNL A   1      41.870  27.698  29.543  1.00  0.00     0.031 A 
ATOM     42  C   UNL A   1      40.638  28.562  29.446  1.00  0.00     0.074 A 
ATOM     43  C   UNL A   1      42.530  27.622  30.718  1.00  0.00     0.049 A 
ATOM     44  N   UNL A   1      40.138  29.392  30.328  1.00  0.00    -0.248 NA
ATOM     45  C   UNL A   1      39.869  28.496  28.192  1.00  0.00     0.031 C 
ATOM     46  C   UNL A   1      43.719  26.805  30.969  1.00  0.00     0.029 A 
ATOM     47  N   UNL A   1      42.281  28.216  31.932  1.00  0.00    -0.354 N 
ATOM     48  C   UNL A   1      39.033  29.977  29.723  1.00  0.00     0.074 A 
ATOM     49  C   UNL A   1      38.938  29.419  28.391  1.00  0.00     0.031 C 
ATOM     50  C   UNL A   1      44.047  26.886  32.266  1.00  0.00     0.029 A 
ATOM     51  C   UNL A   1      43.157  27.835  32.922  1.00  0.00     0.049 A 
ATOM     52  H   UNL A   1      41.546  28.854  32.080  1.00  0.00     0.167 HD
ATOM     53  C   UNL A   1      38.171  30.889  30.233  1.00  0.00     0.037 A 
ATOM     54  C   UNL A   1      43.257  28.221  34.209  1.00  0.00     0.037 A 
ATOM     55  C   UNL A   1      38.233  31.406  31.576  1.00  0.00     0.049 A 
ATOM     56  C   UNL A   1      42.310  29.257  34.740  1.00  0.00     0.074 A 
ATOM     57  C   UNL A   1      37.399  32.332  32.181  1.00  0.00     0.029 A 
ATOM     58  N   UNL A   1      39.170  31.031  32.526  1.00  0.00    -0.354 N 
ATOM     59  N   UNL A   1      41.303  29.837  34.136  1.00  0.00    -0.248 NA
ATOM     60  C   UNL A   1      42.529  29.712  36.121  1.00  0.00     0.031 C 
ATOM     61  C   UNL A   1      37.851  32.541  33.487  1.00  0.00     0.029 A 
ATOM     62  C   UNL A   1      38.940  31.714  33.710  1.00  0.00     0.049 A 
ATOM     63  H   UNL A   1      39.891  30.376  32.382  1.00  0.00     0.167 HD
ATOM     64  C   UNL A   1      40.761  30.716  35.063  1.00  0.00     0.074 A 
ATOM     65  C   UNL A   1      41.540  30.582  36.276  1.00  0.00     0.031 C 
ATOM     66  C   UNL A   1      39.715  31.564  34.914  1.00  0.00     0.037 A 
BRANCH  53  67
ATOM     67  C   UNL A   1      37.083  31.406  29.336  1.00  0.00     0.057 A 
ATOM     68  C   UNL A   1      35.924  30.666  29.073  1.00  0.00     0.134 A 
ATOM     69  C   UNL A   1      37.168  32.691  28.782  1.00  0.00     0.134 A 
ATOM     70  F   UNL A   1      35.784  29.425  29.564  1.00  0.00    -0.206 F 
ATOM     71  C   UNL A   1      34.895  31.179  28.280  1.00  0.00     0.040 A 
ATOM     72  C   UNL A   1      36.135  33.225  28.011  1.00  0.00     0.040 A 
ATOM     73  F   UNL A   1      38.246  33.458  29.004  1.00  0.00    -0.206 F 
ATOM     74  C   UNL A   1      34.995  32.467  27.755  1.00  0.00     0.006 A 
ENDBRANCH  53  67
BRANCH  54  75
ATOM     75  C   UNL A   1      44.305  27.625  35.077  1.00  0.00     0.057 A 
ATOM     76  C   UNL A   1      45.556  28.236  35.215  1.00  0.00     0.134 A 
ATOM     77  C   UNL A   1      44.073  26.458  35.815  1.00  0.00     0.134 A 
ATOM     78  F   UNL A   1      45.848  29.344  34.518  1.00  0.00    -0.206 F 
ATOM     79  C   UNL A   1      46.537  27.709  36.058  1.00  0.00     0.040 A 
ATOM     80  C   UNL A   1      45.033  25.936  36.682  1.00  0.00     0.040 A 
ATOM     81  F   UNL A   1      42.893  25.826  35.728  1.00  0.00    -0.206 F 
ATOM     82  C   UNL A   1      46.272  26.562  36.804  1.00  0.00     0.006 A 
ENDBRANCH  54  75
BRANCH  66  83
ATOM     83  C   UNL A   1      39.328  32.400  36.095  1.00  0.00     0.057 A 
ATOM     84  C   UNL A   1      39.850  33.684  36.289  1.00  0.00     0.134 A 
ATOM     85  C   UNL A   1      38.360  31.947  37.002  1.00  0.00     0.134 A 
ATOM     86  F   UNL A   1      40.787  34.169  35.460  1.00  0.00    -0.206 F 
ATOM     87  C   UNL A   1      39.428  34.489  37.348  1.00  0.00     0.040 A 
ATOM     88  C   UNL A   1      37.914  32.751  38.052  1.00  0.00     0.040 A 
ATOM     89  F   UNL A   1      37.815  30.730  36.864  1.00  0.00    -0.206 F 
ATOM     90  C   UNL A   1      38.450  34.026  38.226  1.00  0.00     0.006 A 
ENDBRANCH  66  83
ENDBRANCH  40  41
ENDBRANCH  33  35
ENDBRANCH  32  33
ENDBRANCH  31  32
ENDBRANCH   1  31
TORSDOF 16
ENDMDL
