MODEL 1
REMARK VINA RESULT:     -11.2      0.000      0.000
REMARK SMILES C[N@H+]1CCO[C@H](Cn2cc(C(=O)OCCOC(=O)c3ccc(-c4c5nc(c(-c6c(F)cccc6F)c6ccc([nH]6)c(-c6c(F)cccc6F)c6nc(c(-c7c(F)cccc7F)c7ccc4[nH]7)C=C6)C=C5)cc3)ccc2=O)C1
REMARK SMILES IDX 14 1 13 2 11 3 12 4 10 5 8 6 9 7 75 8 74 9 76 10 73 11 7 12
REMARK SMILES IDX 6 13 1 14 2 15 3 16 77 17 4 19 5 20 15 21 16 22 17 23 18 24
REMARK SMILES IDX 19 25 20 26 72 27 21 28 71 29 22 30 23 31 24 32 65 33 25 34
REMARK SMILES IDX 70 35 64 36 66 37 26 38 69 39 63 40 62 41 27 43 53 44 36 45
REMARK SMILES IDX 52 46 37 47 40 48 51 49 67 50 38 51 39 52 50 54 68 55 41 56
REMARK SMILES IDX 28 57 29 58 34 59 30 60 31 61 33 62 35 63 32 64 54 65 55 66
REMARK SMILES IDX 60 67 56 68 57 69 59 70 61 71 58 72 42 73 43 74 48 75 44 76
REMARK SMILES IDX 45 77 47 78 49 79 46 80
REMARK H PARENT 2 18 66 42 40 53
REMARK Flexibility Score: inf
ROOT
ATOM      1  C   UNL A   1      38.748  21.104  25.670  1.00  0.00     0.275 C 
ENDROOT
BRANCH   1   2
ATOM      2  O   UNL A   1      37.642  21.272  24.757  1.00  0.00    -0.458 OA
BRANCH   2   3
ATOM      3  C   UNL A   1      36.976  22.453  24.844  1.00  0.00     0.339 C 
ATOM      4  O   UNL A   1      37.402  23.479  25.354  1.00  0.00    -0.246 OA
BRANCH   3   5
ATOM      5  C   UNL A   1      35.629  22.370  24.223  1.00  0.00     0.076 A 
ATOM      6  N   UNL A   1      33.449  21.408  24.279  1.00  0.00    -0.312 N 
ATOM      7  C   UNL A   1      34.792  21.411  24.642  1.00  0.00     0.105 A 
ATOM      8  C   UNL A   1      32.922  22.332  23.374  1.00  0.00     0.250 A 
ATOM      9  C   UNL A   1      33.866  23.367  22.885  1.00  0.00     0.072 A 
ATOM     10  O   UNL A   1      31.761  22.355  22.976  1.00  0.00    -0.269 OA
ATOM     11  C   UNL A   1      35.130  23.385  23.321  1.00  0.00     0.023 A 
BRANCH   6  12
ATOM     12  C   UNL A   1      32.520  20.479  24.934  1.00  0.00     0.163 C 
BRANCH  12  13
ATOM     13  C   UNL A   1      32.957  19.003  24.845  1.00  0.00     0.193 C 
ATOM     14  C   UNL A   1      34.264  16.824  23.086  1.00  0.00     0.332 C 
ATOM     15  N   UNL A   1      32.844  16.938  23.413  1.00  0.00    -0.333 N 
ATOM     16  C   UNL A   1      32.506  16.208  24.656  1.00  0.00     0.290 C 
ATOM     17  C   UNL A   1      32.420  18.348  23.559  1.00  0.00     0.296 C 
ATOM     18  H   UNL A   1      32.342  16.519  22.629  1.00  0.00     0.348 HD
ATOM     19  C   UNL A   1      32.945  16.917  25.952  1.00  0.00     0.222 C 
ATOM     20  O   UNL A   1      32.486  18.273  25.994  1.00  0.00    -0.365 OA
ENDBRANCH  12  13
ENDBRANCH   6  12
ENDBRANCH   3   5
ENDBRANCH   2   3
ENDBRANCH   1   2
BRANCH   1  21
ATOM     21  C   UNL A   1      39.421  19.743  25.497  1.00  0.00     0.275 C 
BRANCH  21  22
ATOM     22  O   UNL A   1      40.479  19.584  26.458  1.00  0.00    -0.458 OA
BRANCH  22  23
ATOM     23  C   UNL A   1      41.726  19.817  25.995  1.00  0.00     0.338 C 
ATOM     24  O   UNL A   1      42.372  19.140  25.211  1.00  0.00    -0.246 OA
BRANCH  23  25
ATOM     25  C   UNL A   1      42.205  21.107  26.509  1.00  0.00     0.060 A 
ATOM     26  C   UNL A   1      42.468  22.174  25.658  1.00  0.00     0.016 A 
ATOM     27  C   UNL A   1      42.243  21.288  27.887  1.00  0.00     0.016 A 
ATOM     28  C   UNL A   1      42.782  23.423  26.212  1.00  0.00     0.010 A 
ATOM     29  C   UNL A   1      42.437  22.550  28.435  1.00  0.00     0.010 A 
ATOM     30  C   UNL A   1      42.736  23.633  27.606  1.00  0.00    -0.014 A 
BRANCH  30  31
ATOM     31  C   UNL A   1      42.975  24.977  28.201  1.00  0.00     0.031 A 
ATOM     32  C   UNL A   1      44.364  25.431  28.577  1.00  0.00     0.074 A 
ATOM     33  C   UNL A   1      41.921  25.775  28.470  1.00  0.00     0.049 A 
ATOM     34  N   UNL A   1      44.750  26.574  29.089  1.00  0.00    -0.248 NA
ATOM     35  C   UNL A   1      45.459  24.463  28.400  1.00  0.00     0.031 C 
ATOM     36  C   UNL A   1      40.514  25.418  28.280  1.00  0.00     0.029 A 
ATOM     37  N   UNL A   1      41.874  27.060  28.953  1.00  0.00    -0.354 N 
ATOM     38  C   UNL A   1      46.115  26.448  29.319  1.00  0.00     0.074 A 
ATOM     39  C   UNL A   1      46.480  25.098  28.954  1.00  0.00     0.031 C 
ATOM     40  C   UNL A   1      39.747  26.480  28.571  1.00  0.00     0.029 A 
ATOM     41  C   UNL A   1      40.604  27.582  28.995  1.00  0.00     0.049 A 
ATOM     42  H   UNL A   1      42.672  27.558  29.242  1.00  0.00     0.167 HD
ATOM     43  C   UNL A   1      46.998  27.381  29.755  1.00  0.00     0.037 A 
ATOM     44  C   UNL A   1      40.180  28.819  29.312  1.00  0.00     0.037 A 
ATOM     45  C   UNL A   1      46.650  28.743  30.058  1.00  0.00     0.049 A 
ATOM     46  C   UNL A   1      41.185  29.864  29.701  1.00  0.00     0.074 A 
ATOM     47  C   UNL A   1      47.483  29.792  30.406  1.00  0.00     0.029 A 
ATOM     48  N   UNL A   1      45.360  29.247  30.036  1.00  0.00    -0.354 N 
ATOM     49  N   UNL A   1      42.487  29.760  29.810  1.00  0.00    -0.248 NA
ATOM     50  C   UNL A   1      40.661  31.204  30.001  1.00  0.00     0.031 C 
ATOM     51  C   UNL A   1      46.693  30.929  30.614  1.00  0.00     0.029 A 
ATOM     52  C   UNL A   1      45.371  30.591  30.369  1.00  0.00     0.049 A 
ATOM     53  H   UNL A   1      44.553  28.727  29.818  1.00  0.00     0.167 HD
ATOM     54  C   UNL A   1      42.939  31.021  30.174  1.00  0.00     0.074 A 
ATOM     55  C   UNL A   1      41.774  31.879  30.246  1.00  0.00     0.031 C 
ATOM     56  C   UNL A   1      44.204  31.430  30.431  1.00  0.00     0.037 A 
BRANCH  43  57
ATOM     57  C   UNL A   1      48.434  26.961  29.893  1.00  0.00     0.057 A 
ATOM     58  C   UNL A   1      49.339  27.130  28.839  1.00  0.00     0.134 A 
ATOM     59  C   UNL A   1      48.917  26.371  31.070  1.00  0.00     0.134 A 
ATOM     60  F   UNL A   1      48.942  27.678  27.680  1.00  0.00    -0.206 F 
ATOM     61  C   UNL A   1      50.674  26.735  28.952  1.00  0.00     0.040 A 
ATOM     62  C   UNL A   1      50.255  25.999  31.205  1.00  0.00     0.040 A 
ATOM     63  F   UNL A   1      48.105  26.189  32.122  1.00  0.00    -0.206 F 
ATOM     64  C   UNL A   1      51.137  26.176  30.142  1.00  0.00     0.006 A 
ENDBRANCH  43  57
BRANCH  44  65
ATOM     65  C   UNL A   1      38.741  29.160  29.202  1.00  0.00     0.057 A 
ATOM     66  C   UNL A   1      37.876  29.072  30.298  1.00  0.00     0.134 A 
ATOM     67  C   UNL A   1      38.202  29.591  27.983  1.00  0.00     0.134 A 
ATOM     68  F   UNL A   1      38.332  28.656  31.488  1.00  0.00    -0.206 F 
ATOM     69  C   UNL A   1      36.524  29.400  30.186  1.00  0.00     0.040 A 
ATOM     70  C   UNL A   1      36.857  29.942  27.862  1.00  0.00     0.040 A 
ATOM     71  F   UNL A   1      38.987  29.709  26.903  1.00  0.00    -0.206 F 
ATOM     72  C   UNL A   1      36.013  29.843  28.967  1.00  0.00     0.006 A 
ENDBRANCH  44  65
BRANCH  56  73
ATOM     73  C   UNL A   1      44.389  32.871  30.794  1.00  0.00     0.057 A 
ATOM     74  C   UNL A   1      44.353  33.281  32.132  1.00  0.00     0.134 A 
ATOM     75  C   UNL A   1      44.588  33.855  29.817  1.00  0.00     0.134 A 
ATOM     76  F   UNL A   1      44.161  32.387  33.114  1.00  0.00    -0.206 F 
ATOM     77  C   UNL A   1      44.510  34.621  32.487  1.00  0.00     0.040 A 
ATOM     78  C   UNL A   1      44.768  35.195  30.161  1.00  0.00     0.040 A 
ATOM     79  F   UNL A   1      44.648  33.521  28.520  1.00  0.00    -0.206 F 
ATOM     80  C   UNL A   1      44.725  35.582  31.499  1.00  0.00     0.006 A 
ENDBRANCH  56  73
ENDBRANCH  30  31
ENDBRANCH  23  25
ENDBRANCH  22  23
ENDBRANCH  21  22
ENDBRANCH   1  21
TORSDOF 13
ENDMDL
MODEL 2
REMARK VINA RESULT:     -11.0      5.611      9.667
REMARK SMILES C[N@H+]1CCO[C@H](Cn2cc(C(=O)OCCOC(=O)c3ccc(-c4c5nc(c(-c6c(F)cccc6F)c6ccc([nH]6)c(-c6c(F)cccc6F)c6nc(c(-c7c(F)cccc7F)c7ccc4[nH]7)C=C6)C=C5)cc3)ccc2=O)C1
REMARK SMILES IDX 14 1 13 2 11 3 12 4 10 5 8 6 9 7 75 8 74 9 76 10 73 11 7 12
REMARK SMILES IDX 6 13 1 14 2 15 3 16 77 17 4 19 5 20 15 21 16 22 17 23 18 24
REMARK SMILES IDX 19 25 20 26 72 27 21 28 71 29 22 30 23 31 24 32 65 33 25 34
REMARK SMILES IDX 70 35 64 36 66 37 26 38 69 39 63 40 62 41 27 43 53 44 36 45
REMARK SMILES IDX 52 46 37 47 40 48 51 49 67 50 38 51 39 52 50 54 68 55 41 56
REMARK SMILES IDX 28 57 29 58 34 59 30 60 31 61 33 62 35 63 32 64 54 65 55 66
REMARK SMILES IDX 60 67 56 68 57 69 59 70 61 71 58 72 42 73 43 74 48 75 44 76
REMARK SMILES IDX 45 77 47 78 49 79 46 80
REMARK H PARENT 2 18 66 42 40 53
REMARK Flexibility Score: inf
ROOT
ATOM      1  C   UNL A   1      31.407  31.925  26.878  1.00  0.00     0.275 C 
ENDROOT
BRANCH   1   2
ATOM      2  O   UNL A   1      31.908  30.991  25.897  1.00  0.00    -0.458 OA
BRANCH   2   3
ATOM      3  C   UNL A   1      32.753  30.036  26.365  1.00  0.00     0.339 C 
ATOM      4  O   UNL A   1      33.571  30.181  27.262  1.00  0.00    -0.246 OA
BRANCH   3   5
ATOM      5  C   UNL A   1      32.567  28.744  25.654  1.00  0.00     0.076 A 
ATOM      6  N   UNL A   1      31.233  27.445  24.167  1.00  0.00    -0.312 N 
ATOM      7  C   UNL A   1      31.400  28.518  25.036  1.00  0.00     0.105 A 
ATOM      8  C   UNL A   1      32.227  26.483  23.975  1.00  0.00     0.250 A 
ATOM      9  C   UNL A   1      33.503  26.720  24.695  1.00  0.00     0.072 A 
ATOM     10  O   UNL A   1      32.126  25.488  23.263  1.00  0.00    -0.269 OA
ATOM     11  C   UNL A   1      33.653  27.808  25.458  1.00  0.00     0.023 A 
BRANCH   6  12
ATOM     12  C   UNL A   1      30.023  27.359  23.340  1.00  0.00     0.163 C 
BRANCH  12  13
ATOM     13  C   UNL A   1      29.460  28.733  22.924  1.00  0.00     0.193 C 
ATOM     14  C   UNL A   1      27.395  30.946  23.544  1.00  0.00     0.332 C 
ATOM     15  N   UNL A   1      27.338  29.992  22.438  1.00  0.00    -0.333 N 
ATOM     16  C   UNL A   1      28.028  30.506  21.234  1.00  0.00     0.290 C 
ATOM     17  C   UNL A   1      27.926  28.684  22.804  1.00  0.00     0.296 C 
ATOM     18  H   UNL A   1      26.347  29.864  22.230  1.00  0.00     0.348 HD
ATOM     19  C   UNL A   1      29.567  30.452  21.308  1.00  0.00     0.222 C 
ATOM     20  O   UNL A   1      30.033  29.146  21.668  1.00  0.00    -0.365 OA
ENDBRANCH  12  13
ENDBRANCH   6  12
ENDBRANCH   3   5
ENDBRANCH   2   3
ENDBRANCH   1   2
BRANCH   1  21
ATOM     21  C   UNL A   1      32.174  33.245  26.843  1.00  0.00     0.275 C 
BRANCH  21  22
ATOM     22  O   UNL A   1      32.155  33.868  28.140  1.00  0.00    -0.458 OA
BRANCH  22  23
ATOM     23  C   UNL A   1      33.193  34.690  28.407  1.00  0.00     0.338 C 
ATOM     24  O   UNL A   1      33.210  35.910  28.374  1.00  0.00    -0.246 OA
BRANCH  23  25
ATOM     25  C   UNL A   1      34.343  33.894  28.856  1.00  0.00     0.060 A 
ATOM     26  C   UNL A   1      35.643  34.376  28.757  1.00  0.00     0.016 A 
ATOM     27  C   UNL A   1      34.090  32.703  29.528  1.00  0.00     0.016 A 
ATOM     28  C   UNL A   1      36.687  33.638  29.331  1.00  0.00     0.010 A 
ATOM     29  C   UNL A   1      35.107  32.033  30.198  1.00  0.00     0.010 A 
ATOM     30  C   UNL A   1      36.427  32.477  30.088  1.00  0.00    -0.014 A 
BRANCH  30  31
ATOM     31  C   UNL A   1      37.516  31.738  30.783  1.00  0.00     0.031 A 
ATOM     32  C   UNL A   1      38.336  30.694  30.064  1.00  0.00     0.074 A 
ATOM     33  C   UNL A   1      37.729  31.957  32.097  1.00  0.00     0.049 A 
ATOM     34  N   UNL A   1      39.331  29.970  30.514  1.00  0.00    -0.248 NA
ATOM     35  C   UNL A   1      37.964  30.387  28.674  1.00  0.00     0.031 C 
ATOM     36  C   UNL A   1      36.932  32.841  32.951  1.00  0.00     0.029 A 
ATOM     37  N   UNL A   1      38.690  31.461  32.942  1.00  0.00    -0.354 N 
ATOM     38  C   UNL A   1      39.678  29.111  29.479  1.00  0.00     0.074 A 
ATOM     39  C   UNL A   1      38.747  29.355  28.400  1.00  0.00     0.031 C 
ATOM     40  C   UNL A   1      37.478  32.881  34.176  1.00  0.00     0.029 A 
ATOM     41  C   UNL A   1      38.646  32.006  34.203  1.00  0.00     0.049 A 
ATOM     42  H   UNL A   1      39.347  30.779  32.672  1.00  0.00     0.167 HD
ATOM     43  C   UNL A   1      40.703  28.226  29.409  1.00  0.00     0.037 A 
ATOM     44  C   UNL A   1      39.469  31.841  35.253  1.00  0.00     0.037 A 
ATOM     45  C   UNL A   1      41.670  28.026  30.455  1.00  0.00     0.049 A 
ATOM     46  C   UNL A   1      40.654  30.928  35.124  1.00  0.00     0.074 A 
ATOM     47  C   UNL A   1      42.804  27.232  30.445  1.00  0.00     0.029 A 
ATOM     48  N   UNL A   1      41.621  28.638  31.697  1.00  0.00    -0.354 N 
ATOM     49  N   UNL A   1      41.031  30.204  34.099  1.00  0.00    -0.248 NA
ATOM     50  C   UNL A   1      41.534  30.819  36.296  1.00  0.00     0.031 C 
ATOM     51  C   UNL A   1      43.432  27.350  31.691  1.00  0.00     0.029 A 
ATOM     52  C   UNL A   1      42.701  28.237  32.465  1.00  0.00     0.049 A 
ATOM     53  H   UNL A   1      40.921  29.265  31.991  1.00  0.00     0.167 HD
ATOM     54  C   UNL A   1      42.199  29.566  34.495  1.00  0.00     0.074 A 
ATOM     55  C   UNL A   1      42.480  30.007  35.846  1.00  0.00     0.031 C 
ATOM     56  C   UNL A   1      42.967  28.690  33.804  1.00  0.00     0.037 A 
BRANCH  43  57
ATOM     57  C   UNL A   1      40.848  27.435  28.140  1.00  0.00     0.057 A 
ATOM     58  C   UNL A   1      41.603  27.924  27.068  1.00  0.00     0.134 A 
ATOM     59  C   UNL A   1      40.221  26.191  27.974  1.00  0.00     0.134 A 
ATOM     60  F   UNL A   1      42.220  29.112  27.153  1.00  0.00    -0.206 F 
ATOM     61  C   UNL A   1      41.737  27.202  25.880  1.00  0.00     0.040 A 
ATOM     62  C   UNL A   1      40.371  25.447  26.803  1.00  0.00     0.040 A 
ATOM     63  F   UNL A   1      39.492  25.660  28.966  1.00  0.00    -0.206 F 
ATOM     64  C   UNL A   1      41.128  25.955  25.749  1.00  0.00     0.006 A 
ENDBRANCH  43  57
BRANCH  44  65
ATOM     65  C   UNL A   1      39.247  32.616  36.499  1.00  0.00     0.057 A 
ATOM     66  C   UNL A   1      38.389  32.162  37.505  1.00  0.00     0.134 A 
ATOM     67  C   UNL A   1      39.902  33.836  36.705  1.00  0.00     0.134 A 
ATOM     68  F   UNL A   1      37.726  31.006  37.360  1.00  0.00    -0.206 F 
ATOM     69  C   UNL A   1      38.189  32.895  38.676  1.00  0.00     0.040 A 
ATOM     70  C   UNL A   1      39.728  34.569  37.879  1.00  0.00     0.040 A 
ATOM     71  F   UNL A   1      40.748  34.312  35.781  1.00  0.00    -0.206 F 
ATOM     72  C   UNL A   1      38.866  34.099  38.868  1.00  0.00     0.006 A 
ENDBRANCH  44  65
BRANCH  56  73
ATOM     73  C   UNL A   1      44.190  28.170  34.495  1.00  0.00     0.057 A 
ATOM     74  C   UNL A   1      44.137  26.996  35.255  1.00  0.00     0.134 A 
ATOM     75  C   UNL A   1      45.417  28.842  34.420  1.00  0.00     0.134 A 
ATOM     76  F   UNL A   1      42.989  26.309  35.369  1.00  0.00    -0.206 F 
ATOM     77  C   UNL A   1      45.263  26.506  35.915  1.00  0.00     0.040 A 
ATOM     78  C   UNL A   1      46.556  28.349  35.059  1.00  0.00     0.040 A 
ATOM     79  F   UNL A   1      45.534  29.964  33.694  1.00  0.00    -0.206 F 
ATOM     80  C   UNL A   1      46.479  27.180  35.813  1.00  0.00     0.006 A 
ENDBRANCH  56  73
ENDBRANCH  30  31
ENDBRANCH  23  25
ENDBRANCH  22  23
ENDBRANCH  21  22
ENDBRANCH   1  21
TORSDOF 13
ENDMDL
MODEL 3
REMARK VINA RESULT:     -11.0      4.212      8.633
REMARK SMILES C[N@H+]1CCO[C@H](Cn2cc(C(=O)OCCOC(=O)c3ccc(-c4c5nc(c(-c6c(F)cccc6F)c6ccc([nH]6)c(-c6c(F)cccc6F)c6nc(c(-c7c(F)cccc7F)c7ccc4[nH]7)C=C6)C=C5)cc3)ccc2=O)C1
REMARK SMILES IDX 14 1 13 2 11 3 12 4 10 5 8 6 9 7 75 8 74 9 76 10 73 11 7 12
REMARK SMILES IDX 6 13 1 14 2 15 3 16 77 17 4 19 5 20 15 21 16 22 17 23 18 24
REMARK SMILES IDX 19 25 20 26 72 27 21 28 71 29 22 30 23 31 24 32 65 33 25 34
REMARK SMILES IDX 70 35 64 36 66 37 26 38 69 39 63 40 62 41 27 43 53 44 36 45
REMARK SMILES IDX 52 46 37 47 40 48 51 49 67 50 38 51 39 52 50 54 68 55 41 56
REMARK SMILES IDX 28 57 29 58 34 59 30 60 31 61 33 62 35 63 32 64 54 65 55 66
REMARK SMILES IDX 60 67 56 68 57 69 59 70 61 71 58 72 42 73 43 74 48 75 44 76
REMARK SMILES IDX 45 77 47 78 49 79 46 80
REMARK H PARENT 2 18 66 42 40 53
REMARK Flexibility Score: inf
ROOT
ATOM      1  C   UNL A   1      31.800  28.476  27.314  1.00  0.00     0.275 C 
ENDROOT
BRANCH   1   2
ATOM      2  O   UNL A   1      32.529  27.359  26.763  1.00  0.00    -0.458 OA
BRANCH   2   3
ATOM      3  C   UNL A   1      31.786  26.434  26.102  1.00  0.00     0.339 C 
ATOM      4  O   UNL A   1      30.813  25.845  26.550  1.00  0.00    -0.246 OA
BRANCH   3   5
ATOM      5  C   UNL A   1      32.290  26.209  24.722  1.00  0.00     0.076 A 
ATOM      6  N   UNL A   1      33.294  24.702  23.173  1.00  0.00    -0.312 N 
ATOM      7  C   UNL A   1      32.987  25.093  24.472  1.00  0.00     0.105 A 
ATOM      8  C   UNL A   1      32.993  25.501  22.067  1.00  0.00     0.250 A 
ATOM      9  C   UNL A   1      32.255  26.754  22.357  1.00  0.00     0.072 A 
ATOM     10  O   UNL A   1      33.278  25.238  20.902  1.00  0.00    -0.269 OA
ATOM     11  C   UNL A   1      31.906  27.055  23.613  1.00  0.00     0.023 A 
BRANCH   6  12
ATOM     12  C   UNL A   1      33.858  23.369  22.927  1.00  0.00     0.163 C 
BRANCH  12  13
ATOM     13  C   UNL A   1      34.877  22.923  23.994  1.00  0.00     0.193 C 
ATOM     14  C   UNL A   1      37.400  23.697  25.603  1.00  0.00     0.332 C 
ATOM     15  N   UNL A   1      37.335  22.741  24.499  1.00  0.00    -0.333 N 
ATOM     16  C   UNL A   1      37.039  21.370  24.976  1.00  0.00     0.290 C 
ATOM     17  C   UNL A   1      36.319  23.124  23.494  1.00  0.00     0.296 C 
ATOM     18  H   UNL A   1      38.257  22.754  24.063  1.00  0.00     0.348 HD
ATOM     19  C   UNL A   1      35.569  21.135  25.374  1.00  0.00     0.222 C 
ATOM     20  O   UNL A   1      34.670  21.539  24.334  1.00  0.00    -0.365 OA
ENDBRANCH  12  13
ENDBRANCH   6  12
ENDBRANCH   3   5
ENDBRANCH   2   3
ENDBRANCH   1   2
BRANCH   1  21
ATOM     21  C   UNL A   1      31.779  29.665  26.355  1.00  0.00     0.275 C 
BRANCH  21  22
ATOM     22  O   UNL A   1      33.108  30.186  26.175  1.00  0.00    -0.458 OA
BRANCH  22  23
ATOM     23  C   UNL A   1      33.452  31.200  26.998  1.00  0.00     0.338 C 
ATOM     24  O   UNL A   1      32.785  32.175  27.304  1.00  0.00    -0.246 OA
BRANCH  23  25
ATOM     25  C   UNL A   1      34.770  30.925  27.585  1.00  0.00     0.060 A 
ATOM     26  C   UNL A   1      35.605  31.954  28.007  1.00  0.00     0.016 A 
ATOM     27  C   UNL A   1      35.103  29.603  27.854  1.00  0.00     0.016 A 
ATOM     28  C   UNL A   1      36.785  31.633  28.691  1.00  0.00     0.010 A 
ATOM     29  C   UNL A   1      36.210  29.291  28.633  1.00  0.00     0.010 A 
ATOM     30  C   UNL A   1      37.084  30.300  29.042  1.00  0.00    -0.014 A 
BRANCH  30  31
ATOM     31  C   UNL A   1      38.286  29.957  29.851  1.00  0.00     0.031 A 
ATOM     32  C   UNL A   1      38.458  30.478  31.257  1.00  0.00     0.074 A 
ATOM     33  C   UNL A   1      39.269  29.222  29.292  1.00  0.00     0.049 A 
ATOM     34  N   UNL A   1      39.434  30.263  32.105  1.00  0.00    -0.248 NA
ATOM     35  C   UNL A   1      37.426  31.397  31.764  1.00  0.00     0.031 C 
ATOM     36  C   UNL A   1      39.298  28.758  27.903  1.00  0.00     0.029 A 
ATOM     37  N   UNL A   1      40.431  28.727  29.830  1.00  0.00    -0.354 N 
ATOM     38  C   UNL A   1      39.147  31.038  33.222  1.00  0.00     0.074 A 
ATOM     39  C   UNL A   1      37.944  31.779  32.922  1.00  0.00     0.031 C 
ATOM     40  C   UNL A   1      40.381  27.987  27.719  1.00  0.00     0.029 A 
ATOM     41  C   UNL A   1      41.137  27.924  28.966  1.00  0.00     0.049 A 
ATOM     42  H   UNL A   1      40.730  28.927  30.746  1.00  0.00     0.167 HD
ATOM     43  C   UNL A   1      39.800  31.100  34.410  1.00  0.00     0.037 A 
ATOM     44  C   UNL A   1      42.251  27.199  29.164  1.00  0.00     0.037 A 
ATOM     45  C   UNL A   1      40.960  30.316  34.735  1.00  0.00     0.049 A 
ATOM     46  C   UNL A   1      42.905  27.207  30.516  1.00  0.00     0.074 A 
ATOM     47  C   UNL A   1      41.634  30.227  35.941  1.00  0.00     0.029 A 
ATOM     48  N   UNL A   1      41.614  29.474  33.849  1.00  0.00    -0.354 N 
ATOM     49  N   UNL A   1      42.560  27.862  31.597  1.00  0.00    -0.248 NA
ATOM     50  C   UNL A   1      44.099  26.365  30.677  1.00  0.00     0.031 C 
ATOM     51  C   UNL A   1      42.708  29.344  35.779  1.00  0.00     0.029 A 
ATOM     52  C   UNL A   1      42.686  28.865  34.478  1.00  0.00     0.049 A 
ATOM     53  H   UNL A   1      41.355  29.332  32.910  1.00  0.00     0.167 HD
ATOM     54  C   UNL A   1      43.481  27.499  32.570  1.00  0.00     0.074 A 
ATOM     55  C   UNL A   1      44.388  26.550  31.956  1.00  0.00     0.031 C 
ATOM     56  C   UNL A   1      43.573  27.920  33.854  1.00  0.00     0.037 A 
BRANCH  43  57
ATOM     57  C   UNL A   1      39.244  32.025  35.455  1.00  0.00     0.057 A 
ATOM     58  C   UNL A   1      38.309  31.573  36.393  1.00  0.00     0.134 A 
ATOM     59  C   UNL A   1      39.625  33.373  35.521  1.00  0.00     0.134 A 
ATOM     60  F   UNL A   1      37.891  30.298  36.381  1.00  0.00    -0.206 F 
ATOM     61  C   UNL A   1      37.778  32.426  37.364  1.00  0.00     0.040 A 
ATOM     62  C   UNL A   1      39.124  34.227  36.504  1.00  0.00     0.040 A 
ATOM     63  F   UNL A   1      40.525  33.868  34.658  1.00  0.00    -0.206 F 
ATOM     64  C   UNL A   1      38.193  33.755  37.427  1.00  0.00     0.006 A 
ENDBRANCH  43  57
BRANCH  44  65
ATOM     65  C   UNL A   1      42.780  26.340  28.076  1.00  0.00     0.057 A 
ATOM     66  C   UNL A   1      42.355  25.018  27.908  1.00  0.00     0.134 A 
ATOM     67  C   UNL A   1      43.727  26.837  27.172  1.00  0.00     0.134 A 
ATOM     68  F   UNL A   1      41.458  24.484  28.749  1.00  0.00    -0.206 F 
ATOM     69  C   UNL A   1      42.854  24.219  26.878  1.00  0.00     0.040 A 
ATOM     70  C   UNL A   1      44.219  26.057  26.125  1.00  0.00     0.040 A 
ATOM     71  F   UNL A   1      44.159  28.102  27.275  1.00  0.00    -0.206 F 
ATOM     72  C   UNL A   1      43.784  24.741  25.979  1.00  0.00     0.006 A 
ENDBRANCH  44  65
BRANCH  56  73
ATOM     73  C   UNL A   1      44.679  27.339  34.680  1.00  0.00     0.057 A 
ATOM     74  C   UNL A   1      44.485  26.156  35.403  1.00  0.00     0.134 A 
ATOM     75  C   UNL A   1      45.931  27.960  34.771  1.00  0.00     0.134 A 
ATOM     76  F   UNL A   1      43.306  25.517  35.362  1.00  0.00    -0.206 F 
ATOM     77  C   UNL A   1      45.501  25.609  36.188  1.00  0.00     0.040 A 
ATOM     78  C   UNL A   1      46.962  27.410  35.535  1.00  0.00     0.040 A 
ATOM     79  F   UNL A   1      46.181  29.086  34.087  1.00  0.00    -0.206 F 
ATOM     80  C   UNL A   1      46.746  26.234  36.250  1.00  0.00     0.006 A 
ENDBRANCH  56  73
ENDBRANCH  30  31
ENDBRANCH  23  25
ENDBRANCH  22  23
ENDBRANCH  21  22
ENDBRANCH   1  21
TORSDOF 13
ENDMDL
