MODEL 1
REMARK VINA RESULT:     -12.2      0.000      0.000
REMARK SMILES CC(C)(C)c1cc2c(cc1Cl)C=C(C(=O)OCCOC(=O)c1ccc(-c3c4nc(c(-c5c(F)cccc5F)c5ccc([nH]5)c(-c5c(F)cccc5F)c5nc(c(-c6c(F)cccc6F)c6ccc3[nH]6)C=C5)C=C4)cc1)[C@@H](C(F)(F)F)O2
REMARK SMILES IDX 18 1 17 2 16 3 14 4 15 5 13 6 5 7 6 8 10 9 7 10 9 11 11 12
REMARK SMILES IDX 8 13 81 14 12 15 76 16 2 17 1 18 3 19 4 20 77 21 78 22 79 23
REMARK SMILES IDX 80 24 19 25 20 26 21 27 22 28 23 29 75 30 24 31 74 32 25 33
REMARK SMILES IDX 26 34 27 35 68 36 28 37 73 38 67 39 69 40 29 41 72 42 66 43
REMARK SMILES IDX 65 44 30 46 56 47 39 48 55 49 40 50 43 51 54 52 70 53 41 54
REMARK SMILES IDX 42 55 53 57 71 58 44 59 31 60 32 61 37 62 33 63 34 64 36 65
REMARK SMILES IDX 38 66 35 67 57 68 58 69 63 70 59 71 60 72 62 73 64 74 61 75
REMARK SMILES IDX 45 76 46 77 51 78 47 79 48 80 50 81 52 82 49 83
REMARK H PARENT 69 45 43 56
REMARK Flexibility Score: inf
ROOT
ATOM      1  C   UNL A   1      37.502  19.996  24.827  1.00  0.00     0.275 C 
ENDROOT
BRANCH   1   2
ATOM      2  C   UNL A   1      35.980  19.999  24.970  1.00  0.00     0.275 C 
BRANCH   2   3
ATOM      3  O   UNL A   1      35.404  21.260  24.563  1.00  0.00    -0.459 OA
BRANCH   3   4
ATOM      4  C   UNL A   1      34.053  21.293  24.515  1.00  0.00     0.338 C 
ATOM      5  O   UNL A   1      33.316  20.376  24.188  1.00  0.00    -0.246 OA
BRANCH   4   6
ATOM      6  C   UNL A   1      33.543  22.597  24.982  1.00  0.00     0.087 C 
ATOM      7  C   UNL A   1      32.864  27.580  25.675  1.00  0.00    -0.020 A 
ATOM      8  C   UNL A   1      32.440  26.389  26.340  1.00  0.00     0.053 A 
ATOM      9  C   UNL A   1      33.585  27.397  24.478  1.00  0.00     0.045 A 
ATOM     10  C   UNL A   1      32.767  25.107  25.890  1.00  0.00     0.128 A 
ATOM     11  C   UNL A   1      33.912  26.110  24.031  1.00  0.00     0.032 A 
ATOM     12  Cl  UNL A   1      34.126  28.645  23.413  1.00  0.00    -0.084 Cl
ATOM     13  C   UNL A   1      33.523  24.977  24.743  1.00  0.00     0.019 A 
ATOM     14  O   UNL A   1      32.305  24.041  26.611  1.00  0.00    -0.475 OA
ATOM     15  C   UNL A   1      33.917  23.670  24.281  1.00  0.00     0.027 C 
ATOM     16  C   UNL A   1      32.761  22.695  26.262  1.00  0.00     0.316 C 
BRANCH   7  17
ATOM     17  C   UNL A   1      32.456  28.933  26.312  1.00  0.00    -0.012 C 
ATOM     18  C   UNL A   1      31.652  29.920  25.437  1.00  0.00     0.016 C 
ATOM     19  C   UNL A   1      33.721  29.725  26.737  1.00  0.00     0.016 C 
ATOM     20  C   UNL A   1      31.599  28.633  27.560  1.00  0.00     0.016 C 
ENDBRANCH   7  17
BRANCH  16  21
ATOM     21  C   UNL A   1      33.573  22.130  27.440  1.00  0.00     0.430 C 
ATOM     22  F   UNL A   1      32.984  22.409  28.627  1.00  0.00    -0.167 F 
ATOM     23  F   UNL A   1      33.680  20.781  27.368  1.00  0.00    -0.167 F 
ATOM     24  F   UNL A   1      34.828  22.633  27.481  1.00  0.00    -0.167 F 
ENDBRANCH  16  21
ENDBRANCH   4   6
ENDBRANCH   3   4
ENDBRANCH   2   3
ENDBRANCH   1   2
BRANCH   1  25
ATOM     25  O   UNL A   1      38.078  21.149  25.470  1.00  0.00    -0.458 OA
BRANCH  25  26
ATOM     26  C   UNL A   1      39.266  20.939  26.080  1.00  0.00     0.338 C 
ATOM     27  O   UNL A   1      39.931  19.918  26.083  1.00  0.00    -0.246 OA
BRANCH  26  28
ATOM     28  C   UNL A   1      39.734  22.185  26.705  1.00  0.00     0.060 A 
ATOM     29  C   UNL A   1      40.794  22.193  27.602  1.00  0.00     0.016 A 
ATOM     30  C   UNL A   1      39.213  23.384  26.236  1.00  0.00     0.016 A 
ATOM     31  C   UNL A   1      41.318  23.423  28.025  1.00  0.00     0.010 A 
ATOM     32  C   UNL A   1      39.840  24.592  26.528  1.00  0.00     0.010 A 
ATOM     33  C   UNL A   1      40.881  24.640  27.459  1.00  0.00    -0.014 A 
BRANCH  33  34
ATOM     34  C   UNL A   1      41.500  25.945  27.847  1.00  0.00     0.031 A 
ATOM     35  C   UNL A   1      42.888  26.327  27.381  1.00  0.00     0.074 A 
ATOM     36  C   UNL A   1      40.825  26.790  28.654  1.00  0.00     0.049 A 
ATOM     37  N   UNL A   1      43.550  27.442  27.583  1.00  0.00    -0.248 NA
ATOM     38  C   UNL A   1      43.653  25.319  26.631  1.00  0.00     0.031 C 
ATOM     39  C   UNL A   1      39.533  26.512  29.286  1.00  0.00     0.029 A 
ATOM     40  N   UNL A   1      41.120  28.068  29.063  1.00  0.00    -0.354 N 
ATOM     41  C   UNL A   1      44.806  27.250  27.016  1.00  0.00     0.074 A 
ATOM     42  C   UNL A   1      44.844  25.889  26.533  1.00  0.00     0.031 C 
ATOM     43  C   UNL A   1      39.106  27.613  29.925  1.00  0.00     0.029 A 
ATOM     44  C   UNL A   1      40.107  28.663  29.781  1.00  0.00     0.049 A 
ATOM     45  H   UNL A   1      41.974  28.515  28.863  1.00  0.00     0.167 HD
ATOM     46  C   UNL A   1      45.823  28.132  26.861  1.00  0.00     0.037 A 
ATOM     47  C   UNL A   1      39.985  29.921  30.244  1.00  0.00     0.037 A 
ATOM     48  C   UNL A   1      45.769  29.508  27.278  1.00  0.00     0.049 A 
ATOM     49  C   UNL A   1      41.090  30.908  29.992  1.00  0.00     0.074 A 
ATOM     50  C   UNL A   1      46.705  30.509  27.082  1.00  0.00     0.029 A 
ATOM     51  N   UNL A   1      44.711  30.078  27.969  1.00  0.00    -0.354 N 
ATOM     52  N   UNL A   1      42.224  30.738  29.359  1.00  0.00    -0.248 NA
ATOM     53  C   UNL A   1      40.889  32.269  30.514  1.00  0.00     0.031 C 
ATOM     54  C   UNL A   1      46.222  31.680  27.677  1.00  0.00     0.029 A 
ATOM     55  C   UNL A   1      44.974  31.415  28.215  1.00  0.00     0.049 A 
ATOM     56  H   UNL A   1      43.895  29.602  28.244  1.00  0.00     0.167 HD
ATOM     57  C   UNL A   1      42.865  31.969  29.393  1.00  0.00     0.074 A 
ATOM     58  C   UNL A   1      41.981  32.884  30.084  1.00  0.00     0.031 C 
ATOM     59  C   UNL A   1      44.082  32.311  28.902  1.00  0.00     0.037 A 
BRANCH  46  60
ATOM     60  C   UNL A   1      47.067  27.640  26.175  1.00  0.00     0.057 A 
ATOM     61  C   UNL A   1      48.145  27.132  26.912  1.00  0.00     0.134 A 
ATOM     62  C   UNL A   1      47.203  27.678  24.780  1.00  0.00     0.134 A 
ATOM     63  F   UNL A   1      48.089  27.078  28.251  1.00  0.00    -0.206 F 
ATOM     64  C   UNL A   1      49.305  26.672  26.286  1.00  0.00     0.040 A 
ATOM     65  C   UNL A   1      48.345  27.192  24.141  1.00  0.00     0.040 A 
ATOM     66  F   UNL A   1      46.205  28.142  24.012  1.00  0.00    -0.206 F 
ATOM     67  C   UNL A   1      49.403  26.691  24.896  1.00  0.00     0.006 A 
ENDBRANCH  46  60
BRANCH  47  68
ATOM     68  C   UNL A   1      38.741  30.343  30.935  1.00  0.00     0.057 A 
ATOM     69  C   UNL A   1      38.575  30.185  32.315  1.00  0.00     0.134 A 
ATOM     70  C   UNL A   1      37.689  30.930  30.221  1.00  0.00     0.134 A 
ATOM     71  F   UNL A   1      39.541  29.623  33.054  1.00  0.00    -0.206 F 
ATOM     72  C   UNL A   1      37.406  30.594  32.960  1.00  0.00     0.040 A 
ATOM     73  C   UNL A   1      36.525  31.366  30.856  1.00  0.00     0.040 A 
ATOM     74  F   UNL A   1      37.797  31.125  28.898  1.00  0.00    -0.206 F 
ATOM     75  C   UNL A   1      36.380  31.194  32.232  1.00  0.00     0.006 A 
ENDBRANCH  47  68
BRANCH  59  76
ATOM     76  C   UNL A   1      44.512  33.735  29.082  1.00  0.00     0.057 A 
ATOM     77  C   UNL A   1      44.197  34.704  28.122  1.00  0.00     0.134 A 
ATOM     78  C   UNL A   1      45.254  34.142  30.197  1.00  0.00     0.134 A 
ATOM     79  F   UNL A   1      43.494  34.376  27.028  1.00  0.00    -0.206 F 
ATOM     80  C   UNL A   1      44.603  36.031  28.267  1.00  0.00     0.040 A 
ATOM     81  C   UNL A   1      45.645  35.472  30.365  1.00  0.00     0.040 A 
ATOM     82  F   UNL A   1      45.576  33.264  31.159  1.00  0.00    -0.206 F 
ATOM     83  C   UNL A   1      45.323  36.419  29.395  1.00  0.00     0.006 A 
ENDBRANCH  59  76
ENDBRANCH  33  34
ENDBRANCH  26  28
ENDBRANCH  25  26
ENDBRANCH   1  25
TORSDOF 13
ENDMDL
MODEL 2
REMARK VINA RESULT:     -12.0      4.243      9.164
REMARK SMILES CC(C)(C)c1cc2c(cc1Cl)C=C(C(=O)OCCOC(=O)c1ccc(-c3c4nc(c(-c5c(F)cccc5F)c5ccc([nH]5)c(-c5c(F)cccc5F)c5nc(c(-c6c(F)cccc6F)c6ccc3[nH]6)C=C5)C=C4)cc1)[C@@H](C(F)(F)F)O2
REMARK SMILES IDX 18 1 17 2 16 3 14 4 15 5 13 6 5 7 6 8 10 9 7 10 9 11 11 12
REMARK SMILES IDX 8 13 81 14 12 15 76 16 2 17 1 18 3 19 4 20 77 21 78 22 79 23
REMARK SMILES IDX 80 24 19 25 20 26 21 27 22 28 23 29 75 30 24 31 74 32 25 33
REMARK SMILES IDX 26 34 27 35 68 36 28 37 73 38 67 39 69 40 29 41 72 42 66 43
REMARK SMILES IDX 65 44 30 46 56 47 39 48 55 49 40 50 43 51 54 52 70 53 41 54
REMARK SMILES IDX 42 55 53 57 71 58 44 59 31 60 32 61 37 62 33 63 34 64 36 65
REMARK SMILES IDX 38 66 35 67 57 68 58 69 63 70 59 71 60 72 62 73 64 74 61 75
REMARK SMILES IDX 45 76 46 77 51 78 47 79 48 80 50 81 52 82 49 83
REMARK H PARENT 69 45 43 56
REMARK Flexibility Score: inf
ROOT
ATOM      1  C   UNL A   1      31.316  31.193  26.139  1.00  0.00     0.275 C 
ENDROOT
BRANCH   1   2
ATOM      2  C   UNL A   1      31.028  30.325  24.913  1.00  0.00     0.275 C 
BRANCH   2   3
ATOM      3  O   UNL A   1      31.031  28.918  25.239  1.00  0.00    -0.459 OA
BRANCH   3   4
ATOM      4  C   UNL A   1      30.711  28.085  24.222  1.00  0.00     0.338 C 
ATOM      5  O   UNL A   1      29.738  28.175  23.490  1.00  0.00    -0.246 OA
BRANCH   4   6
ATOM      6  C   UNL A   1      31.745  27.047  24.048  1.00  0.00     0.087 C 
ATOM      7  C   UNL A   1      35.157  23.395  24.939  1.00  0.00    -0.020 A 
ATOM      8  C   UNL A   1      34.840  24.251  23.839  1.00  0.00     0.053 A 
ATOM      9  C   UNL A   1      34.300  23.477  26.054  1.00  0.00     0.045 A 
ATOM     10  C   UNL A   1      33.790  25.173  23.870  1.00  0.00     0.128 A 
ATOM     11  C   UNL A   1      33.249  24.403  26.081  1.00  0.00     0.032 A 
ATOM     12  Cl  UNL A   1      34.375  22.492  27.471  1.00  0.00    -0.084 Cl
ATOM     13  C   UNL A   1      33.011  25.257  25.006  1.00  0.00     0.019 A 
ATOM     14  O   UNL A   1      33.583  25.940  22.757  1.00  0.00    -0.475 OA
ATOM     15  C   UNL A   1      31.952  26.231  25.086  1.00  0.00     0.027 C 
ATOM     16  C   UNL A   1      32.600  27.023  22.813  1.00  0.00     0.316 C 
BRANCH   7  17
ATOM     17  C   UNL A   1      36.374  22.450  24.774  1.00  0.00    -0.012 C 
ATOM     18  C   UNL A   1      36.150  20.945  25.044  1.00  0.00     0.016 C 
ATOM     19  C   UNL A   1      37.506  22.861  25.753  1.00  0.00     0.016 C 
ATOM     20  C   UNL A   1      36.884  22.577  23.323  1.00  0.00     0.016 C 
ENDBRANCH   7  17
BRANCH  16  21
ATOM     21  C   UNL A   1      33.334  28.362  22.632  1.00  0.00     0.430 C 
ATOM     22  F   UNL A   1      32.502  29.324  22.166  1.00  0.00    -0.167 F 
ATOM     23  F   UNL A   1      33.833  28.818  23.807  1.00  0.00    -0.167 F 
ATOM     24  F   UNL A   1      34.368  28.265  21.765  1.00  0.00    -0.167 F 
ENDBRANCH  16  21
ENDBRANCH   4   6
ENDBRANCH   3   4
ENDBRANCH   2   3
ENDBRANCH   1   2
BRANCH   1  25
ATOM     25  O   UNL A   1      32.641  30.943  26.643  1.00  0.00    -0.458 OA
BRANCH  25  26
ATOM     26  C   UNL A   1      33.237  31.993  27.251  1.00  0.00     0.338 C 
ATOM     27  O   UNL A   1      32.763  33.094  27.470  1.00  0.00    -0.246 OA
BRANCH  26  28
ATOM     28  C   UNL A   1      34.574  31.604  27.724  1.00  0.00     0.060 A 
ATOM     29  C   UNL A   1      35.535  32.553  28.044  1.00  0.00     0.016 A 
ATOM     30  C   UNL A   1      34.794  30.265  28.022  1.00  0.00     0.016 A 
ATOM     31  C   UNL A   1      36.723  32.137  28.661  1.00  0.00     0.010 A 
ATOM     32  C   UNL A   1      35.896  29.880  28.781  1.00  0.00     0.010 A 
ATOM     33  C   UNL A   1      36.902  30.802  29.083  1.00  0.00    -0.014 A 
BRANCH  33  34
ATOM     34  C   UNL A   1      38.131  30.377  29.820  1.00  0.00     0.031 A 
ATOM     35  C   UNL A   1      38.354  30.760  31.267  1.00  0.00     0.074 A 
ATOM     36  C   UNL A   1      39.081  29.663  29.179  1.00  0.00     0.049 A 
ATOM     37  N   UNL A   1      39.341  30.429  32.067  1.00  0.00    -0.248 NA
ATOM     38  C   UNL A   1      37.375  31.665  31.887  1.00  0.00     0.031 C 
ATOM     39  C   UNL A   1      39.071  29.323  27.753  1.00  0.00     0.029 A 
ATOM     40  N   UNL A   1      40.229  29.072  29.647  1.00  0.00    -0.354 N 
ATOM     41  C   UNL A   1      39.110  31.109  33.260  1.00  0.00     0.074 A 
ATOM     42  C   UNL A   1      37.940  31.931  33.055  1.00  0.00     0.031 C 
ATOM     43  C   UNL A   1      40.107  28.513  27.485  1.00  0.00     0.029 A 
ATOM     44  C   UNL A   1      40.875  28.304  28.706  1.00  0.00     0.049 A 
ATOM     45  H   UNL A   1      40.558  29.188  30.567  1.00  0.00     0.167 HD
ATOM     46  C   UNL A   1      39.775  31.026  34.438  1.00  0.00     0.037 A 
ATOM     47  C   UNL A   1      41.948  27.499  28.819  1.00  0.00     0.037 A 
ATOM     48  C   UNL A   1      40.899  30.159  34.671  1.00  0.00     0.049 A 
ATOM     49  C   UNL A   1      42.624  27.357  30.155  1.00  0.00     0.074 A 
ATOM     50  C   UNL A   1      41.583  29.929  35.852  1.00  0.00     0.029 A 
ATOM     51  N   UNL A   1      41.499  29.373  33.700  1.00  0.00    -0.354 N 
ATOM     52  N   UNL A   1      42.326  27.925  31.297  1.00  0.00    -0.248 NA
ATOM     53  C   UNL A   1      43.782  26.453  30.215  1.00  0.00     0.031 C 
ATOM     54  C   UNL A   1      42.614  29.019  35.589  1.00  0.00     0.029 A 
ATOM     55  C   UNL A   1      42.550  28.661  34.253  1.00  0.00     0.049 A 
ATOM     56  H   UNL A   1      41.219  29.328  32.758  1.00  0.00     0.167 HD
ATOM     57  C   UNL A   1      43.247  27.437  32.214  1.00  0.00     0.074 A 
ATOM     58  C   UNL A   1      44.097  26.506  31.501  1.00  0.00     0.031 C 
ATOM     59  C   UNL A   1      43.383  27.738  33.529  1.00  0.00     0.037 A 
BRANCH  46  60
ATOM     60  C   UNL A   1      39.272  31.870  35.576  1.00  0.00     0.057 A 
ATOM     61  C   UNL A   1      39.759  33.166  35.783  1.00  0.00     0.134 A 
ATOM     62  C   UNL A   1      38.309  31.393  36.477  1.00  0.00     0.134 A 
ATOM     63  F   UNL A   1      40.691  33.682  34.968  1.00  0.00    -0.206 F 
ATOM     64  C   UNL A   1      39.300  33.960  36.837  1.00  0.00     0.040 A 
ATOM     65  C   UNL A   1      37.819  32.187  37.515  1.00  0.00     0.040 A 
ATOM     66  F   UNL A   1      37.791  30.164  36.331  1.00  0.00    -0.206 F 
ATOM     67  C   UNL A   1      38.319  33.475  37.700  1.00  0.00     0.006 A 
ENDBRANCH  46  60
BRANCH  47  68
ATOM     68  C   UNL A   1      42.413  26.707  27.653  1.00  0.00     0.057 A 
ATOM     69  C   UNL A   1      41.962  25.404  27.419  1.00  0.00     0.134 A 
ATOM     70  C   UNL A   1      43.320  27.250  26.734  1.00  0.00     0.134 A 
ATOM     71  F   UNL A   1      41.099  24.824  28.266  1.00  0.00    -0.206 F 
ATOM     72  C   UNL A   1      42.396  24.669  26.315  1.00  0.00     0.040 A 
ATOM     73  C   UNL A   1      43.744  26.537  25.613  1.00  0.00     0.040 A 
ATOM     74  F   UNL A   1      43.775  28.503  26.895  1.00  0.00    -0.206 F 
ATOM     75  C   UNL A   1      43.284  25.238  25.403  1.00  0.00     0.006 A 
ENDBRANCH  47  68
BRANCH  59  76
ATOM     76  C   UNL A   1      44.479  27.039  34.276  1.00  0.00     0.057 A 
ATOM     77  C   UNL A   1      45.752  27.612  34.380  1.00  0.00     0.134 A 
ATOM     78  C   UNL A   1      44.276  25.791  34.878  1.00  0.00     0.134 A 
ATOM     79  F   UNL A   1      46.011  28.802  33.819  1.00  0.00    -0.206 F 
ATOM     80  C   UNL A   1      46.786  26.967  35.058  1.00  0.00     0.040 A 
ATOM     81  C   UNL A   1      45.296  25.148  35.581  1.00  0.00     0.040 A 
ATOM     82  F   UNL A   1      43.074  25.197  34.826  1.00  0.00    -0.206 F 
ATOM     83  C   UNL A   1      46.557  25.735  35.667  1.00  0.00     0.006 A 
ENDBRANCH  59  76
ENDBRANCH  33  34
ENDBRANCH  26  28
ENDBRANCH  25  26
ENDBRANCH   1  25
TORSDOF 13
ENDMDL
MODEL 3
REMARK VINA RESULT:     -11.9      1.193      1.783
REMARK SMILES CC(C)(C)c1cc2c(cc1Cl)C=C(C(=O)OCCOC(=O)c1ccc(-c3c4nc(c(-c5c(F)cccc5F)c5ccc([nH]5)c(-c5c(F)cccc5F)c5nc(c(-c6c(F)cccc6F)c6ccc3[nH]6)C=C5)C=C4)cc1)[C@@H](C(F)(F)F)O2
REMARK SMILES IDX 18 1 17 2 16 3 14 4 15 5 13 6 5 7 6 8 10 9 7 10 9 11 11 12
REMARK SMILES IDX 8 13 81 14 12 15 76 16 2 17 1 18 3 19 4 20 77 21 78 22 79 23
REMARK SMILES IDX 80 24 19 25 20 26 21 27 22 28 23 29 75 30 24 31 74 32 25 33
REMARK SMILES IDX 26 34 27 35 68 36 28 37 73 38 67 39 69 40 29 41 72 42 66 43
REMARK SMILES IDX 65 44 30 46 56 47 39 48 55 49 40 50 43 51 54 52 70 53 41 54
REMARK SMILES IDX 42 55 53 57 71 58 44 59 31 60 32 61 37 62 33 63 34 64 36 65
REMARK SMILES IDX 38 66 35 67 57 68 58 69 63 70 59 71 60 72 62 73 64 74 61 75
REMARK SMILES IDX 45 76 46 77 51 78 47 79 48 80 50 81 52 82 49 83
REMARK H PARENT 69 45 43 56
REMARK Flexibility Score: inf
ROOT
ATOM      1  C   UNL A   1      37.630  21.066  25.020  1.00  0.00     0.275 C 
ENDROOT
BRANCH   1   2
ATOM      2  C   UNL A   1      36.153  20.700  25.176  1.00  0.00     0.275 C 
BRANCH   2   3
ATOM      3  O   UNL A   1      35.321  21.410  24.231  1.00  0.00    -0.459 OA
BRANCH   3   4
ATOM      4  C   UNL A   1      33.991  21.353  24.471  1.00  0.00     0.338 C 
ATOM      5  O   UNL A   1      33.276  20.369  24.365  1.00  0.00    -0.246 OA
BRANCH   4   6
ATOM      6  C   UNL A   1      33.490  22.653  24.957  1.00  0.00     0.087 C 
ATOM      7  C   UNL A   1      32.831  27.631  25.706  1.00  0.00    -0.020 A 
ATOM      8  C   UNL A   1      32.411  26.434  26.365  1.00  0.00     0.053 A 
ATOM      9  C   UNL A   1      33.538  27.458  24.500  1.00  0.00     0.045 A 
ATOM     10  C   UNL A   1      32.730  25.156  25.899  1.00  0.00     0.128 A 
ATOM     11  C   UNL A   1      33.856  26.174  24.036  1.00  0.00     0.032 A 
ATOM     12  Cl  UNL A   1      34.069  28.715  23.441  1.00  0.00    -0.084 Cl
ATOM     13  C   UNL A   1      33.473  25.036  24.741  1.00  0.00     0.019 A 
ATOM     14  O   UNL A   1      32.274  24.084  26.614  1.00  0.00    -0.475 OA
ATOM     15  C   UNL A   1      33.859  23.733  24.262  1.00  0.00     0.027 C 
ATOM     16  C   UNL A   1      32.723  22.741  26.247  1.00  0.00     0.316 C 
BRANCH   7  17
ATOM     17  C   UNL A   1      32.434  28.978  26.361  1.00  0.00    -0.012 C 
ATOM     18  C   UNL A   1      31.641  29.985  25.498  1.00  0.00     0.016 C 
ATOM     19  C   UNL A   1      33.705  29.752  26.801  1.00  0.00     0.016 C 
ATOM     20  C   UNL A   1      31.570  28.669  27.603  1.00  0.00     0.016 C 
ENDBRANCH   7  17
BRANCH  16  21
ATOM     21  C   UNL A   1      33.546  22.162  27.409  1.00  0.00     0.430 C 
ATOM     22  F   UNL A   1      34.804  22.666  27.425  1.00  0.00    -0.167 F 
ATOM     23  F   UNL A   1      32.994  22.465  28.610  1.00  0.00    -0.167 F 
ATOM     24  F   UNL A   1      33.649  20.815  27.341  1.00  0.00    -0.167 F 
ENDBRANCH  16  21
ENDBRANCH   4   6
ENDBRANCH   3   4
ENDBRANCH   2   3
ENDBRANCH   1   2
BRANCH   1  25
ATOM     25  O   UNL A   1      38.029  22.016  26.027  1.00  0.00    -0.458 OA
BRANCH  25  26
ATOM     26  C   UNL A   1      39.353  22.048  26.298  1.00  0.00     0.338 C 
ATOM     27  O   UNL A   1      40.201  21.238  25.969  1.00  0.00    -0.246 OA
BRANCH  26  28
ATOM     28  C   UNL A   1      39.687  23.293  27.006  1.00  0.00     0.060 A 
ATOM     29  C   UNL A   1      40.672  23.329  27.984  1.00  0.00     0.016 A 
ATOM     30  C   UNL A   1      39.124  24.476  26.544  1.00  0.00     0.016 A 
ATOM     31  C   UNL A   1      41.078  24.570  28.496  1.00  0.00     0.010 A 
ATOM     32  C   UNL A   1      39.645  25.707  26.932  1.00  0.00     0.010 A 
ATOM     33  C   UNL A   1      40.605  25.780  27.944  1.00  0.00    -0.014 A 
BRANCH  33  34
ATOM     34  C   UNL A   1      41.104  27.104  28.430  1.00  0.00     0.031 A 
ATOM     35  C   UNL A   1      42.547  27.518  28.243  1.00  0.00     0.074 A 
ATOM     36  C   UNL A   1      40.262  27.938  29.076  1.00  0.00     0.049 A 
ATOM     37  N   UNL A   1      43.130  28.652  28.559  1.00  0.00    -0.248 NA
ATOM     38  C   UNL A   1      43.470  26.524  27.673  1.00  0.00     0.031 C 
ATOM     39  C   UNL A   1      38.877  27.631  29.443  1.00  0.00     0.029 A 
ATOM     40  N   UNL A   1      40.439  29.226  29.519  1.00  0.00    -0.354 N 
ATOM     41  C   UNL A   1      44.477  28.487  28.254  1.00  0.00     0.074 A 
ATOM     42  C   UNL A   1      44.643  27.124  27.806  1.00  0.00     0.031 C 
ATOM     43  C   UNL A   1      38.306  28.726  29.970  1.00  0.00     0.029 A 
ATOM     44  C   UNL A   1      39.291  29.800  30.014  1.00  0.00     0.049 A 
ATOM     45  H   UNL A   1      41.305  29.693  29.487  1.00  0.00     0.167 HD
ATOM     46  C   UNL A   1      45.483  29.394  28.293  1.00  0.00     0.037 A 
ATOM     47  C   UNL A   1      39.049  31.058  30.428  1.00  0.00     0.037 A 
ATOM     48  C   UNL A   1      45.315  30.771  28.673  1.00  0.00     0.049 A 
ATOM     49  C   UNL A   1      40.158  32.072  30.387  1.00  0.00     0.074 A 
ATOM     50  C   UNL A   1      46.247  31.795  28.654  1.00  0.00     0.029 A 
ATOM     51  N   UNL A   1      44.128  31.319  29.133  1.00  0.00    -0.354 N 
ATOM     52  N   UNL A   1      41.399  31.926  29.994  1.00  0.00    -0.248 NA
ATOM     53  C   UNL A   1      39.826  33.431  30.841  1.00  0.00     0.031 C 
ATOM     54  C   UNL A   1      45.628  32.958  29.126  1.00  0.00     0.029 A 
ATOM     55  C   UNL A   1      44.304  32.664  29.409  1.00  0.00     0.049 A 
ATOM     56  H   UNL A   1      43.285  30.824  29.247  1.00  0.00     0.167 HD
ATOM     57  C   UNL A   1      41.991  33.173  30.138  1.00  0.00     0.074 A 
ATOM     58  C   UNL A   1      40.966  34.071  30.628  1.00  0.00     0.031 C 
ATOM     59  C   UNL A   1      43.273  33.542  29.894  1.00  0.00     0.037 A 
BRANCH  46  60
ATOM     60  C   UNL A   1      46.850  28.929  27.873  1.00  0.00     0.057 A 
ATOM     61  C   UNL A   1      47.227  28.920  26.524  1.00  0.00     0.134 A 
ATOM     62  C   UNL A   1      47.794  28.478  28.807  1.00  0.00     0.134 A 
ATOM     63  F   UNL A   1      46.371  29.325  25.575  1.00  0.00    -0.206 F 
ATOM     64  C   UNL A   1      48.494  28.490  26.123  1.00  0.00     0.040 A 
ATOM     65  C   UNL A   1      49.073  28.075  28.422  1.00  0.00     0.040 A 
ATOM     66  F   UNL A   1      47.503  28.470  30.117  1.00  0.00    -0.206 F 
ATOM     67  C   UNL A   1      49.425  28.077  27.074  1.00  0.00     0.006 A 
ENDBRANCH  46  60
BRANCH  47  68
ATOM     68  C   UNL A   1      37.683  31.454  30.853  1.00  0.00     0.057 A 
ATOM     69  C   UNL A   1      37.299  31.448  32.198  1.00  0.00     0.134 A 
ATOM     70  C   UNL A   1      36.729  31.861  29.912  1.00  0.00     0.134 A 
ATOM     71  F   UNL A   1      38.163  31.061  33.148  1.00  0.00    -0.206 F 
ATOM     72  C   UNL A   1      36.016  31.830  32.592  1.00  0.00     0.040 A 
ATOM     73  C   UNL A   1      35.451  32.269  30.293  1.00  0.00     0.040 A 
ATOM     74  F   UNL A   1      37.044  31.904  28.608  1.00  0.00    -0.206 F 
ATOM     75  C   UNL A   1      35.090  32.251  31.639  1.00  0.00     0.006 A 
ENDBRANCH  47  68
BRANCH  59  76
ATOM     76  C   UNL A   1      43.625  34.979  30.137  1.00  0.00     0.057 A 
ATOM     77  C   UNL A   1      43.492  35.930  29.119  1.00  0.00     0.134 A 
ATOM     78  C   UNL A   1      44.112  35.416  31.375  1.00  0.00     0.134 A 
ATOM     79  F   UNL A   1      43.038  35.573  27.908  1.00  0.00    -0.206 F 
ATOM     80  C   UNL A   1      43.831  37.268  29.324  1.00  0.00     0.040 A 
ATOM     81  C   UNL A   1      44.430  36.756  31.600  1.00  0.00     0.040 A 
ATOM     82  F   UNL A   1      44.248  34.555  32.396  1.00  0.00    -0.206 F 
ATOM     83  C   UNL A   1      44.294  37.685  30.571  1.00  0.00     0.006 A 
ENDBRANCH  59  76
ENDBRANCH  33  34
ENDBRANCH  26  28
ENDBRANCH  25  26
ENDBRANCH   1  25
TORSDOF 13
ENDMDL
