MODEL 1
REMARK VINA RESULT:     -15.0      0.000      0.000
REMARK SMILES O=C(OCCOC(=O)c1ccc(-c2c3nc(c(-c4c(F)cccc4F)c4ccc([nH]4)c(-c4c(F)cccc4F)c4nc(c(-c5c(F)cccc5F)c5ccc2[nH]5)C=C4)C=C3)cc1)C1=Cc2cc(C(F)(F)F)ccc2O[C@@H]1C(F)(F)F
REMARK SMILES IDX 5 1 4 2 3 3 2 4 1 5 63 6 64 7 76 8 65 9 75 10 66 11 74 12
REMARK SMILES IDX 67 13 73 14 72 15 77 16 78 17 79 18 80 19 68 20 69 21 70 22
REMARK SMILES IDX 71 23 6 24 7 25 8 26 9 27 10 28 62 29 11 30 61 31 12 32
REMARK SMILES IDX 13 33 14 34 55 35 15 36 60 37 54 38 56 39 16 40 59 41 53 42
REMARK SMILES IDX 52 43 17 45 43 46 26 47 42 48 27 49 30 50 41 51 57 52 28 53
REMARK SMILES IDX 29 54 40 56 58 57 31 58 18 59 19 60 24 61 20 62 21 63 23 64
REMARK SMILES IDX 25 65 22 66 44 67 45 68 50 69 46 70 47 71 49 72 51 73 48 74
REMARK SMILES IDX 32 75 33 76 38 77 34 78 35 79 37 80 39 81 36 82
REMARK H PARENT 56 44 30 55
REMARK Flexibility Score: inf
ROOT
ATOM      1  C   UNL A   1      31.270  32.329  26.758  1.00  0.00     0.275 C 
ENDROOT
BRANCH   1   2
ATOM      2  C   UNL A   1      31.984  30.258  26.721  1.00  0.00     0.275 C 
BRANCH   2   3
ATOM      3  O   UNL A   1      31.505  29.143  25.829  1.00  0.00    -0.459 OA
BRANCH   3   4
ATOM      4  C   UNL A   1      31.400  27.995  26.499  1.00  0.00     0.338 C 
ATOM      5  O   UNL A   1      31.473  27.820  27.692  1.00  0.00    -0.246 OA
BRANCH   4   6
ATOM      6  C   UNL A   1      31.698  27.081  25.397  1.00  0.00     0.087 C 
ATOM      7  C   UNL A   1      33.047  26.640  25.288  1.00  0.00     0.027 C 
ATOM      8  C   UNL A   1      30.216  25.981  25.855  1.00  0.00     0.316 C 
ATOM      9  C   UNL A   1      33.611  25.062  25.780  1.00  0.00     0.018 A 
ATOM     10  O   UNL A   1      30.817  24.272  26.623  1.00  0.00    -0.475 OA
ATOM     11  C   UNL A   1      34.910  24.799  25.507  1.00  0.00     0.025 A 
ATOM     12  C   UNL A   1      32.634  23.905  26.605  1.00  0.00     0.128 A 
ATOM     13  C   UNL A   1      35.391  23.590  26.019  1.00  0.00     0.056 A 
ATOM     14  C   UNL A   1      33.155  22.743  27.093  1.00  0.00     0.048 A 
ATOM     15  C   UNL A   1      34.561  22.638  26.797  1.00  0.00     0.017 A 
BRANCH   8  16
ATOM     16  C   UNL A   1      29.672  26.496  24.308  1.00  0.00     0.430 C 
ATOM     17  F   UNL A   1      30.306  25.894  23.321  1.00  0.00    -0.167 F 
ATOM     18  F   UNL A   1      28.388  26.069  24.066  1.00  0.00    -0.167 F 
ATOM     19  F   UNL A   1      29.593  27.824  24.055  1.00  0.00    -0.167 F 
ENDBRANCH   8  16
BRANCH  13  20
ATOM     20  C   UNL A   1      36.850  23.341  25.664  1.00  0.00     0.416 C 
ATOM     21  F   UNL A   1      37.074  23.495  24.328  1.00  0.00    -0.166 F 
ATOM     22  F   UNL A   1      37.681  24.241  26.271  1.00  0.00    -0.166 F 
ATOM     23  F   UNL A   1      37.312  22.113  25.999  1.00  0.00    -0.166 F 
ENDBRANCH  13  20
ENDBRANCH   4   6
ENDBRANCH   3   4
ENDBRANCH   2   3
ENDBRANCH   1   2
BRANCH   1  24
ATOM     24  O   UNL A   1      32.336  33.667  27.260  1.00  0.00    -0.458 OA
BRANCH  24  25
ATOM     25  C   UNL A   1      33.105  34.088  28.348  1.00  0.00     0.338 C 
ATOM     26  O   UNL A   1      32.761  34.654  29.371  1.00  0.00    -0.246 OA
BRANCH  25  27
ATOM     27  C   UNL A   1      34.386  33.313  28.301  1.00  0.00     0.060 A 
ATOM     28  C   UNL A   1      35.606  33.968  28.607  1.00  0.00     0.016 A 
ATOM     29  C   UNL A   1      34.296  31.931  28.387  1.00  0.00     0.016 A 
ATOM     30  C   UNL A   1      36.634  33.247  29.260  1.00  0.00     0.010 A 
ATOM     31  C   UNL A   1      35.304  31.229  29.041  1.00  0.00     0.010 A 
ATOM     32  C   UNL A   1      36.440  31.886  29.562  1.00  0.00    -0.014 A 
BRANCH  32  33
ATOM     33  C   UNL A   1      37.533  31.026  30.081  1.00  0.00     0.031 A 
ATOM     34  C   UNL A   1      37.831  31.279  31.524  1.00  0.00     0.074 A 
ATOM     35  C   UNL A   1      38.324  30.215  29.344  1.00  0.00     0.049 A 
ATOM     36  N   UNL A   1      38.864  30.947  32.241  1.00  0.00    -0.248 NA
ATOM     37  C   UNL A   1      36.844  32.127  32.223  1.00  0.00     0.031 C 
ATOM     38  C   UNL A   1      38.161  29.884  27.928  1.00  0.00     0.029 A 
ATOM     39  N   UNL A   1      39.468  29.532  29.705  1.00  0.00    -0.354 N 
ATOM     40  C   UNL A   1      38.661  31.582  33.456  1.00  0.00     0.074 A 
ATOM     41  C   UNL A   1      37.484  32.404  33.337  1.00  0.00     0.031 C 
ATOM     42  C   UNL A   1      39.164  29.066  27.546  1.00  0.00     0.029 A 
ATOM     43  C   UNL A   1      40.069  28.841  28.674  1.00  0.00     0.049 A 
ATOM     44  H   UNL A   1      39.825  29.537  30.623  1.00  0.00     0.167 HD
ATOM     45  C   UNL A   1      39.368  31.465  34.597  1.00  0.00     0.037 A 
ATOM     46  C   UNL A   1      41.220  28.130  28.657  1.00  0.00     0.037 A 
ATOM     47  C   UNL A   1      40.542  30.658  34.703  1.00  0.00     0.049 A 
ATOM     48  C   UNL A   1      42.040  28.041  29.930  1.00  0.00     0.074 A 
ATOM     49  C   UNL A   1      41.341  30.444  35.805  1.00  0.00     0.029 A 
ATOM     50  N   UNL A   1      41.092  29.944  33.646  1.00  0.00    -0.354 N 
ATOM     51  N   UNL A   1      41.816  28.592  31.101  1.00  0.00    -0.248 NA
ATOM     52  C   UNL A   1      43.273  27.237  29.883  1.00  0.00     0.031 C 
ATOM     53  C   UNL A   1      42.419  29.654  35.398  1.00  0.00     0.029 A 
ATOM     54  C   UNL A   1      42.239  29.304  34.066  1.00  0.00     0.049 A 
ATOM     55  H   UNL A   1      40.719  29.901  32.736  1.00  0.00     0.167 HD
ATOM     56  C   UNL A   1      42.843  28.165  31.937  1.00  0.00     0.074 A 
ATOM     57  C   UNL A   1      43.701  27.316  31.137  1.00  0.00     0.031 C 
ATOM     58  C   UNL A   1      43.055  28.440  33.249  1.00  0.00     0.037 A 
BRANCH  45  59
ATOM     59  C   UNL A   1      38.878  32.274  35.758  1.00  0.00     0.057 A 
ATOM     60  C   UNL A   1      39.266  33.610  35.950  1.00  0.00     0.134 A 
ATOM     61  C   UNL A   1      38.118  31.669  36.763  1.00  0.00     0.134 A 
ATOM     62  F   UNL A   1      40.035  34.234  35.043  1.00  0.00    -0.206 F 
ATOM     63  C   UNL A   1      38.979  34.289  37.133  1.00  0.00     0.040 A 
ATOM     64  C   UNL A   1      37.782  32.355  37.929  1.00  0.00     0.040 A 
ATOM     65  F   UNL A   1      37.726  30.391  36.649  1.00  0.00    -0.206 F 
ATOM     66  C   UNL A   1      38.232  33.660  38.126  1.00  0.00     0.006 A 
ENDBRANCH  45  59
BRANCH  46  67
ATOM     67  C   UNL A   1      41.681  27.429  27.420  1.00  0.00     0.057 A 
ATOM     68  C   UNL A   1      41.405  26.070  27.204  1.00  0.00     0.134 A 
ATOM     69  C   UNL A   1      42.445  28.078  26.442  1.00  0.00     0.134 A 
ATOM     70  F   UNL A   1      40.714  25.370  28.114  1.00  0.00    -0.206 F 
ATOM     71  C   UNL A   1      41.874  25.387  26.076  1.00  0.00     0.040 A 
ATOM     72  C   UNL A   1      42.900  27.414  25.297  1.00  0.00     0.040 A 
ATOM     73  F   UNL A   1      42.767  29.372  26.584  1.00  0.00    -0.206 F 
ATOM     74  C   UNL A   1      42.619  26.063  25.113  1.00  0.00     0.006 A 
ENDBRANCH  46  67
BRANCH  58  75
ATOM     75  C   UNL A   1      44.203  27.765  33.943  1.00  0.00     0.057 A 
ATOM     76  C   UNL A   1      45.449  28.379  34.103  1.00  0.00     0.134 A 
ATOM     77  C   UNL A   1      44.001  26.531  34.579  1.00  0.00     0.134 A 
ATOM     78  F   UNL A   1      45.708  29.559  33.520  1.00  0.00    -0.206 F 
ATOM     79  C   UNL A   1      46.457  27.787  34.867  1.00  0.00     0.040 A 
ATOM     80  C   UNL A   1      44.986  25.948  35.374  1.00  0.00     0.040 A 
ATOM     81  F   UNL A   1      42.820  25.900  34.482  1.00  0.00    -0.206 F 
ATOM     82  C   UNL A   1      46.220  26.576  35.518  1.00  0.00     0.006 A 
ENDBRANCH  58  75
ENDBRANCH  32  33
ENDBRANCH  25  27
ENDBRANCH  24  25
ENDBRANCH   1  24
TORSDOF 13
ENDMDL
MODEL 2
REMARK VINA RESULT:     -14.8      4.477      9.662
REMARK SMILES O=C(OCCOC(=O)c1ccc(-c2c3nc(c(-c4c(F)cccc4F)c4ccc([nH]4)c(-c4c(F)cccc4F)c4nc(c(-c5c(F)cccc5F)c5ccc2[nH]5)C=C4)C=C3)cc1)C1=Cc2cc(C(F)(F)F)ccc2O[C@@H]1C(F)(F)F
REMARK SMILES IDX 5 1 4 2 3 3 2 4 1 5 63 6 64 7 76 8 65 9 75 10 66 11 74 12
REMARK SMILES IDX 67 13 73 14 72 15 77 16 78 17 79 18 80 19 68 20 69 21 70 22
REMARK SMILES IDX 71 23 6 24 7 25 8 26 9 27 10 28 62 29 11 30 61 31 12 32
REMARK SMILES IDX 13 33 14 34 55 35 15 36 60 37 54 38 56 39 16 40 59 41 53 42
REMARK SMILES IDX 52 43 17 45 43 46 26 47 42 48 27 49 30 50 41 51 57 52 28 53
REMARK SMILES IDX 29 54 40 56 58 57 31 58 18 59 19 60 24 61 20 62 21 63 23 64
REMARK SMILES IDX 25 65 22 66 44 67 45 68 50 69 46 70 47 71 49 72 51 73 48 74
REMARK SMILES IDX 32 75 33 76 38 77 34 78 35 79 37 80 39 81 36 82
REMARK H PARENT 56 44 30 55
REMARK Flexibility Score: inf
ROOT
ATOM      1  C   UNL A   1      38.230  19.523  24.928  1.00  0.00     0.275 C 
ENDROOT
BRANCH   1   2
ATOM      2  C   UNL A   1      37.187  21.435  24.689  1.00  0.00     0.275 C 
BRANCH   2   3
ATOM      3  O   UNL A   1      35.731  21.646  24.363  1.00  0.00    -0.459 OA
BRANCH   3   4
ATOM      4  C   UNL A   1      35.563  22.669  23.524  1.00  0.00     0.338 C 
ATOM      5  O   UNL A   1      36.407  23.258  22.891  1.00  0.00    -0.246 OA
BRANCH   4   6
ATOM      6  C   UNL A   1      34.264  23.129  24.011  1.00  0.00     0.087 C 
ATOM      7  C   UNL A   1      34.286  24.160  24.993  1.00  0.00     0.027 C 
ATOM      8  C   UNL A   1      33.619  23.319  22.233  1.00  0.00     0.316 C 
ATOM      9  C   UNL A   1      33.936  25.840  24.666  1.00  0.00     0.018 A 
ATOM     10  O   UNL A   1      33.423  25.217  21.752  1.00  0.00    -0.475 OA
ATOM     11  C   UNL A   1      33.915  26.649  25.749  1.00  0.00     0.025 A 
ATOM     12  C   UNL A   1      33.680  26.479  23.084  1.00  0.00     0.128 A 
ATOM     13  C   UNL A   1      33.767  28.011  25.470  1.00  0.00     0.056 A 
ATOM     14  C   UNL A   1      33.549  27.819  22.865  1.00  0.00     0.048 A 
ATOM     15  C   UNL A   1      33.627  28.559  24.099  1.00  0.00     0.017 A 
BRANCH   8  16
ATOM     16  C   UNL A   1      32.549  22.078  22.752  1.00  0.00     0.430 C 
ATOM     17  F   UNL A   1      31.444  22.554  23.290  1.00  0.00    -0.167 F 
ATOM     18  F   UNL A   1      32.022  21.396  21.680  1.00  0.00    -0.167 F 
ATOM     19  F   UNL A   1      33.038  21.079  23.524  1.00  0.00    -0.167 F 
ENDBRANCH   8  16
BRANCH  13  20
ATOM     20  C   UNL A   1      33.731  28.869  26.727  1.00  0.00     0.416 C 
ATOM     21  F   UNL A   1      34.966  28.973  27.297  1.00  0.00    -0.166 F 
ATOM     22  F   UNL A   1      33.355  30.154  26.454  1.00  0.00    -0.166 F 
ATOM     23  F   UNL A   1      32.891  28.426  27.692  1.00  0.00    -0.166 F 
ENDBRANCH  13  20
ENDBRANCH   4   6
ENDBRANCH   3   4
ENDBRANCH   2   3
ENDBRANCH   1   2
BRANCH   1  24
ATOM     24  O   UNL A   1      39.642  19.368  26.007  1.00  0.00    -0.458 OA
BRANCH  24  25
ATOM     25  C   UNL A   1      40.964  19.800  26.125  1.00  0.00     0.338 C 
ATOM     26  O   UNL A   1      41.950  19.473  25.488  1.00  0.00    -0.246 OA
BRANCH  25  27
ATOM     27  C   UNL A   1      40.932  21.106  26.859  1.00  0.00     0.060 A 
ATOM     28  C   UNL A   1      42.047  21.488  27.647  1.00  0.00     0.016 A 
ATOM     29  C   UNL A   1      40.033  22.064  26.411  1.00  0.00     0.016 A 
ATOM     30  C   UNL A   1      42.391  22.858  27.741  1.00  0.00     0.010 A 
ATOM     31  C   UNL A   1      40.383  23.408  26.494  1.00  0.00     0.010 A 
ATOM     32  C   UNL A   1      41.602  23.816  27.079  1.00  0.00    -0.014 A 
BRANCH  32  33
ATOM     33  C   UNL A   1      41.796  25.275  27.275  1.00  0.00     0.031 A 
ATOM     34  C   UNL A   1      43.106  25.760  26.743  1.00  0.00     0.074 A 
ATOM     35  C   UNL A   1      40.998  26.092  27.998  1.00  0.00     0.049 A 
ATOM     36  N   UNL A   1      43.746  26.871  26.967  1.00  0.00    -0.248 NA
ATOM     37  C   UNL A   1      43.839  24.785  25.911  1.00  0.00     0.031 C 
ATOM     38  C   UNL A   1      39.702  25.754  28.586  1.00  0.00     0.029 A 
ATOM     39  N   UNL A   1      41.197  27.402  28.387  1.00  0.00    -0.354 N 
ATOM     40  C   UNL A   1      44.968  26.699  26.335  1.00  0.00     0.074 A 
ATOM     41  C   UNL A   1      45.022  25.351  25.831  1.00  0.00     0.031 C 
ATOM     42  C   UNL A   1      39.226  26.824  29.256  1.00  0.00     0.029 A 
ATOM     43  C   UNL A   1      40.197  27.917  29.184  1.00  0.00     0.049 A 
ATOM     44  H   UNL A   1      41.987  27.925  28.116  1.00  0.00     0.167 HD
ATOM     45  C   UNL A   1      45.954  27.599  26.148  1.00  0.00     0.037 A 
ATOM     46  C   UNL A   1      40.100  29.125  29.788  1.00  0.00     0.037 A 
ATOM     47  C   UNL A   1      45.897  28.930  26.664  1.00  0.00     0.049 A 
ATOM     48  C   UNL A   1      41.235  30.117  29.618  1.00  0.00     0.074 A 
ATOM     49  C   UNL A   1      46.824  29.941  26.533  1.00  0.00     0.029 A 
ATOM     50  N   UNL A   1      44.850  29.422  27.430  1.00  0.00    -0.354 N 
ATOM     51  N   UNL A   1      42.367  29.979  28.965  1.00  0.00    -0.248 NA
ATOM     52  C   UNL A   1      41.085  31.431  30.265  1.00  0.00     0.031 C 
ATOM     53  C   UNL A   1      46.369  31.030  27.282  1.00  0.00     0.029 A 
ATOM     54  C   UNL A   1      45.118  30.723  27.802  1.00  0.00     0.049 A 
ATOM     55  H   UNL A   1      44.038  28.920  27.671  1.00  0.00     0.167 HD
ATOM     56  C   UNL A   1      43.036  31.193  29.082  1.00  0.00     0.074 A 
ATOM     57  C   UNL A   1      42.189  32.058  29.878  1.00  0.00     0.031 C 
ATOM     58  C   UNL A   1      44.237  31.566  28.571  1.00  0.00     0.037 A 
BRANCH  45  59
ATOM     59  C   UNL A   1      47.154  27.109  25.398  1.00  0.00     0.057 A 
ATOM     60  C   UNL A   1      48.184  26.391  26.029  1.00  0.00     0.134 A 
ATOM     61  C   UNL A   1      47.343  27.475  24.062  1.00  0.00     0.134 A 
ATOM     62  F   UNL A   1      48.082  26.049  27.324  1.00  0.00    -0.206 F 
ATOM     63  C   UNL A   1      49.387  26.123  25.380  1.00  0.00     0.040 A 
ATOM     64  C   UNL A   1      48.524  27.167  23.387  1.00  0.00     0.040 A 
ATOM     65  F   UNL A   1      46.406  28.174  23.405  1.00  0.00    -0.206 F 
ATOM     66  C   UNL A   1      49.557  26.509  24.052  1.00  0.00     0.006 A 
ENDBRANCH  45  59
BRANCH  46  67
ATOM     67  C   UNL A   1      38.900  29.493  30.599  1.00  0.00     0.057 A 
ATOM     68  C   UNL A   1      37.825  30.198  30.035  1.00  0.00     0.134 A 
ATOM     69  C   UNL A   1      38.809  29.194  31.964  1.00  0.00     0.134 A 
ATOM     70  F   UNL A   1      37.858  30.557  28.744  1.00  0.00    -0.206 F 
ATOM     71  C   UNL A   1      36.718  30.596  30.794  1.00  0.00     0.040 A 
ATOM     72  C   UNL A   1      37.697  29.564  32.730  1.00  0.00     0.040 A 
ATOM     73  F   UNL A   1      39.803  28.539  32.581  1.00  0.00    -0.206 F 
ATOM     74  C   UNL A   1      36.649  30.271  32.146  1.00  0.00     0.006 A 
ENDBRANCH  46  67
BRANCH  58  75
ATOM     75  C   UNL A   1      44.687  32.985  28.771  1.00  0.00     0.057 A 
ATOM     76  C   UNL A   1      45.454  33.380  29.873  1.00  0.00     0.134 A 
ATOM     77  C   UNL A   1      44.460  33.934  27.764  1.00  0.00     0.134 A 
ATOM     78  F   UNL A   1      45.707  32.521  30.871  1.00  0.00    -0.206 F 
ATOM     79  C   UNL A   1      45.973  34.673  29.969  1.00  0.00     0.040 A 
ATOM     80  C   UNL A   1      45.004  35.216  27.831  1.00  0.00     0.040 A 
ATOM     81  F   UNL A   1      43.751  33.611  26.672  1.00  0.00    -0.206 F 
ATOM     82  C   UNL A   1      45.762  35.589  28.938  1.00  0.00     0.006 A 
ENDBRANCH  58  75
ENDBRANCH  32  33
ENDBRANCH  25  27
ENDBRANCH  24  25
ENDBRANCH   1  24
TORSDOF 13
ENDMDL
MODEL 3
REMARK VINA RESULT:     -14.6      1.091      6.392
REMARK SMILES O=C(OCCOC(=O)c1ccc(-c2c3nc(c(-c4c(F)cccc4F)c4ccc([nH]4)c(-c4c(F)cccc4F)c4nc(c(-c5c(F)cccc5F)c5ccc2[nH]5)C=C4)C=C3)cc1)C1=Cc2cc(C(F)(F)F)ccc2O[C@@H]1C(F)(F)F
REMARK SMILES IDX 5 1 4 2 3 3 2 4 1 5 63 6 64 7 76 8 65 9 75 10 66 11 74 12
REMARK SMILES IDX 67 13 73 14 72 15 77 16 78 17 79 18 80 19 68 20 69 21 70 22
REMARK SMILES IDX 71 23 6 24 7 25 8 26 9 27 10 28 62 29 11 30 61 31 12 32
REMARK SMILES IDX 13 33 14 34 55 35 15 36 60 37 54 38 56 39 16 40 59 41 53 42
REMARK SMILES IDX 52 43 17 45 43 46 26 47 42 48 27 49 30 50 41 51 57 52 28 53
REMARK SMILES IDX 29 54 40 56 58 57 31 58 18 59 19 60 24 61 20 62 21 63 23 64
REMARK SMILES IDX 25 65 22 66 44 67 45 68 50 69 46 70 47 71 49 72 51 73 48 74
REMARK SMILES IDX 32 75 33 76 38 77 34 78 35 79 37 80 39 81 36 82
REMARK H PARENT 56 44 30 55
REMARK Flexibility Score: inf
ROOT
ATOM      1  C   UNL A   1      31.350  32.232  26.882  1.00  0.00     0.275 C 
ENDROOT
BRANCH   1   2
ATOM      2  C   UNL A   1      32.078  30.166  26.870  1.00  0.00     0.275 C 
BRANCH   2   3
ATOM      3  O   UNL A   1      31.696  29.070  25.910  1.00  0.00    -0.459 OA
BRANCH   3   4
ATOM      4  C   UNL A   1      31.466  27.922  26.548  1.00  0.00     0.338 C 
ATOM      5  O   UNL A   1      31.470  27.719  27.739  1.00  0.00    -0.246 OA
BRANCH   4   6
ATOM      6  C   UNL A   1      31.739  27.007  25.440  1.00  0.00     0.087 C 
ATOM      7  C   UNL A   1      33.078  26.537  25.322  1.00  0.00     0.027 C 
ATOM      8  C   UNL A   1      30.236  25.937  25.900  1.00  0.00     0.316 C 
ATOM      9  C   UNL A   1      33.609  24.945  25.803  1.00  0.00     0.018 A 
ATOM     10  O   UNL A   1      30.803  24.211  26.657  1.00  0.00    -0.475 OA
ATOM     11  C   UNL A   1      34.901  24.655  25.523  1.00  0.00     0.025 A 
ATOM     12  C   UNL A   1      32.611  23.805  26.628  1.00  0.00     0.128 A 
ATOM     13  C   UNL A   1      35.358  23.434  26.025  1.00  0.00     0.056 A 
ATOM     14  C   UNL A   1      33.110  22.630  27.106  1.00  0.00     0.048 A 
ATOM     15  C   UNL A   1      34.512  22.496  26.803  1.00  0.00     0.017 A 
BRANCH   8  16
ATOM     16  C   UNL A   1      29.696  26.472  24.359  1.00  0.00     0.430 C 
ATOM     17  F   UNL A   1      30.339  25.890  23.366  1.00  0.00    -0.167 F 
ATOM     18  F   UNL A   1      28.416  26.039  24.104  1.00  0.00    -0.167 F 
ATOM     19  F   UNL A   1      29.607  27.803  24.126  1.00  0.00    -0.167 F 
ENDBRANCH   8  16
BRANCH  13  20
ATOM     20  C   UNL A   1      36.809  23.155  25.662  1.00  0.00     0.416 C 
ATOM     21  F   UNL A   1      37.663  23.969  26.347  1.00  0.00    -0.166 F 
ATOM     22  F   UNL A   1      37.182  21.884  26.000  1.00  0.00    -0.166 F 
ATOM     23  F   UNL A   1      37.102  23.297  24.348  1.00  0.00    -0.166 F 
ENDBRANCH  13  20
ENDBRANCH   4   6
ENDBRANCH   3   4
ENDBRANCH   2   3
ENDBRANCH   1   2
BRANCH   1  24
ATOM     24  O   UNL A   1      32.426  33.590  27.305  1.00  0.00    -0.458 OA
BRANCH  24  25
ATOM     25  C   UNL A   1      32.992  34.215  28.418  1.00  0.00     0.338 C 
ATOM     26  O   UNL A   1      32.460  34.870  29.297  1.00  0.00    -0.246 OA
BRANCH  25  27
ATOM     27  C   UNL A   1      34.322  33.568  28.653  1.00  0.00     0.060 A 
ATOM     28  C   UNL A   1      35.508  34.314  28.433  1.00  0.00     0.016 A 
ATOM     29  C   UNL A   1      34.346  32.443  29.467  1.00  0.00     0.016 A 
ATOM     30  C   UNL A   1      36.635  34.078  29.255  1.00  0.00     0.010 A 
ATOM     31  C   UNL A   1      35.453  32.225  30.282  1.00  0.00     0.010 A 
ATOM     32  C   UNL A   1      36.571  33.086  30.250  1.00  0.00    -0.014 A 
BRANCH  32  33
ATOM     33  C   UNL A   1      37.764  32.664  31.027  1.00  0.00     0.031 A 
ATOM     34  C   UNL A   1      38.516  31.550  30.371  1.00  0.00     0.074 A 
ATOM     35  C   UNL A   1      38.089  33.077  32.272  1.00  0.00     0.049 A 
ATOM     36  N   UNL A   1      39.415  30.743  30.854  1.00  0.00    -0.248 NA
ATOM     37  C   UNL A   1      38.102  31.252  28.986  1.00  0.00     0.031 C 
ATOM     38  C   UNL A   1      37.440  34.142  33.037  1.00  0.00     0.029 A 
ATOM     39  N   UNL A   1      39.059  32.606  33.134  1.00  0.00    -0.354 N 
ATOM     40  C   UNL A   1      39.635  29.824  29.840  1.00  0.00     0.074 A 
ATOM     41  C   UNL A   1      38.701  30.100  28.779  1.00  0.00     0.031 C 
ATOM     42  C   UNL A   1      38.029  34.241  34.248  1.00  0.00     0.029 A 
ATOM     43  C   UNL A   1      39.073  33.222  34.368  1.00  0.00     0.049 A 
ATOM     44  H   UNL A   1      39.690  31.891  32.887  1.00  0.00     0.167 HD
ATOM     45  C   UNL A   1      40.565  28.852  29.771  1.00  0.00     0.037 A 
ATOM     46  C   UNL A   1      39.834  32.970  35.458  1.00  0.00     0.037 A 
ATOM     47  C   UNL A   1      41.480  28.576  30.833  1.00  0.00     0.049 A 
ATOM     48  C   UNL A   1      40.846  31.841  35.395  1.00  0.00     0.074 A 
ATOM     49  C   UNL A   1      42.478  27.628  30.882  1.00  0.00     0.029 A 
ATOM     50  N   UNL A   1      41.486  29.249  32.047  1.00  0.00    -0.354 N 
ATOM     51  N   UNL A   1      41.100  31.009  34.410  1.00  0.00    -0.248 NA
ATOM     52  C   UNL A   1      41.677  31.612  36.589  1.00  0.00     0.031 C 
ATOM     53  C   UNL A   1      43.046  27.678  32.157  1.00  0.00     0.029 A 
ATOM     54  C   UNL A   1      42.460  28.719  32.867  1.00  0.00     0.049 A 
ATOM     55  H   UNL A   1      40.886  29.992  32.287  1.00  0.00     0.167 HD
ATOM     56  C   UNL A   1      42.143  30.197  34.844  1.00  0.00     0.074 A 
ATOM     57  C   UNL A   1      42.471  30.627  36.187  1.00  0.00     0.031 C 
ATOM     58  C   UNL A   1      42.780  29.193  34.191  1.00  0.00     0.037 A 
BRANCH  45  59
ATOM     59  C   UNL A   1      40.563  28.030  28.519  1.00  0.00     0.057 A 
ATOM     60  C   UNL A   1      39.890  26.799  28.438  1.00  0.00     0.134 A 
ATOM     61  C   UNL A   1      41.351  28.410  27.428  1.00  0.00     0.134 A 
ATOM     62  F   UNL A   1      39.153  26.356  29.470  1.00  0.00    -0.206 F 
ATOM     63  C   UNL A   1      40.063  25.945  27.351  1.00  0.00     0.040 A 
ATOM     64  C   UNL A   1      41.491  27.586  26.313  1.00  0.00     0.040 A 
ATOM     65  F   UNL A   1      42.031  29.566  27.446  1.00  0.00    -0.206 F 
ATOM     66  C   UNL A   1      40.864  26.341  26.282  1.00  0.00     0.006 A 
ENDBRANCH  45  59
BRANCH  46  67
ATOM     67  C   UNL A   1      39.701  33.786  36.703  1.00  0.00     0.057 A 
ATOM     68  C   UNL A   1      38.828  33.408  37.735  1.00  0.00     0.134 A 
ATOM     69  C   UNL A   1      40.404  34.984  36.882  1.00  0.00     0.134 A 
ATOM     70  F   UNL A   1      38.089  32.295  37.618  1.00  0.00    -0.206 F 
ATOM     71  C   UNL A   1      38.653  34.188  38.883  1.00  0.00     0.040 A 
ATOM     72  C   UNL A   1      40.258  35.762  38.037  1.00  0.00     0.040 A 
ATOM     73  F   UNL A   1      41.245  35.423  35.934  1.00  0.00    -0.206 F 
ATOM     74  C   UNL A   1      39.378  35.367  39.040  1.00  0.00     0.006 A 
ENDBRANCH  46  67
BRANCH  58  75
ATOM     75  C   UNL A   1      43.950  28.534  34.863  1.00  0.00     0.057 A 
ATOM     76  C   UNL A   1      43.818  27.369  35.627  1.00  0.00     0.134 A 
ATOM     77  C   UNL A   1      45.248  29.007  34.620  1.00  0.00     0.134 A 
ATOM     78  F   UNL A   1      42.605  26.864  35.897  1.00  0.00    -0.206 F 
ATOM     79  C   UNL A   1      44.936  26.701  36.130  1.00  0.00     0.040 A 
ATOM     80  C   UNL A   1      46.373  28.328  35.086  1.00  0.00     0.040 A 
ATOM     81  F   UNL A   1      45.444  30.107  33.877  1.00  0.00    -0.206 F 
ATOM     82  C   UNL A   1      46.218  27.172  35.845  1.00  0.00     0.006 A 
ENDBRANCH  58  75
ENDBRANCH  32  33
ENDBRANCH  25  27
ENDBRANCH  24  25
ENDBRANCH   1  24
TORSDOF 13
ENDMDL
