MODEL 1
REMARK VINA RESULT:     -10.0      0.000      0.000
REMARK SMILES [NH3+][C@H](CC(=O)OCCOC(=O)c1ccc(-c2c3nc(c(-c4c(F)cccc4F)c4ccc([nH]4)c(-c4c(F)cccc4F)c4nc(c(-c5c(F)cccc5F)c5ccc2[nH]5)C=C4)C=C3)cc1)c1ccccc1Br
REMARK SMILES IDX 7 1 6 2 4 3 5 4 3 5 2 6 1 7 66 11 67 12 71 13 68 14 70 15
REMARK SMILES IDX 72 16 69 17 8 18 9 19 10 20 11 21 12 22 13 23 65 24 14 25
REMARK SMILES IDX 64 26 15 27 16 28 17 29 58 30 18 31 63 32 57 33 59 34 19 35
REMARK SMILES IDX 62 36 56 37 55 38 20 40 46 41 29 42 45 43 30 44 33 45 44 46
REMARK SMILES IDX 60 47 31 48 32 49 43 51 61 52 34 53 21 54 22 55 27 56 23 57
REMARK SMILES IDX 24 58 26 59 28 60 25 61 47 62 48 63 53 64 49 65 50 66 52 67
REMARK SMILES IDX 54 68 51 69 35 70 36 71 41 72 37 73 38 74 40 75 42 76 39 77
REMARK H PARENT 1 8 1 9 1 10 59 39 33 50
REMARK Flexibility Score: inf
ROOT
ATOM      1  C   UNL A   1      44.307  21.850  25.200  1.00  0.00     0.274 C 
ENDROOT
BRANCH   1   2
ATOM      2  O   UNL A   1      42.952  21.390  25.377  1.00  0.00    -0.462 OA
BRANCH   2   3
ATOM      3  C   UNL A   1      42.790  20.082  25.713  1.00  0.00     0.312 C 
ATOM      4  O   UNL A   1      43.702  19.289  25.905  1.00  0.00    -0.252 OA
BRANCH   3   5
ATOM      5  C   UNL A   1      41.327  19.710  25.801  1.00  0.00     0.192 C 
BRANCH   5   6
ATOM      6  C   UNL A   1      40.545  20.424  26.916  1.00  0.00     0.224 C 
BRANCH   6   7
ATOM      7  N   UNL A   1      41.468  20.836  27.999  1.00  0.00    -0.351 N 
ATOM      8  H   UNL A   1      41.679  20.033  28.590  1.00  0.00     0.345 HD
ATOM      9  H   UNL A   1      41.030  21.565  28.560  1.00  0.00     0.345 HD
ATOM     10  H   UNL A   1      42.332  21.195  27.591  1.00  0.00     0.345 HD
ENDBRANCH   6   7
BRANCH   6  11
ATOM     11  C   UNL A   1      39.644  21.624  26.575  1.00  0.00     0.024 A 
ATOM     12  C   UNL A   1      40.041  22.860  27.161  1.00  0.00     0.011 A 
ATOM     13  C   UNL A   1      38.470  21.661  25.801  1.00  0.00     0.027 A 
ATOM     14  C   UNL A   1      39.376  24.065  26.929  1.00  0.00     0.001 A 
ATOM     15  C   UNL A   1      37.799  22.881  25.574  1.00  0.00     0.016 A 
ATOM     16  Br  UNL A   1      37.604  20.173  24.997  1.00  0.00    -0.050 Br
ATOM     17  C   UNL A   1      38.256  24.077  26.120  1.00  0.00     0.001 A 
ENDBRANCH   6  11
ENDBRANCH   5   6
ENDBRANCH   3   5
ENDBRANCH   2   3
ENDBRANCH   1   2
BRANCH   1  18
ATOM     18  C   UNL A   1      44.367  23.051  24.252  1.00  0.00     0.275 C 
BRANCH  18  19
ATOM     19  O   UNL A   1      43.638  24.173  24.785  1.00  0.00    -0.458 OA
BRANCH  19  20
ATOM     20  C   UNL A   1      44.381  25.234  25.167  1.00  0.00     0.338 C 
ATOM     21  O   UNL A   1      45.389  25.666  24.629  1.00  0.00    -0.246 OA
BRANCH  20  22
ATOM     22  C   UNL A   1      43.739  25.892  26.312  1.00  0.00     0.060 A 
ATOM     23  C   UNL A   1      44.015  27.239  26.564  1.00  0.00     0.016 A 
ATOM     24  C   UNL A   1      42.918  25.161  27.172  1.00  0.00     0.016 A 
ATOM     25  C   UNL A   1      43.461  27.867  27.677  1.00  0.00     0.010 A 
ATOM     26  C   UNL A   1      42.356  25.795  28.283  1.00  0.00     0.010 A 
ATOM     27  C   UNL A   1      42.627  27.150  28.544  1.00  0.00    -0.014 A 
BRANCH  27  28
ATOM     28  C   UNL A   1      42.037  27.809  29.733  1.00  0.00     0.031 A 
ATOM     29  C   UNL A   1      40.792  28.634  29.594  1.00  0.00     0.074 A 
ATOM     30  C   UNL A   1      42.638  27.688  30.930  1.00  0.00     0.049 A 
ATOM     31  N   UNL A   1      40.200  29.395  30.480  1.00  0.00    -0.248 NA
ATOM     32  C   UNL A   1      40.128  28.605  28.282  1.00  0.00     0.031 C 
ATOM     33  C   UNL A   1      43.835  26.890  31.196  1.00  0.00     0.029 A 
ATOM     34  N   UNL A   1      42.332  28.252  32.142  1.00  0.00    -0.354 N 
ATOM     35  C   UNL A   1      39.109  29.955  29.829  1.00  0.00     0.074 A 
ATOM     36  C   UNL A   1      39.127  29.454  28.469  1.00  0.00     0.031 C 
ATOM     37  C   UNL A   1      44.169  27.024  32.490  1.00  0.00     0.029 A 
ATOM     38  C   UNL A   1      43.237  27.949  33.130  1.00  0.00     0.049 A 
ATOM     39  H   UNL A   1      41.541  28.818  32.291  1.00  0.00     0.167 HD
ATOM     40  C   UNL A   1      38.181  30.807  30.321  1.00  0.00     0.037 A 
ATOM     41  C   UNL A   1      43.324  28.392  34.397  1.00  0.00     0.037 A 
ATOM     42  C   UNL A   1      38.158  31.290  31.678  1.00  0.00     0.049 A 
ATOM     43  C   UNL A   1      42.305  29.371  34.909  1.00  0.00     0.074 A 
ATOM     44  C   UNL A   1      37.243  32.140  32.277  1.00  0.00     0.029 A 
ATOM     45  N   UNL A   1      39.096  30.966  32.647  1.00  0.00    -0.354 N 
ATOM     46  N   UNL A   1      41.279  29.896  34.285  1.00  0.00    -0.248 NA
ATOM     47  C   UNL A   1      42.461  29.823  36.299  1.00  0.00     0.031 C 
ATOM     48  C   UNL A   1      37.647  32.355  33.600  1.00  0.00     0.029 A 
ATOM     49  C   UNL A   1      38.792  31.611  33.835  1.00  0.00     0.049 A 
ATOM     50  H   UNL A   1      39.864  30.366  32.510  1.00  0.00     0.167 HD
ATOM     51  C   UNL A   1      40.657  30.725  35.208  1.00  0.00     0.074 A 
ATOM     52  C   UNL A   1      41.414  30.626  36.439  1.00  0.00     0.031 C 
ATOM     53  C   UNL A   1      39.557  31.500  35.050  1.00  0.00     0.037 A 
BRANCH  40  54
ATOM     54  C   UNL A   1      37.125  31.296  29.377  1.00  0.00     0.057 A 
ATOM     55  C   UNL A   1      36.027  30.503  29.020  1.00  0.00     0.134 A 
ATOM     56  C   UNL A   1      37.193  32.588  28.839  1.00  0.00     0.134 A 
ATOM     57  F   UNL A   1      35.910  29.252  29.489  1.00  0.00    -0.206 F 
ATOM     58  C   UNL A   1      35.043  30.971  28.146  1.00  0.00     0.040 A 
ATOM     59  C   UNL A   1      36.205  33.074  27.981  1.00  0.00     0.040 A 
ATOM     60  F   UNL A   1      38.216  33.399  29.144  1.00  0.00    -0.206 F 
ATOM     61  C   UNL A   1      35.129  32.263  27.628  1.00  0.00     0.006 A 
ENDBRANCH  40  54
BRANCH  41  62
ATOM     62  C   UNL A   1      44.434  27.928  35.263  1.00  0.00     0.057 A 
ATOM     63  C   UNL A   1      44.309  26.770  36.037  1.00  0.00     0.134 A 
ATOM     64  C   UNL A   1      45.647  28.623  35.327  1.00  0.00     0.134 A 
ATOM     65  F   UNL A   1      43.162  26.075  36.033  1.00  0.00    -0.206 F 
ATOM     66  C   UNL A   1      45.350  26.322  36.852  1.00  0.00     0.040 A 
ATOM     67  C   UNL A   1      46.704  28.176  36.121  1.00  0.00     0.040 A 
ATOM     68  F   UNL A   1      45.827  29.740  34.606  1.00  0.00    -0.206 F 
ATOM     69  C   UNL A   1      46.555  27.022  36.888  1.00  0.00     0.006 A 
ENDBRANCH  41  62
BRANCH  53  70
ATOM     70  C   UNL A   1      39.094  32.279  36.244  1.00  0.00     0.057 A 
ATOM     71  C   UNL A   1      39.515  33.594  36.473  1.00  0.00     0.134 A 
ATOM     72  C   UNL A   1      38.191  31.717  37.155  1.00  0.00     0.134 A 
ATOM     73  F   UNL A   1      40.389  34.182  35.644  1.00  0.00    -0.206 F 
ATOM     74  C   UNL A   1      39.066  34.318  37.579  1.00  0.00     0.040 A 
ATOM     75  C   UNL A   1      37.720  32.437  38.253  1.00  0.00     0.040 A 
ATOM     76  F   UNL A   1      37.746  30.462  36.987  1.00  0.00    -0.206 F 
ATOM     77  C   UNL A   1      38.162  33.742  38.470  1.00  0.00     0.006 A 
ENDBRANCH  53  70
ENDBRANCH  27  28
ENDBRANCH  20  22
ENDBRANCH  19  20
ENDBRANCH  18  19
ENDBRANCH   1  18
TORSDOF 14
ENDMDL
MODEL 2
REMARK VINA RESULT:      -9.8      5.152     10.537
REMARK SMILES [NH3+][C@H](CC(=O)OCCOC(=O)c1ccc(-c2c3nc(c(-c4c(F)cccc4F)c4ccc([nH]4)c(-c4c(F)cccc4F)c4nc(c(-c5c(F)cccc5F)c5ccc2[nH]5)C=C4)C=C3)cc1)c1ccccc1Br
REMARK SMILES IDX 7 1 6 2 4 3 5 4 3 5 2 6 1 7 66 11 67 12 71 13 68 14 70 15
REMARK SMILES IDX 72 16 69 17 8 18 9 19 10 20 11 21 12 22 13 23 65 24 14 25
REMARK SMILES IDX 64 26 15 27 16 28 17 29 58 30 18 31 63 32 57 33 59 34 19 35
REMARK SMILES IDX 62 36 56 37 55 38 20 40 46 41 29 42 45 43 30 44 33 45 44 46
REMARK SMILES IDX 60 47 31 48 32 49 43 51 61 52 34 53 21 54 22 55 27 56 23 57
REMARK SMILES IDX 24 58 26 59 28 60 25 61 47 62 48 63 53 64 49 65 50 66 52 67
REMARK SMILES IDX 54 68 51 69 35 70 36 71 41 72 37 73 38 74 40 75 42 76 39 77
REMARK H PARENT 1 8 1 9 1 10 59 39 33 50
REMARK Flexibility Score: inf
ROOT
ATOM      1  C   UNL A   1      33.637  36.342  31.059  1.00  0.00     0.274 C 
ENDROOT
BRANCH   1   2
ATOM      2  O   UNL A   1      33.133  35.560  32.160  1.00  0.00    -0.462 OA
BRANCH   2   3
ATOM      3  C   UNL A   1      33.929  35.466  33.258  1.00  0.00     0.312 C 
ATOM      4  O   UNL A   1      34.284  36.412  33.949  1.00  0.00    -0.252 OA
BRANCH   3   5
ATOM      5  C   UNL A   1      34.351  34.038  33.517  1.00  0.00     0.192 C 
BRANCH   5   6
ATOM      6  C   UNL A   1      35.829  33.738  33.216  1.00  0.00     0.224 C 
BRANCH   6   7
ATOM      7  N   UNL A   1      36.493  34.947  32.678  1.00  0.00    -0.351 N 
ATOM      8  H   UNL A   1      37.497  34.888  32.849  1.00  0.00     0.345 HD
ATOM      9  H   UNL A   1      36.118  35.775  33.140  1.00  0.00     0.345 HD
ATOM     10  H   UNL A   1      36.322  35.012  31.674  1.00  0.00     0.345 HD
ENDBRANCH   6   7
BRANCH   6  11
ATOM     11  C   UNL A   1      36.731  33.145  34.313  1.00  0.00     0.024 A 
ATOM     12  C   UNL A   1      36.962  34.001  35.428  1.00  0.00     0.011 A 
ATOM     13  C   UNL A   1      37.384  31.900  34.349  1.00  0.00     0.027 A 
ATOM     14  C   UNL A   1      37.714  33.621  36.541  1.00  0.00     0.001 A 
ATOM     15  C   UNL A   1      38.147  31.523  35.475  1.00  0.00     0.016 A 
ATOM     16  Br  UNL A   1      37.392  30.592  32.971  1.00  0.00    -0.050 Br
ATOM     17  C   UNL A   1      38.299  32.369  36.569  1.00  0.00     0.001 A 
ENDBRANCH   6  11
ENDBRANCH   5   6
ENDBRANCH   3   5
ENDBRANCH   2   3
ENDBRANCH   1   2
BRANCH   1  18
ATOM     18  C   UNL A   1      32.870  36.044  29.768  1.00  0.00     0.275 C 
BRANCH  18  19
ATOM     19  O   UNL A   1      32.559  34.641  29.657  1.00  0.00    -0.458 OA
BRANCH  19  20
ATOM     20  C   UNL A   1      33.022  34.017  28.553  1.00  0.00     0.338 C 
ATOM     21  O   UNL A   1      32.478  33.939  27.462  1.00  0.00    -0.246 OA
BRANCH  20  22
ATOM     22  C   UNL A   1      34.371  33.499  28.814  1.00  0.00     0.060 A 
ATOM     23  C   UNL A   1      34.571  32.646  29.903  1.00  0.00     0.016 A 
ATOM     24  C   UNL A   1      35.446  33.909  28.023  1.00  0.00     0.016 A 
ATOM     25  C   UNL A   1      35.853  32.188  30.202  1.00  0.00     0.010 A 
ATOM     26  C   UNL A   1      36.728  33.441  28.319  1.00  0.00     0.010 A 
ATOM     27  C   UNL A   1      36.940  32.582  29.411  1.00  0.00    -0.014 A 
BRANCH  27  28
ATOM     28  C   UNL A   1      38.307  32.102  29.724  1.00  0.00     0.031 A 
ATOM     29  C   UNL A   1      38.765  30.762  29.231  1.00  0.00     0.074 A 
ATOM     30  C   UNL A   1      39.123  32.861  30.478  1.00  0.00     0.049 A 
ATOM     31  N   UNL A   1      39.866  30.111  29.508  1.00  0.00    -0.248 NA
ATOM     32  C   UNL A   1      37.861  30.059  28.308  1.00  0.00     0.031 C 
ATOM     33  C   UNL A   1      38.802  34.193  30.991  1.00  0.00     0.029 A 
ATOM     34  N   UNL A   1      40.385  32.610  30.956  1.00  0.00    -0.354 N 
ATOM     35  C   UNL A   1      39.779  28.911  28.815  1.00  0.00     0.074 A 
ATOM     36  C   UNL A   1      38.512  28.920  28.112  1.00  0.00     0.031 C 
ATOM     37  C   UNL A   1      39.837  34.639  31.723  1.00  0.00     0.029 A 
ATOM     38  C   UNL A   1      40.871  33.608  31.764  1.00  0.00     0.049 A 
ATOM     39  H   UNL A   1      40.892  31.795  30.740  1.00  0.00     0.167 HD
ATOM     40  C   UNL A   1      40.674  27.896  28.770  1.00  0.00     0.037 A 
ATOM     41  C   UNL A   1      42.006  33.670  32.483  1.00  0.00     0.037 A 
ATOM     42  C   UNL A   1      41.939  27.897  29.459  1.00  0.00     0.049 A 
ATOM     43  C   UNL A   1      42.966  32.514  32.451  1.00  0.00     0.074 A 
ATOM     44  C   UNL A   1      42.925  26.924  29.456  1.00  0.00     0.029 A 
ATOM     45  N   UNL A   1      42.393  28.923  30.274  1.00  0.00    -0.354 N 
ATOM     46  N   UNL A   1      42.873  31.383  31.795  1.00  0.00    -0.248 NA
ATOM     47  C   UNL A   1      44.183  32.640  33.265  1.00  0.00     0.031 C 
ATOM     48  C   UNL A   1      43.960  27.348  30.296  1.00  0.00     0.029 A 
ATOM     49  C   UNL A   1      43.636  28.600  30.793  1.00  0.00     0.049 A 
ATOM     50  H   UNL A   1      41.904  29.758  30.456  1.00  0.00     0.167 HD
ATOM     51  C   UNL A   1      44.025  30.671  32.100  1.00  0.00     0.074 A 
ATOM     52  C   UNL A   1      44.807  31.501  32.993  1.00  0.00     0.031 C 
ATOM     53  C   UNL A   1      44.401  29.439  31.679  1.00  0.00     0.037 A 
BRANCH  40  54
ATOM     54  C   UNL A   1      40.302  26.684  27.970  1.00  0.00     0.057 A 
ATOM     55  C   UNL A   1      40.812  26.462  26.684  1.00  0.00     0.134 A 
ATOM     56  C   UNL A   1      39.446  25.714  28.505  1.00  0.00     0.134 A 
ATOM     57  F   UNL A   1      41.625  27.361  26.111  1.00  0.00    -0.206 F 
ATOM     58  C   UNL A   1      40.466  25.325  25.951  1.00  0.00     0.040 A 
ATOM     59  C   UNL A   1      39.110  24.563  27.790  1.00  0.00     0.040 A 
ATOM     60  F   UNL A   1      38.928  25.865  29.733  1.00  0.00    -0.206 F 
ATOM     61  C   UNL A   1      39.617  24.369  26.506  1.00  0.00     0.006 A 
ENDBRANCH  40  54
BRANCH  41  62
ATOM     62  C   UNL A   1      42.285  34.866  33.313  1.00  0.00     0.057 A 
ATOM     63  C   UNL A   1      41.820  34.956  34.629  1.00  0.00     0.134 A 
ATOM     64  C   UNL A   1      43.032  35.940  32.815  1.00  0.00     0.134 A 
ATOM     65  F   UNL A   1      41.081  33.968  35.153  1.00  0.00    -0.206 F 
ATOM     66  C   UNL A   1      42.082  36.075  35.420  1.00  0.00     0.040 A 
ATOM     67  C   UNL A   1      43.320  37.057  33.601  1.00  0.00     0.040 A 
ATOM     68  F   UNL A   1      43.506  35.911  31.560  1.00  0.00    -0.206 F 
ATOM     69  C   UNL A   1      42.841  37.126  34.907  1.00  0.00     0.006 A 
ENDBRANCH  41  62
BRANCH  53  70
ATOM     70  C   UNL A   1      45.726  28.929  32.159  1.00  0.00     0.057 A 
ATOM     71  C   UNL A   1      46.912  29.193  31.464  1.00  0.00     0.134 A 
ATOM     72  C   UNL A   1      45.818  28.195  33.348  1.00  0.00     0.134 A 
ATOM     73  F   UNL A   1      46.887  29.879  30.312  1.00  0.00    -0.206 F 
ATOM     74  C   UNL A   1      48.144  28.728  31.927  1.00  0.00     0.040 A 
ATOM     75  C   UNL A   1      47.046  27.742  33.831  1.00  0.00     0.040 A 
ATOM     76  F   UNL A   1      44.717  27.915  34.063  1.00  0.00    -0.206 F 
ATOM     77  C   UNL A   1      48.214  28.005  33.117  1.00  0.00     0.006 A 
ENDBRANCH  53  70
ENDBRANCH  27  28
ENDBRANCH  20  22
ENDBRANCH  19  20
ENDBRANCH  18  19
ENDBRANCH   1  18
TORSDOF 14
ENDMDL
MODEL 3
REMARK VINA RESULT:      -9.8      4.217      7.890
REMARK SMILES [NH3+][C@H](CC(=O)OCCOC(=O)c1ccc(-c2c3nc(c(-c4c(F)cccc4F)c4ccc([nH]4)c(-c4c(F)cccc4F)c4nc(c(-c5c(F)cccc5F)c5ccc2[nH]5)C=C4)C=C3)cc1)c1ccccc1Br
REMARK SMILES IDX 7 1 6 2 4 3 5 4 3 5 2 6 1 7 66 11 67 12 71 13 68 14 70 15
REMARK SMILES IDX 72 16 69 17 8 18 9 19 10 20 11 21 12 22 13 23 65 24 14 25
REMARK SMILES IDX 64 26 15 27 16 28 17 29 58 30 18 31 63 32 57 33 59 34 19 35
REMARK SMILES IDX 62 36 56 37 55 38 20 40 46 41 29 42 45 43 30 44 33 45 44 46
REMARK SMILES IDX 60 47 31 48 32 49 43 51 61 52 34 53 21 54 22 55 27 56 23 57
REMARK SMILES IDX 24 58 26 59 28 60 25 61 47 62 48 63 53 64 49 65 50 66 52 67
REMARK SMILES IDX 54 68 51 69 35 70 36 71 41 72 37 73 38 74 40 75 42 76 39 77
REMARK H PARENT 1 8 1 9 1 10 59 39 33 50
REMARK Flexibility Score: inf
ROOT
ATOM      1  C   UNL A   1      41.964  19.321  26.433  1.00  0.00     0.274 C 
ENDROOT
BRANCH   1   2
ATOM      2  O   UNL A   1      42.517  19.289  25.102  1.00  0.00    -0.462 OA
BRANCH   2   3
ATOM      3  C   UNL A   1      43.873  19.298  25.004  1.00  0.00     0.312 C 
ATOM      4  O   UNL A   1      44.540  18.450  24.426  1.00  0.00    -0.252 OA
BRANCH   3   5
ATOM      5  C   UNL A   1      44.473  20.483  25.726  1.00  0.00     0.192 C 
BRANCH   5   6
ATOM      6  C   UNL A   1      44.388  21.815  24.962  1.00  0.00     0.224 C 
BRANCH   6   7
ATOM      7  N   UNL A   1      43.007  22.346  25.020  1.00  0.00    -0.351 N 
ATOM      8  H   UNL A   1      42.836  22.748  25.941  1.00  0.00     0.345 HD
ATOM      9  H   UNL A   1      42.344  21.589  24.851  1.00  0.00     0.345 HD
ATOM     10  H   UNL A   1      42.889  23.066  24.307  1.00  0.00     0.345 HD
ENDBRANCH   6   7
BRANCH   6  11
ATOM     11  C   UNL A   1      45.355  22.961  25.306  1.00  0.00     0.024 A 
ATOM     12  C   UNL A   1      46.244  23.334  24.256  1.00  0.00     0.011 A 
ATOM     13  C   UNL A   1      45.508  23.663  26.516  1.00  0.00     0.027 A 
ATOM     14  C   UNL A   1      47.159  24.382  24.365  1.00  0.00     0.001 A 
ATOM     15  C   UNL A   1      46.438  24.718  26.621  1.00  0.00     0.016 A 
ATOM     16  Br  UNL A   1      44.578  23.323  28.138  1.00  0.00    -0.050 Br
ATOM     17  C   UNL A   1      47.247  25.086  25.550  1.00  0.00     0.001 A 
ENDBRANCH   6  11
ENDBRANCH   5   6
ENDBRANCH   3   5
ENDBRANCH   2   3
ENDBRANCH   1   2
BRANCH   1  18
ATOM     18  C   UNL A   1      40.568  19.951  26.439  1.00  0.00     0.275 C 
BRANCH  18  19
ATOM     19  O   UNL A   1      40.597  21.278  27.001  1.00  0.00    -0.458 OA
BRANCH  19  20
ATOM     20  C   UNL A   1      39.663  22.137  26.539  1.00  0.00     0.338 C 
ATOM     21  O   UNL A   1      38.640  21.863  25.930  1.00  0.00    -0.246 OA
BRANCH  20  22
ATOM     22  C   UNL A   1      40.002  23.501  26.964  1.00  0.00     0.060 A 
ATOM     23  C   UNL A   1      39.664  24.574  26.135  1.00  0.00     0.016 A 
ATOM     24  C   UNL A   1      40.711  23.712  28.148  1.00  0.00     0.016 A 
ATOM     25  C   UNL A   1      40.026  25.871  26.492  1.00  0.00     0.010 A 
ATOM     26  C   UNL A   1      41.065  25.014  28.509  1.00  0.00     0.010 A 
ATOM     27  C   UNL A   1      40.728  26.100  27.682  1.00  0.00    -0.014 A 
BRANCH  27  28
ATOM     28  C   UNL A   1      41.121  27.476  28.068  1.00  0.00     0.031 A 
ATOM     29  C   UNL A   1      42.564  27.885  28.030  1.00  0.00     0.074 A 
ATOM     30  C   UNL A   1      40.182  28.346  28.480  1.00  0.00     0.049 A 
ATOM     31  N   UNL A   1      43.122  28.991  28.453  1.00  0.00    -0.248 NA
ATOM     32  C   UNL A   1      43.504  26.918  27.443  1.00  0.00     0.031 C 
ATOM     33  C   UNL A   1      38.745  28.075  28.533  1.00  0.00     0.029 A 
ATOM     34  N   UNL A   1      40.301  29.630  28.950  1.00  0.00    -0.354 N 
ATOM     35  C   UNL A   1      44.481  28.845  28.208  1.00  0.00     0.074 A 
ATOM     36  C   UNL A   1      44.664  27.539  27.608  1.00  0.00     0.031 C 
ATOM     37  C   UNL A   1      38.115  29.158  29.020  1.00  0.00     0.029 A 
ATOM     38  C   UNL A   1      39.107  30.177  29.352  1.00  0.00     0.049 A 
ATOM     39  H   UNL A   1      41.158  30.112  28.994  1.00  0.00     0.167 HD
ATOM     40  C   UNL A   1      45.481  29.721  28.461  1.00  0.00     0.037 A 
ATOM     41  C   UNL A   1      38.846  31.354  29.949  1.00  0.00     0.037 A 
ATOM     42  C   UNL A   1      45.292  31.025  29.043  1.00  0.00     0.049 A 
ATOM     43  C   UNL A   1      39.978  32.293  30.258  1.00  0.00     0.074 A 
ATOM     44  C   UNL A   1      46.243  31.995  29.317  1.00  0.00     0.029 A 
ATOM     45  N   UNL A   1      44.069  31.541  29.443  1.00  0.00    -0.354 N 
ATOM     46  N   UNL A   1      41.259  32.146  30.025  1.00  0.00    -0.248 NA
ATOM     47  C   UNL A   1      39.629  33.558  30.919  1.00  0.00     0.031 C 
ATOM     48  C   UNL A   1      45.597  33.084  29.913  1.00  0.00     0.029 A 
ATOM     49  C   UNL A   1      44.241  32.808  29.977  1.00  0.00     0.049 A 
ATOM     50  H   UNL A   1      43.205  31.076  29.359  1.00  0.00     0.167 HD
ATOM     51  C   UNL A   1      41.867  33.303  30.492  1.00  0.00     0.074 A 
ATOM     52  C   UNL A   1      40.812  34.148  31.014  1.00  0.00     0.031 C 
ATOM     53  C   UNL A   1      43.180  33.635  30.490  1.00  0.00     0.037 A 
BRANCH  40  54
ATOM     54  C   UNL A   1      46.877  29.286  28.133  1.00  0.00     0.057 A 
ATOM     55  C   UNL A   1      47.721  28.719  29.097  1.00  0.00     0.134 A 
ATOM     56  C   UNL A   1      47.374  29.410  26.829  1.00  0.00     0.134 A 
ATOM     57  F   UNL A   1      47.310  28.586  30.366  1.00  0.00    -0.206 F 
ATOM     58  C   UNL A   1      49.017  28.308  28.778  1.00  0.00     0.040 A 
ATOM     59  C   UNL A   1      48.660  28.983  26.495  1.00  0.00     0.040 A 
ATOM     60  F   UNL A   1      46.615  29.941  25.859  1.00  0.00    -0.206 F 
ATOM     61  C   UNL A   1      49.488  28.435  27.472  1.00  0.00     0.006 A 
ENDBRANCH  40  54
BRANCH  41  62
ATOM     62  C   UNL A   1      37.452  31.699  30.315  1.00  0.00     0.057 A 
ATOM     63  C   UNL A   1      36.633  32.420  29.439  1.00  0.00     0.134 A 
ATOM     64  C   UNL A   1      36.902  31.306  31.541  1.00  0.00     0.134 A 
ATOM     65  F   UNL A   1      37.112  32.842  28.260  1.00  0.00    -0.206 F 
ATOM     66  C   UNL A   1      35.318  32.745  29.772  1.00  0.00     0.040 A 
ATOM     67  C   UNL A   1      35.582  31.605  31.879  1.00  0.00     0.040 A 
ATOM     68  F   UNL A   1      37.638  30.611  32.422  1.00  0.00    -0.206 F 
ATOM     69  C   UNL A   1      34.787  32.330  30.993  1.00  0.00     0.006 A 
ENDBRANCH  41  62
BRANCH  53  70
ATOM     70  C   UNL A   1      43.544  34.979  31.045  1.00  0.00     0.057 A 
ATOM     71  C   UNL A   1      43.873  35.153  32.395  1.00  0.00     0.134 A 
ATOM     72  C   UNL A   1      43.598  36.103  30.213  1.00  0.00     0.134 A 
ATOM     73  F   UNL A   1      43.827  34.117  33.245  1.00  0.00    -0.206 F 
ATOM     74  C   UNL A   1      44.227  36.405  32.901  1.00  0.00     0.040 A 
ATOM     75  C   UNL A   1      43.970  37.356  30.703  1.00  0.00     0.040 A 
ATOM     76  F   UNL A   1      43.299  36.000  28.908  1.00  0.00    -0.206 F 
ATOM     77  C   UNL A   1      44.282  37.510  32.052  1.00  0.00     0.006 A 
ENDBRANCH  53  70
ENDBRANCH  27  28
ENDBRANCH  20  22
ENDBRANCH  19  20
ENDBRANCH  18  19
ENDBRANCH   1  18
TORSDOF 14
ENDMDL
